ligand
 OpenBabel02271912143D
libRbt.so/2013.1/901 2013/11/27
 13 14  0  0  0  0  0  0  0  0999 V2000
   -4.9223  -34.5879  -45.1955 N   0  0  0  0  0  0  0  0  0  0  0  0
   -5.7876  -35.0026  -44.2187 C   0  0  0  0  0  0  0  0  0  0  0  0
   -6.9768  -35.5705  -44.5869 N   0  0  0  0  0  0  0  0  0  0  0  0
   -5.4925  -34.8646  -42.9258 N   0  0  0  0  0  0  0  0  0  0  0  0
   -4.3184  -34.3032  -42.5247 C   0  0  0  0  0  0  0  0  0  0  0  0
   -3.3964  -33.8571  -43.4968 C   0  0  0  0  0  0  0  0  0  0  0  0
   -3.7292  -34.0167  -44.8693 C   0  0  0  0  0  0  0  0  0  0  0  0
   -2.9704  -33.6537  -45.7337 O   0  0  0  0  0  0  0  0  0  0  0  0
   -2.2574  -33.3080  -42.7680 C   0  0  0  0  0  0  0  0  0  0  0  0
   -2.5317  -33.4483  -41.4589 C   0  0  0  0  0  0  0  0  0  0  0  0
   -3.7660  -34.0443  -41.3069 N   0  0  0  0  0  0  0  0  0  0  0  0
   -1.0188  -32.6951  -43.3696 C   0  0  0  0  0  0  0  0  0  0  0  0
   -0.8047  -31.3608  -42.7735 N   0  0  0  0  0  0  0  0  0  0  0  0
  1  2  1  0  0  0  0
  1  7  1  0  0  0  0
  2  3  1  0  0  0  0
  2  4  2  0  0  0  0
  4  5  1  0  0  0  0
  5  6  2  0  0  0  0
  5 11  1  0  0  0  0
  6  7  1  0  0  0  0
  6  9  1  0  0  0  0
  7  8  2  0  0  0  0
  9 10  2  0  0  0  0
  9 12  1  0  0  0  0
 10 11  1  0  0  0  0
 12 13  1  0  0  0  0
M  END
>  <CHROM.1>
127.34041347,-3.68291508,-33.89183586,-43.52302823,-2.83966704,0.53065356
1.57272296

>  <Name>
ligand

>  <RI>
0

>  <Rbt.Current_Directory>
/home/itssahil/PROJECTS/Mol_Feturizer/Test_systems_manuscript/rnas/3fu2

>  <Rbt.Executable>
rbdock ($Id: //depot/dev/client3/rdock/2013.1/src/exe/rbdock.cxx#4 $)

>  <Rbt.Library>
libRbt.so (2013.1, Build901 2013/11/27)

>  <Rbt.Parameter_File>
/export/apps/rDock/src/rDock_2013.1_src/data/scripts/dock_solv.prm

>  <Rbt.Receptor>
prm/blind_docking_80.prm

>  <SCORE>
-15.0115

>  <SCORE.INTER>
-14.6811

>  <SCORE.INTER.CONST>
1

>  <SCORE.INTER.POLAR>
0

>  <SCORE.INTER.ROT>
1

>  <SCORE.INTER.SOLV>
22.5934

>  <SCORE.INTER.VDW>
-21.5852

>  <SCORE.INTER.norm>
-1.12931

>  <SCORE.INTRA>
-0.330493

>  <SCORE.INTRA.DIHEDRAL>
0.0209968

>  <SCORE.INTRA.DIHEDRAL.0>
1.66609

>  <SCORE.INTRA.POLAR>
0

>  <SCORE.INTRA.POLAR.0>
0

>  <SCORE.INTRA.REPUL>
0

>  <SCORE.INTRA.REPUL.0>
0

>  <SCORE.INTRA.SOLV>
-0.991142

>  <SCORE.INTRA.SOLV.lig_0>
-45.868

>  <SCORE.INTRA.VDW>
0.15458

>  <SCORE.INTRA.VDW.0>
-0.397919

>  <SCORE.INTRA.norm>
-0.0254225

>  <SCORE.RESTR>
0

>  <SCORE.RESTR.CAVITY>
0

>  <SCORE.RESTR.norm>
0

>  <SCORE.SYSTEM>
0

>  <SCORE.SYSTEM.CONST>
0

>  <SCORE.SYSTEM.DIHEDRAL>
0

>  <SCORE.SYSTEM.SOLV>
0

>  <SCORE.SYSTEM.norm>
0

>  <SCORE.heavy>
13

>  <SCORE.norm>
-1.15473

>  <RMSD>
1.023

$$$$
ligand
 OpenBabel02271912143D
libRbt.so/2013.1/901 2013/11/27
 13 14  0  0  0  0  0  0  0  0999 V2000
   -4.9274  -34.5967  -45.2293 N   0  0  0  0  0  0  0  0  0  0  0  0
   -5.8110  -35.0112  -44.2690 C   0  0  0  0  0  0  0  0  0  0  0  0
   -6.9926  -35.5801  -44.6594 N   0  0  0  0  0  0  0  0  0  0  0  0
   -5.5407  -34.8721  -42.9708 N   0  0  0  0  0  0  0  0  0  0  0  0
   -4.3748  -34.3097  -42.5477 C   0  0  0  0  0  0  0  0  0  0  0  0
   -3.4346  -33.8638  -43.5024 C   0  0  0  0  0  0  0  0  0  0  0  0
   -3.7411  -34.0246  -44.8808 C   0  0  0  0  0  0  0  0  0  0  0  0
   -2.9662  -33.6617  -45.7309 O   0  0  0  0  0  0  0  0  0  0  0  0
   -2.3101  -33.3136  -42.7523 C   0  0  0  0  0  0  0  0  0  0  0  0
   -2.6093  -33.4531  -41.4486 C   0  0  0  0  0  0  0  0  0  0  0  0
   -3.8459  -34.0497  -41.3198 N   0  0  0  0  0  0  0  0  0  0  0  0
   -1.0606  -32.7004  -43.3307 C   0  0  0  0  0  0  0  0  0  0  0  0
   -0.8126  -31.4023  -42.6710 N   0  0  0  0  0  0  0  0  0  0  0  0
  1  2  1  0  0  0  0
  1  7  1  0  0  0  0
  2  3  1  0  0  0  0
  2  4  2  0  0  0  0
  4  5  1  0  0  0  0
  5  6  2  0  0  0  0
  5 11  1  0  0  0  0
  6  7  1  0  0  0  0
  6  9  1  0  0  0  0
  7  8  2  0  0  0  0
  9 10  2  0  0  0  0
  9 12  1  0  0  0  0
 10 11  1  0  0  0  0
 12 13  1  0  0  0  0
M  END
>  <CHROM.1>
130.80605901,-3.71686469,-33.90173722,-43.52912032,-2.81151538,0.52690080
1.55863256

>  <Name>
ligand

>  <RI>
0

>  <Rbt.Current_Directory>
/home/itssahil/PROJECTS/Mol_Feturizer/Test_systems_manuscript/rnas/3fu2

>  <Rbt.Executable>
rbdock ($Id: //depot/dev/client3/rdock/2013.1/src/exe/rbdock.cxx#4 $)

>  <Rbt.Library>
libRbt.so (2013.1, Build901 2013/11/27)

>  <Rbt.Parameter_File>
/export/apps/rDock/src/rDock_2013.1_src/data/scripts/dock_solv.prm

>  <Rbt.Receptor>
prm/pocket_docking_3.prm

>  <SCORE>
-15.1074

>  <SCORE.INTER>
-14.7927

>  <SCORE.INTER.CONST>
1

>  <SCORE.INTER.POLAR>
0

>  <SCORE.INTER.ROT>
1

>  <SCORE.INTER.SOLV>
22.6445

>  <SCORE.INTER.VDW>
-21.6766

>  <SCORE.INTER.norm>
-1.1379

>  <SCORE.INTRA>
-0.314734

>  <SCORE.INTRA.DIHEDRAL>
0.0239453

>  <SCORE.INTRA.DIHEDRAL.0>
1.66609

>  <SCORE.INTRA.POLAR>
0

>  <SCORE.INTRA.POLAR.0>
0

>  <SCORE.INTRA.REPUL>
0

>  <SCORE.INTRA.REPUL.0>
0

>  <SCORE.INTRA.SOLV>
-0.990104

>  <SCORE.INTRA.SOLV.lig_0>
-45.868

>  <SCORE.INTRA.VDW>
0.168345

>  <SCORE.INTRA.VDW.0>
-0.397919

>  <SCORE.INTRA.norm>
-0.0242103

>  <SCORE.RESTR>
0

>  <SCORE.RESTR.CAVITY>
0

>  <SCORE.RESTR.norm>
0

>  <SCORE.SYSTEM>
0

>  <SCORE.SYSTEM.CONST>
0

>  <SCORE.SYSTEM.DIHEDRAL>
0

>  <SCORE.SYSTEM.SOLV>
0

>  <SCORE.SYSTEM.norm>
0

>  <SCORE.heavy>
13

>  <SCORE.norm>
-1.16211

>  <RMSD>
1.071

$$$$
ligand
 OpenBabel02271912143D
libRbt.so/2013.1/901 2013/11/27
 13 14  0  0  0  0  0  0  0  0999 V2000
   -4.9326  -34.5918  -45.2291 N   0  0  0  0  0  0  0  0  0  0  0  0
   -5.8135  -35.0093  -44.2676 C   0  0  0  0  0  0  0  0  0  0  0  0
   -6.9958  -35.5777  -44.6564 N   0  0  0  0  0  0  0  0  0  0  0  0
   -5.5399  -34.8734  -42.9697 N   0  0  0  0  0  0  0  0  0  0  0  0
   -4.3733  -34.3115  -42.5481 C   0  0  0  0  0  0  0  0  0  0  0  0
   -3.4358  -33.8627  -43.5041 C   0  0  0  0  0  0  0  0  0  0  0  0
   -3.7457  -34.0201  -44.8821 C   0  0  0  0  0  0  0  0  0  0  0  0
   -2.9731  -33.6546  -45.7332 O   0  0  0  0  0  0  0  0  0  0  0  0
   -2.3096  -33.3138  -42.7554 C   0  0  0  0  0  0  0  0  0  0  0  0
   -2.6054  -33.4568  -41.4513 C   0  0  0  0  0  0  0  0  0  0  0  0
   -3.8414  -34.0544  -41.3209 N   0  0  0  0  0  0  0  0  0  0  0  0
   -1.0619  -32.6984  -43.3354 C   0  0  0  0  0  0  0  0  0  0  0  0
   -0.7571  -31.4511  -42.6054 N   0  0  0  0  0  0  0  0  0  0  0  0
  1  2  1  0  0  0  0
  1  7  1  0  0  0  0
  2  3  1  0  0  0  0
  2  4  2  0  0  0  0
  4  5  1  0  0  0  0
  5  6  2  0  0  0  0
  5 11  1  0  0  0  0
  6  7  1  0  0  0  0
  6  9  1  0  0  0  0
  7  8  2  0  0  0  0
  9 10  2  0  0  0  0
  9 12  1  0  0  0  0
 10 11  1  0  0  0  0
 12 13  1  0  0  0  0
M  END
>  <CHROM.1>
134.92866818,-3.71349309,-33.90464726,-43.52465782,-2.80789323,0.52209747
1.56062248

>  <Name>
ligand

>  <RI>
0

>  <Rbt.Current_Directory>
/home/itssahil/PROJECTS/Mol_Feturizer/Test_systems_manuscript/rnas/3fu2

>  <Rbt.Executable>
rbdock ($Id: //depot/dev/client3/rdock/2013.1/src/exe/rbdock.cxx#4 $)

>  <Rbt.Library>
libRbt.so (2013.1, Build901 2013/11/27)

>  <Rbt.Parameter_File>
/export/apps/rDock/src/rDock_2013.1_src/data/scripts/dock_solv.prm

>  <Rbt.Receptor>
prm/pocket_docking_7.prm

>  <SCORE>
-15.1014

>  <SCORE.INTER>
-14.8064

>  <SCORE.INTER.CONST>
1

>  <SCORE.INTER.POLAR>
0

>  <SCORE.INTER.ROT>
1

>  <SCORE.INTER.SOLV>
22.6043

>  <SCORE.INTER.VDW>
-21.6723

>  <SCORE.INTER.norm>
-1.13895

>  <SCORE.INTRA>
-0.295074

>  <SCORE.INTRA.DIHEDRAL>
0.0270163

>  <SCORE.INTRA.DIHEDRAL.0>
1.66609

>  <SCORE.INTRA.POLAR>
0

>  <SCORE.INTRA.POLAR.0>
0

>  <SCORE.INTRA.REPUL>
0

>  <SCORE.INTRA.REPUL.0>
0

>  <SCORE.INTRA.SOLV>
-0.988771

>  <SCORE.INTRA.SOLV.lig_0>
-45.868

>  <SCORE.INTRA.VDW>
0.185804

>  <SCORE.INTRA.VDW.0>
-0.397919

>  <SCORE.INTRA.norm>
-0.022698

>  <SCORE.RESTR>
0

>  <SCORE.RESTR.CAVITY>
0

>  <SCORE.RESTR.norm>
0

>  <SCORE.SYSTEM>
0

>  <SCORE.SYSTEM.CONST>
0

>  <SCORE.SYSTEM.DIHEDRAL>
0

>  <SCORE.SYSTEM.SOLV>
0

>  <SCORE.SYSTEM.norm>
0

>  <SCORE.heavy>
13

>  <SCORE.norm>
-1.16165

>  <RMSD>
1.076

$$$$
ligand
 OpenBabel02271912143D
libRbt.so/2013.1/901 2013/11/27
 13 14  0  0  0  0  0  0  0  0999 V2000
   -4.9333  -34.5874  -45.2249 N   0  0  0  0  0  0  0  0  0  0  0  0
   -5.8062  -35.0034  -44.2554 C   0  0  0  0  0  0  0  0  0  0  0  0
   -6.9859  -35.5845  -44.6335 N   0  0  0  0  0  0  0  0  0  0  0  0
   -5.5274  -34.8542  -42.9601 N   0  0  0  0  0  0  0  0  0  0  0  0
   -4.3631  -34.2795  -42.5492 C   0  0  0  0  0  0  0  0  0  0  0  0
   -3.4339  -33.8316  -43.5136 C   0  0  0  0  0  0  0  0  0  0  0  0
   -3.7493  -34.0033  -44.8887 C   0  0  0  0  0  0  0  0  0  0  0  0
   -2.9839  -33.6391  -45.7468 O   0  0  0  0  0  0  0  0  0  0  0  0
   -2.3085  -33.2674  -42.7754 C   0  0  0  0  0  0  0  0  0  0  0  0
   -2.5967  -33.4015  -41.4686 C   0  0  0  0  0  0  0  0  0  0  0  0
   -3.8273  -34.0076  -41.3269 N   0  0  0  0  0  0  0  0  0  0  0  0
   -1.0685  -32.6473  -43.3667 C   0  0  0  0  0  0  0  0  0  0  0  0
   -0.4221  -31.7979  -42.3458 N   0  0  0  0  0  0  0  0  0  0  0  0
  1  2  1  0  0  0  0
  1  7  1  0  0  0  0
  2  3  1  0  0  0  0
  2  4  2  0  0  0  0
  4  5  1  0  0  0  0
  5  6  2  0  0  0  0
  5 11  1  0  0  0  0
  6  7  1  0  0  0  0
  6  9  1  0  0  0  0
  7  8  2  0  0  0  0
  9 10  2  0  0  0  0
  9 12  1  0  0  0  0
 10 11  1  0  0  0  0
 12 13  1  0  0  0  0
M  END
>  <CHROM.1>
160.37200772,-3.68308888,-33.90901137,-43.50779392,-2.78821896,0.49162731
1.55324766

>  <Name>
ligand

>  <RI>
0

>  <Rbt.Current_Directory>
/home/itssahil/PROJECTS/Mol_Feturizer/Test_systems_manuscript/rnas/3fu2

>  <Rbt.Executable>
rbdock ($Id: //depot/dev/client3/rdock/2013.1/src/exe/rbdock.cxx#4 $)

>  <Rbt.Library>
libRbt.so (2013.1, Build901 2013/11/27)

>  <Rbt.Parameter_File>
/export/apps/rDock/src/rDock_2013.1_src/data/scripts/dock_solv.prm

>  <Rbt.Receptor>
prm/pocket_docking_7.prm

>  <SCORE>
-15.1046

>  <SCORE.INTER>
-14.9489

>  <SCORE.INTER.CONST>
1

>  <SCORE.INTER.POLAR>
0

>  <SCORE.INTER.ROT>
1

>  <SCORE.INTER.SOLV>
21.9717

>  <SCORE.INTER.VDW>
-21.5565

>  <SCORE.INTER.norm>
-1.14991

>  <SCORE.INTRA>
-0.155721

>  <SCORE.INTRA.DIHEDRAL>
0.0295598

>  <SCORE.INTRA.DIHEDRAL.0>
1.66609

>  <SCORE.INTRA.POLAR>
0

>  <SCORE.INTRA.POLAR.0>
0

>  <SCORE.INTRA.REPUL>
0

>  <SCORE.INTRA.REPUL.0>
0

>  <SCORE.INTRA.SOLV>
-0.980845

>  <SCORE.INTRA.SOLV.lig_0>
-45.868

>  <SCORE.INTRA.VDW>
0.319921

>  <SCORE.INTRA.VDW.0>
-0.397919

>  <SCORE.INTRA.norm>
-0.0119786

>  <SCORE.RESTR>
0

>  <SCORE.RESTR.CAVITY>
0

>  <SCORE.RESTR.norm>
0

>  <SCORE.SYSTEM>
0

>  <SCORE.SYSTEM.CONST>
0

>  <SCORE.SYSTEM.DIHEDRAL>
0

>  <SCORE.SYSTEM.SOLV>
0

>  <SCORE.SYSTEM.norm>
0

>  <SCORE.heavy>
13

>  <SCORE.norm>
-1.16189

>  <RMSD>
1.111

$$$$
ligand
 OpenBabel02271912143D
libRbt.so/2013.1/901 2013/11/27
 13 14  0  0  0  0  0  0  0  0999 V2000
   -4.9908  -34.5860  -45.1425 N   0  0  0  0  0  0  0  0  0  0  0  0
   -5.9268  -35.0459  -44.2551 C   0  0  0  0  0  0  0  0  0  0  0  0
   -7.0742  -35.6126  -44.7393 N   0  0  0  0  0  0  0  0  0  0  0  0
   -5.7395  -34.9526  -42.9383 N   0  0  0  0  0  0  0  0  0  0  0  0
   -4.6098  -34.3937  -42.4228 C   0  0  0  0  0  0  0  0  0  0  0  0
   -3.6181  -33.9021  -43.2997 C   0  0  0  0  0  0  0  0  0  0  0  0
   -3.8361  -34.0145  -44.6996 C   0  0  0  0  0  0  0  0  0  0  0  0
   -3.0148  -33.6115  -45.4856 O   0  0  0  0  0  0  0  0  0  0  0  0
   -2.5497  -33.3680  -42.4611 C   0  0  0  0  0  0  0  0  0  0  0  0
   -2.9274  -33.5596  -41.1846 C   0  0  0  0  0  0  0  0  0  0  0  0
   -4.1616  -34.1741  -41.1554 N   0  0  0  0  0  0  0  0  0  0  0  0
   -1.2749  -32.7200  -42.9372 C   0  0  0  0  0  0  0  0  0  0  0  0
   -1.6110  -31.6338  -43.8800 N   0  0  0  0  0  0  0  0  0  0  0  0
  1  2  1  0  0  0  0
  1  7  1  0  0  0  0
  2  3  1  0  0  0  0
  2  4  2  0  0  0  0
  4  5  1  0  0  0  0
  5  6  2  0  0  0  0
  5 11  1  0  0  0  0
  6  7  1  0  0  0  0
  6  9  1  0  0  0  0
  7  8  2  0  0  0  0
  9 10  2  0  0  0  0
  9 12  1  0  0  0  0
 10 11  1  0  0  0  0
 12 13  1  0  0  0  0
M  END
>  <CHROM.1>
52.95352496,-3.94030630,-33.95742243,-43.48083092,-2.89546835,0.54668703
1.62459919

>  <Name>
ligand

>  <RI>
0

>  <Rbt.Current_Directory>
/home/itssahil/PROJECTS/Mol_Feturizer/Test_systems_manuscript/rnas/3fu2

>  <Rbt.Executable>
rbdock ($Id: //depot/dev/client3/rdock/2013.1/src/exe/rbdock.cxx#4 $)

>  <Rbt.Library>
libRbt.so (2013.1, Build901 2013/11/27)

>  <Rbt.Parameter_File>
/export/apps/rDock/src/rDock_2013.1_src/data/scripts/dock_solv.prm

>  <Rbt.Receptor>
prm/pocket_docking_2.prm

>  <SCORE>
-15.3294

>  <SCORE.INTER>
-15.6696

>  <SCORE.INTER.CONST>
1

>  <SCORE.INTER.POLAR>
0

>  <SCORE.INTER.ROT>
1

>  <SCORE.INTER.SOLV>
21.4945

>  <SCORE.INTER.VDW>
-21.8779

>  <SCORE.INTER.norm>
-1.20536

>  <SCORE.INTRA>
0.340291

>  <SCORE.INTRA.DIHEDRAL>
0.0203586

>  <SCORE.INTRA.DIHEDRAL.0>
1.66609

>  <SCORE.INTRA.POLAR>
0

>  <SCORE.INTRA.POLAR.0>
0

>  <SCORE.INTRA.REPUL>
0

>  <SCORE.INTRA.REPUL.0>
0

>  <SCORE.INTRA.SOLV>
0.681333

>  <SCORE.INTRA.SOLV.lig_0>
-45.868

>  <SCORE.INTRA.VDW>
-0.0105553

>  <SCORE.INTRA.VDW.0>
-0.397919

>  <SCORE.INTRA.norm>
0.0261762

>  <SCORE.RESTR>
0

>  <SCORE.RESTR.CAVITY>
0

>  <SCORE.RESTR.norm>
0

>  <SCORE.SYSTEM>
0

>  <SCORE.SYSTEM.CONST>
0

>  <SCORE.SYSTEM.DIHEDRAL>
0

>  <SCORE.SYSTEM.SOLV>
0

>  <SCORE.SYSTEM.norm>
0

>  <SCORE.heavy>
13

>  <SCORE.norm>
-1.17918

>  <RMSD>
1.231

$$$$
ligand
 OpenBabel02271912143D
libRbt.so/2013.1/901 2013/11/27
 13 14  0  0  0  0  0  0  0  0999 V2000
   -4.9921  -34.5921  -45.1528 N   0  0  0  0  0  0  0  0  0  0  0  0
   -5.9225  -35.0536  -44.2605 C   0  0  0  0  0  0  0  0  0  0  0  0
   -7.0697  -35.6261  -44.7385 N   0  0  0  0  0  0  0  0  0  0  0  0
   -5.7300  -34.9565  -42.9447 N   0  0  0  0  0  0  0  0  0  0  0  0
   -4.6003  -34.3919  -42.4352 C   0  0  0  0  0  0  0  0  0  0  0  0
   -3.6143  -33.8984  -43.3176 C   0  0  0  0  0  0  0  0  0  0  0  0
   -3.8379  -34.0149  -44.7163 C   0  0  0  0  0  0  0  0  0  0  0  0
   -3.0215  -33.6105  -45.5067 O   0  0  0  0  0  0  0  0  0  0  0  0
   -2.5446  -33.3581  -42.4847 C   0  0  0  0  0  0  0  0  0  0  0  0
   -2.9161  -33.5481  -41.2063 C   0  0  0  0  0  0  0  0  0  0  0  0
   -4.1477  -34.1675  -41.1704 N   0  0  0  0  0  0  0  0  0  0  0  0
   -1.2744  -32.7060  -42.9677 C   0  0  0  0  0  0  0  0  0  0  0  0
   -1.6155  -31.6634  -43.9567 N   0  0  0  0  0  0  0  0  0  0  0  0
  1  2  1  0  0  0  0
  1  7  1  0  0  0  0
  2  3  1  0  0  0  0
  2  4  2  0  0  0  0
  4  5  1  0  0  0  0
  5  6  2  0  0  0  0
  5 11  1  0  0  0  0
  6  7  1  0  0  0  0
  6  9  1  0  0  0  0
  7  8  2  0  0  0  0
  9 10  2  0  0  0  0
  9 12  1  0  0  0  0
 10 11  1  0  0  0  0
 12 13  1  0  0  0  0
M  END
>  <CHROM.1>
50.47927730,-3.93683585,-33.95865478,-43.50084741,-2.90319512,0.54746976
1.62458410

>  <Name>
ligand

>  <RI>
0

>  <Rbt.Current_Directory>
/home/itssahil/PROJECTS/Mol_Feturizer/Test_systems_manuscript/rnas/3fu2

>  <Rbt.Executable>
rbdock ($Id: //depot/dev/client3/rdock/2013.1/src/exe/rbdock.cxx#4 $)

>  <Rbt.Library>
libRbt.so (2013.1, Build901 2013/11/27)

>  <Rbt.Parameter_File>
/export/apps/rDock/src/rDock_2013.1_src/data/scripts/dock_solv.prm

>  <Rbt.Receptor>
prm/pocket_docking_2.prm

>  <SCORE>
-15.3397

>  <SCORE.INTER>
-15.7166

>  <SCORE.INTER.CONST>
1

>  <SCORE.INTER.POLAR>
0

>  <SCORE.INTER.ROT>
1

>  <SCORE.INTER.SOLV>
21.5475

>  <SCORE.INTER.VDW>
-21.9269

>  <SCORE.INTER.norm>
-1.20897

>  <SCORE.INTRA>
0.376839

>  <SCORE.INTRA.DIHEDRAL>
0.0225312

>  <SCORE.INTRA.DIHEDRAL.0>
1.66609

>  <SCORE.INTRA.POLAR>
0

>  <SCORE.INTRA.POLAR.0>
0

>  <SCORE.INTRA.REPUL>
0

>  <SCORE.INTRA.REPUL.0>
0

>  <SCORE.INTRA.SOLV>
0.749274

>  <SCORE.INTRA.SOLV.lig_0>
-45.868

>  <SCORE.INTRA.VDW>
-0.00906364

>  <SCORE.INTRA.VDW.0>
-0.397919

>  <SCORE.INTRA.norm>
0.0289876

>  <SCORE.RESTR>
0

>  <SCORE.RESTR.CAVITY>
0

>  <SCORE.RESTR.norm>
0

>  <SCORE.SYSTEM>
0

>  <SCORE.SYSTEM.CONST>
0

>  <SCORE.SYSTEM.DIHEDRAL>
0

>  <SCORE.SYSTEM.SOLV>
0

>  <SCORE.SYSTEM.norm>
0

>  <SCORE.heavy>
13

>  <SCORE.norm>
-1.17998

>  <RMSD>
1.232

$$$$
ligand
 OpenBabel02271912143D
libRbt.so/2013.1/901 2013/11/27
 13 14  0  0  0  0  0  0  0  0999 V2000
   -4.9999  -34.6012  -45.1384 N   0  0  0  0  0  0  0  0  0  0  0  0
   -5.9338  -35.0571  -44.2468 C   0  0  0  0  0  0  0  0  0  0  0  0
   -7.0841  -35.6226  -44.7258 N   0  0  0  0  0  0  0  0  0  0  0  0
   -5.7419  -34.9611  -42.9309 N   0  0  0  0  0  0  0  0  0  0  0  0
   -4.6093  -34.4033  -42.4204 C   0  0  0  0  0  0  0  0  0  0  0  0
   -3.6196  -33.9158  -43.3019 C   0  0  0  0  0  0  0  0  0  0  0  0
   -3.8426  -34.0310  -44.7008 C   0  0  0  0  0  0  0  0  0  0  0  0
   -3.0231  -33.6316  -45.4905 O   0  0  0  0  0  0  0  0  0  0  0  0
   -2.5473  -33.3820  -42.4681 C   0  0  0  0  0  0  0  0  0  0  0  0
   -2.9211  -33.5698  -41.1900 C   0  0  0  0  0  0  0  0  0  0  0  0
   -4.1565  -34.1817  -41.1552 N   0  0  0  0  0  0  0  0  0  0  0  0
   -1.2728  -32.7377  -42.9500 C   0  0  0  0  0  0  0  0  0  0  0  0
   -1.6105  -31.6402  -43.8790 N   0  0  0  0  0  0  0  0  0  0  0  0
  1  2  1  0  0  0  0
  1  7  1  0  0  0  0
  2  3  1  0  0  0  0
  2  4  2  0  0  0  0
  4  5  1  0  0  0  0
  5  6  2  0  0  0  0
  5 11  1  0  0  0  0
  6  7  1  0  0  0  0
  6  9  1  0  0  0  0
  7  8  2  0  0  0  0
  9 10  2  0  0  0  0
  9 12  1  0  0  0  0
 10 11  1  0  0  0  0
 12 13  1  0  0  0  0
M  END
>  <CHROM.1>
53.77336994,-3.94260193,-33.96987123,-43.48054953,-2.89839514,0.54541457
1.62430698

>  <Name>
ligand

>  <RI>
0

>  <Rbt.Current_Directory>
/home/itssahil/PROJECTS/Mol_Feturizer/Test_systems_manuscript/rnas/3fu2

>  <Rbt.Executable>
rbdock ($Id: //depot/dev/client3/rdock/2013.1/src/exe/rbdock.cxx#4 $)

>  <Rbt.Library>
libRbt.so (2013.1, Build901 2013/11/27)

>  <Rbt.Parameter_File>
/export/apps/rDock/src/rDock_2013.1_src/data/scripts/dock_solv.prm

>  <Rbt.Receptor>
prm/pocket_docking_7.prm

>  <SCORE>
-15.3022

>  <SCORE.INTER>
-15.6263

>  <SCORE.INTER.CONST>
1

>  <SCORE.INTER.POLAR>
0

>  <SCORE.INTER.ROT>
1

>  <SCORE.INTER.SOLV>
21.5182

>  <SCORE.INTER.VDW>
-21.8569

>  <SCORE.INTER.norm>
-1.20202

>  <SCORE.INTRA>
0.324112

>  <SCORE.INTRA.DIHEDRAL>
0.019613

>  <SCORE.INTRA.DIHEDRAL.0>
1.66609

>  <SCORE.INTRA.POLAR>
0

>  <SCORE.INTRA.POLAR.0>
0

>  <SCORE.INTRA.REPUL>
0

>  <SCORE.INTRA.REPUL.0>
0

>  <SCORE.INTRA.SOLV>
0.658509

>  <SCORE.INTRA.SOLV.lig_0>
-45.868

>  <SCORE.INTRA.VDW>
-0.0149489

>  <SCORE.INTRA.VDW.0>
-0.397919

>  <SCORE.INTRA.norm>
0.0249317

>  <SCORE.RESTR>
0

>  <SCORE.RESTR.CAVITY>
0

>  <SCORE.RESTR.norm>
0

>  <SCORE.SYSTEM>
0

>  <SCORE.SYSTEM.CONST>
0

>  <SCORE.SYSTEM.DIHEDRAL>
0

>  <SCORE.SYSTEM.SOLV>
0

>  <SCORE.SYSTEM.norm>
0

>  <SCORE.heavy>
13

>  <SCORE.norm>
-1.17709

>  <RMSD>
1.236

$$$$
ligand
 OpenBabel02271912143D
libRbt.so/2013.1/901 2013/11/27
 13 14  0  0  0  0  0  0  0  0999 V2000
   -4.9974  -34.6041  -45.1697 N   0  0  0  0  0  0  0  0  0  0  0  0
   -5.9287  -35.0606  -44.2757 C   0  0  0  0  0  0  0  0  0  0  0  0
   -7.0791  -35.6282  -44.7517 N   0  0  0  0  0  0  0  0  0  0  0  0
   -5.7340  -34.9633  -42.9602 N   0  0  0  0  0  0  0  0  0  0  0  0
   -4.6010  -34.4035  -42.4528 C   0  0  0  0  0  0  0  0  0  0  0  0
   -3.6140  -33.9152  -43.3368 C   0  0  0  0  0  0  0  0  0  0  0  0
   -3.8400  -34.0318  -44.7351 C   0  0  0  0  0  0  0  0  0  0  0  0
   -3.0228  -33.6318  -45.5269 O   0  0  0  0  0  0  0  0  0  0  0  0
   -2.5407  -33.3791  -42.5058 C   0  0  0  0  0  0  0  0  0  0  0  0
   -2.9113  -33.5665  -41.2267 C   0  0  0  0  0  0  0  0  0  0  0  0
   -4.1457  -34.1802  -41.1887 N   0  0  0  0  0  0  0  0  0  0  0  0
   -1.2682  -32.7333  -42.9910 C   0  0  0  0  0  0  0  0  0  0  0  0
   -1.6080  -31.6637  -43.9513 N   0  0  0  0  0  0  0  0  0  0  0  0
  1  2  1  0  0  0  0
  1  7  1  0  0  0  0
  2  3  1  0  0  0  0
  2  4  2  0  0  0  0
  4  5  1  0  0  0  0
  5  6  2  0  0  0  0
  5 11  1  0  0  0  0
  6  7  1  0  0  0  0
  6  9  1  0  0  0  0
  7  8  2  0  0  0  0
  9 10  2  0  0  0  0
  9 12  1  0  0  0  0
 10 11  1  0  0  0  0
 12 13  1  0  0  0  0
M  END
>  <CHROM.1>
52.08477231,-3.93720220,-33.97202013,-43.51722230,-2.90287327,0.54478049
1.62473783

>  <Name>
ligand

>  <RI>
0

>  <Rbt.Current_Directory>
/home/itssahil/PROJECTS/Mol_Feturizer/Test_systems_manuscript/rnas/3fu2

>  <Rbt.Executable>
rbdock ($Id: //depot/dev/client3/rdock/2013.1/src/exe/rbdock.cxx#4 $)

>  <Rbt.Library>
libRbt.so (2013.1, Build901 2013/11/27)

>  <Rbt.Parameter_File>
/export/apps/rDock/src/rDock_2013.1_src/data/scripts/dock_solv.prm

>  <Rbt.Receptor>
prm/blind_docking_60.prm

>  <SCORE>
-15.3372

>  <SCORE.INTER>
-15.6793

>  <SCORE.INTER.CONST>
1

>  <SCORE.INTER.POLAR>
0

>  <SCORE.INTER.ROT>
1

>  <SCORE.INTER.SOLV>
21.5683

>  <SCORE.INTER.VDW>
-21.909

>  <SCORE.INTER.norm>
-1.2061

>  <SCORE.INTRA>
0.342179

>  <SCORE.INTRA.DIHEDRAL>
0.0211357

>  <SCORE.INTRA.DIHEDRAL.0>
1.66609

>  <SCORE.INTRA.POLAR>
0

>  <SCORE.INTRA.POLAR.0>
0

>  <SCORE.INTRA.REPUL>
0

>  <SCORE.INTRA.REPUL.0>
0

>  <SCORE.INTRA.SOLV>
0.705354

>  <SCORE.INTRA.SOLV.lig_0>
-45.868

>  <SCORE.INTRA.VDW>
-0.0210661

>  <SCORE.INTRA.VDW.0>
-0.397919

>  <SCORE.INTRA.norm>
0.0263214

>  <SCORE.RESTR>
0

>  <SCORE.RESTR.CAVITY>
0

>  <SCORE.RESTR.norm>
0

>  <SCORE.SYSTEM>
0

>  <SCORE.SYSTEM.CONST>
0

>  <SCORE.SYSTEM.DIHEDRAL>
0

>  <SCORE.SYSTEM.SOLV>
0

>  <SCORE.SYSTEM.norm>
0

>  <SCORE.heavy>
13

>  <SCORE.norm>
-1.17978

>  <RMSD>
1.241

$$$$
ligand
 OpenBabel02271912143D
libRbt.so/2013.1/901 2013/11/27
 13 14  0  0  0  0  0  0  0  0999 V2000
   -4.9941  -34.6109  -45.1647 N   0  0  0  0  0  0  0  0  0  0  0  0
   -5.9266  -35.0643  -44.2705 C   0  0  0  0  0  0  0  0  0  0  0  0
   -7.0763  -35.6337  -44.7461 N   0  0  0  0  0  0  0  0  0  0  0  0
   -5.7339  -34.9624  -42.9551 N   0  0  0  0  0  0  0  0  0  0  0  0
   -4.6017  -34.4007  -42.4479 C   0  0  0  0  0  0  0  0  0  0  0  0
   -3.6134  -33.9155  -43.3322 C   0  0  0  0  0  0  0  0  0  0  0  0
   -3.8373  -34.0371  -44.7304 C   0  0  0  0  0  0  0  0  0  0  0  0
   -3.0190  -33.6398  -45.5225 O   0  0  0  0  0  0  0  0  0  0  0  0
   -2.5413  -33.3764  -42.5015 C   0  0  0  0  0  0  0  0  0  0  0  0
   -2.9139  -33.5592  -41.2223 C   0  0  0  0  0  0  0  0  0  0  0  0
   -4.1483  -34.1729  -41.1840 N   0  0  0  0  0  0  0  0  0  0  0  0
   -1.2682  -32.7322  -42.9872 C   0  0  0  0  0  0  0  0  0  0  0  0
   -1.6066  -31.6662  -43.9519 N   0  0  0  0  0  0  0  0  0  0  0  0
  1  2  1  0  0  0  0
  1  7  1  0  0  0  0
  2  3  1  0  0  0  0
  2  4  2  0  0  0  0
  4  5  1  0  0  0  0
  5  6  2  0  0  0  0
  5 11  1  0  0  0  0
  6  7  1  0  0  0  0
  6  9  1  0  0  0  0
  7  8  2  0  0  0  0
  9 10  2  0  0  0  0
  9 12  1  0  0  0  0
 10 11  1  0  0  0  0
 12 13  1  0  0  0  0
M  END
>  <CHROM.1>
52.07709819,-3.93634886,-33.97297601,-43.51293698,-2.90116992,0.54490794
1.62030643

>  <Name>
ligand

>  <RI>
0

>  <Rbt.Current_Directory>
/home/itssahil/PROJECTS/Mol_Feturizer/Test_systems_manuscript/rnas/3fu2

>  <Rbt.Executable>
rbdock ($Id: //depot/dev/client3/rdock/2013.1/src/exe/rbdock.cxx#4 $)

>  <Rbt.Library>
libRbt.so (2013.1, Build901 2013/11/27)

>  <Rbt.Parameter_File>
/export/apps/rDock/src/rDock_2013.1_src/data/scripts/dock_solv.prm

>  <Rbt.Receptor>
prm/pocket_docking_3.prm

>  <SCORE>
-15.3359

>  <SCORE.INTER>
-15.6782

>  <SCORE.INTER.CONST>
1

>  <SCORE.INTER.POLAR>
0

>  <SCORE.INTER.ROT>
1

>  <SCORE.INTER.SOLV>
21.5824

>  <SCORE.INTER.VDW>
-21.9129

>  <SCORE.INTER.norm>
-1.20602

>  <SCORE.INTRA>
0.342338

>  <SCORE.INTRA.DIHEDRAL>
0.0211425

>  <SCORE.INTRA.DIHEDRAL.0>
1.66609

>  <SCORE.INTRA.POLAR>
0

>  <SCORE.INTRA.POLAR.0>
0

>  <SCORE.INTRA.REPUL>
0

>  <SCORE.INTRA.REPUL.0>
0

>  <SCORE.INTRA.SOLV>
0.705565

>  <SCORE.INTRA.SOLV.lig_0>
-45.868

>  <SCORE.INTRA.VDW>
-0.0210163

>  <SCORE.INTRA.VDW.0>
-0.397919

>  <SCORE.INTRA.norm>
0.0263337

>  <SCORE.RESTR>
0

>  <SCORE.RESTR.CAVITY>
0

>  <SCORE.RESTR.norm>
0

>  <SCORE.SYSTEM>
0

>  <SCORE.SYSTEM.CONST>
0

>  <SCORE.SYSTEM.DIHEDRAL>
0

>  <SCORE.SYSTEM.SOLV>
0

>  <SCORE.SYSTEM.norm>
0

>  <SCORE.heavy>
13

>  <SCORE.norm>
-1.17968

>  <RMSD>
1.241

$$$$
ligand
 OpenBabel02271912143D
libRbt.so/2013.1/901 2013/11/27
 13 14  0  0  0  0  0  0  0  0999 V2000
   -5.0013  -34.6163  -45.1665 N   0  0  0  0  0  0  0  0  0  0  0  0
   -5.9329  -35.0702  -44.2716 C   0  0  0  0  0  0  0  0  0  0  0  0
   -7.0835  -35.6385  -44.7463 N   0  0  0  0  0  0  0  0  0  0  0  0
   -5.7384  -34.9697  -42.9563 N   0  0  0  0  0  0  0  0  0  0  0  0
   -4.6053  -34.4092  -42.4501 C   0  0  0  0  0  0  0  0  0  0  0  0
   -3.6179  -33.9235  -43.3352 C   0  0  0  0  0  0  0  0  0  0  0  0
   -3.8437  -34.0435  -44.7332 C   0  0  0  0  0  0  0  0  0  0  0  0
   -3.0262  -33.6459  -45.5260 O   0  0  0  0  0  0  0  0  0  0  0  0
   -2.5444  -33.3859  -42.5054 C   0  0  0  0  0  0  0  0  0  0  0  0
   -2.9154  -33.5698  -41.2259 C   0  0  0  0  0  0  0  0  0  0  0  0
   -4.1500  -34.1829  -41.1865 N   0  0  0  0  0  0  0  0  0  0  0  0
   -1.2716  -32.7418  -42.9920 C   0  0  0  0  0  0  0  0  0  0  0  0
   -1.6107  -31.6743  -43.9549 N   0  0  0  0  0  0  0  0  0  0  0  0
  1  2  1  0  0  0  0
  1  7  1  0  0  0  0
  2  3  1  0  0  0  0
  2  4  2  0  0  0  0
  4  5  1  0  0  0  0
  5  6  2  0  0  0  0
  5 11  1  0  0  0  0
  6  7  1  0  0  0  0
  6  9  1  0  0  0  0
  7  8  2  0  0  0  0
  9 10  2  0  0  0  0
  9 12  1  0  0  0  0
 10 11  1  0  0  0  0
 12 13  1  0  0  0  0
M  END
>  <CHROM.1>
52.09609627,-3.94108622,-33.98063650,-43.51551255,-2.90266732,0.54435262
1.62214014

>  <Name>
ligand

>  <RI>
0

>  <Rbt.Current_Directory>
/home/itssahil/PROJECTS/Mol_Feturizer/Test_systems_manuscript/rnas/3fu2

>  <Rbt.Executable>
rbdock ($Id: //depot/dev/client3/rdock/2013.1/src/exe/rbdock.cxx#4 $)

>  <Rbt.Library>
libRbt.so (2013.1, Build901 2013/11/27)

>  <Rbt.Parameter_File>
/export/apps/rDock/src/rDock_2013.1_src/data/scripts/dock_solv.prm

>  <Rbt.Receptor>
prm/pocket_docking_5.prm

>  <SCORE>
-15.3381

>  <SCORE.INTER>
-15.68

>  <SCORE.INTER.CONST>
1

>  <SCORE.INTER.POLAR>
0

>  <SCORE.INTER.ROT>
1

>  <SCORE.INTER.SOLV>
21.577

>  <SCORE.INTER.VDW>
-21.9123

>  <SCORE.INTER.norm>
-1.20616

>  <SCORE.INTRA>
0.341944

>  <SCORE.INTRA.DIHEDRAL>
0.0211256

>  <SCORE.INTRA.DIHEDRAL.0>
1.66609

>  <SCORE.INTRA.POLAR>
0

>  <SCORE.INTRA.POLAR.0>
0

>  <SCORE.INTRA.REPUL>
0

>  <SCORE.INTRA.REPUL.0>
0

>  <SCORE.INTRA.SOLV>
0.705042

>  <SCORE.INTRA.SOLV.lig_0>
-45.868

>  <SCORE.INTRA.VDW>
-0.0211395

>  <SCORE.INTRA.VDW.0>
-0.397919

>  <SCORE.INTRA.norm>
0.0263034

>  <SCORE.RESTR>
0

>  <SCORE.RESTR.CAVITY>
0

>  <SCORE.RESTR.norm>
0

>  <SCORE.SYSTEM>
0

>  <SCORE.SYSTEM.CONST>
0

>  <SCORE.SYSTEM.DIHEDRAL>
0

>  <SCORE.SYSTEM.SOLV>
0

>  <SCORE.SYSTEM.norm>
0

>  <SCORE.heavy>
13

>  <SCORE.norm>
-1.17985

>  <RMSD>
1.248

$$$$
ligand
 OpenBabel02271912143D
libRbt.so/2013.1/901 2013/11/27
 13 14  0  0  0  0  0  0  0  0999 V2000
   -4.9936  -34.6209  -45.1738 N   0  0  0  0  0  0  0  0  0  0  0  0
   -5.9263  -35.0765  -44.2809 C   0  0  0  0  0  0  0  0  0  0  0  0
   -7.0757  -35.6451  -44.7581 N   0  0  0  0  0  0  0  0  0  0  0  0
   -5.7340  -34.9774  -42.9652 N   0  0  0  0  0  0  0  0  0  0  0  0
   -4.6022  -34.4165  -42.4565 C   0  0  0  0  0  0  0  0  0  0  0  0
   -3.6137  -33.9291  -43.3394 C   0  0  0  0  0  0  0  0  0  0  0  0
   -3.8371  -34.0477  -44.7379 C   0  0  0  0  0  0  0  0  0  0  0  0
   -3.0186  -33.6486  -45.5289 O   0  0  0  0  0  0  0  0  0  0  0  0
   -2.5420  -33.3916  -42.5072 C   0  0  0  0  0  0  0  0  0  0  0  0
   -2.9149  -33.5773  -41.2285 C   0  0  0  0  0  0  0  0  0  0  0  0
   -4.1492  -34.1913  -41.1919 N   0  0  0  0  0  0  0  0  0  0  0  0
   -1.2688  -32.7461  -42.9911 C   0  0  0  0  0  0  0  0  0  0  0  0
   -1.6072  -31.6782  -43.9538 N   0  0  0  0  0  0  0  0  0  0  0  0
  1  2  1  0  0  0  0
  1  7  1  0  0  0  0
  2  3  1  0  0  0  0
  2  4  2  0  0  0  0
  4  5  1  0  0  0  0
  5  6  2  0  0  0  0
  5 11  1  0  0  0  0
  6  7  1  0  0  0  0
  6  9  1  0  0  0  0
  7  8  2  0  0  0  0
  9 10  2  0  0  0  0
  9 12  1  0  0  0  0
 10 11  1  0  0  0  0
 12 13  1  0  0  0  0
M  END
>  <CHROM.1>
52.06633998,-3.93654023,-33.98632900,-43.52035845,-2.90082035,0.54514992
1.62228444

>  <Name>
ligand

>  <RI>
0

>  <Rbt.Current_Directory>
/home/itssahil/PROJECTS/Mol_Feturizer/Test_systems_manuscript/rnas/3fu2

>  <Rbt.Executable>
rbdock ($Id: //depot/dev/client3/rdock/2013.1/src/exe/rbdock.cxx#4 $)

>  <Rbt.Library>
libRbt.so (2013.1, Build901 2013/11/27)

>  <Rbt.Parameter_File>
/export/apps/rDock/src/rDock_2013.1_src/data/scripts/dock_solv.prm

>  <Rbt.Receptor>
prm/pocket_docking_6.prm

>  <SCORE>
-15.3142

>  <SCORE.INTER>
-15.6568

>  <SCORE.INTER.CONST>
1

>  <SCORE.INTER.POLAR>
0

>  <SCORE.INTER.ROT>
1

>  <SCORE.INTER.SOLV>
21.572

>  <SCORE.INTER.VDW>
-21.8952

>  <SCORE.INTER.norm>
-1.20437

>  <SCORE.INTRA>
0.342561

>  <SCORE.INTRA.DIHEDRAL>
0.021152

>  <SCORE.INTRA.DIHEDRAL.0>
1.66609

>  <SCORE.INTRA.POLAR>
0

>  <SCORE.INTRA.POLAR.0>
0

>  <SCORE.INTRA.REPUL>
0

>  <SCORE.INTRA.REPUL.0>
0

>  <SCORE.INTRA.SOLV>
0.705862

>  <SCORE.INTRA.SOLV.lig_0>
-45.868

>  <SCORE.INTRA.VDW>
-0.0209463

>  <SCORE.INTRA.VDW.0>
-0.397919

>  <SCORE.INTRA.norm>
0.0263508

>  <SCORE.RESTR>
0

>  <SCORE.RESTR.CAVITY>
0

>  <SCORE.RESTR.norm>
0

>  <SCORE.SYSTEM>
0

>  <SCORE.SYSTEM.CONST>
0

>  <SCORE.SYSTEM.DIHEDRAL>
0

>  <SCORE.SYSTEM.SOLV>
0

>  <SCORE.SYSTEM.norm>
0

>  <SCORE.heavy>
13

>  <SCORE.norm>
-1.17802

>  <RMSD>
1.249

$$$$
ligand
 OpenBabel02271912143D
libRbt.so/2013.1/901 2013/11/27
 13 14  0  0  0  0  0  0  0  0999 V2000
   -4.9535  -34.5688  -45.1517 N   0  0  0  0  0  0  0  0  0  0  0  0
   -5.8578  -35.0218  -44.2287 C   0  0  0  0  0  0  0  0  0  0  0  0
   -7.0139  -35.6071  -44.6681 N   0  0  0  0  0  0  0  0  0  0  0  0
   -5.6316  -34.9043  -42.9199 N   0  0  0  0  0  0  0  0  0  0  0  0
   -4.4922  -34.3265  -42.4485 C   0  0  0  0  0  0  0  0  0  0  0  0
   -3.5322  -33.8410  -43.3634 C   0  0  0  0  0  0  0  0  0  0  0  0
   -3.7915  -33.9794  -44.7539 C   0  0  0  0  0  0  0  0  0  0  0  0
   -2.9982  -33.5825  -45.5712 O   0  0  0  0  0  0  0  0  0  0  0  0
   -2.4441  -33.2831  -42.5667 C   0  0  0  0  0  0  0  0  0  0  0  0
   -2.7812  -33.4561  -41.2764 C   0  0  0  0  0  0  0  0  0  0  0  0
   -4.0080  -34.0812  -41.1993 N   0  0  0  0  0  0  0  0  0  0  0  0
   -1.1906  -32.6317  -43.0923 C   0  0  0  0  0  0  0  0  0  0  0  0
   -0.0534  -33.0122  -42.2298 N   0  0  0  0  0  0  0  0  0  0  0  0
  1  2  1  0  0  0  0
  1  7  1  0  0  0  0
  2  3  1  0  0  0  0
  2  4  2  0  0  0  0
  4  5  1  0  0  0  0
  5  6  2  0  0  0  0
  5 11  1  0  0  0  0
  6  7  1  0  0  0  0
  6  9  1  0  0  0  0
  7  8  2  0  0  0  0
  9 10  2  0  0  0  0
  9 12  1  0  0  0  0
 10 11  1  0  0  0  0
 12 13  1  0  0  0  0
M  END
>  <CHROM.1>
-142.21510935,-3.73622541,-34.02014867,-43.38612170,-2.76960015,0.41060115
1.57797720

>  <Name>
ligand

>  <RI>
0

>  <Rbt.Current_Directory>
/home/itssahil/PROJECTS/Mol_Feturizer/Test_systems_manuscript/rnas/3fu2

>  <Rbt.Executable>
rbdock ($Id: //depot/dev/client3/rdock/2013.1/src/exe/rbdock.cxx#4 $)

>  <Rbt.Library>
libRbt.so (2013.1, Build901 2013/11/27)

>  <Rbt.Parameter_File>
/export/apps/rDock/src/rDock_2013.1_src/data/scripts/dock_solv.prm

>  <Rbt.Receptor>
prm/pocket_docking_6.prm

>  <SCORE>
-16.0767

>  <SCORE.INTER>
-15.7965

>  <SCORE.INTER.CONST>
1

>  <SCORE.INTER.POLAR>
0

>  <SCORE.INTER.ROT>
1

>  <SCORE.INTER.SOLV>
20.3092

>  <SCORE.INTER.VDW>
-21.5674

>  <SCORE.INTER.norm>
-1.21511

>  <SCORE.INTRA>
-0.280219

>  <SCORE.INTRA.DIHEDRAL>
-0.00290301

>  <SCORE.INTRA.DIHEDRAL.0>
1.66609

>  <SCORE.INTRA.POLAR>
0

>  <SCORE.INTRA.POLAR.0>
0

>  <SCORE.INTRA.REPUL>
0

>  <SCORE.INTRA.REPUL.0>
0

>  <SCORE.INTRA.SOLV>
-0.989307

>  <SCORE.INTRA.SOLV.lig_0>
-45.868

>  <SCORE.INTRA.VDW>
0.215886

>  <SCORE.INTRA.VDW.0>
-0.397919

>  <SCORE.INTRA.norm>
-0.0215553

>  <SCORE.RESTR>
0

>  <SCORE.RESTR.CAVITY>
0

>  <SCORE.RESTR.norm>
0

>  <SCORE.SYSTEM>
0

>  <SCORE.SYSTEM.CONST>
0

>  <SCORE.SYSTEM.DIHEDRAL>
0

>  <SCORE.SYSTEM.SOLV>
0

>  <SCORE.SYSTEM.norm>
0

>  <SCORE.heavy>
13

>  <SCORE.norm>
-1.23667

>  <RMSD>
1.318

$$$$
ligand
 OpenBabel02271912143D
libRbt.so/2013.1/901 2013/11/27
 13 14  0  0  0  0  0  0  0  0999 V2000
   -4.9604  -34.5580  -45.1628 N   0  0  0  0  0  0  0  0  0  0  0  0
   -5.8642  -35.0241  -44.2458 C   0  0  0  0  0  0  0  0  0  0  0  0
   -7.0207  -35.6028  -44.6928 N   0  0  0  0  0  0  0  0  0  0  0  0
   -5.6372  -34.9254  -42.9356 N   0  0  0  0  0  0  0  0  0  0  0  0
   -4.4973  -34.3546  -42.4567 C   0  0  0  0  0  0  0  0  0  0  0  0
   -3.5379  -33.8562  -43.3651 C   0  0  0  0  0  0  0  0  0  0  0  0
   -3.7981  -33.9745  -44.7573 C   0  0  0  0  0  0  0  0  0  0  0  0
   -3.0052  -33.5662  -45.5694 O   0  0  0  0  0  0  0  0  0  0  0  0
   -2.4492  -33.3099  -42.5613 C   0  0  0  0  0  0  0  0  0  0  0  0
   -2.7854  -33.5013  -41.2733 C   0  0  0  0  0  0  0  0  0  0  0  0
   -4.0124  -34.1272  -41.2044 N   0  0  0  0  0  0  0  0  0  0  0  0
   -1.1958  -32.6513  -43.0782 C   0  0  0  0  0  0  0  0  0  0  0  0
   -0.0592  -33.0397  -42.2186 N   0  0  0  0  0  0  0  0  0  0  0  0
  1  2  1  0  0  0  0
  1  7  1  0  0  0  0
  2  3  1  0  0  0  0
  2  4  2  0  0  0  0
  4  5  1  0  0  0  0
  5  6  2  0  0  0  0
  5 11  1  0  0  0  0
  6  7  1  0  0  0  0
  6  9  1  0  0  0  0
  7  8  2  0  0  0  0
  9 10  2  0  0  0  0
  9 12  1  0  0  0  0
 10 11  1  0  0  0  0
 12 13  1  0  0  0  0
M  END
>  <CHROM.1>
-142.45380628,-3.74201141,-34.03454941,-43.39002461,-2.77002259,0.41075860
1.59261290

>  <Name>
ligand

>  <RI>
0

>  <Rbt.Current_Directory>
/home/itssahil/PROJECTS/Mol_Feturizer/Test_systems_manuscript/rnas/3fu2

>  <Rbt.Executable>
rbdock ($Id: //depot/dev/client3/rdock/2013.1/src/exe/rbdock.cxx#4 $)

>  <Rbt.Library>
libRbt.so (2013.1, Build901 2013/11/27)

>  <Rbt.Parameter_File>
/export/apps/rDock/src/rDock_2013.1_src/data/scripts/dock_solv.prm

>  <Rbt.Receptor>
prm/pocket_docking_2.prm

>  <SCORE>
-16.0641

>  <SCORE.INTER>
-15.785

>  <SCORE.INTER.CONST>
1

>  <SCORE.INTER.POLAR>
0

>  <SCORE.INTER.ROT>
1

>  <SCORE.INTER.SOLV>
20.2754

>  <SCORE.INTER.VDW>
-21.5485

>  <SCORE.INTER.norm>
-1.21423

>  <SCORE.INTRA>
-0.279096

>  <SCORE.INTRA.DIHEDRAL>
-0.00299518

>  <SCORE.INTRA.DIHEDRAL.0>
1.66609

>  <SCORE.INTRA.POLAR>
0

>  <SCORE.INTRA.POLAR.0>
0

>  <SCORE.INTRA.REPUL>
0

>  <SCORE.INTRA.REPUL.0>
0

>  <SCORE.INTRA.SOLV>
-0.98921

>  <SCORE.INTRA.SOLV.lig_0>
-45.868

>  <SCORE.INTRA.VDW>
0.217007

>  <SCORE.INTRA.VDW.0>
-0.397919

>  <SCORE.INTRA.norm>
-0.0214689

>  <SCORE.RESTR>
0

>  <SCORE.RESTR.CAVITY>
0

>  <SCORE.RESTR.norm>
0

>  <SCORE.SYSTEM>
0

>  <SCORE.SYSTEM.CONST>
0

>  <SCORE.SYSTEM.DIHEDRAL>
0

>  <SCORE.SYSTEM.SOLV>
0

>  <SCORE.SYSTEM.norm>
0

>  <SCORE.heavy>
13

>  <SCORE.norm>
-1.2357

>  <RMSD>
1.331

$$$$
ligand
 OpenBabel02271912143D
libRbt.so/2013.1/901 2013/11/27
 13 14  0  0  0  0  0  0  0  0999 V2000
   -5.0036  -34.5580  -45.1638 N   0  0  0  0  0  0  0  0  0  0  0  0
   -5.8991  -35.0386  -44.2464 C   0  0  0  0  0  0  0  0  0  0  0  0
   -7.0502  -35.6286  -44.6926 N   0  0  0  0  0  0  0  0  0  0  0  0
   -5.6694  -34.9433  -42.9364 N   0  0  0  0  0  0  0  0  0  0  0  0
   -4.5347  -34.3616  -42.4582 C   0  0  0  0  0  0  0  0  0  0  0  0
   -3.5838  -33.8481  -43.3672 C   0  0  0  0  0  0  0  0  0  0  0  0
   -3.8467  -33.9630  -44.7591 C   0  0  0  0  0  0  0  0  0  0  0  0
   -3.0611  -33.5419  -45.5716 O   0  0  0  0  0  0  0  0  0  0  0  0
   -2.4990  -33.2930  -42.5640 C   0  0  0  0  0  0  0  0  0  0  0  0
   -2.8292  -33.4942  -41.2760 C   0  0  0  0  0  0  0  0  0  0  0  0
   -4.0486  -34.1344  -41.2063 N   0  0  0  0  0  0  0  0  0  0  0  0
   -1.2549  -32.6176  -43.0816 C   0  0  0  0  0  0  0  0  0  0  0  0
   -0.0995  -33.0518  -42.2704 N   0  0  0  0  0  0  0  0  0  0  0  0
  1  2  1  0  0  0  0
  1  7  1  0  0  0  0
  2  3  1  0  0  0  0
  2  4  2  0  0  0  0
  4  5  1  0  0  0  0
  5  6  2  0  0  0  0
  5 11  1  0  0  0  0
  6  7  1  0  0  0  0
  6  9  1  0  0  0  0
  7  8  2  0  0  0  0
  9 10  2  0  0  0  0
  9 12  1  0  0  0  0
 10 11  1  0  0  0  0
 12 13  1  0  0  0  0
M  END
>  <CHROM.1>
-139.54224210,-3.78494554,-34.03314394,-43.39581698,-2.77681012,0.41801587
1.59807927

>  <Name>
ligand

>  <RI>
0

>  <Rbt.Current_Directory>
/home/itssahil/PROJECTS/Mol_Feturizer/Test_systems_manuscript/rnas/3fu2

>  <Rbt.Executable>
rbdock ($Id: //depot/dev/client3/rdock/2013.1/src/exe/rbdock.cxx#4 $)

>  <Rbt.Library>
libRbt.so (2013.1, Build901 2013/11/27)

>  <Rbt.Parameter_File>
/export/apps/rDock/src/rDock_2013.1_src/data/scripts/dock_solv.prm

>  <Rbt.Receptor>
prm/pocket_docking_7.prm

>  <SCORE>
-16.0856

>  <SCORE.INTER>
-15.7931

>  <SCORE.INTER.CONST>
1

>  <SCORE.INTER.POLAR>
0

>  <SCORE.INTER.ROT>
1

>  <SCORE.INTER.SOLV>
20.317

>  <SCORE.INTER.VDW>
-21.5677

>  <SCORE.INTER.norm>
-1.21485

>  <SCORE.INTRA>
-0.292545

>  <SCORE.INTRA.DIHEDRAL>
-0.00169526

>  <SCORE.INTRA.DIHEDRAL.0>
1.66609

>  <SCORE.INTRA.POLAR>
0

>  <SCORE.INTRA.POLAR.0>
0

>  <SCORE.INTRA.REPUL>
0

>  <SCORE.INTRA.REPUL.0>
0

>  <SCORE.INTRA.SOLV>
-0.990392

>  <SCORE.INTRA.SOLV.lig_0>
-45.868

>  <SCORE.INTRA.VDW>
0.203499

>  <SCORE.INTRA.VDW.0>
-0.397919

>  <SCORE.INTRA.norm>
-0.0225034

>  <SCORE.RESTR>
0

>  <SCORE.RESTR.CAVITY>
0

>  <SCORE.RESTR.norm>
0

>  <SCORE.SYSTEM>
0

>  <SCORE.SYSTEM.CONST>
0

>  <SCORE.SYSTEM.DIHEDRAL>
0

>  <SCORE.SYSTEM.SOLV>
0

>  <SCORE.SYSTEM.norm>
0

>  <SCORE.heavy>
13

>  <SCORE.norm>
-1.23736

>  <RMSD>
1.353

$$$$
ligand
 OpenBabel02271912143D
libRbt.so/2013.1/901 2013/11/27
 13 14  0  0  0  0  0  0  0  0999 V2000
   -4.9780  -34.5639  -45.1636 N   0  0  0  0  0  0  0  0  0  0  0  0
   -5.8846  -35.0318  -44.2504 C   0  0  0  0  0  0  0  0  0  0  0  0
   -7.0383  -35.6124  -44.7022 N   0  0  0  0  0  0  0  0  0  0  0  0
   -5.6629  -34.9332  -42.9393 N   0  0  0  0  0  0  0  0  0  0  0  0
   -4.5259  -34.3606  -42.4556 C   0  0  0  0  0  0  0  0  0  0  0  0
   -3.5638  -33.8603  -43.3601 C   0  0  0  0  0  0  0  0  0  0  0  0
   -3.8182  -33.9786  -44.7534 C   0  0  0  0  0  0  0  0  0  0  0  0
   -3.0229  -33.5686  -45.5622 O   0  0  0  0  0  0  0  0  0  0  0  0
   -2.4792  -33.3124  -42.5518 C   0  0  0  0  0  0  0  0  0  0  0  0
   -2.8202  -33.5049  -41.2652 C   0  0  0  0  0  0  0  0  0  0  0  0
   -4.0463  -34.1329  -41.2014 N   0  0  0  0  0  0  0  0  0  0  0  0
   -1.2249  -32.6515  -43.0635 C   0  0  0  0  0  0  0  0  0  0  0  0
   -0.0808  -33.0867  -42.2370 N   0  0  0  0  0  0  0  0  0  0  0  0
  1  2  1  0  0  0  0
  1  7  1  0  0  0  0
  2  3  1  0  0  0  0
  2  4  2  0  0  0  0
  4  5  1  0  0  0  0
  5  6  2  0  0  0  0
  5 11  1  0  0  0  0
  6  7  1  0  0  0  0
  6  9  1  0  0  0  0
  7  8  2  0  0  0  0
  9 10  2  0  0  0  0
  9 12  1  0  0  0  0
 10 11  1  0  0  0  0
 12 13  1  0  0  0  0
M  END
>  <CHROM.1>
-139.90388300,-3.76664515,-34.04292409,-43.38895439,-2.76857954,0.40888678
1.59079004

>  <Name>
ligand

>  <RI>
0

>  <Rbt.Current_Directory>
/home/itssahil/PROJECTS/Mol_Feturizer/Test_systems_manuscript/rnas/3fu2

>  <Rbt.Executable>
rbdock ($Id: //depot/dev/client3/rdock/2013.1/src/exe/rbdock.cxx#4 $)

>  <Rbt.Library>
libRbt.so (2013.1, Build901 2013/11/27)

>  <Rbt.Parameter_File>
/export/apps/rDock/src/rDock_2013.1_src/data/scripts/dock_solv.prm

>  <Rbt.Receptor>
prm/pocket_docking_2.prm

>  <SCORE>
-16.0871

>  <SCORE.INTER>
-15.7962

>  <SCORE.INTER.CONST>
1

>  <SCORE.INTER.POLAR>
0

>  <SCORE.INTER.ROT>
1

>  <SCORE.INTER.SOLV>
20.3243

>  <SCORE.INTER.VDW>
-21.5722

>  <SCORE.INTER.norm>
-1.21509

>  <SCORE.INTRA>
-0.290906

>  <SCORE.INTRA.DIHEDRAL>
-0.00187711

>  <SCORE.INTRA.DIHEDRAL.0>
1.66609

>  <SCORE.INTRA.POLAR>
0

>  <SCORE.INTRA.POLAR.0>
0

>  <SCORE.INTRA.REPUL>
0

>  <SCORE.INTRA.REPUL.0>
0

>  <SCORE.INTRA.SOLV>
-0.990246

>  <SCORE.INTRA.SOLV.lig_0>
-45.868

>  <SCORE.INTRA.VDW>
0.205156

>  <SCORE.INTRA.VDW.0>
-0.397919

>  <SCORE.INTRA.norm>
-0.0223774

>  <SCORE.RESTR>
0

>  <SCORE.RESTR.CAVITY>
0

>  <SCORE.RESTR.norm>
0

>  <SCORE.SYSTEM>
0

>  <SCORE.SYSTEM.CONST>
0

>  <SCORE.SYSTEM.DIHEDRAL>
0

>  <SCORE.SYSTEM.SOLV>
0

>  <SCORE.SYSTEM.norm>
0

>  <SCORE.heavy>
13

>  <SCORE.norm>
-1.23747

>  <RMSD>
1.354

$$$$
ligand
 OpenBabel02271912143D
libRbt.so/2013.1/901 2013/11/27
 13 14  0  0  0  0  0  0  0  0999 V2000
   -4.9912  -34.5135  -45.1783 N   0  0  0  0  0  0  0  0  0  0  0  0
   -5.8912  -35.0184  -44.2783 C   0  0  0  0  0  0  0  0  0  0  0  0
   -7.0356  -35.6045  -44.7461 N   0  0  0  0  0  0  0  0  0  0  0  0
   -5.6719  -34.9502  -42.9649 N   0  0  0  0  0  0  0  0  0  0  0  0
   -4.5441  -34.3732  -42.4654 C   0  0  0  0  0  0  0  0  0  0  0  0
   -3.5890  -33.8352  -43.3557 C   0  0  0  0  0  0  0  0  0  0  0  0
   -3.8406  -33.9214  -44.7518 C   0  0  0  0  0  0  0  0  0  0  0  0
   -3.0510  -33.4788  -45.5489 O   0  0  0  0  0  0  0  0  0  0  0  0
   -2.5133  -33.2920  -42.5324 C   0  0  0  0  0  0  0  0  0  0  0  0
   -2.8523  -33.5227  -41.2515 C   0  0  0  0  0  0  0  0  0  0  0  0
   -4.0688  -34.1706  -41.2052 N   0  0  0  0  0  0  0  0  0  0  0  0
   -1.2689  -32.5993  -43.0256 C   0  0  0  0  0  0  0  0  0  0  0  0
   -0.1135  -33.0635  -42.2311 N   0  0  0  0  0  0  0  0  0  0  0  0
  1  2  1  0  0  0  0
  1  7  1  0  0  0  0
  2  3  1  0  0  0  0
  2  4  2  0  0  0  0
  4  5  1  0  0  0  0
  5  6  2  0  0  0  0
  5 11  1  0  0  0  0
  6  7  1  0  0  0  0
  6  9  1  0  0  0  0
  7  8  2  0  0  0  0
  9 10  2  0  0  0  0
  9 12  1  0  0  0  0
 10 11  1  0  0  0  0
 12 13  1  0  0  0  0
M  END
>  <CHROM.1>
-138.51969930,-3.78858914,-34.02217237,-43.39121365,-2.76973678,0.42208059
1.61606308

>  <Name>
ligand

>  <RI>
0

>  <Rbt.Current_Directory>
/home/itssahil/PROJECTS/Mol_Feturizer/Test_systems_manuscript/rnas/3fu2

>  <Rbt.Executable>
rbdock ($Id: //depot/dev/client3/rdock/2013.1/src/exe/rbdock.cxx#4 $)

>  <Rbt.Library>
libRbt.so (2013.1, Build901 2013/11/27)

>  <Rbt.Parameter_File>
/export/apps/rDock/src/rDock_2013.1_src/data/scripts/dock_solv.prm

>  <Rbt.Receptor>
prm/pocket_docking_5.prm

>  <SCORE>
-16.0369

>  <SCORE.INTER>
-15.7398

>  <SCORE.INTER.CONST>
1

>  <SCORE.INTER.POLAR>
0

>  <SCORE.INTER.ROT>
1

>  <SCORE.INTER.SOLV>
20.2412

>  <SCORE.INTER.VDW>
-21.5069

>  <SCORE.INTER.norm>
-1.21075

>  <SCORE.INTRA>
-0.297126

>  <SCORE.INTRA.DIHEDRAL>
-0.00115103

>  <SCORE.INTRA.DIHEDRAL.0>
1.66609

>  <SCORE.INTRA.POLAR>
0

>  <SCORE.INTRA.POLAR.0>
0

>  <SCORE.INTRA.REPUL>
0

>  <SCORE.INTRA.REPUL.0>
0

>  <SCORE.INTRA.SOLV>
-0.990805

>  <SCORE.INTRA.SOLV.lig_0>
-45.868

>  <SCORE.INTRA.VDW>
0.198852

>  <SCORE.INTRA.VDW.0>
-0.397919

>  <SCORE.INTRA.norm>
-0.0228559

>  <SCORE.RESTR>
0

>  <SCORE.RESTR.CAVITY>
0

>  <SCORE.RESTR.norm>
0

>  <SCORE.SYSTEM>
0

>  <SCORE.SYSTEM.CONST>
0

>  <SCORE.SYSTEM.DIHEDRAL>
0

>  <SCORE.SYSTEM.SOLV>
0

>  <SCORE.SYSTEM.norm>
0

>  <SCORE.heavy>
13

>  <SCORE.norm>
-1.23361

>  <RMSD>
1.357

$$$$
ligand
 OpenBabel02271912143D
libRbt.so/2013.1/901 2013/11/27
 13 14  0  0  0  0  0  0  0  0999 V2000
   -4.9557  -34.5695  -45.1543 N   0  0  0  0  0  0  0  0  0  0  0  0
   -5.8721  -35.0320  -44.2482 C   0  0  0  0  0  0  0  0  0  0  0  0
   -7.0250  -35.6071  -44.7090 N   0  0  0  0  0  0  0  0  0  0  0  0
   -5.6609  -34.9332  -42.9354 N   0  0  0  0  0  0  0  0  0  0  0  0
   -4.5251  -34.3659  -42.4428 C   0  0  0  0  0  0  0  0  0  0  0  0
   -3.5529  -33.8713  -43.3398 C   0  0  0  0  0  0  0  0  0  0  0  0
   -3.7964  -33.9896  -44.7350 C   0  0  0  0  0  0  0  0  0  0  0  0
   -2.9923  -33.5843  -45.5375 O   0  0  0  0  0  0  0  0  0  0  0  0
   -2.4723  -33.3281  -42.5229 C   0  0  0  0  0  0  0  0  0  0  0  0
   -2.8250  -33.5177  -41.2391 C   0  0  0  0  0  0  0  0  0  0  0  0
   -4.0547  -34.1394  -41.1848 N   0  0  0  0  0  0  0  0  0  0  0  0
   -1.2106  -32.6740  -43.0248 C   0  0  0  0  0  0  0  0  0  0  0  0
   -0.0774  -33.1048  -42.1811 N   0  0  0  0  0  0  0  0  0  0  0  0
  1  2  1  0  0  0  0
  1  7  1  0  0  0  0
  2  3  1  0  0  0  0
  2  4  2  0  0  0  0
  4  5  1  0  0  0  0
  5  6  2  0  0  0  0
  5 11  1  0  0  0  0
  6  7  1  0  0  0  0
  6  9  1  0  0  0  0
  7  8  2  0  0  0  0
  9 10  2  0  0  0  0
  9 12  1  0  0  0  0
 10 11  1  0  0  0  0
 12 13  1  0  0  0  0
M  END
>  <CHROM.1>
-140.39949031,-3.75662735,-34.05215861,-43.36949379,-2.75889995,0.40471393
1.58638405

>  <Name>
ligand

>  <RI>
0

>  <Rbt.Current_Directory>
/home/itssahil/PROJECTS/Mol_Feturizer/Test_systems_manuscript/rnas/3fu2

>  <Rbt.Executable>
rbdock ($Id: //depot/dev/client3/rdock/2013.1/src/exe/rbdock.cxx#4 $)

>  <Rbt.Library>
libRbt.so (2013.1, Build901 2013/11/27)

>  <Rbt.Parameter_File>
/export/apps/rDock/src/rDock_2013.1_src/data/scripts/dock_solv.prm

>  <Rbt.Receptor>
prm/blind_docking_60.prm

>  <SCORE>
-16.1301

>  <SCORE.INTER>
-15.8414

>  <SCORE.INTER.CONST>
1

>  <SCORE.INTER.POLAR>
0

>  <SCORE.INTER.ROT>
1

>  <SCORE.INTER.SOLV>
20.308

>  <SCORE.INTER.VDW>
-21.5969

>  <SCORE.INTER.norm>
-1.21857

>  <SCORE.INTRA>
-0.288645

>  <SCORE.INTRA.DIHEDRAL>
-0.00211711

>  <SCORE.INTRA.DIHEDRAL.0>
1.66609

>  <SCORE.INTRA.POLAR>
0

>  <SCORE.INTRA.POLAR.0>
0

>  <SCORE.INTRA.REPUL>
0

>  <SCORE.INTRA.REPUL.0>
0

>  <SCORE.INTRA.SOLV>
-0.990045

>  <SCORE.INTRA.SOLV.lig_0>
-45.868

>  <SCORE.INTRA.VDW>
0.207437

>  <SCORE.INTRA.VDW.0>
-0.397919

>  <SCORE.INTRA.norm>
-0.0222034

>  <SCORE.RESTR>
0

>  <SCORE.RESTR.CAVITY>
0

>  <SCORE.RESTR.norm>
0

>  <SCORE.SYSTEM>
0

>  <SCORE.SYSTEM.CONST>
0

>  <SCORE.SYSTEM.DIHEDRAL>
0

>  <SCORE.SYSTEM.SOLV>
0

>  <SCORE.SYSTEM.norm>
0

>  <SCORE.heavy>
13

>  <SCORE.norm>
-1.24077

>  <RMSD>
1.358

$$$$
ligand
 OpenBabel02271912143D
libRbt.so/2013.1/901 2013/11/27
 13 14  0  0  0  0  0  0  0  0999 V2000
   -4.9645  -34.5698  -45.1561 N   0  0  0  0  0  0  0  0  0  0  0  0
   -5.8772  -35.0377  -44.2490 C   0  0  0  0  0  0  0  0  0  0  0  0
   -7.0297  -35.6145  -44.7085 N   0  0  0  0  0  0  0  0  0  0  0  0
   -5.6626  -34.9427  -42.9365 N   0  0  0  0  0  0  0  0  0  0  0  0
   -4.5269  -34.3739  -42.4452 C   0  0  0  0  0  0  0  0  0  0  0  0
   -3.5586  -33.8737  -43.3431 C   0  0  0  0  0  0  0  0  0  0  0  0
   -3.8057  -33.9881  -44.7381 C   0  0  0  0  0  0  0  0  0  0  0  0
   -3.0049  -33.5780  -45.5415 O   0  0  0  0  0  0  0  0  0  0  0  0
   -2.4773  -33.3302  -42.5275 C   0  0  0  0  0  0  0  0  0  0  0  0
   -2.8258  -33.5249  -41.2433 C   0  0  0  0  0  0  0  0  0  0  0  0
   -4.0537  -34.1502  -41.1877 N   0  0  0  0  0  0  0  0  0  0  0  0
   -1.2187  -32.6710  -43.0308 C   0  0  0  0  0  0  0  0  0  0  0  0
   -0.0853  -33.0862  -42.1795 N   0  0  0  0  0  0  0  0  0  0  0  0
  1  2  1  0  0  0  0
  1  7  1  0  0  0  0
  2  3  1  0  0  0  0
  2  4  2  0  0  0  0
  4  5  1  0  0  0  0
  5  6  2  0  0  0  0
  5 11  1  0  0  0  0
  6  7  1  0  0  0  0
  6  9  1  0  0  0  0
  7  8  2  0  0  0  0
  9 10  2  0  0  0  0
  9 12  1  0  0  0  0
 10 11  1  0  0  0  0
 12 13  1  0  0  0  0
M  END
>  <CHROM.1>
-141.20982772,-3.76219399,-34.05375185,-43.37193165,-2.76104974,0.40855704
1.59100859

>  <Name>
ligand

>  <RI>
0

>  <Rbt.Current_Directory>
/home/itssahil/PROJECTS/Mol_Feturizer/Test_systems_manuscript/rnas/3fu2

>  <Rbt.Executable>
rbdock ($Id: //depot/dev/client3/rdock/2013.1/src/exe/rbdock.cxx#4 $)

>  <Rbt.Library>
libRbt.so (2013.1, Build901 2013/11/27)

>  <Rbt.Parameter_File>
/export/apps/rDock/src/rDock_2013.1_src/data/scripts/dock_solv.prm

>  <Rbt.Receptor>
prm/pocket_docking_2.prm

>  <SCORE>
-16.1022

>  <SCORE.INTER>
-15.8173

>  <SCORE.INTER.CONST>
1

>  <SCORE.INTER.POLAR>
0

>  <SCORE.INTER.ROT>
1

>  <SCORE.INTER.SOLV>
20.2897

>  <SCORE.INTER.VDW>
-21.5748

>  <SCORE.INTER.norm>
-1.21672

>  <SCORE.INTRA>
-0.284911

>  <SCORE.INTRA.DIHEDRAL>
-0.00248621

>  <SCORE.INTRA.DIHEDRAL.0>
1.66609

>  <SCORE.INTRA.POLAR>
0

>  <SCORE.INTRA.POLAR.0>
0

>  <SCORE.INTRA.REPUL>
0

>  <SCORE.INTRA.REPUL.0>
0

>  <SCORE.INTRA.SOLV>
-0.989716

>  <SCORE.INTRA.SOLV.lig_0>
-45.868

>  <SCORE.INTRA.VDW>
0.21119

>  <SCORE.INTRA.VDW.0>
-0.397919

>  <SCORE.INTRA.norm>
-0.0219162

>  <SCORE.RESTR>
0

>  <SCORE.RESTR.CAVITY>
0

>  <SCORE.RESTR.norm>
0

>  <SCORE.SYSTEM>
0

>  <SCORE.SYSTEM.CONST>
0

>  <SCORE.SYSTEM.DIHEDRAL>
0

>  <SCORE.SYSTEM.SOLV>
0

>  <SCORE.SYSTEM.norm>
0

>  <SCORE.heavy>
13

>  <SCORE.norm>
-1.23863

>  <RMSD>
1.358

$$$$
ligand
 OpenBabel02271912143D
libRbt.so/2013.1/901 2013/11/27
 13 14  0  0  0  0  0  0  0  0999 V2000
   -4.9584  -34.5701  -45.1559 N   0  0  0  0  0  0  0  0  0  0  0  0
   -5.8740  -35.0344  -44.2498 C   0  0  0  0  0  0  0  0  0  0  0  0
   -7.0273  -35.6086  -44.7107 N   0  0  0  0  0  0  0  0  0  0  0  0
   -5.6614  -34.9385  -42.9370 N   0  0  0  0  0  0  0  0  0  0  0  0
   -4.5250  -34.3724  -42.4444 C   0  0  0  0  0  0  0  0  0  0  0  0
   -3.5537  -33.8759  -43.3413 C   0  0  0  0  0  0  0  0  0  0  0  0
   -3.7987  -33.9912  -44.7365 C   0  0  0  0  0  0  0  0  0  0  0  0
   -2.9954  -33.5843  -45.5390 O   0  0  0  0  0  0  0  0  0  0  0  0
   -2.4723  -33.3345  -42.5244 C   0  0  0  0  0  0  0  0  0  0  0  0
   -2.8236  -33.5268  -41.2406 C   0  0  0  0  0  0  0  0  0  0  0  0
   -4.0533  -34.1486  -41.1864 N   0  0  0  0  0  0  0  0  0  0  0  0
   -1.2110  -32.6794  -43.0262 C   0  0  0  0  0  0  0  0  0  0  0  0
   -0.0770  -33.1121  -42.1845 N   0  0  0  0  0  0  0  0  0  0  0  0
  1  2  1  0  0  0  0
  1  7  1  0  0  0  0
  2  3  1  0  0  0  0
  2  4  2  0  0  0  0
  4  5  1  0  0  0  0
  5  6  2  0  0  0  0
  5 11  1  0  0  0  0
  6  7  1  0  0  0  0
  6  9  1  0  0  0  0
  7  8  2  0  0  0  0
  9 10  2  0  0  0  0
  9 12  1  0  0  0  0
 10 11  1  0  0  0  0
 12 13  1  0  0  0  0
M  END
>  <CHROM.1>
-140.40257300,-3.75749163,-34.05667861,-43.37120595,-2.76000675,0.40462476
1.58895555

>  <Name>
ligand

>  <RI>
0

>  <Rbt.Current_Directory>
/home/itssahil/PROJECTS/Mol_Feturizer/Test_systems_manuscript/rnas/3fu2

>  <Rbt.Executable>
rbdock ($Id: //depot/dev/client3/rdock/2013.1/src/exe/rbdock.cxx#4 $)

>  <Rbt.Library>
libRbt.so (2013.1, Build901 2013/11/27)

>  <Rbt.Parameter_File>
/export/apps/rDock/src/rDock_2013.1_src/data/scripts/dock_solv.prm

>  <Rbt.Receptor>
prm/blind_docking_60.prm

>  <SCORE>
-16.131

>  <SCORE.INTER>
-15.8424

>  <SCORE.INTER.CONST>
1

>  <SCORE.INTER.POLAR>
0

>  <SCORE.INTER.ROT>
1

>  <SCORE.INTER.SOLV>
20.3103

>  <SCORE.INTER.VDW>
-21.5984

>  <SCORE.INTER.norm>
-1.21864

>  <SCORE.INTRA>
-0.28863

>  <SCORE.INTRA.DIHEDRAL>
-0.00211857

>  <SCORE.INTRA.DIHEDRAL.0>
1.66609

>  <SCORE.INTRA.POLAR>
0

>  <SCORE.INTRA.POLAR.0>
0

>  <SCORE.INTRA.REPUL>
0

>  <SCORE.INTRA.REPUL.0>
0

>  <SCORE.INTRA.SOLV>
-0.990044

>  <SCORE.INTRA.SOLV.lig_0>
-45.868

>  <SCORE.INTRA.VDW>
0.207451

>  <SCORE.INTRA.VDW.0>
-0.397919

>  <SCORE.INTRA.norm>
-0.0222023

>  <SCORE.RESTR>
0

>  <SCORE.RESTR.CAVITY>
0

>  <SCORE.RESTR.norm>
0

>  <SCORE.SYSTEM>
0

>  <SCORE.SYSTEM.CONST>
0

>  <SCORE.SYSTEM.DIHEDRAL>
0

>  <SCORE.SYSTEM.SOLV>
0

>  <SCORE.SYSTEM.norm>
0

>  <SCORE.heavy>
13

>  <SCORE.norm>
-1.24085

>  <RMSD>
1.360

$$$$
ligand
 OpenBabel02271912143D
libRbt.so/2013.1/901 2013/11/27
 13 14  0  0  0  0  0  0  0  0999 V2000
   -4.9585  -34.5712  -45.1527 N   0  0  0  0  0  0  0  0  0  0  0  0
   -5.8747  -35.0343  -44.2466 C   0  0  0  0  0  0  0  0  0  0  0  0
   -7.0281  -35.6082  -44.7075 N   0  0  0  0  0  0  0  0  0  0  0  0
   -5.6626  -34.9374  -42.9338 N   0  0  0  0  0  0  0  0  0  0  0  0
   -4.5262  -34.3714  -42.4412 C   0  0  0  0  0  0  0  0  0  0  0  0
   -3.5542  -33.8762  -43.3380 C   0  0  0  0  0  0  0  0  0  0  0  0
   -3.7986  -33.9926  -44.7333 C   0  0  0  0  0  0  0  0  0  0  0  0
   -2.9947  -33.5868  -45.5357 O   0  0  0  0  0  0  0  0  0  0  0  0
   -2.4728  -33.3348  -42.5211 C   0  0  0  0  0  0  0  0  0  0  0  0
   -2.8248  -33.5258  -41.2373 C   0  0  0  0  0  0  0  0  0  0  0  0
   -4.0549  -34.1468  -41.1832 N   0  0  0  0  0  0  0  0  0  0  0  0
   -1.2110  -32.6808  -43.0229 C   0  0  0  0  0  0  0  0  0  0  0  0
   -0.0788  -33.1074  -42.1757 N   0  0  0  0  0  0  0  0  0  0  0  0
  1  2  1  0  0  0  0
  1  7  1  0  0  0  0
  2  3  1  0  0  0  0
  2  4  2  0  0  0  0
  4  5  1  0  0  0  0
  5  6  2  0  0  0  0
  5 11  1  0  0  0  0
  6  7  1  0  0  0  0
  6  9  1  0  0  0  0
  7  8  2  0  0  0  0
  9 10  2  0  0  0  0
  9 12  1  0  0  0  0
 10 11  1  0  0  0  0
 12 13  1  0  0  0  0
M  END
>  <CHROM.1>
-140.71857687,-3.75816681,-34.05645830,-43.36749319,-2.75916357,0.40453804
1.58796894

>  <Name>
ligand

>  <RI>
0

>  <Rbt.Current_Directory>
/home/itssahil/PROJECTS/Mol_Feturizer/Test_systems_manuscript/rnas/3fu2

>  <Rbt.Executable>
rbdock ($Id: //depot/dev/client3/rdock/2013.1/src/exe/rbdock.cxx#4 $)

>  <Rbt.Library>
libRbt.so (2013.1, Build901 2013/11/27)

>  <Rbt.Parameter_File>
/export/apps/rDock/src/rDock_2013.1_src/data/scripts/dock_solv.prm

>  <Rbt.Receptor>
prm/pocket_docking_6.prm

>  <SCORE>
-16.1291

>  <SCORE.INTER>
-15.8419

>  <SCORE.INTER.CONST>
1

>  <SCORE.INTER.POLAR>
0

>  <SCORE.INTER.ROT>
1

>  <SCORE.INTER.SOLV>
20.3073

>  <SCORE.INTER.VDW>
-21.597

>  <SCORE.INTER.norm>
-1.21861

>  <SCORE.INTRA>
-0.28718

>  <SCORE.INTRA.DIHEDRAL>
-0.00226593

>  <SCORE.INTRA.DIHEDRAL.0>
1.66609

>  <SCORE.INTRA.POLAR>
0

>  <SCORE.INTRA.POLAR.0>
0

>  <SCORE.INTRA.REPUL>
0

>  <SCORE.INTRA.REPUL.0>
0

>  <SCORE.INTRA.SOLV>
-0.989916

>  <SCORE.INTRA.SOLV.lig_0>
-45.868

>  <SCORE.INTRA.VDW>
0.208911

>  <SCORE.INTRA.VDW.0>
-0.397919

>  <SCORE.INTRA.norm>
-0.0220907

>  <SCORE.RESTR>
0

>  <SCORE.RESTR.CAVITY>
0

>  <SCORE.RESTR.norm>
0

>  <SCORE.SYSTEM>
0

>  <SCORE.SYSTEM.CONST>
0

>  <SCORE.SYSTEM.DIHEDRAL>
0

>  <SCORE.SYSTEM.SOLV>
0

>  <SCORE.SYSTEM.norm>
0

>  <SCORE.heavy>
13

>  <SCORE.norm>
-1.2407

>  <RMSD>
1.360

$$$$
ligand
 OpenBabel02271912143D
libRbt.so/2013.1/901 2013/11/27
 13 14  0  0  0  0  0  0  0  0999 V2000
   -4.9562  -34.5695  -45.1543 N   0  0  0  0  0  0  0  0  0  0  0  0
   -5.8742  -35.0303  -44.2490 C   0  0  0  0  0  0  0  0  0  0  0  0
   -7.0279  -35.6030  -44.7108 N   0  0  0  0  0  0  0  0  0  0  0  0
   -5.6637  -34.9323  -42.9360 N   0  0  0  0  0  0  0  0  0  0  0  0
   -4.5271  -34.3675  -42.4425 C   0  0  0  0  0  0  0  0  0  0  0  0
   -3.5533  -33.8746  -43.3386 C   0  0  0  0  0  0  0  0  0  0  0  0
   -3.7960  -33.9921  -44.7340 C   0  0  0  0  0  0  0  0  0  0  0  0
   -2.9905  -33.5883  -45.5359 O   0  0  0  0  0  0  0  0  0  0  0  0
   -2.4722  -33.3338  -42.5209 C   0  0  0  0  0  0  0  0  0  0  0  0
   -2.8261  -33.5230  -41.2373 C   0  0  0  0  0  0  0  0  0  0  0  0
   -4.0572  -34.1422  -41.1841 N   0  0  0  0  0  0  0  0  0  0  0  0
   -1.2087  -32.6822  -43.0217 C   0  0  0  0  0  0  0  0  0  0  0  0
   -0.0764  -33.1191  -42.1800 N   0  0  0  0  0  0  0  0  0  0  0  0
  1  2  1  0  0  0  0
  1  7  1  0  0  0  0
  2  3  1  0  0  0  0
  2  4  2  0  0  0  0
  4  5  1  0  0  0  0
  5  6  2  0  0  0  0
  5 11  1  0  0  0  0
  6  7  1  0  0  0  0
  6  9  1  0  0  0  0
  7  8  2  0  0  0  0
  9 10  2  0  0  0  0
  9 12  1  0  0  0  0
 10 11  1  0  0  0  0
 12 13  1  0  0  0  0
M  END
>  <CHROM.1>
-140.21232668,-3.75729975,-34.05536462,-43.36875625,-2.75828942,0.40240363
1.58625068

>  <Name>
ligand

>  <RI>
0

>  <Rbt.Current_Directory>
/home/itssahil/PROJECTS/Mol_Feturizer/Test_systems_manuscript/rnas/3fu2

>  <Rbt.Executable>
rbdock ($Id: //depot/dev/client3/rdock/2013.1/src/exe/rbdock.cxx#4 $)

>  <Rbt.Library>
libRbt.so (2013.1, Build901 2013/11/27)

>  <Rbt.Parameter_File>
/export/apps/rDock/src/rDock_2013.1_src/data/scripts/dock_solv.prm

>  <Rbt.Receptor>
prm/pocket_docking_3.prm

>  <SCORE>
-16.1274

>  <SCORE.INTER>
-15.8379

>  <SCORE.INTER.CONST>
1

>  <SCORE.INTER.POLAR>
0

>  <SCORE.INTER.ROT>
1

>  <SCORE.INTER.SOLV>
20.3211

>  <SCORE.INTER.VDW>
-21.599

>  <SCORE.INTER.norm>
-1.2183

>  <SCORE.INTRA>
-0.289501

>  <SCORE.INTRA.DIHEDRAL>
-0.00202774

>  <SCORE.INTRA.DIHEDRAL.0>
1.66609

>  <SCORE.INTRA.POLAR>
0

>  <SCORE.INTRA.POLAR.0>
0

>  <SCORE.INTRA.REPUL>
0

>  <SCORE.INTRA.REPUL.0>
0

>  <SCORE.INTRA.SOLV>
-0.990121

>  <SCORE.INTRA.SOLV.lig_0>
-45.868

>  <SCORE.INTRA.VDW>
0.206574

>  <SCORE.INTRA.VDW.0>
-0.397919

>  <SCORE.INTRA.norm>
-0.0222693

>  <SCORE.RESTR>
0

>  <SCORE.RESTR.CAVITY>
0

>  <SCORE.RESTR.norm>
0

>  <SCORE.SYSTEM>
0

>  <SCORE.SYSTEM.CONST>
0

>  <SCORE.SYSTEM.DIHEDRAL>
0

>  <SCORE.SYSTEM.SOLV>
0

>  <SCORE.SYSTEM.norm>
0

>  <SCORE.heavy>
13

>  <SCORE.norm>
-1.24057

>  <RMSD>
1.361

$$$$
ligand
 OpenBabel02271912143D
libRbt.so/2013.1/901 2013/11/27
 13 14  0  0  0  0  0  0  0  0999 V2000
   -4.9568  -34.5722  -45.1503 N   0  0  0  0  0  0  0  0  0  0  0  0
   -5.8733  -35.0366  -44.2452 C   0  0  0  0  0  0  0  0  0  0  0  0
   -7.0259  -35.6113  -44.7072 N   0  0  0  0  0  0  0  0  0  0  0  0
   -5.6622  -34.9403  -42.9322 N   0  0  0  0  0  0  0  0  0  0  0  0
   -4.5266  -34.3735  -42.4384 C   0  0  0  0  0  0  0  0  0  0  0  0
   -3.5545  -33.8769  -43.3343 C   0  0  0  0  0  0  0  0  0  0  0  0
   -3.7978  -33.9927  -44.7298 C   0  0  0  0  0  0  0  0  0  0  0  0
   -2.9938  -33.5857  -45.5314 O   0  0  0  0  0  0  0  0  0  0  0  0
   -2.4742  -33.3349  -42.5163 C   0  0  0  0  0  0  0  0  0  0  0  0
   -2.8269  -33.5270  -41.2329 C   0  0  0  0  0  0  0  0  0  0  0  0
   -4.0565  -34.1492  -41.1800 N   0  0  0  0  0  0  0  0  0  0  0  0
   -1.2126  -32.6795  -43.0169 C   0  0  0  0  0  0  0  0  0  0  0  0
   -0.0780  -33.1185  -42.1793 N   0  0  0  0  0  0  0  0  0  0  0  0
  1  2  1  0  0  0  0
  1  7  1  0  0  0  0
  2  3  1  0  0  0  0
  2  4  2  0  0  0  0
  4  5  1  0  0  0  0
  5  6  2  0  0  0  0
  5 11  1  0  0  0  0
  6  7  1  0  0  0  0
  6  9  1  0  0  0  0
  7  8  2  0  0  0  0
  9 10  2  0  0  0  0
  9 12  1  0  0  0  0
 10 11  1  0  0  0  0
 12 13  1  0  0  0  0
M  END
>  <CHROM.1>
-140.03249142,-3.75806024,-34.05837458,-43.36486071,-2.75918373,0.40450251
1.58810389

>  <Name>
ligand

>  <RI>
0

>  <Rbt.Current_Directory>
/home/itssahil/PROJECTS/Mol_Feturizer/Test_systems_manuscript/rnas/3fu2

>  <Rbt.Executable>
rbdock ($Id: //depot/dev/client3/rdock/2013.1/src/exe/rbdock.cxx#4 $)

>  <Rbt.Library>
libRbt.so (2013.1, Build901 2013/11/27)

>  <Rbt.Parameter_File>
/export/apps/rDock/src/rDock_2013.1_src/data/scripts/dock_solv.prm

>  <Rbt.Receptor>
prm/blind_docking_100.prm

>  <SCORE>
-16.1045

>  <SCORE.INTER>
-15.8142

>  <SCORE.INTER.CONST>
1

>  <SCORE.INTER.POLAR>
0

>  <SCORE.INTER.ROT>
1

>  <SCORE.INTER.SOLV>
20.314

>  <SCORE.INTER.VDW>
-21.5808

>  <SCORE.INTER.norm>
-1.21648

>  <SCORE.INTRA>
-0.290321

>  <SCORE.INTRA.DIHEDRAL>
-0.00194042

>  <SCORE.INTRA.DIHEDRAL.0>
1.66609

>  <SCORE.INTRA.POLAR>
0

>  <SCORE.INTRA.POLAR.0>
0

>  <SCORE.INTRA.REPUL>
0

>  <SCORE.INTRA.REPUL.0>
0

>  <SCORE.INTRA.SOLV>
-0.990194

>  <SCORE.INTRA.SOLV.lig_0>
-45.868

>  <SCORE.INTRA.VDW>
0.205747

>  <SCORE.INTRA.VDW.0>
-0.397919

>  <SCORE.INTRA.norm>
-0.0223324

>  <SCORE.RESTR>
0

>  <SCORE.RESTR.CAVITY>
0

>  <SCORE.RESTR.norm>
0

>  <SCORE.SYSTEM>
0

>  <SCORE.SYSTEM.CONST>
0

>  <SCORE.SYSTEM.DIHEDRAL>
0

>  <SCORE.SYSTEM.SOLV>
0

>  <SCORE.SYSTEM.norm>
0

>  <SCORE.heavy>
13

>  <SCORE.norm>
-1.23881

>  <RMSD>
1.362

$$$$
ligand
 OpenBabel02271912143D
libRbt.so/2013.1/901 2013/11/27
 13 14  0  0  0  0  0  0  0  0999 V2000
   -4.9549  -34.5713  -45.1537 N   0  0  0  0  0  0  0  0  0  0  0  0
   -5.8713  -35.0389  -44.2502 C   0  0  0  0  0  0  0  0  0  0  0  0
   -7.0212  -35.6174  -44.7144 N   0  0  0  0  0  0  0  0  0  0  0  0
   -5.6629  -34.9421  -42.9368 N   0  0  0  0  0  0  0  0  0  0  0  0
   -4.5301  -34.3716  -42.4410 C   0  0  0  0  0  0  0  0  0  0  0  0
   -3.5581  -33.8716  -43.3351 C   0  0  0  0  0  0  0  0  0  0  0  0
   -3.7985  -33.9880  -44.7310 C   0  0  0  0  0  0  0  0  0  0  0  0
   -2.9944  -33.5782  -45.5312 O   0  0  0  0  0  0  0  0  0  0  0  0
   -2.4810  -33.3261  -42.5151 C   0  0  0  0  0  0  0  0  0  0  0  0
   -2.8354  -33.5196  -41.2323 C   0  0  0  0  0  0  0  0  0  0  0  0
   -4.0629  -34.1460  -41.1817 N   0  0  0  0  0  0  0  0  0  0  0  0
   -1.2207  -32.6664  -43.0134 C   0  0  0  0  0  0  0  0  0  0  0  0
   -0.0826  -33.1193  -42.1881 N   0  0  0  0  0  0  0  0  0  0  0  0
  1  2  1  0  0  0  0
  1  7  1  0  0  0  0
  2  3  1  0  0  0  0
  2  4  2  0  0  0  0
  4  5  1  0  0  0  0
  5  6  2  0  0  0  0
  5 11  1  0  0  0  0
  6  7  1  0  0  0  0
  6  9  1  0  0  0  0
  7  8  2  0  0  0  0
  9 10  2  0  0  0  0
  9 12  1  0  0  0  0
 10 11  1  0  0  0  0
 12 13  1  0  0  0  0
M  END
>  <CHROM.1>
-139.09413533,-3.76066796,-34.05517501,-43.36717857,-2.75841115,0.40654643
1.58736335

>  <Name>
ligand

>  <RI>
0

>  <Rbt.Current_Directory>
/home/itssahil/PROJECTS/Mol_Feturizer/Test_systems_manuscript/rnas/3fu2

>  <Rbt.Executable>
rbdock ($Id: //depot/dev/client3/rdock/2013.1/src/exe/rbdock.cxx#4 $)

>  <Rbt.Library>
libRbt.so (2013.1, Build901 2013/11/27)

>  <Rbt.Parameter_File>
/export/apps/rDock/src/rDock_2013.1_src/data/scripts/dock_solv.prm

>  <Rbt.Receptor>
prm/blind_docking_80.prm

>  <SCORE>
-16.1072

>  <SCORE.INTER>
-15.8126

>  <SCORE.INTER.CONST>
1

>  <SCORE.INTER.POLAR>
0

>  <SCORE.INTER.ROT>
1

>  <SCORE.INTER.SOLV>
20.3123

>  <SCORE.INTER.VDW>
-21.5792

>  <SCORE.INTER.norm>
-1.21635

>  <SCORE.INTRA>
-0.294562

>  <SCORE.INTRA.DIHEDRAL>
-0.00146218

>  <SCORE.INTRA.DIHEDRAL.0>
1.66609

>  <SCORE.INTRA.POLAR>
0

>  <SCORE.INTRA.POLAR.0>
0

>  <SCORE.INTRA.REPUL>
0

>  <SCORE.INTRA.REPUL.0>
0

>  <SCORE.INTRA.SOLV>
-0.990573

>  <SCORE.INTRA.SOLV.lig_0>
-45.868

>  <SCORE.INTRA.VDW>
0.201456

>  <SCORE.INTRA.VDW.0>
-0.397919

>  <SCORE.INTRA.norm>
-0.0226586

>  <SCORE.RESTR>
0

>  <SCORE.RESTR.CAVITY>
0

>  <SCORE.RESTR.norm>
0

>  <SCORE.SYSTEM>
0

>  <SCORE.SYSTEM.CONST>
0

>  <SCORE.SYSTEM.DIHEDRAL>
0

>  <SCORE.SYSTEM.SOLV>
0

>  <SCORE.SYSTEM.norm>
0

>  <SCORE.heavy>
13

>  <SCORE.norm>
-1.23901

>  <RMSD>
1.362

$$$$
ligand
 OpenBabel02271912143D
libRbt.so/2013.1/901 2013/11/27
 13 14  0  0  0  0  0  0  0  0999 V2000
   -4.9487  -34.5716  -45.1477 N   0  0  0  0  0  0  0  0  0  0  0  0
   -5.8681  -35.0383  -44.2467 C   0  0  0  0  0  0  0  0  0  0  0  0
   -7.0174  -35.6153  -44.7139 N   0  0  0  0  0  0  0  0  0  0  0  0
   -5.6629  -34.9418  -42.9328 N   0  0  0  0  0  0  0  0  0  0  0  0
   -4.5307  -34.3728  -42.4339 C   0  0  0  0  0  0  0  0  0  0  0  0
   -3.5558  -33.8738  -43.3255 C   0  0  0  0  0  0  0  0  0  0  0  0
   -3.7928  -33.9898  -44.7220 C   0  0  0  0  0  0  0  0  0  0  0  0
   -2.9861  -33.5809  -45.5201 O   0  0  0  0  0  0  0  0  0  0  0  0
   -2.4802  -33.3297  -42.5027 C   0  0  0  0  0  0  0  0  0  0  0  0
   -2.8381  -33.5229  -41.2208 C   0  0  0  0  0  0  0  0  0  0  0  0
   -4.0665  -34.1478  -41.1734 N   0  0  0  0  0  0  0  0  0  0  0  0
   -1.2178  -32.6715  -42.9976 C   0  0  0  0  0  0  0  0  0  0  0  0
   -0.0823  -33.1260  -42.1695 N   0  0  0  0  0  0  0  0  0  0  0  0
  1  2  1  0  0  0  0
  1  7  1  0  0  0  0
  2  3  1  0  0  0  0
  2  4  2  0  0  0  0
  4  5  1  0  0  0  0
  5  6  2  0  0  0  0
  5 11  1  0  0  0  0
  6  7  1  0  0  0  0
  6  9  1  0  0  0  0
  7  8  2  0  0  0  0
  9 10  2  0  0  0  0
  9 12  1  0  0  0  0
 10 11  1  0  0  0  0
 12 13  1  0  0  0  0
M  END
>  <CHROM.1>
-139.08515914,-3.75850534,-34.05717337,-43.35811602,-2.75558354,0.40538125
1.58633615

>  <Name>
ligand

>  <RI>
0

>  <Rbt.Current_Directory>
/home/itssahil/PROJECTS/Mol_Feturizer/Test_systems_manuscript/rnas/3fu2

>  <Rbt.Executable>
rbdock ($Id: //depot/dev/client3/rdock/2013.1/src/exe/rbdock.cxx#4 $)

>  <Rbt.Library>
libRbt.so (2013.1, Build901 2013/11/27)

>  <Rbt.Parameter_File>
/export/apps/rDock/src/rDock_2013.1_src/data/scripts/dock_solv.prm

>  <Rbt.Receptor>
prm/pocket_docking_7.prm

>  <SCORE>
-16.1064

>  <SCORE.INTER>
-15.8118

>  <SCORE.INTER.CONST>
1

>  <SCORE.INTER.POLAR>
0

>  <SCORE.INTER.ROT>
1

>  <SCORE.INTER.SOLV>
20.3076

>  <SCORE.INTER.VDW>
-21.577

>  <SCORE.INTER.norm>
-1.21629

>  <SCORE.INTRA>
-0.294602

>  <SCORE.INTRA.DIHEDRAL>
-0.00145742

>  <SCORE.INTRA.DIHEDRAL.0>
1.66609

>  <SCORE.INTRA.POLAR>
0

>  <SCORE.INTRA.POLAR.0>
0

>  <SCORE.INTRA.REPUL>
0

>  <SCORE.INTRA.REPUL.0>
0

>  <SCORE.INTRA.SOLV>
-0.990577

>  <SCORE.INTRA.SOLV.lig_0>
-45.868

>  <SCORE.INTRA.VDW>
0.201415

>  <SCORE.INTRA.VDW.0>
-0.397919

>  <SCORE.INTRA.norm>
-0.0226617

>  <SCORE.RESTR>
0

>  <SCORE.RESTR.CAVITY>
0

>  <SCORE.RESTR.norm>
0

>  <SCORE.SYSTEM>
0

>  <SCORE.SYSTEM.CONST>
0

>  <SCORE.SYSTEM.DIHEDRAL>
0

>  <SCORE.SYSTEM.SOLV>
0

>  <SCORE.SYSTEM.norm>
0

>  <SCORE.heavy>
13

>  <SCORE.norm>
-1.23895

>  <RMSD>
1.363

$$$$
ligand
 OpenBabel02271912143D
libRbt.so/2013.1/901 2013/11/27
 13 14  0  0  0  0  0  0  0  0999 V2000
   -4.9512  -34.5755  -45.1489 N   0  0  0  0  0  0  0  0  0  0  0  0
   -5.8724  -35.0405  -44.2489 C   0  0  0  0  0  0  0  0  0  0  0  0
   -7.0210  -35.6180  -44.7174 N   0  0  0  0  0  0  0  0  0  0  0  0
   -5.6698  -34.9420  -42.9347 N   0  0  0  0  0  0  0  0  0  0  0  0
   -4.5384  -34.3724  -42.4346 C   0  0  0  0  0  0  0  0  0  0  0  0
   -3.5616  -33.8751  -43.3251 C   0  0  0  0  0  0  0  0  0  0  0  0
   -3.7960  -33.9933  -44.7219 C   0  0  0  0  0  0  0  0  0  0  0  0
   -2.9877  -33.5859  -45.5190 O   0  0  0  0  0  0  0  0  0  0  0  0
   -2.4875  -33.3300  -42.5011 C   0  0  0  0  0  0  0  0  0  0  0  0
   -2.8479  -33.5210  -41.2196 C   0  0  0  0  0  0  0  0  0  0  0  0
   -4.0766  -34.1455  -41.1735 N   0  0  0  0  0  0  0  0  0  0  0  0
   -1.2240  -32.6728  -42.9946 C   0  0  0  0  0  0  0  0  0  0  0  0
   -0.0883  -33.1359  -42.1716 N   0  0  0  0  0  0  0  0  0  0  0  0
  1  2  1  0  0  0  0
  1  7  1  0  0  0  0
  2  3  1  0  0  0  0
  2  4  2  0  0  0  0
  4  5  1  0  0  0  0
  5  6  2  0  0  0  0
  5 11  1  0  0  0  0
  6  7  1  0  0  0  0
  6  9  1  0  0  0  0
  7  8  2  0  0  0  0
  9 10  2  0  0  0  0
  9 12  1  0  0  0  0
 10 11  1  0  0  0  0
 12 13  1  0  0  0  0
M  END
>  <CHROM.1>
-138.56745405,-3.76418652,-34.05925109,-43.35845454,-2.75406882,0.40443078
1.58376960

>  <Name>
ligand

>  <RI>
0

>  <Rbt.Current_Directory>
/home/itssahil/PROJECTS/Mol_Feturizer/Test_systems_manuscript/rnas/3fu2

>  <Rbt.Executable>
rbdock ($Id: //depot/dev/client3/rdock/2013.1/src/exe/rbdock.cxx#4 $)

>  <Rbt.Library>
libRbt.so (2013.1, Build901 2013/11/27)

>  <Rbt.Parameter_File>
/export/apps/rDock/src/rDock_2013.1_src/data/scripts/dock_solv.prm

>  <Rbt.Receptor>
prm/pocket_docking_5.prm

>  <SCORE>
-16.1033

>  <SCORE.INTER>
-15.8064

>  <SCORE.INTER.CONST>
1

>  <SCORE.INTER.POLAR>
0

>  <SCORE.INTER.ROT>
1

>  <SCORE.INTER.SOLV>
20.3232

>  <SCORE.INTER.VDW>
-21.5787

>  <SCORE.INTER.norm>
-1.21588

>  <SCORE.INTRA>
-0.296914

>  <SCORE.INTRA.DIHEDRAL>
-0.00117742

>  <SCORE.INTRA.DIHEDRAL.0>
1.66609

>  <SCORE.INTRA.POLAR>
0

>  <SCORE.INTRA.POLAR.0>
0

>  <SCORE.INTRA.REPUL>
0

>  <SCORE.INTRA.REPUL.0>
0

>  <SCORE.INTRA.SOLV>
-0.990785

>  <SCORE.INTRA.SOLV.lig_0>
-45.868

>  <SCORE.INTRA.VDW>
0.199068

>  <SCORE.INTRA.VDW.0>
-0.397919

>  <SCORE.INTRA.norm>
-0.0228395

>  <SCORE.RESTR>
0

>  <SCORE.RESTR.CAVITY>
0

>  <SCORE.RESTR.norm>
0

>  <SCORE.SYSTEM>
0

>  <SCORE.SYSTEM.CONST>
0

>  <SCORE.SYSTEM.DIHEDRAL>
0

>  <SCORE.SYSTEM.SOLV>
0

>  <SCORE.SYSTEM.norm>
0

>  <SCORE.heavy>
13

>  <SCORE.norm>
-1.23872

>  <RMSD>
1.369

$$$$
ligand
 OpenBabel02271912143D
libRbt.so/2013.1/901 2013/11/27
 13 14  0  0  0  0  0  0  0  0999 V2000
   -4.9819  -34.5402  -45.1433 N   0  0  0  0  0  0  0  0  0  0  0  0
   -5.8910  -35.0329  -44.2457 C   0  0  0  0  0  0  0  0  0  0  0  0
   -7.0346  -35.6180  -44.7169 N   0  0  0  0  0  0  0  0  0  0  0  0
   -5.6813  -34.9539  -42.9313 N   0  0  0  0  0  0  0  0  0  0  0  0
   -4.5546  -34.3774  -42.4286 C   0  0  0  0  0  0  0  0  0  0  0  0
   -3.5904  -33.8519  -43.3164 C   0  0  0  0  0  0  0  0  0  0  0  0
   -3.8319  -33.9495  -44.7136 C   0  0  0  0  0  0  0  0  0  0  0  0
   -3.0343  -33.5176  -45.5086 O   0  0  0  0  0  0  0  0  0  0  0  0
   -2.5185  -33.3061  -42.4899 C   0  0  0  0  0  0  0  0  0  0  0  0
   -2.8681  -33.5237  -41.2096 C   0  0  0  0  0  0  0  0  0  0  0  0
   -4.0879  -34.1657  -41.1667 N   0  0  0  0  0  0  0  0  0  0  0  0
   -1.2672  -32.6235  -42.9799 C   0  0  0  0  0  0  0  0  0  0  0  0
   -0.1130  -33.1213  -42.2043 N   0  0  0  0  0  0  0  0  0  0  0  0
  1  2  1  0  0  0  0
  1  7  1  0  0  0  0
  2  3  1  0  0  0  0
  2  4  2  0  0  0  0
  4  5  1  0  0  0  0
  5  6  2  0  0  0  0
  5 11  1  0  0  0  0
  6  7  1  0  0  0  0
  6  9  1  0  0  0  0
  7  8  2  0  0  0  0
  9 10  2  0  0  0  0
  9 12  1  0  0  0  0
 10 11  1  0  0  0  0
 12 13  1  0  0  0  0
M  END
>  <CHROM.1>
-136.54546335,-3.79001153,-34.04111513,-43.35433329,-2.76357768,0.41509418
1.60307134

>  <Name>
ligand

>  <RI>
0

>  <Rbt.Current_Directory>
/home/itssahil/PROJECTS/Mol_Feturizer/Test_systems_manuscript/rnas/3fu2

>  <Rbt.Executable>
rbdock ($Id: //depot/dev/client3/rdock/2013.1/src/exe/rbdock.cxx#4 $)

>  <Rbt.Library>
libRbt.so (2013.1, Build901 2013/11/27)

>  <Rbt.Parameter_File>
/export/apps/rDock/src/rDock_2013.1_src/data/scripts/dock_solv.prm

>  <Rbt.Receptor>
prm/pocket_docking_3.prm

>  <SCORE>
-16.0839

>  <SCORE.INTER>
-15.7782

>  <SCORE.INTER.CONST>
1

>  <SCORE.INTER.POLAR>
0

>  <SCORE.INTER.ROT>
1

>  <SCORE.INTER.SOLV>
20.2963

>  <SCORE.INTER.VDW>
-21.5509

>  <SCORE.INTER.norm>
-1.21371

>  <SCORE.INTRA>
-0.305742

>  <SCORE.INTRA.DIHEDRAL>
2.03673e-05

>  <SCORE.INTRA.DIHEDRAL.0>
1.66609

>  <SCORE.INTRA.POLAR>
0

>  <SCORE.INTRA.POLAR.0>
0

>  <SCORE.INTRA.REPUL>
0

>  <SCORE.INTRA.REPUL.0>
0

>  <SCORE.INTRA.SOLV>
-0.991592

>  <SCORE.INTRA.SOLV.lig_0>
-45.868

>  <SCORE.INTRA.VDW>
0.190044

>  <SCORE.INTRA.VDW.0>
-0.397919

>  <SCORE.INTRA.norm>
-0.0235186

>  <SCORE.RESTR>
0

>  <SCORE.RESTR.CAVITY>
0

>  <SCORE.RESTR.norm>
0

>  <SCORE.SYSTEM>
0

>  <SCORE.SYSTEM.CONST>
0

>  <SCORE.SYSTEM.DIHEDRAL>
0

>  <SCORE.SYSTEM.SOLV>
0

>  <SCORE.SYSTEM.norm>
0

>  <SCORE.heavy>
13

>  <SCORE.norm>
-1.23723

>  <RMSD>
1.370

$$$$
ligand
 OpenBabel02271912143D
libRbt.so/2013.1/901 2013/11/27
 13 14  0  0  0  0  0  0  0  0999 V2000
   -5.0291  -34.5769  -45.1435 N   0  0  0  0  0  0  0  0  0  0  0  0
   -5.9192  -35.0662  -44.2253 C   0  0  0  0  0  0  0  0  0  0  0  0
   -7.0685  -35.6604  -44.6704 N   0  0  0  0  0  0  0  0  0  0  0  0
   -5.6859  -34.9752  -42.9156 N   0  0  0  0  0  0  0  0  0  0  0  0
   -4.5528  -34.3895  -42.4385 C   0  0  0  0  0  0  0  0  0  0  0  0
   -3.6075  -33.8670  -43.3482 C   0  0  0  0  0  0  0  0  0  0  0  0
   -3.8742  -33.9775  -44.7398 C   0  0  0  0  0  0  0  0  0  0  0  0
   -3.0933  -33.5487  -45.5530 O   0  0  0  0  0  0  0  0  0  0  0  0
   -2.5232  -33.3095  -42.5461 C   0  0  0  0  0  0  0  0  0  0  0  0
   -2.8482  -33.5179  -41.2579 C   0  0  0  0  0  0  0  0  0  0  0  0
   -4.0640  -34.1650  -41.1872 N   0  0  0  0  0  0  0  0  0  0  0  0
   -1.2843  -32.6254  -43.0646 C   0  0  0  0  0  0  0  0  0  0  0  0
   -0.1227  -33.0635  -42.2644 N   0  0  0  0  0  0  0  0  0  0  0  0
  1  2  1  0  0  0  0
  1  7  1  0  0  0  0
  2  3  1  0  0  0  0
  2  4  2  0  0  0  0
  4  5  1  0  0  0  0
  5  6  2  0  0  0  0
  5 11  1  0  0  0  0
  6  7  1  0  0  0  0
  6  9  1  0  0  0  0
  7  8  2  0  0  0  0
  9 10  2  0  0  0  0
  9 12  1  0  0  0  0
 10 11  1  0  0  0  0
 12 13  1  0  0  0  0
M  END
>  <CHROM.1>
-139.18646224,-3.80764344,-34.05357102,-43.37746269,-2.78079299,0.42273860
1.60368877

>  <Name>
ligand

>  <RI>
0

>  <Rbt.Current_Directory>
/home/itssahil/PROJECTS/Mol_Feturizer/Test_systems_manuscript/rnas/3fu2

>  <Rbt.Executable>
rbdock ($Id: //depot/dev/client3/rdock/2013.1/src/exe/rbdock.cxx#4 $)

>  <Rbt.Library>
libRbt.so (2013.1, Build901 2013/11/27)

>  <Rbt.Parameter_File>
/export/apps/rDock/src/rDock_2013.1_src/data/scripts/dock_solv.prm

>  <Rbt.Receptor>
prm/pocket_docking_6.prm

>  <SCORE>
-16.1149

>  <SCORE.INTER>
-15.8208

>  <SCORE.INTER.CONST>
1

>  <SCORE.INTER.POLAR>
0

>  <SCORE.INTER.ROT>
1

>  <SCORE.INTER.SOLV>
20.3477

>  <SCORE.INTER.VDW>
-21.5964

>  <SCORE.INTER.norm>
-1.21698

>  <SCORE.INTRA>
-0.294148

>  <SCORE.INTRA.DIHEDRAL>
-0.0015109

>  <SCORE.INTRA.DIHEDRAL.0>
1.66609

>  <SCORE.INTRA.POLAR>
0

>  <SCORE.INTRA.POLAR.0>
0

>  <SCORE.INTRA.REPUL>
0

>  <SCORE.INTRA.REPUL.0>
0

>  <SCORE.INTRA.SOLV>
-0.990536

>  <SCORE.INTRA.SOLV.lig_0>
-45.868

>  <SCORE.INTRA.VDW>
0.201876

>  <SCORE.INTRA.VDW.0>
-0.397919

>  <SCORE.INTRA.norm>
-0.0226267

>  <SCORE.RESTR>
0

>  <SCORE.RESTR.CAVITY>
0

>  <SCORE.RESTR.norm>
0

>  <SCORE.SYSTEM>
0

>  <SCORE.SYSTEM.CONST>
0

>  <SCORE.SYSTEM.DIHEDRAL>
0

>  <SCORE.SYSTEM.SOLV>
0

>  <SCORE.SYSTEM.norm>
0

>  <SCORE.heavy>
13

>  <SCORE.norm>
-1.23961

>  <RMSD>
1.370

$$$$
ligand
 OpenBabel02271912143D
libRbt.so/2013.1/901 2013/11/27
 13 14  0  0  0  0  0  0  0  0999 V2000
   -4.9822  -34.5327  -45.1448 N   0  0  0  0  0  0  0  0  0  0  0  0
   -5.8926  -35.0253  -44.2485 C   0  0  0  0  0  0  0  0  0  0  0  0
   -7.0376  -35.6065  -44.7212 N   0  0  0  0  0  0  0  0  0  0  0  0
   -5.6829  -34.9501  -42.9339 N   0  0  0  0  0  0  0  0  0  0  0  0
   -4.5548  -34.3777  -42.4296 C   0  0  0  0  0  0  0  0  0  0  0  0
   -3.5892  -33.8523  -43.3160 C   0  0  0  0  0  0  0  0  0  0  0  0
   -3.8308  -33.9460  -44.7134 C   0  0  0  0  0  0  0  0  0  0  0  0
   -3.0320  -33.5141  -45.5073 O   0  0  0  0  0  0  0  0  0  0  0  0
   -2.5160  -33.3113  -42.4880 C   0  0  0  0  0  0  0  0  0  0  0  0
   -2.8663  -33.5312  -41.2084 C   0  0  0  0  0  0  0  0  0  0  0  0
   -4.0877  -34.1701  -41.1671 N   0  0  0  0  0  0  0  0  0  0  0  0
   -1.2630  -32.6306  -42.9762 C   0  0  0  0  0  0  0  0  0  0  0  0
   -0.1123  -33.1214  -42.1909 N   0  0  0  0  0  0  0  0  0  0  0  0
  1  2  1  0  0  0  0
  1  7  1  0  0  0  0
  2  3  1  0  0  0  0
  2  4  2  0  0  0  0
  4  5  1  0  0  0  0
  5  6  2  0  0  0  0
  5 11  1  0  0  0  0
  6  7  1  0  0  0  0
  6  9  1  0  0  0  0
  7  8  2  0  0  0  0
  9 10  2  0  0  0  0
  9 12  1  0  0  0  0
 10 11  1  0  0  0  0
 12 13  1  0  0  0  0
M  END
>  <CHROM.1>
-137.20454793,-3.78945238,-34.04003271,-43.35353878,-2.76257982,0.41351129
1.60562065

>  <Name>
ligand

>  <RI>
0

>  <Rbt.Current_Directory>
/home/itssahil/PROJECTS/Mol_Feturizer/Test_systems_manuscript/rnas/3fu2

>  <Rbt.Executable>
rbdock ($Id: //depot/dev/client3/rdock/2013.1/src/exe/rbdock.cxx#4 $)

>  <Rbt.Library>
libRbt.so (2013.1, Build901 2013/11/27)

>  <Rbt.Parameter_File>
/export/apps/rDock/src/rDock_2013.1_src/data/scripts/dock_solv.prm

>  <Rbt.Receptor>
prm/pocket_docking_7.prm

>  <SCORE>
-16.0828

>  <SCORE.INTER>
-15.7799

>  <SCORE.INTER.CONST>
1

>  <SCORE.INTER.POLAR>
0

>  <SCORE.INTER.ROT>
1

>  <SCORE.INTER.SOLV>
20.2837

>  <SCORE.INTER.VDW>
-21.5478

>  <SCORE.INTER.norm>
-1.21384

>  <SCORE.INTRA>
-0.3029

>  <SCORE.INTRA.DIHEDRAL>
-0.000387837

>  <SCORE.INTRA.DIHEDRAL.0>
1.66609

>  <SCORE.INTRA.POLAR>
0

>  <SCORE.INTRA.POLAR.0>
0

>  <SCORE.INTRA.REPUL>
0

>  <SCORE.INTRA.REPUL.0>
0

>  <SCORE.INTRA.SOLV>
-0.991331

>  <SCORE.INTRA.SOLV.lig_0>
-45.868

>  <SCORE.INTRA.VDW>
0.192959

>  <SCORE.INTRA.VDW.0>
-0.397919

>  <SCORE.INTRA.norm>
-0.0233

>  <SCORE.RESTR>
0

>  <SCORE.RESTR.CAVITY>
0

>  <SCORE.RESTR.norm>
0

>  <SCORE.SYSTEM>
0

>  <SCORE.SYSTEM.CONST>
0

>  <SCORE.SYSTEM.DIHEDRAL>
0

>  <SCORE.SYSTEM.SOLV>
0

>  <SCORE.SYSTEM.norm>
0

>  <SCORE.heavy>
13

>  <SCORE.norm>
-1.23714

>  <RMSD>
1.370

$$$$
ligand
 OpenBabel02271912143D
libRbt.so/2013.1/901 2013/11/27
 13 14  0  0  0  0  0  0  0  0999 V2000
   -5.0191  -34.5635  -45.1571 N   0  0  0  0  0  0  0  0  0  0  0  0
   -5.9123  -35.0574  -44.2443 C   0  0  0  0  0  0  0  0  0  0  0  0
   -7.0612  -35.6472  -44.6963 N   0  0  0  0  0  0  0  0  0  0  0  0
   -5.6822  -34.9750  -42.9335 N   0  0  0  0  0  0  0  0  0  0  0  0
   -4.5496  -34.3939  -42.4497 C   0  0  0  0  0  0  0  0  0  0  0  0
   -3.6012  -33.8670  -43.3537 C   0  0  0  0  0  0  0  0  0  0  0  0
   -3.8644  -33.9682  -44.7466 C   0  0  0  0  0  0  0  0  0  0  0  0
   -3.0809  -33.5354  -45.5550 O   0  0  0  0  0  0  0  0  0  0  0  0
   -2.5183  -33.3160  -42.5452 C   0  0  0  0  0  0  0  0  0  0  0  0
   -2.8470  -33.5322  -41.2592 C   0  0  0  0  0  0  0  0  0  0  0  0
   -4.0638  -34.1780  -41.1957 N   0  0  0  0  0  0  0  0  0  0  0  0
   -1.2771  -32.6303  -43.0562 C   0  0  0  0  0  0  0  0  0  0  0  0
   -0.1158  -33.0871  -42.2660 N   0  0  0  0  0  0  0  0  0  0  0  0
  1  2  1  0  0  0  0
  1  7  1  0  0  0  0
  2  3  1  0  0  0  0
  2  4  2  0  0  0  0
  4  5  1  0  0  0  0
  5  6  2  0  0  0  0
  5 11  1  0  0  0  0
  6  7  1  0  0  0  0
  6  9  1  0  0  0  0
  7  8  2  0  0  0  0
  9 10  2  0  0  0  0
  9 12  1  0  0  0  0
 10 11  1  0  0  0  0
 12 13  1  0  0  0  0
M  END
>  <CHROM.1>
-138.52765154,-3.80137332,-34.05402129,-43.38546102,-2.77862553,0.42055320
1.60866483

>  <Name>
ligand

>  <RI>
0

>  <Rbt.Current_Directory>
/home/itssahil/PROJECTS/Mol_Feturizer/Test_systems_manuscript/rnas/3fu2

>  <Rbt.Executable>
rbdock ($Id: //depot/dev/client3/rdock/2013.1/src/exe/rbdock.cxx#4 $)

>  <Rbt.Library>
libRbt.so (2013.1, Build901 2013/11/27)

>  <Rbt.Parameter_File>
/export/apps/rDock/src/rDock_2013.1_src/data/scripts/dock_solv.prm

>  <Rbt.Receptor>
prm/blind_docking_80.prm

>  <SCORE>
-16.086

>  <SCORE.INTER>
-15.7889

>  <SCORE.INTER.CONST>
1

>  <SCORE.INTER.POLAR>
0

>  <SCORE.INTER.ROT>
1

>  <SCORE.INTER.SOLV>
20.3303

>  <SCORE.INTER.VDW>
-21.5694

>  <SCORE.INTER.norm>
-1.21453

>  <SCORE.INTRA>
-0.297091

>  <SCORE.INTRA.DIHEDRAL>
-0.00115543

>  <SCORE.INTRA.DIHEDRAL.0>
1.66609

>  <SCORE.INTRA.POLAR>
0

>  <SCORE.INTRA.POLAR.0>
0

>  <SCORE.INTRA.REPUL>
0

>  <SCORE.INTRA.REPUL.0>
0

>  <SCORE.INTRA.SOLV>
-0.990801

>  <SCORE.INTRA.SOLV.lig_0>
-45.868

>  <SCORE.INTRA.VDW>
0.198888

>  <SCORE.INTRA.VDW.0>
-0.397919

>  <SCORE.INTRA.norm>
-0.0228531

>  <SCORE.RESTR>
0

>  <SCORE.RESTR.CAVITY>
0

>  <SCORE.RESTR.norm>
0

>  <SCORE.SYSTEM>
0

>  <SCORE.SYSTEM.CONST>
0

>  <SCORE.SYSTEM.DIHEDRAL>
0

>  <SCORE.SYSTEM.SOLV>
0

>  <SCORE.SYSTEM.norm>
0

>  <SCORE.heavy>
13

>  <SCORE.norm>
-1.23738

>  <RMSD>
1.372

$$$$
ligand
 OpenBabel02271912143D
libRbt.so/2013.1/901 2013/11/27
 13 14  0  0  0  0  0  0  0  0999 V2000
   -5.0054  -34.5622  -45.1420 N   0  0  0  0  0  0  0  0  0  0  0  0
   -5.9057  -35.0511  -44.2336 C   0  0  0  0  0  0  0  0  0  0  0  0
   -7.0531  -35.6396  -44.6913 N   0  0  0  0  0  0  0  0  0  0  0  0
   -5.6841  -34.9650  -42.9216 N   0  0  0  0  0  0  0  0  0  0  0  0
   -4.5534  -34.3851  -42.4322 C   0  0  0  0  0  0  0  0  0  0  0  0
   -3.5978  -33.8633  -43.3315 C   0  0  0  0  0  0  0  0  0  0  0  0
   -3.8521  -33.9684  -44.7259 C   0  0  0  0  0  0  0  0  0  0  0  0
   -3.0622  -33.5399  -45.5304 O   0  0  0  0  0  0  0  0  0  0  0  0
   -2.5189  -33.3123  -42.5177 C   0  0  0  0  0  0  0  0  0  0  0  0
   -2.8566  -33.5236  -41.2332 C   0  0  0  0  0  0  0  0  0  0  0  0
   -4.0754  -34.1663  -41.1757 N   0  0  0  0  0  0  0  0  0  0  0  0
   -1.2728  -32.6312  -43.0226 C   0  0  0  0  0  0  0  0  0  0  0  0
   -0.1147  -33.1041  -42.2373 N   0  0  0  0  0  0  0  0  0  0  0  0
  1  2  1  0  0  0  0
  1  7  1  0  0  0  0
  2  3  1  0  0  0  0
  2  4  2  0  0  0  0
  4  5  1  0  0  0  0
  5  6  2  0  0  0  0
  5 11  1  0  0  0  0
  6  7  1  0  0  0  0
  6  9  1  0  0  0  0
  7  8  2  0  0  0  0
  9 10  2  0  0  0  0
  9 12  1  0  0  0  0
 10 11  1  0  0  0  0
 12 13  1  0  0  0  0
M  END
>  <CHROM.1>
-137.64598609,-3.79791994,-34.05125531,-43.36517876,-2.77232903,0.41720295
1.60227798

>  <Name>
ligand

>  <RI>
0

>  <Rbt.Current_Directory>
/home/itssahil/PROJECTS/Mol_Feturizer/Test_systems_manuscript/rnas/3fu2

>  <Rbt.Executable>
rbdock ($Id: //depot/dev/client3/rdock/2013.1/src/exe/rbdock.cxx#4 $)

>  <Rbt.Library>
libRbt.so (2013.1, Build901 2013/11/27)

>  <Rbt.Parameter_File>
/export/apps/rDock/src/rDock_2013.1_src/data/scripts/dock_solv.prm

>  <Rbt.Receptor>
prm/pocket_docking_5.prm

>  <SCORE>
-16.1037

>  <SCORE.INTER>
-15.8027

>  <SCORE.INTER.CONST>
1

>  <SCORE.INTER.POLAR>
0

>  <SCORE.INTER.ROT>
1

>  <SCORE.INTER.SOLV>
20.3267

>  <SCORE.INTER.VDW>
-21.5774

>  <SCORE.INTER.norm>
-1.21559

>  <SCORE.INTRA>
-0.300977

>  <SCORE.INTRA.DIHEDRAL>
-0.000651749

>  <SCORE.INTRA.DIHEDRAL.0>
1.66609

>  <SCORE.INTRA.POLAR>
0

>  <SCORE.INTRA.POLAR.0>
0

>  <SCORE.INTRA.REPUL>
0

>  <SCORE.INTRA.REPUL.0>
0

>  <SCORE.INTRA.SOLV>
-0.991155

>  <SCORE.INTRA.SOLV.lig_0>
-45.868

>  <SCORE.INTRA.VDW>
0.194926

>  <SCORE.INTRA.VDW.0>
-0.397919

>  <SCORE.INTRA.norm>
-0.0231521

>  <SCORE.RESTR>
0

>  <SCORE.RESTR.CAVITY>
0

>  <SCORE.RESTR.norm>
0

>  <SCORE.SYSTEM>
0

>  <SCORE.SYSTEM.CONST>
0

>  <SCORE.SYSTEM.DIHEDRAL>
0

>  <SCORE.SYSTEM.SOLV>
0

>  <SCORE.SYSTEM.norm>
0

>  <SCORE.heavy>
13

>  <SCORE.norm>
-1.23875

>  <RMSD>
1.372

$$$$
ligand
 OpenBabel02271912143D
libRbt.so/2013.1/901 2013/11/27
 13 14  0  0  0  0  0  0  0  0999 V2000
   -5.0242  -34.5444  -45.1555 N   0  0  0  0  0  0  0  0  0  0  0  0
   -5.9212  -35.0370  -44.2459 C   0  0  0  0  0  0  0  0  0  0  0  0
   -7.0677  -35.6284  -44.7020 N   0  0  0  0  0  0  0  0  0  0  0  0
   -5.6972  -34.9520  -42.9342 N   0  0  0  0  0  0  0  0  0  0  0  0
   -4.5673  -34.3693  -42.4464 C   0  0  0  0  0  0  0  0  0  0  0  0
   -3.6151  -33.8435  -43.3469 C   0  0  0  0  0  0  0  0  0  0  0  0
   -3.8718  -33.9475  -44.7409 C   0  0  0  0  0  0  0  0  0  0  0  0
   -3.0849  -33.5157  -45.5465 O   0  0  0  0  0  0  0  0  0  0  0  0
   -2.5362  -33.2903  -42.5346 C   0  0  0  0  0  0  0  0  0  0  0  0
   -2.8706  -33.5042  -41.2497 C   0  0  0  0  0  0  0  0  0  0  0  0
   -4.0873  -34.1507  -41.1906 N   0  0  0  0  0  0  0  0  0  0  0  0
   -1.2931  -32.6048  -43.0412 C   0  0  0  0  0  0  0  0  0  0  0  0
   -0.1324  -33.0733  -42.2571 N   0  0  0  0  0  0  0  0  0  0  0  0
  1  2  1  0  0  0  0
  1  7  1  0  0  0  0
  2  3  1  0  0  0  0
  2  4  2  0  0  0  0
  4  5  1  0  0  0  0
  5  6  2  0  0  0  0
  5 11  1  0  0  0  0
  6  7  1  0  0  0  0
  6  9  1  0  0  0  0
  7  8  2  0  0  0  0
  9 10  2  0  0  0  0
  9 12  1  0  0  0  0
 10 11  1  0  0  0  0
 12 13  1  0  0  0  0
M  END
>  <CHROM.1>
-137.75355360,-3.81470712,-34.03184490,-43.38029922,-2.77453603,0.42029272
1.60453045

>  <Name>
ligand

>  <RI>
0

>  <Rbt.Current_Directory>
/home/itssahil/PROJECTS/Mol_Feturizer/Test_systems_manuscript/rnas/3fu2

>  <Rbt.Executable>
rbdock ($Id: //depot/dev/client3/rdock/2013.1/src/exe/rbdock.cxx#4 $)

>  <Rbt.Library>
libRbt.so (2013.1, Build901 2013/11/27)

>  <Rbt.Parameter_File>
/export/apps/rDock/src/rDock_2013.1_src/data/scripts/dock_solv.prm

>  <Rbt.Receptor>
prm/pocket_docking_5.prm

>  <SCORE>
-16.0891

>  <SCORE.INTER>
-15.7886

>  <SCORE.INTER.CONST>
1

>  <SCORE.INTER.POLAR>
0

>  <SCORE.INTER.ROT>
1

>  <SCORE.INTER.SOLV>
20.3337

>  <SCORE.INTER.VDW>
-21.5703

>  <SCORE.INTER.norm>
-1.21451

>  <SCORE.INTRA>
-0.300507

>  <SCORE.INTRA.DIHEDRAL>
-0.000714885

>  <SCORE.INTRA.DIHEDRAL.0>
1.66609

>  <SCORE.INTRA.POLAR>
0

>  <SCORE.INTRA.POLAR.0>
0

>  <SCORE.INTRA.REPUL>
0

>  <SCORE.INTRA.REPUL.0>
0

>  <SCORE.INTRA.SOLV>
-0.991112

>  <SCORE.INTRA.SOLV.lig_0>
-45.868

>  <SCORE.INTRA.VDW>
0.195407

>  <SCORE.INTRA.VDW.0>
-0.397919

>  <SCORE.INTRA.norm>
-0.0231159

>  <SCORE.RESTR>
0

>  <SCORE.RESTR.CAVITY>
0

>  <SCORE.RESTR.norm>
0

>  <SCORE.SYSTEM>
0

>  <SCORE.SYSTEM.CONST>
0

>  <SCORE.SYSTEM.DIHEDRAL>
0

>  <SCORE.SYSTEM.SOLV>
0

>  <SCORE.SYSTEM.norm>
0

>  <SCORE.heavy>
13

>  <SCORE.norm>
-1.23763

>  <RMSD>
1.372

$$$$
ligand
 OpenBabel02271912143D
libRbt.so/2013.1/901 2013/11/27
 13 14  0  0  0  0  0  0  0  0999 V2000
   -4.9808  -34.5728  -45.1566 N   0  0  0  0  0  0  0  0  0  0  0  0
   -5.8947  -35.0436  -44.2522 C   0  0  0  0  0  0  0  0  0  0  0  0
   -7.0413  -35.6295  -44.7152 N   0  0  0  0  0  0  0  0  0  0  0  0
   -5.6870  -34.9427  -42.9390 N   0  0  0  0  0  0  0  0  0  0  0  0
   -4.5575  -34.3648  -42.4443 C   0  0  0  0  0  0  0  0  0  0  0  0
   -3.5882  -33.8613  -43.3394 C   0  0  0  0  0  0  0  0  0  0  0  0
   -3.8278  -33.9820  -44.7350 C   0  0  0  0  0  0  0  0  0  0  0  0
   -3.0260  -33.5695  -45.5360 O   0  0  0  0  0  0  0  0  0  0  0  0
   -2.5143  -33.3079  -42.5205 C   0  0  0  0  0  0  0  0  0  0  0  0
   -2.8678  -33.5005  -41.2373 C   0  0  0  0  0  0  0  0  0  0  0  0
   -4.0918  -34.1337  -41.1854 N   0  0  0  0  0  0  0  0  0  0  0  0
   -1.2577  -32.6422  -43.0200 C   0  0  0  0  0  0  0  0  0  0  0  0
   -0.1112  -33.1172  -42.2191 N   0  0  0  0  0  0  0  0  0  0  0  0
  1  2  1  0  0  0  0
  1  7  1  0  0  0  0
  2  3  1  0  0  0  0
  2  4  2  0  0  0  0
  4  5  1  0  0  0  0
  5  6  2  0  0  0  0
  5 11  1  0  0  0  0
  6  7  1  0  0  0  0
  6  9  1  0  0  0  0
  7  8  2  0  0  0  0
  9 10  2  0  0  0  0
  9 12  1  0  0  0  0
 10 11  1  0  0  0  0
 12 13  1  0  0  0  0
M  END
>  <CHROM.1>
-137.44967909,-3.78928447,-34.04849204,-43.37314756,-2.76026785,0.40988966
1.58473609

>  <Name>
ligand

>  <RI>
0

>  <Rbt.Current_Directory>
/home/itssahil/PROJECTS/Mol_Feturizer/Test_systems_manuscript/rnas/3fu2

>  <Rbt.Executable>
rbdock ($Id: //depot/dev/client3/rdock/2013.1/src/exe/rbdock.cxx#4 $)

>  <Rbt.Library>
libRbt.so (2013.1, Build901 2013/11/27)

>  <Rbt.Parameter_File>
/export/apps/rDock/src/rDock_2013.1_src/data/scripts/dock_solv.prm

>  <Rbt.Receptor>
prm/pocket_docking_6.prm

>  <SCORE>
-16.1104

>  <SCORE.INTER>
-15.8086

>  <SCORE.INTER.CONST>
1

>  <SCORE.INTER.POLAR>
0

>  <SCORE.INTER.ROT>
1

>  <SCORE.INTER.SOLV>
20.3501

>  <SCORE.INTER.VDW>
-21.5891

>  <SCORE.INTER.norm>
-1.21604

>  <SCORE.INTRA>
-0.301835

>  <SCORE.INTRA.DIHEDRAL>
-0.00053534

>  <SCORE.INTRA.DIHEDRAL.0>
1.66609

>  <SCORE.INTRA.POLAR>
0

>  <SCORE.INTRA.POLAR.0>
0

>  <SCORE.INTRA.REPUL>
0

>  <SCORE.INTRA.REPUL.0>
0

>  <SCORE.INTRA.SOLV>
-0.991233

>  <SCORE.INTRA.SOLV.lig_0>
-45.868

>  <SCORE.INTRA.VDW>
0.19405

>  <SCORE.INTRA.VDW.0>
-0.397919

>  <SCORE.INTRA.norm>
-0.023218

>  <SCORE.RESTR>
0

>  <SCORE.RESTR.CAVITY>
0

>  <SCORE.RESTR.norm>
0

>  <SCORE.SYSTEM>
0

>  <SCORE.SYSTEM.CONST>
0

>  <SCORE.SYSTEM.DIHEDRAL>
0

>  <SCORE.SYSTEM.SOLV>
0

>  <SCORE.SYSTEM.norm>
0

>  <SCORE.heavy>
13

>  <SCORE.norm>
-1.23926

>  <RMSD>
1.375

$$$$
ligand
 OpenBabel02271912143D
libRbt.so/2013.1/901 2013/11/27
 13 14  0  0  0  0  0  0  0  0999 V2000
   -5.0120  -34.5561  -45.1412 N   0  0  0  0  0  0  0  0  0  0  0  0
   -5.9119  -35.0449  -44.2323 C   0  0  0  0  0  0  0  0  0  0  0  0
   -7.0628  -35.6270  -44.6892 N   0  0  0  0  0  0  0  0  0  0  0  0
   -5.6864  -34.9651  -42.9206 N   0  0  0  0  0  0  0  0  0  0  0  0
   -4.5520  -34.3917  -42.4319 C   0  0  0  0  0  0  0  0  0  0  0  0
   -3.5967  -33.8701  -43.3317 C   0  0  0  0  0  0  0  0  0  0  0  0
   -3.8552  -33.9685  -44.7258 C   0  0  0  0  0  0  0  0  0  0  0  0
   -3.0658  -33.5400  -45.5308 O   0  0  0  0  0  0  0  0  0  0  0  0
   -2.5134  -33.3268  -42.5186 C   0  0  0  0  0  0  0  0  0  0  0  0
   -2.8485  -33.5419  -41.2340 C   0  0  0  0  0  0  0  0  0  0  0  0
   -4.0697  -34.1800  -41.1759 N   0  0  0  0  0  0  0  0  0  0  0  0
   -1.2659  -32.6487  -43.0242 C   0  0  0  0  0  0  0  0  0  0  0  0
   -0.1107  -33.1130  -42.2295 N   0  0  0  0  0  0  0  0  0  0  0  0
  1  2  1  0  0  0  0
  1  7  1  0  0  0  0
  2  3  1  0  0  0  0
  2  4  2  0  0  0  0
  4  5  1  0  0  0  0
  5  6  2  0  0  0  0
  5 11  1  0  0  0  0
  6  7  1  0  0  0  0
  6  9  1  0  0  0  0
  7  8  2  0  0  0  0
  9 10  2  0  0  0  0
  9 12  1  0  0  0  0
 10 11  1  0  0  0  0
 12 13  1  0  0  0  0
M  END
>  <CHROM.1>
-138.55704339,-3.79796324,-34.05581199,-43.36441897,-2.77410550,0.41433516
1.60770481

>  <Name>
ligand

>  <RI>
0

>  <Rbt.Current_Directory>
/home/itssahil/PROJECTS/Mol_Feturizer/Test_systems_manuscript/rnas/3fu2

>  <Rbt.Executable>
rbdock ($Id: //depot/dev/client3/rdock/2013.1/src/exe/rbdock.cxx#4 $)

>  <Rbt.Library>
libRbt.so (2013.1, Build901 2013/11/27)

>  <Rbt.Parameter_File>
/export/apps/rDock/src/rDock_2013.1_src/data/scripts/dock_solv.prm

>  <Rbt.Receptor>
prm/pocket_docking_6.prm

>  <SCORE>
-16.0964

>  <SCORE.INTER>
-15.7994

>  <SCORE.INTER.CONST>
1

>  <SCORE.INTER.POLAR>
0

>  <SCORE.INTER.ROT>
1

>  <SCORE.INTER.SOLV>
20.3306

>  <SCORE.INTER.VDW>
-21.5765

>  <SCORE.INTER.norm>
-1.21534

>  <SCORE.INTRA>
-0.29696

>  <SCORE.INTRA.DIHEDRAL>
-0.00117167

>  <SCORE.INTRA.DIHEDRAL.0>
1.66609

>  <SCORE.INTRA.POLAR>
0

>  <SCORE.INTRA.POLAR.0>
0

>  <SCORE.INTRA.REPUL>
0

>  <SCORE.INTRA.REPUL.0>
0

>  <SCORE.INTRA.SOLV>
-0.99079

>  <SCORE.INTRA.SOLV.lig_0>
-45.868

>  <SCORE.INTRA.VDW>
0.19902

>  <SCORE.INTRA.VDW.0>
-0.397919

>  <SCORE.INTRA.norm>
-0.0228431

>  <SCORE.RESTR>
0

>  <SCORE.RESTR.CAVITY>
0

>  <SCORE.RESTR.norm>
0

>  <SCORE.SYSTEM>
0

>  <SCORE.SYSTEM.CONST>
0

>  <SCORE.SYSTEM.DIHEDRAL>
0

>  <SCORE.SYSTEM.SOLV>
0

>  <SCORE.SYSTEM.norm>
0

>  <SCORE.heavy>
13

>  <SCORE.norm>
-1.23818

>  <RMSD>
1.375

$$$$
ligand
 OpenBabel02271912143D
libRbt.so/2013.1/901 2013/11/27
 13 14  0  0  0  0  0  0  0  0999 V2000
   -5.0148  -34.5506  -45.1683 N   0  0  0  0  0  0  0  0  0  0  0  0
   -5.9131  -35.0445  -44.2607 C   0  0  0  0  0  0  0  0  0  0  0  0
   -7.0608  -35.6318  -44.7192 N   0  0  0  0  0  0  0  0  0  0  0  0
   -5.6894  -34.9646  -42.9487 N   0  0  0  0  0  0  0  0  0  0  0  0
   -4.5582  -34.3860  -42.4584 C   0  0  0  0  0  0  0  0  0  0  0  0
   -3.6046  -33.8591  -43.3569 C   0  0  0  0  0  0  0  0  0  0  0  0
   -3.8612  -33.9578  -44.7513 C   0  0  0  0  0  0  0  0  0  0  0  0
   -3.0731  -33.5248  -45.5551 O   0  0  0  0  0  0  0  0  0  0  0  0
   -2.5248  -33.3112  -42.5422 C   0  0  0  0  0  0  0  0  0  0  0  0
   -2.8601  -33.5289  -41.2582 C   0  0  0  0  0  0  0  0  0  0  0  0
   -4.0782  -34.1729  -41.2017 N   0  0  0  0  0  0  0  0  0  0  0  0
   -1.2801  -32.6266  -43.0461 C   0  0  0  0  0  0  0  0  0  0  0  0
   -0.1232  -33.0869  -42.2515 N   0  0  0  0  0  0  0  0  0  0  0  0
  1  2  1  0  0  0  0
  1  7  1  0  0  0  0
  2  3  1  0  0  0  0
  2  4  2  0  0  0  0
  4  5  1  0  0  0  0
  5  6  2  0  0  0  0
  5 11  1  0  0  0  0
  6  7  1  0  0  0  0
  6  9  1  0  0  0  0
  7  8  2  0  0  0  0
  9 10  2  0  0  0  0
  9 12  1  0  0  0  0
 10 11  1  0  0  0  0
 12 13  1  0  0  0  0
M  END
>  <CHROM.1>
-138.49923118,-3.80489363,-34.04586903,-43.38998587,-2.77327204,0.41915352
1.60808445

>  <Name>
ligand

>  <RI>
0

>  <Rbt.Current_Directory>
/home/itssahil/PROJECTS/Mol_Feturizer/Test_systems_manuscript/rnas/3fu2

>  <Rbt.Executable>
rbdock ($Id: //depot/dev/client3/rdock/2013.1/src/exe/rbdock.cxx#4 $)

>  <Rbt.Library>
libRbt.so (2013.1, Build901 2013/11/27)

>  <Rbt.Parameter_File>
/export/apps/rDock/src/rDock_2013.1_src/data/scripts/dock_solv.prm

>  <Rbt.Receptor>
prm/pocket_docking_8.prm

>  <SCORE>
-16.0981

>  <SCORE.INTER>
-15.8009

>  <SCORE.INTER.CONST>
1

>  <SCORE.INTER.POLAR>
0

>  <SCORE.INTER.ROT>
1

>  <SCORE.INTER.SOLV>
20.3105

>  <SCORE.INTER.VDW>
-21.5708

>  <SCORE.INTER.norm>
-1.21545

>  <SCORE.INTRA>
-0.297217

>  <SCORE.INTRA.DIHEDRAL>
-0.00113969

>  <SCORE.INTRA.DIHEDRAL.0>
1.66609

>  <SCORE.INTRA.POLAR>
0

>  <SCORE.INTRA.POLAR.0>
0

>  <SCORE.INTRA.REPUL>
0

>  <SCORE.INTRA.REPUL.0>
0

>  <SCORE.INTRA.SOLV>
-0.990813

>  <SCORE.INTRA.SOLV.lig_0>
-45.868

>  <SCORE.INTRA.VDW>
0.198759

>  <SCORE.INTRA.VDW.0>
-0.397919

>  <SCORE.INTRA.norm>
-0.0228628

>  <SCORE.RESTR>
0

>  <SCORE.RESTR.CAVITY>
0

>  <SCORE.RESTR.norm>
0

>  <SCORE.SYSTEM>
0

>  <SCORE.SYSTEM.CONST>
0

>  <SCORE.SYSTEM.DIHEDRAL>
0

>  <SCORE.SYSTEM.SOLV>
0

>  <SCORE.SYSTEM.norm>
0

>  <SCORE.heavy>
13

>  <SCORE.norm>
-1.23832

>  <RMSD>
1.375

$$$$
ligand
 OpenBabel02271912143D
libRbt.so/2013.1/901 2013/11/27
 13 14  0  0  0  0  0  0  0  0999 V2000
   -5.0009  -34.5646  -45.1403 N   0  0  0  0  0  0  0  0  0  0  0  0
   -5.9040  -35.0535  -44.2347 C   0  0  0  0  0  0  0  0  0  0  0  0
   -7.0492  -35.6434  -44.6960 N   0  0  0  0  0  0  0  0  0  0  0  0
   -5.6872  -34.9664  -42.9220 N   0  0  0  0  0  0  0  0  0  0  0  0
   -4.5587  -34.3850  -42.4290 C   0  0  0  0  0  0  0  0  0  0  0  0
   -3.6004  -33.8631  -43.3253 C   0  0  0  0  0  0  0  0  0  0  0  0
   -3.8495  -33.9695  -44.7205 C   0  0  0  0  0  0  0  0  0  0  0  0
   -3.0571  -33.5409  -45.5225 O   0  0  0  0  0  0  0  0  0  0  0  0
   -2.5248  -33.3106  -42.5080 C   0  0  0  0  0  0  0  0  0  0  0  0
   -2.8669  -33.5212  -41.2246 C   0  0  0  0  0  0  0  0  0  0  0  0
   -4.0853  -34.1650  -41.1710 N   0  0  0  0  0  0  0  0  0  0  0  0
   -1.2775  -32.6288  -43.0090 C   0  0  0  0  0  0  0  0  0  0  0  0
   -0.1202  -33.1083  -42.2265 N   0  0  0  0  0  0  0  0  0  0  0  0
  1  2  1  0  0  0  0
  1  7  1  0  0  0  0
  2  3  1  0  0  0  0
  2  4  2  0  0  0  0
  4  5  1  0  0  0  0
  5  6  2  0  0  0  0
  5 11  1  0  0  0  0
  6  7  1  0  0  0  0
  6  9  1  0  0  0  0
  7  8  2  0  0  0  0
  9 10  2  0  0  0  0
  9 12  1  0  0  0  0
 10 11  1  0  0  0  0
 12 13  1  0  0  0  0
M  END
>  <CHROM.1>
-137.19342774,-3.80005539,-34.05194530,-43.36010006,-2.76897725,0.41754052
1.59981906

>  <Name>
ligand

>  <RI>
0

>  <Rbt.Current_Directory>
/home/itssahil/PROJECTS/Mol_Feturizer/Test_systems_manuscript/rnas/3fu2

>  <Rbt.Executable>
rbdock ($Id: //depot/dev/client3/rdock/2013.1/src/exe/rbdock.cxx#4 $)

>  <Rbt.Library>
libRbt.so (2013.1, Build901 2013/11/27)

>  <Rbt.Parameter_File>
/export/apps/rDock/src/rDock_2013.1_src/data/scripts/dock_solv.prm

>  <Rbt.Receptor>
prm/pocket_docking_8.prm

>  <SCORE>
-16.103

>  <SCORE.INTER>
-15.8001

>  <SCORE.INTER.CONST>
1

>  <SCORE.INTER.POLAR>
0

>  <SCORE.INTER.ROT>
1

>  <SCORE.INTER.SOLV>
20.3288

>  <SCORE.INTER.VDW>
-21.5763

>  <SCORE.INTER.norm>
-1.21539

>  <SCORE.INTRA>
-0.302949

>  <SCORE.INTRA.DIHEDRAL>
-0.000381089

>  <SCORE.INTRA.DIHEDRAL.0>
1.66609

>  <SCORE.INTRA.POLAR>
0

>  <SCORE.INTRA.POLAR.0>
0

>  <SCORE.INTRA.REPUL>
0

>  <SCORE.INTRA.REPUL.0>
0

>  <SCORE.INTRA.SOLV>
-0.991335

>  <SCORE.INTRA.SOLV.lig_0>
-45.868

>  <SCORE.INTRA.VDW>
0.19291

>  <SCORE.INTRA.VDW.0>
-0.397919

>  <SCORE.INTRA.norm>
-0.0233037

>  <SCORE.RESTR>
0

>  <SCORE.RESTR.CAVITY>
0

>  <SCORE.RESTR.norm>
0

>  <SCORE.SYSTEM>
0

>  <SCORE.SYSTEM.CONST>
0

>  <SCORE.SYSTEM.DIHEDRAL>
0

>  <SCORE.SYSTEM.SOLV>
0

>  <SCORE.SYSTEM.norm>
0

>  <SCORE.heavy>
13

>  <SCORE.norm>
-1.23869

>  <RMSD>
1.375

$$$$
ligand
 OpenBabel02271912143D
libRbt.so/2013.1/901 2013/11/27
 13 14  0  0  0  0  0  0  0  0999 V2000
   -5.0346  -34.5747  -45.1444 N   0  0  0  0  0  0  0  0  0  0  0  0
   -5.9266  -35.0601  -44.2260 C   0  0  0  0  0  0  0  0  0  0  0  0
   -7.0778  -35.6510  -44.6710 N   0  0  0  0  0  0  0  0  0  0  0  0
   -5.6934  -34.9685  -42.9164 N   0  0  0  0  0  0  0  0  0  0  0  0
   -4.5586  -34.3861  -42.4395 C   0  0  0  0  0  0  0  0  0  0  0  0
   -3.6113  -33.8677  -43.3494 C   0  0  0  0  0  0  0  0  0  0  0  0
   -3.8779  -33.9787  -44.7410 C   0  0  0  0  0  0  0  0  0  0  0  0
   -3.0953  -33.5533  -45.5543 O   0  0  0  0  0  0  0  0  0  0  0  0
   -2.5254  -33.3129  -42.5475 C   0  0  0  0  0  0  0  0  0  0  0  0
   -2.8516  -33.5190  -41.2592 C   0  0  0  0  0  0  0  0  0  0  0  0
   -4.0695  -34.1620  -41.1882 N   0  0  0  0  0  0  0  0  0  0  0  0
   -1.2841  -32.6334  -43.0663 C   0  0  0  0  0  0  0  0  0  0  0  0
   -0.1220  -33.0857  -42.2747 N   0  0  0  0  0  0  0  0  0  0  0  0
  1  2  1  0  0  0  0
  1  7  1  0  0  0  0
  2  3  1  0  0  0  0
  2  4  2  0  0  0  0
  4  5  1  0  0  0  0
  5  6  2  0  0  0  0
  5 11  1  0  0  0  0
  6  7  1  0  0  0  0
  6  9  1  0  0  0  0
  7  8  2  0  0  0  0
  9 10  2  0  0  0  0
  9 12  1  0  0  0  0
 10 11  1  0  0  0  0
 12 13  1  0  0  0  0
M  END
>  <CHROM.1>
-138.57717682,-3.81185648,-34.05451635,-43.37930824,-2.78100321,0.41861239
1.60231824

>  <Name>
ligand

>  <RI>
0

>  <Rbt.Current_Directory>
/home/itssahil/PROJECTS/Mol_Feturizer/Test_systems_manuscript/rnas/3fu2

>  <Rbt.Executable>
rbdock ($Id: //depot/dev/client3/rdock/2013.1/src/exe/rbdock.cxx#4 $)

>  <Rbt.Library>
libRbt.so (2013.1, Build901 2013/11/27)

>  <Rbt.Parameter_File>
/export/apps/rDock/src/rDock_2013.1_src/data/scripts/dock_solv.prm

>  <Rbt.Receptor>
prm/blind_docking_80.prm

>  <SCORE>
-16.109

>  <SCORE.INTER>
-15.8122

>  <SCORE.INTER.CONST>
1

>  <SCORE.INTER.POLAR>
0

>  <SCORE.INTER.ROT>
1

>  <SCORE.INTER.SOLV>
20.383

>  <SCORE.INTER.VDW>
-21.6024

>  <SCORE.INTER.norm>
-1.21632

>  <SCORE.INTRA>
-0.296871

>  <SCORE.INTRA.DIHEDRAL>
-0.00118278

>  <SCORE.INTRA.DIHEDRAL.0>
1.66609

>  <SCORE.INTRA.POLAR>
0

>  <SCORE.INTRA.POLAR.0>
0

>  <SCORE.INTRA.REPUL>
0

>  <SCORE.INTRA.REPUL.0>
0

>  <SCORE.INTRA.SOLV>
-0.990782

>  <SCORE.INTRA.SOLV.lig_0>
-45.868

>  <SCORE.INTRA.VDW>
0.199111

>  <SCORE.INTRA.VDW.0>
-0.397919

>  <SCORE.INTRA.norm>
-0.0228362

>  <SCORE.RESTR>
0

>  <SCORE.RESTR.CAVITY>
0

>  <SCORE.RESTR.norm>
0

>  <SCORE.SYSTEM>
0

>  <SCORE.SYSTEM.CONST>
0

>  <SCORE.SYSTEM.DIHEDRAL>
0

>  <SCORE.SYSTEM.SOLV>
0

>  <SCORE.SYSTEM.norm>
0

>  <SCORE.heavy>
13

>  <SCORE.norm>
-1.23916

>  <RMSD>
1.376

$$$$
ligand
 OpenBabel02271912143D
libRbt.so/2013.1/901 2013/11/27
 13 14  0  0  0  0  0  0  0  0999 V2000
   -4.9930  -34.5656  -45.1582 N   0  0  0  0  0  0  0  0  0  0  0  0
   -5.9053  -35.0371  -44.2526 C   0  0  0  0  0  0  0  0  0  0  0  0
   -7.0563  -35.6154  -44.7140 N   0  0  0  0  0  0  0  0  0  0  0  0
   -5.6918  -34.9442  -42.9397 N   0  0  0  0  0  0  0  0  0  0  0  0
   -4.5577  -34.3740  -42.4466 C   0  0  0  0  0  0  0  0  0  0  0  0
   -3.5898  -33.8701  -43.3429 C   0  0  0  0  0  0  0  0  0  0  0  0
   -3.8356  -33.9824  -44.7382 C   0  0  0  0  0  0  0  0  0  0  0  0
   -3.0351  -33.5691  -45.5402 O   0  0  0  0  0  0  0  0  0  0  0  0
   -2.5101  -33.3260  -42.5255 C   0  0  0  0  0  0  0  0  0  0  0  0
   -2.8591  -33.5239  -41.2419 C   0  0  0  0  0  0  0  0  0  0  0  0
   -4.0858  -34.1518  -41.1884 N   0  0  0  0  0  0  0  0  0  0  0  0
   -1.2525  -32.6633  -43.0266 C   0  0  0  0  0  0  0  0  0  0  0  0
   -0.1106  -33.1178  -42.2074 N   0  0  0  0  0  0  0  0  0  0  0  0
  1  2  1  0  0  0  0
  1  7  1  0  0  0  0
  2  3  1  0  0  0  0
  2  4  2  0  0  0  0
  4  5  1  0  0  0  0
  5  6  2  0  0  0  0
  5 11  1  0  0  0  0
  6  7  1  0  0  0  0
  6  9  1  0  0  0  0
  7  8  2  0  0  0  0
  9 10  2  0  0  0  0
  9 12  1  0  0  0  0
 10 11  1  0  0  0  0
 12 13  1  0  0  0  0
M  END
>  <CHROM.1>
-139.08162567,-3.79226346,-34.05382537,-43.37477228,-2.76273281,0.40756771
1.59221694

>  <Name>
ligand

>  <RI>
0

>  <Rbt.Current_Directory>
/home/itssahil/PROJECTS/Mol_Feturizer/Test_systems_manuscript/rnas/3fu2

>  <Rbt.Executable>
rbdock ($Id: //depot/dev/client3/rdock/2013.1/src/exe/rbdock.cxx#4 $)

>  <Rbt.Library>
libRbt.so (2013.1, Build901 2013/11/27)

>  <Rbt.Parameter_File>
/export/apps/rDock/src/rDock_2013.1_src/data/scripts/dock_solv.prm

>  <Rbt.Receptor>
prm/blind_docking_100.prm

>  <SCORE>
-16.1116

>  <SCORE.INTER>
-15.817

>  <SCORE.INTER.CONST>
1

>  <SCORE.INTER.POLAR>
0

>  <SCORE.INTER.ROT>
1

>  <SCORE.INTER.SOLV>
20.3367

>  <SCORE.INTER.VDW>
-21.5902

>  <SCORE.INTER.norm>
-1.21669

>  <SCORE.INTRA>
-0.294618

>  <SCORE.INTRA.DIHEDRAL>
-0.00145555

>  <SCORE.INTRA.DIHEDRAL.0>
1.66609

>  <SCORE.INTRA.POLAR>
0

>  <SCORE.INTRA.POLAR.0>
0

>  <SCORE.INTRA.REPUL>
0

>  <SCORE.INTRA.REPUL.0>
0

>  <SCORE.INTRA.SOLV>
-0.990578

>  <SCORE.INTRA.SOLV.lig_0>
-45.868

>  <SCORE.INTRA.VDW>
0.201399

>  <SCORE.INTRA.VDW.0>
-0.397919

>  <SCORE.INTRA.norm>
-0.0226629

>  <SCORE.RESTR>
0

>  <SCORE.RESTR.CAVITY>
0

>  <SCORE.RESTR.norm>
0

>  <SCORE.SYSTEM>
0

>  <SCORE.SYSTEM.CONST>
0

>  <SCORE.SYSTEM.DIHEDRAL>
0

>  <SCORE.SYSTEM.SOLV>
0

>  <SCORE.SYSTEM.norm>
0

>  <SCORE.heavy>
13

>  <SCORE.norm>
-1.23935

>  <RMSD>
1.379

$$$$
ligand
 OpenBabel02271912143D
libRbt.so/2013.1/901 2013/11/27
 13 14  0  0  0  0  0  0  0  0999 V2000
   -5.0035  -34.5611  -45.1389 N   0  0  0  0  0  0  0  0  0  0  0  0
   -5.9080  -35.0497  -44.2345 C   0  0  0  0  0  0  0  0  0  0  0  0
   -7.0558  -35.6334  -44.6972 N   0  0  0  0  0  0  0  0  0  0  0  0
   -5.6901  -34.9680  -42.9216 N   0  0  0  0  0  0  0  0  0  0  0  0
   -4.5590  -34.3928  -42.4272 C   0  0  0  0  0  0  0  0  0  0  0  0
   -3.5992  -33.8715  -43.3223 C   0  0  0  0  0  0  0  0  0  0  0  0
   -3.8496  -33.9719  -44.7177 C   0  0  0  0  0  0  0  0  0  0  0  0
   -3.0560  -33.5437  -45.5187 O   0  0  0  0  0  0  0  0  0  0  0  0
   -2.5210  -33.3261  -42.5037 C   0  0  0  0  0  0  0  0  0  0  0  0
   -2.8632  -33.5399  -41.2208 C   0  0  0  0  0  0  0  0  0  0  0  0
   -4.0841  -34.1790  -41.1687 N   0  0  0  0  0  0  0  0  0  0  0  0
   -1.2713  -32.6473  -43.0030 C   0  0  0  0  0  0  0  0  0  0  0  0
   -0.1183  -33.1193  -42.2097 N   0  0  0  0  0  0  0  0  0  0  0  0
  1  2  1  0  0  0  0
  1  7  1  0  0  0  0
  2  3  1  0  0  0  0
  2  4  2  0  0  0  0
  4  5  1  0  0  0  0
  5  6  2  0  0  0  0
  5 11  1  0  0  0  0
  6  7  1  0  0  0  0
  6  9  1  0  0  0  0
  7  8  2  0  0  0  0
  9 10  2  0  0  0  0
  9 12  1  0  0  0  0
 10 11  1  0  0  0  0
 12 13  1  0  0  0  0
M  END
>  <CHROM.1>
-138.01732594,-3.79987764,-34.05820709,-43.35656283,-2.76854749,0.41475842
1.60379653

>  <Name>
ligand

>  <RI>
0

>  <Rbt.Current_Directory>
/home/itssahil/PROJECTS/Mol_Feturizer/Test_systems_manuscript/rnas/3fu2

>  <Rbt.Executable>
rbdock ($Id: //depot/dev/client3/rdock/2013.1/src/exe/rbdock.cxx#4 $)

>  <Rbt.Library>
libRbt.so (2013.1, Build901 2013/11/27)

>  <Rbt.Parameter_File>
/export/apps/rDock/src/rDock_2013.1_src/data/scripts/dock_solv.prm

>  <Rbt.Receptor>
prm/pocket_docking_6.prm

>  <SCORE>
-16.1081

>  <SCORE.INTER>
-15.8087

>  <SCORE.INTER.CONST>
1

>  <SCORE.INTER.POLAR>
0

>  <SCORE.INTER.ROT>
1

>  <SCORE.INTER.SOLV>
20.3206

>  <SCORE.INTER.VDW>
-21.5793

>  <SCORE.INTER.norm>
-1.21606

>  <SCORE.INTRA>
-0.299348

>  <SCORE.INTRA.DIHEDRAL>
-0.000867735

>  <SCORE.INTRA.DIHEDRAL.0>
1.66609

>  <SCORE.INTRA.POLAR>
0

>  <SCORE.INTRA.POLAR.0>
0

>  <SCORE.INTRA.REPUL>
0

>  <SCORE.INTRA.REPUL.0>
0

>  <SCORE.INTRA.SOLV>
-0.991006

>  <SCORE.INTRA.SOLV.lig_0>
-45.868

>  <SCORE.INTRA.VDW>
0.196589

>  <SCORE.INTRA.VDW.0>
-0.397919

>  <SCORE.INTRA.norm>
-0.0230268

>  <SCORE.RESTR>
0

>  <SCORE.RESTR.CAVITY>
0

>  <SCORE.RESTR.norm>
0

>  <SCORE.SYSTEM>
0

>  <SCORE.SYSTEM.CONST>
0

>  <SCORE.SYSTEM.DIHEDRAL>
0

>  <SCORE.SYSTEM.SOLV>
0

>  <SCORE.SYSTEM.norm>
0

>  <SCORE.heavy>
13

>  <SCORE.norm>
-1.23908

>  <RMSD>
1.379

$$$$
ligand
 OpenBabel02271912143D
libRbt.so/2013.1/901 2013/11/27
 13 14  0  0  0  0  0  0  0  0999 V2000
   -4.9845  -34.5736  -45.1561 N   0  0  0  0  0  0  0  0  0  0  0  0
   -5.8995  -35.0434  -44.2523 C   0  0  0  0  0  0  0  0  0  0  0  0
   -7.0476  -35.6256  -44.7161 N   0  0  0  0  0  0  0  0  0  0  0  0
   -5.6914  -34.9450  -42.9390 N   0  0  0  0  0  0  0  0  0  0  0  0
   -4.5604  -34.3708  -42.4435 C   0  0  0  0  0  0  0  0  0  0  0  0
   -3.5898  -33.8684  -43.3379 C   0  0  0  0  0  0  0  0  0  0  0  0
   -3.8299  -33.9865  -44.7338 C   0  0  0  0  0  0  0  0  0  0  0  0
   -3.0270  -33.5749  -45.5342 O   0  0  0  0  0  0  0  0  0  0  0  0
   -2.5144  -33.3191  -42.5183 C   0  0  0  0  0  0  0  0  0  0  0  0
   -2.8683  -33.5128  -41.2354 C   0  0  0  0  0  0  0  0  0  0  0  0
   -4.0939  -34.1428  -41.1843 N   0  0  0  0  0  0  0  0  0  0  0  0
   -1.2562  -32.6560  -43.0170 C   0  0  0  0  0  0  0  0  0  0  0  0
   -0.1145  -33.1159  -42.2005 N   0  0  0  0  0  0  0  0  0  0  0  0
  1  2  1  0  0  0  0
  1  7  1  0  0  0  0
  2  3  1  0  0  0  0
  2  4  2  0  0  0  0
  4  5  1  0  0  0  0
  5  6  2  0  0  0  0
  5 11  1  0  0  0  0
  6  7  1  0  0  0  0
  6  9  1  0  0  0  0
  7  8  2  0  0  0  0
  9 10  2  0  0  0  0
  9 12  1  0  0  0  0
 10 11  1  0  0  0  0
 12 13  1  0  0  0  0
M  END
>  <CHROM.1>
-138.49961802,-3.79169429,-34.05353820,-43.37066082,-2.75910661,0.40873334
1.58652372

>  <Name>
ligand

>  <RI>
0

>  <Rbt.Current_Directory>
/home/itssahil/PROJECTS/Mol_Feturizer/Test_systems_manuscript/rnas/3fu2

>  <Rbt.Executable>
rbdock ($Id: //depot/dev/client3/rdock/2013.1/src/exe/rbdock.cxx#4 $)

>  <Rbt.Library>
libRbt.so (2013.1, Build901 2013/11/27)

>  <Rbt.Parameter_File>
/export/apps/rDock/src/rDock_2013.1_src/data/scripts/dock_solv.prm

>  <Rbt.Receptor>
prm/pocket_docking_8.prm

>  <SCORE>
-16.1145

>  <SCORE.INTER>
-15.8173

>  <SCORE.INTER.CONST>
1

>  <SCORE.INTER.POLAR>
0

>  <SCORE.INTER.ROT>
1

>  <SCORE.INTER.SOLV>
20.3404

>  <SCORE.INTER.VDW>
-21.5917

>  <SCORE.INTER.norm>
-1.21671

>  <SCORE.INTRA>
-0.297215

>  <SCORE.INTRA.DIHEDRAL>
-0.0011399

>  <SCORE.INTRA.DIHEDRAL.0>
1.66609

>  <SCORE.INTRA.POLAR>
0

>  <SCORE.INTRA.POLAR.0>
0

>  <SCORE.INTRA.REPUL>
0

>  <SCORE.INTRA.REPUL.0>
0

>  <SCORE.INTRA.SOLV>
-0.990813

>  <SCORE.INTRA.SOLV.lig_0>
-45.868

>  <SCORE.INTRA.VDW>
0.198761

>  <SCORE.INTRA.VDW.0>
-0.397919

>  <SCORE.INTRA.norm>
-0.0228627

>  <SCORE.RESTR>
0

>  <SCORE.RESTR.CAVITY>
0

>  <SCORE.RESTR.norm>
0

>  <SCORE.SYSTEM>
0

>  <SCORE.SYSTEM.CONST>
0

>  <SCORE.SYSTEM.DIHEDRAL>
0

>  <SCORE.SYSTEM.SOLV>
0

>  <SCORE.SYSTEM.norm>
0

>  <SCORE.heavy>
13

>  <SCORE.norm>
-1.23958

>  <RMSD>
1.379

$$$$
ligand
 OpenBabel02271912143D
libRbt.so/2013.1/901 2013/11/27
 13 14  0  0  0  0  0  0  0  0999 V2000
   -4.9904  -34.5605  -45.1564 N   0  0  0  0  0  0  0  0  0  0  0  0
   -5.9042  -35.0341  -44.2533 C   0  0  0  0  0  0  0  0  0  0  0  0
   -7.0545  -35.6113  -44.7178 N   0  0  0  0  0  0  0  0  0  0  0  0
   -5.6927  -34.9441  -42.9399 N   0  0  0  0  0  0  0  0  0  0  0  0
   -4.5594  -34.3751  -42.4437 C   0  0  0  0  0  0  0  0  0  0  0  0
   -3.5901  -33.8692  -43.3373 C   0  0  0  0  0  0  0  0  0  0  0  0
   -3.8337  -33.9782  -44.7333 C   0  0  0  0  0  0  0  0  0  0  0  0
   -3.0320  -33.5632  -45.5332 O   0  0  0  0  0  0  0  0  0  0  0  0
   -2.5116  -33.3270  -42.5170 C   0  0  0  0  0  0  0  0  0  0  0  0
   -2.8627  -33.5278  -41.2344 C   0  0  0  0  0  0  0  0  0  0  0  0
   -4.0894  -34.1558  -41.1842 N   0  0  0  0  0  0  0  0  0  0  0  0
   -1.2533  -32.6631  -43.0147 C   0  0  0  0  0  0  0  0  0  0  0  0
   -0.1117  -33.1239  -42.1984 N   0  0  0  0  0  0  0  0  0  0  0  0
  1  2  1  0  0  0  0
  1  7  1  0  0  0  0
  2  3  1  0  0  0  0
  2  4  2  0  0  0  0
  4  5  1  0  0  0  0
  5  6  2  0  0  0  0
  5 11  1  0  0  0  0
  6  7  1  0  0  0  0
  6  9  1  0  0  0  0
  7  8  2  0  0  0  0
  9 10  2  0  0  0  0
  9 12  1  0  0  0  0
 10 11  1  0  0  0  0
 12 13  1  0  0  0  0
M  END
>  <CHROM.1>
-138.84322251,-3.79243175,-34.05316167,-43.37026815,-2.76132757,0.40726229
1.59378195

>  <Name>
ligand

>  <RI>
0

>  <Rbt.Current_Directory>
/home/itssahil/PROJECTS/Mol_Feturizer/Test_systems_manuscript/rnas/3fu2

>  <Rbt.Executable>
rbdock ($Id: //depot/dev/client3/rdock/2013.1/src/exe/rbdock.cxx#4 $)

>  <Rbt.Library>
libRbt.so (2013.1, Build901 2013/11/27)

>  <Rbt.Parameter_File>
/export/apps/rDock/src/rDock_2013.1_src/data/scripts/dock_solv.prm

>  <Rbt.Receptor>
prm/pocket_docking_7.prm

>  <SCORE>
-16.1106

>  <SCORE.INTER>
-15.8149

>  <SCORE.INTER.CONST>
1

>  <SCORE.INTER.POLAR>
0

>  <SCORE.INTER.ROT>
1

>  <SCORE.INTER.SOLV>
20.33

>  <SCORE.INTER.VDW>
-21.5866

>  <SCORE.INTER.norm>
-1.21653

>  <SCORE.INTRA>
-0.295685

>  <SCORE.INTRA.DIHEDRAL>
-0.00132796

>  <SCORE.INTRA.DIHEDRAL.0>
1.66609

>  <SCORE.INTRA.POLAR>
0

>  <SCORE.INTRA.POLAR.0>
0

>  <SCORE.INTRA.REPUL>
0

>  <SCORE.INTRA.REPUL.0>
0

>  <SCORE.INTRA.SOLV>
-0.990674

>  <SCORE.INTRA.SOLV.lig_0>
-45.868

>  <SCORE.INTRA.VDW>
0.200316

>  <SCORE.INTRA.VDW.0>
-0.397919

>  <SCORE.INTRA.norm>
-0.022745

>  <SCORE.RESTR>
0

>  <SCORE.RESTR.CAVITY>
0

>  <SCORE.RESTR.norm>
0

>  <SCORE.SYSTEM>
0

>  <SCORE.SYSTEM.CONST>
0

>  <SCORE.SYSTEM.DIHEDRAL>
0

>  <SCORE.SYSTEM.SOLV>
0

>  <SCORE.SYSTEM.norm>
0

>  <SCORE.heavy>
13

>  <SCORE.norm>
-1.23928

>  <RMSD>
1.380

$$$$
ligand
 OpenBabel02271912143D
libRbt.so/2013.1/901 2013/11/27
 13 14  0  0  0  0  0  0  0  0999 V2000
   -4.9769  -34.5802  -45.1620 N   0  0  0  0  0  0  0  0  0  0  0  0
   -5.8970  -35.0423  -44.2594 C   0  0  0  0  0  0  0  0  0  0  0  0
   -7.0440  -35.6254  -44.7246 N   0  0  0  0  0  0  0  0  0  0  0  0
   -5.6947  -34.9355  -42.9458 N   0  0  0  0  0  0  0  0  0  0  0  0
   -4.5648  -34.3602  -42.4490 C   0  0  0  0  0  0  0  0  0  0  0  0
   -3.5892  -33.8657  -43.3422 C   0  0  0  0  0  0  0  0  0  0  0  0
   -3.8231  -33.9925  -44.7383 C   0  0  0  0  0  0  0  0  0  0  0  0
   -3.0158  -33.5877  -45.5378 O   0  0  0  0  0  0  0  0  0  0  0  0
   -2.5165  -33.3130  -42.5214 C   0  0  0  0  0  0  0  0  0  0  0  0
   -2.8766  -33.4974  -41.2388 C   0  0  0  0  0  0  0  0  0  0  0  0
   -4.1037  -34.1248  -41.1892 N   0  0  0  0  0  0  0  0  0  0  0  0
   -1.2547  -32.6555  -43.0186 C   0  0  0  0  0  0  0  0  0  0  0  0
   -0.1164  -33.1184  -42.1991 N   0  0  0  0  0  0  0  0  0  0  0  0
  1  2  1  0  0  0  0
  1  7  1  0  0  0  0
  2  3  1  0  0  0  0
  2  4  2  0  0  0  0
  4  5  1  0  0  0  0
  5  6  2  0  0  0  0
  5 11  1  0  0  0  0
  6  7  1  0  0  0  0
  6  9  1  0  0  0  0
  7  8  2  0  0  0  0
  9 10  2  0  0  0  0
  9 12  1  0  0  0  0
 10 11  1  0  0  0  0
 12 13  1  0  0  0  0
M  END
>  <CHROM.1>
-138.16093186,-3.79118017,-34.05108508,-43.37506504,-2.75448824,0.40640229
1.57782011

>  <Name>
ligand

>  <RI>
0

>  <Rbt.Current_Directory>
/home/itssahil/PROJECTS/Mol_Feturizer/Test_systems_manuscript/rnas/3fu2

>  <Rbt.Executable>
rbdock ($Id: //depot/dev/client3/rdock/2013.1/src/exe/rbdock.cxx#4 $)

>  <Rbt.Library>
libRbt.so (2013.1, Build901 2013/11/27)

>  <Rbt.Parameter_File>
/export/apps/rDock/src/rDock_2013.1_src/data/scripts/dock_solv.prm

>  <Rbt.Receptor>
prm/pocket_docking_3.prm

>  <SCORE>
-16.1091

>  <SCORE.INTER>
-15.8104

>  <SCORE.INTER.CONST>
1

>  <SCORE.INTER.POLAR>
0

>  <SCORE.INTER.ROT>
1

>  <SCORE.INTER.SOLV>
20.3578

>  <SCORE.INTER.VDW>
-21.5928

>  <SCORE.INTER.norm>
-1.21618

>  <SCORE.INTRA>
-0.298715

>  <SCORE.INTRA.DIHEDRAL>
-0.000949769

>  <SCORE.INTRA.DIHEDRAL.0>
1.66609

>  <SCORE.INTRA.POLAR>
0

>  <SCORE.INTRA.POLAR.0>
0

>  <SCORE.INTRA.REPUL>
0

>  <SCORE.INTRA.REPUL.0>
0

>  <SCORE.INTRA.SOLV>
-0.990949

>  <SCORE.INTRA.SOLV.lig_0>
-45.868

>  <SCORE.INTRA.VDW>
0.197234

>  <SCORE.INTRA.VDW.0>
-0.397919

>  <SCORE.INTRA.norm>
-0.0229781

>  <SCORE.RESTR>
0

>  <SCORE.RESTR.CAVITY>
0

>  <SCORE.RESTR.norm>
0

>  <SCORE.SYSTEM>
0

>  <SCORE.SYSTEM.CONST>
0

>  <SCORE.SYSTEM.DIHEDRAL>
0

>  <SCORE.SYSTEM.SOLV>
0

>  <SCORE.SYSTEM.norm>
0

>  <SCORE.heavy>
13

>  <SCORE.norm>
-1.23916

>  <RMSD>
1.381

$$$$
ligand
 OpenBabel02271912143D
libRbt.so/2013.1/901 2013/11/27
 13 14  0  0  0  0  0  0  0  0999 V2000
   -4.9793  -34.5659  -45.1535 N   0  0  0  0  0  0  0  0  0  0  0  0
   -5.8969  -35.0383  -44.2537 C   0  0  0  0  0  0  0  0  0  0  0  0
   -7.0434  -35.6197  -44.7224 N   0  0  0  0  0  0  0  0  0  0  0  0
   -5.6927  -34.9432  -42.9395 N   0  0  0  0  0  0  0  0  0  0  0  0
   -4.5633  -34.3699  -42.4392 C   0  0  0  0  0  0  0  0  0  0  0  0
   -3.5903  -33.8649  -43.3294 C   0  0  0  0  0  0  0  0  0  0  0  0
   -3.8262  -33.9795  -44.7263 C   0  0  0  0  0  0  0  0  0  0  0  0
   -3.0210  -33.5655  -45.5233 O   0  0  0  0  0  0  0  0  0  0  0  0
   -2.5175  -33.3174  -42.5052 C   0  0  0  0  0  0  0  0  0  0  0  0
   -2.8751  -33.5145  -41.2239 C   0  0  0  0  0  0  0  0  0  0  0  0
   -4.1007  -34.1450  -41.1781 N   0  0  0  0  0  0  0  0  0  0  0  0
   -1.2580  -32.6525  -42.9984 C   0  0  0  0  0  0  0  0  0  0  0  0
   -0.1155  -33.1299  -42.1931 N   0  0  0  0  0  0  0  0  0  0  0  0
  1  2  1  0  0  0  0
  1  7  1  0  0  0  0
  2  3  1  0  0  0  0
  2  4  2  0  0  0  0
  4  5  1  0  0  0  0
  5  6  2  0  0  0  0
  5 11  1  0  0  0  0
  6  7  1  0  0  0  0
  6  9  1  0  0  0  0
  7  8  2  0  0  0  0
  9 10  2  0  0  0  0
  9 12  1  0  0  0  0
 10 11  1  0  0  0  0
 12 13  1  0  0  0  0
M  END
>  <CHROM.1>
-137.64393935,-3.79174393,-34.05129643,-43.36432698,-2.75686226,0.40792177
1.58760157

>  <Name>
ligand

>  <RI>
0

>  <Rbt.Current_Directory>
/home/itssahil/PROJECTS/Mol_Feturizer/Test_systems_manuscript/rnas/3fu2

>  <Rbt.Executable>
rbdock ($Id: //depot/dev/client3/rdock/2013.1/src/exe/rbdock.cxx#4 $)

>  <Rbt.Library>
libRbt.so (2013.1, Build901 2013/11/27)

>  <Rbt.Parameter_File>
/export/apps/rDock/src/rDock_2013.1_src/data/scripts/dock_solv.prm

>  <Rbt.Receptor>
prm/pocket_docking_4.prm

>  <SCORE>
-16.1116

>  <SCORE.INTER>
-15.8106

>  <SCORE.INTER.CONST>
1

>  <SCORE.INTER.POLAR>
0

>  <SCORE.INTER.ROT>
1

>  <SCORE.INTER.SOLV>
20.3367

>  <SCORE.INTER.VDW>
-21.586

>  <SCORE.INTER.norm>
-1.2162

>  <SCORE.INTRA>
-0.300986

>  <SCORE.INTRA.DIHEDRAL>
-0.000650544

>  <SCORE.INTRA.DIHEDRAL.0>
1.66609

>  <SCORE.INTRA.POLAR>
0

>  <SCORE.INTRA.POLAR.0>
0

>  <SCORE.INTRA.REPUL>
0

>  <SCORE.INTRA.REPUL.0>
0

>  <SCORE.INTRA.SOLV>
-0.991156

>  <SCORE.INTRA.SOLV.lig_0>
-45.868

>  <SCORE.INTRA.VDW>
0.194917

>  <SCORE.INTRA.VDW.0>
-0.397919

>  <SCORE.INTRA.norm>
-0.0231528

>  <SCORE.RESTR>
0

>  <SCORE.RESTR.CAVITY>
0

>  <SCORE.RESTR.norm>
0

>  <SCORE.SYSTEM>
0

>  <SCORE.SYSTEM.CONST>
0

>  <SCORE.SYSTEM.DIHEDRAL>
0

>  <SCORE.SYSTEM.SOLV>
0

>  <SCORE.SYSTEM.norm>
0

>  <SCORE.heavy>
13

>  <SCORE.norm>
-1.23935

>  <RMSD>
1.381

$$$$
ligand
 OpenBabel02271912143D
libRbt.so/2013.1/901 2013/11/27
 13 14  0  0  0  0  0  0  0  0999 V2000
   -5.0058  -34.5621  -45.1417 N   0  0  0  0  0  0  0  0  0  0  0  0
   -5.9109  -35.0485  -44.2367 C   0  0  0  0  0  0  0  0  0  0  0  0
   -7.0573  -35.6355  -44.6988 N   0  0  0  0  0  0  0  0  0  0  0  0
   -5.6949  -34.9617  -42.9239 N   0  0  0  0  0  0  0  0  0  0  0  0
   -4.5653  -34.3832  -42.4300 C   0  0  0  0  0  0  0  0  0  0  0  0
   -3.6049  -33.8639  -43.3257 C   0  0  0  0  0  0  0  0  0  0  0  0
   -3.8533  -33.9698  -44.7210 C   0  0  0  0  0  0  0  0  0  0  0  0
   -3.0592  -33.5434  -45.5225 O   0  0  0  0  0  0  0  0  0  0  0  0
   -2.5286  -33.3140  -42.5076 C   0  0  0  0  0  0  0  0  0  0  0  0
   -2.8722  -33.5236  -41.2244 C   0  0  0  0  0  0  0  0  0  0  0  0
   -4.0923  -34.1642  -41.1717 N   0  0  0  0  0  0  0  0  0  0  0  0
   -1.2791  -32.6355  -43.0078 C   0  0  0  0  0  0  0  0  0  0  0  0
   -0.1231  -33.1212  -42.2273 N   0  0  0  0  0  0  0  0  0  0  0  0
  1  2  1  0  0  0  0
  1  7  1  0  0  0  0
  2  3  1  0  0  0  0
  2  4  2  0  0  0  0
  4  5  1  0  0  0  0
  5  6  2  0  0  0  0
  5 11  1  0  0  0  0
  6  7  1  0  0  0  0
  6  9  1  0  0  0  0
  7  8  2  0  0  0  0
  9 10  2  0  0  0  0
  9 12  1  0  0  0  0
 10 11  1  0  0  0  0
 12 13  1  0  0  0  0
M  END
>  <CHROM.1>
-137.00928285,-3.80499421,-34.05249600,-43.36087091,-2.76827179,0.41474290
1.59926103

>  <Name>
ligand

>  <RI>
0

>  <Rbt.Current_Directory>
/home/itssahil/PROJECTS/Mol_Feturizer/Test_systems_manuscript/rnas/3fu2

>  <Rbt.Executable>
rbdock ($Id: //depot/dev/client3/rdock/2013.1/src/exe/rbdock.cxx#4 $)

>  <Rbt.Library>
libRbt.so (2013.1, Build901 2013/11/27)

>  <Rbt.Parameter_File>
/export/apps/rDock/src/rDock_2013.1_src/data/scripts/dock_solv.prm

>  <Rbt.Receptor>
prm/pocket_docking_6.prm

>  <SCORE>
-16.0999

>  <SCORE.INTER>
-15.7961

>  <SCORE.INTER.CONST>
1

>  <SCORE.INTER.POLAR>
0

>  <SCORE.INTER.ROT>
1

>  <SCORE.INTER.SOLV>
20.3447

>  <SCORE.INTER.VDW>
-21.579

>  <SCORE.INTER.norm>
-1.21509

>  <SCORE.INTRA>
-0.303746

>  <SCORE.INTRA.DIHEDRAL>
-0.000268653

>  <SCORE.INTRA.DIHEDRAL.0>
1.66609

>  <SCORE.INTRA.POLAR>
0

>  <SCORE.INTRA.POLAR.0>
0

>  <SCORE.INTRA.REPUL>
0

>  <SCORE.INTRA.REPUL.0>
0

>  <SCORE.INTRA.SOLV>
-0.991409

>  <SCORE.INTRA.SOLV.lig_0>
-45.868

>  <SCORE.INTRA.VDW>
0.192093

>  <SCORE.INTRA.VDW.0>
-0.397919

>  <SCORE.INTRA.norm>
-0.0233651

>  <SCORE.RESTR>
0

>  <SCORE.RESTR.CAVITY>
0

>  <SCORE.RESTR.norm>
0

>  <SCORE.SYSTEM>
0

>  <SCORE.SYSTEM.CONST>
0

>  <SCORE.SYSTEM.DIHEDRAL>
0

>  <SCORE.SYSTEM.SOLV>
0

>  <SCORE.SYSTEM.norm>
0

>  <SCORE.heavy>
13

>  <SCORE.norm>
-1.23845

>  <RMSD>
1.381

$$$$
ligand
 OpenBabel02271912143D
libRbt.so/2013.1/901 2013/11/27
 13 14  0  0  0  0  0  0  0  0999 V2000
   -4.9858  -34.5726  -45.1524 N   0  0  0  0  0  0  0  0  0  0  0  0
   -5.9012  -35.0425  -44.2491 C   0  0  0  0  0  0  0  0  0  0  0  0
   -7.0498  -35.6234  -44.7134 N   0  0  0  0  0  0  0  0  0  0  0  0
   -5.6930  -34.9456  -42.9357 N   0  0  0  0  0  0  0  0  0  0  0  0
   -4.5614  -34.3728  -42.4397 C   0  0  0  0  0  0  0  0  0  0  0  0
   -3.5905  -33.8704  -43.3336 C   0  0  0  0  0  0  0  0  0  0  0  0
   -3.8307  -33.9869  -44.7296 C   0  0  0  0  0  0  0  0  0  0  0  0
   -3.0276  -33.5750  -45.5297 O   0  0  0  0  0  0  0  0  0  0  0  0
   -2.5146  -33.3228  -42.5136 C   0  0  0  0  0  0  0  0  0  0  0  0
   -2.8685  -33.5174  -41.2308 C   0  0  0  0  0  0  0  0  0  0  0  0
   -4.0947  -34.1465  -41.1803 N   0  0  0  0  0  0  0  0  0  0  0  0
   -1.2558  -32.6601  -43.0116 C   0  0  0  0  0  0  0  0  0  0  0  0
   -0.1144  -33.1223  -42.1961 N   0  0  0  0  0  0  0  0  0  0  0  0
  1  2  1  0  0  0  0
  1  7  1  0  0  0  0
  2  3  1  0  0  0  0
  2  4  2  0  0  0  0
  4  5  1  0  0  0  0
  5  6  2  0  0  0  0
  5 11  1  0  0  0  0
  6  7  1  0  0  0  0
  6  9  1  0  0  0  0
  7  8  2  0  0  0  0
  9 10  2  0  0  0  0
  9 12  1  0  0  0  0
 10 11  1  0  0  0  0
 12 13  1  0  0  0  0
M  END
>  <CHROM.1>
-138.47173171,-3.79250760,-34.05530677,-43.36656622,-2.75918225,0.40787954
1.58752906

>  <Name>
ligand

>  <RI>
0

>  <Rbt.Current_Directory>
/home/itssahil/PROJECTS/Mol_Feturizer/Test_systems_manuscript/rnas/3fu2

>  <Rbt.Executable>
rbdock ($Id: //depot/dev/client3/rdock/2013.1/src/exe/rbdock.cxx#4 $)

>  <Rbt.Library>
libRbt.so (2013.1, Build901 2013/11/27)

>  <Rbt.Parameter_File>
/export/apps/rDock/src/rDock_2013.1_src/data/scripts/dock_solv.prm

>  <Rbt.Receptor>
prm/pocket_docking_8.prm

>  <SCORE>
-16.1134

>  <SCORE.INTER>
-15.8161

>  <SCORE.INTER.CONST>
1

>  <SCORE.INTER.POLAR>
0

>  <SCORE.INTER.ROT>
1

>  <SCORE.INTER.SOLV>
20.3418

>  <SCORE.INTER.VDW>
-21.5913

>  <SCORE.INTER.norm>
-1.21662

>  <SCORE.INTRA>
-0.297339

>  <SCORE.INTRA.DIHEDRAL>
-0.00112443

>  <SCORE.INTRA.DIHEDRAL.0>
1.66609

>  <SCORE.INTRA.POLAR>
0

>  <SCORE.INTRA.POLAR.0>
0

>  <SCORE.INTRA.REPUL>
0

>  <SCORE.INTRA.REPUL.0>
0

>  <SCORE.INTRA.SOLV>
-0.990824

>  <SCORE.INTRA.SOLV.lig_0>
-45.868

>  <SCORE.INTRA.VDW>
0.198635

>  <SCORE.INTRA.VDW.0>
-0.397919

>  <SCORE.INTRA.norm>
-0.0228722

>  <SCORE.RESTR>
0

>  <SCORE.RESTR.CAVITY>
0

>  <SCORE.RESTR.norm>
0

>  <SCORE.SYSTEM>
0

>  <SCORE.SYSTEM.CONST>
0

>  <SCORE.SYSTEM.DIHEDRAL>
0

>  <SCORE.SYSTEM.SOLV>
0

>  <SCORE.SYSTEM.norm>
0

>  <SCORE.heavy>
13

>  <SCORE.norm>
-1.23949

>  <RMSD>
1.381

$$$$
ligand
 OpenBabel02271912143D
libRbt.so/2013.1/901 2013/11/27
 13 14  0  0  0  0  0  0  0  0999 V2000
   -4.9875  -34.5570  -45.1512 N   0  0  0  0  0  0  0  0  0  0  0  0
   -5.8945  -35.0561  -44.2550 C   0  0  0  0  0  0  0  0  0  0  0  0
   -7.0367  -35.6426  -44.7278 N   0  0  0  0  0  0  0  0  0  0  0  0
   -5.6842  -34.9818  -42.9405 N   0  0  0  0  0  0  0  0  0  0  0  0
   -4.5588  -34.4042  -42.4361 C   0  0  0  0  0  0  0  0  0  0  0  0
   -3.5967  -33.8721  -43.3224 C   0  0  0  0  0  0  0  0  0  0  0  0
   -3.8390  -33.9648  -44.7198 C   0  0  0  0  0  0  0  0  0  0  0  0
   -3.0432  -33.5273  -45.5136 O   0  0  0  0  0  0  0  0  0  0  0  0
   -2.5259  -33.3266  -42.4944 C   0  0  0  0  0  0  0  0  0  0  0  0
   -2.8740  -33.5505  -41.2148 C   0  0  0  0  0  0  0  0  0  0  0  0
   -4.0918  -34.1962  -41.1736 N   0  0  0  0  0  0  0  0  0  0  0  0
   -1.2769  -32.6383  -42.9824 C   0  0  0  0  0  0  0  0  0  0  0  0
   -0.1226  -33.1259  -42.2004 N   0  0  0  0  0  0  0  0  0  0  0  0
  1  2  1  0  0  0  0
  1  7  1  0  0  0  0
  2  3  1  0  0  0  0
  2  4  2  0  0  0  0
  4  5  1  0  0  0  0
  5  6  2  0  0  0  0
  5 11  1  0  0  0  0
  6  7  1  0  0  0  0
  6  9  1  0  0  0  0
  7  8  2  0  0  0  0
  9 10  2  0  0  0  0
  9 12  1  0  0  0  0
 10 11  1  0  0  0  0
 12 13  1  0  0  0  0
M  END
>  <CHROM.1>
-137.10934974,-3.79599787,-34.06097590,-43.36021945,-2.76377637,0.41877915
1.60768785

>  <Name>
ligand

>  <RI>
0

>  <Rbt.Current_Directory>
/home/itssahil/PROJECTS/Mol_Feturizer/Test_systems_manuscript/rnas/3fu2

>  <Rbt.Executable>
rbdock ($Id: //depot/dev/client3/rdock/2013.1/src/exe/rbdock.cxx#4 $)

>  <Rbt.Library>
libRbt.so (2013.1, Build901 2013/11/27)

>  <Rbt.Parameter_File>
/export/apps/rDock/src/rDock_2013.1_src/data/scripts/dock_solv.prm

>  <Rbt.Receptor>
prm/blind_docking_80.prm

>  <SCORE>
-16.0921

>  <SCORE.INTER>
-15.7888

>  <SCORE.INTER.CONST>
1

>  <SCORE.INTER.POLAR>
0

>  <SCORE.INTER.ROT>
1

>  <SCORE.INTER.SOLV>
20.2902

>  <SCORE.INTER.VDW>
-21.5559

>  <SCORE.INTER.norm>
-1.21452

>  <SCORE.INTRA>
-0.303313

>  <SCORE.INTRA.DIHEDRAL>
-0.000329916

>  <SCORE.INTRA.DIHEDRAL.0>
1.66609

>  <SCORE.INTRA.POLAR>
0

>  <SCORE.INTRA.POLAR.0>
0

>  <SCORE.INTRA.REPUL>
0

>  <SCORE.INTRA.REPUL.0>
0

>  <SCORE.INTRA.SOLV>
-0.991369

>  <SCORE.INTRA.SOLV.lig_0>
-45.868

>  <SCORE.INTRA.VDW>
0.192536

>  <SCORE.INTRA.VDW.0>
-0.397919

>  <SCORE.INTRA.norm>
-0.0233318

>  <SCORE.RESTR>
0

>  <SCORE.RESTR.CAVITY>
0

>  <SCORE.RESTR.norm>
0

>  <SCORE.SYSTEM>
0

>  <SCORE.SYSTEM.CONST>
0

>  <SCORE.SYSTEM.DIHEDRAL>
0

>  <SCORE.SYSTEM.SOLV>
0

>  <SCORE.SYSTEM.norm>
0

>  <SCORE.heavy>
13

>  <SCORE.norm>
-1.23786

>  <RMSD>
1.382

$$$$
ligand
 OpenBabel02271912143D
libRbt.so/2013.1/901 2013/11/27
 13 14  0  0  0  0  0  0  0  0999 V2000
   -4.9842  -34.5624  -45.1489 N   0  0  0  0  0  0  0  0  0  0  0  0
   -5.8996  -35.0394  -44.2493 C   0  0  0  0  0  0  0  0  0  0  0  0
   -7.0470  -35.6189  -44.7182 N   0  0  0  0  0  0  0  0  0  0  0  0
   -5.6924  -34.9506  -42.9351 N   0  0  0  0  0  0  0  0  0  0  0  0
   -4.5621  -34.3793  -42.4346 C   0  0  0  0  0  0  0  0  0  0  0  0
   -3.5912  -33.8698  -43.3246 C   0  0  0  0  0  0  0  0  0  0  0  0
   -3.8302  -33.9777  -44.7214 C   0  0  0  0  0  0  0  0  0  0  0  0
   -3.0271  -33.5596  -45.5183 O   0  0  0  0  0  0  0  0  0  0  0  0
   -2.5168  -33.3259  -42.5002 C   0  0  0  0  0  0  0  0  0  0  0  0
   -2.8713  -33.5293  -41.2190 C   0  0  0  0  0  0  0  0  0  0  0  0
   -4.0966  -34.1604  -41.1734 N   0  0  0  0  0  0  0  0  0  0  0  0
   -1.2585  -32.6583  -42.9930 C   0  0  0  0  0  0  0  0  0  0  0  0
   -0.1145  -33.1372  -42.1909 N   0  0  0  0  0  0  0  0  0  0  0  0
  1  2  1  0  0  0  0
  1  7  1  0  0  0  0
  2  3  1  0  0  0  0
  2  4  2  0  0  0  0
  4  5  1  0  0  0  0
  5  6  2  0  0  0  0
  5 11  1  0  0  0  0
  6  7  1  0  0  0  0
  6  9  1  0  0  0  0
  7  8  2  0  0  0  0
  9 10  2  0  0  0  0
  9 12  1  0  0  0  0
 10 11  1  0  0  0  0
 12 13  1  0  0  0  0
M  END
>  <CHROM.1>
-137.75531677,-3.79273689,-34.05590835,-43.35978322,-2.75921573,0.40832614
1.59343665

>  <Name>
ligand

>  <RI>
0

>  <Rbt.Current_Directory>
/home/itssahil/PROJECTS/Mol_Feturizer/Test_systems_manuscript/rnas/3fu2

>  <Rbt.Executable>
rbdock ($Id: //depot/dev/client3/rdock/2013.1/src/exe/rbdock.cxx#4 $)

>  <Rbt.Library>
libRbt.so (2013.1, Build901 2013/11/27)

>  <Rbt.Parameter_File>
/export/apps/rDock/src/rDock_2013.1_src/data/scripts/dock_solv.prm

>  <Rbt.Receptor>
prm/pocket_docking_7.prm

>  <SCORE>
-16.1109

>  <SCORE.INTER>
-15.8104

>  <SCORE.INTER.CONST>
1

>  <SCORE.INTER.POLAR>
0

>  <SCORE.INTER.ROT>
1

>  <SCORE.INTER.SOLV>
20.3324

>  <SCORE.INTER.VDW>
-21.5844

>  <SCORE.INTER.norm>
-1.21619

>  <SCORE.INTRA>
-0.300499

>  <SCORE.INTRA.DIHEDRAL>
-0.000715916

>  <SCORE.INTRA.DIHEDRAL.0>
1.66609

>  <SCORE.INTRA.POLAR>
0

>  <SCORE.INTRA.POLAR.0>
0

>  <SCORE.INTRA.REPUL>
0

>  <SCORE.INTRA.REPUL.0>
0

>  <SCORE.INTRA.SOLV>
-0.991111

>  <SCORE.INTRA.SOLV.lig_0>
-45.868

>  <SCORE.INTRA.VDW>
0.195415

>  <SCORE.INTRA.VDW.0>
-0.397919

>  <SCORE.INTRA.norm>
-0.0231153

>  <SCORE.RESTR>
0

>  <SCORE.RESTR.CAVITY>
0

>  <SCORE.RESTR.norm>
0

>  <SCORE.SYSTEM>
0

>  <SCORE.SYSTEM.CONST>
0

>  <SCORE.SYSTEM.DIHEDRAL>
0

>  <SCORE.SYSTEM.SOLV>
0

>  <SCORE.SYSTEM.norm>
0

>  <SCORE.heavy>
13

>  <SCORE.norm>
-1.2393

>  <RMSD>
1.382

$$$$
ligand
 OpenBabel02271912143D
libRbt.so/2013.1/901 2013/11/27
 13 14  0  0  0  0  0  0  0  0999 V2000
   -4.9876  -34.5720  -45.1566 N   0  0  0  0  0  0  0  0  0  0  0  0
   -5.9039  -35.0401  -44.2532 C   0  0  0  0  0  0  0  0  0  0  0  0
   -7.0538  -35.6184  -44.7175 N   0  0  0  0  0  0  0  0  0  0  0  0
   -5.6954  -34.9437  -42.9398 N   0  0  0  0  0  0  0  0  0  0  0  0
   -4.5626  -34.3734  -42.4438 C   0  0  0  0  0  0  0  0  0  0  0  0
   -3.5907  -33.8730  -43.3378 C   0  0  0  0  0  0  0  0  0  0  0  0
   -3.8312  -33.9889  -44.7337 C   0  0  0  0  0  0  0  0  0  0  0  0
   -3.0272  -33.5787  -45.5338 O   0  0  0  0  0  0  0  0  0  0  0  0
   -2.5136  -33.3278  -42.5177 C   0  0  0  0  0  0  0  0  0  0  0  0
   -2.8678  -33.5217  -41.2350 C   0  0  0  0  0  0  0  0  0  0  0  0
   -4.0953  -34.1482  -41.1844 N   0  0  0  0  0  0  0  0  0  0  0  0
   -1.2533  -32.6678  -43.0158 C   0  0  0  0  0  0  0  0  0  0  0  0
   -0.1148  -33.1225  -42.1920 N   0  0  0  0  0  0  0  0  0  0  0  0
  1  2  1  0  0  0  0
  1  7  1  0  0  0  0
  2  3  1  0  0  0  0
  2  4  2  0  0  0  0
  4  5  1  0  0  0  0
  5  6  2  0  0  0  0
  5 11  1  0  0  0  0
  6  7  1  0  0  0  0
  6  9  1  0  0  0  0
  7  8  2  0  0  0  0
  9 10  2  0  0  0  0
  9 12  1  0  0  0  0
 10 11  1  0  0  0  0
 12 13  1  0  0  0  0
M  END
>  <CHROM.1>
-139.01366104,-3.79322969,-34.05668883,-43.37005934,-2.75858061,0.40647467
1.58773862

>  <Name>
ligand

>  <RI>
0

>  <Rbt.Current_Directory>
/home/itssahil/PROJECTS/Mol_Feturizer/Test_systems_manuscript/rnas/3fu2

>  <Rbt.Executable>
rbdock ($Id: //depot/dev/client3/rdock/2013.1/src/exe/rbdock.cxx#4 $)

>  <Rbt.Library>
libRbt.so (2013.1, Build901 2013/11/27)

>  <Rbt.Parameter_File>
/export/apps/rDock/src/rDock_2013.1_src/data/scripts/dock_solv.prm

>  <Rbt.Receptor>
prm/pocket_docking_4.prm

>  <SCORE>
-16.1149

>  <SCORE.INTER>
-15.82

>  <SCORE.INTER.CONST>
1

>  <SCORE.INTER.POLAR>
0

>  <SCORE.INTER.ROT>
1

>  <SCORE.INTER.SOLV>
20.3406

>  <SCORE.INTER.VDW>
-21.5935

>  <SCORE.INTER.norm>
-1.21692

>  <SCORE.INTRA>
-0.294923

>  <SCORE.INTRA.DIHEDRAL>
-0.00141942

>  <SCORE.INTRA.DIHEDRAL.0>
1.66609

>  <SCORE.INTRA.POLAR>
0

>  <SCORE.INTRA.POLAR.0>
0

>  <SCORE.INTRA.REPUL>
0

>  <SCORE.INTRA.REPUL.0>
0

>  <SCORE.INTRA.SOLV>
-0.990606

>  <SCORE.INTRA.SOLV.lig_0>
-45.868

>  <SCORE.INTRA.VDW>
0.20109

>  <SCORE.INTRA.VDW.0>
-0.397919

>  <SCORE.INTRA.norm>
-0.0226864

>  <SCORE.RESTR>
0

>  <SCORE.RESTR.CAVITY>
0

>  <SCORE.RESTR.norm>
0

>  <SCORE.SYSTEM>
0

>  <SCORE.SYSTEM.CONST>
0

>  <SCORE.SYSTEM.DIHEDRAL>
0

>  <SCORE.SYSTEM.SOLV>
0

>  <SCORE.SYSTEM.norm>
0

>  <SCORE.heavy>
13

>  <SCORE.norm>
-1.23961

>  <RMSD>
1.383

$$$$
ligand
 OpenBabel02271912143D
libRbt.so/2013.1/901 2013/11/27
 13 14  0  0  0  0  0  0  0  0999 V2000
   -4.9869  -34.5714  -45.1505 N   0  0  0  0  0  0  0  0  0  0  0  0
   -5.9019  -35.0447  -44.2484 C   0  0  0  0  0  0  0  0  0  0  0  0
   -7.0500  -35.6251  -44.7143 N   0  0  0  0  0  0  0  0  0  0  0  0
   -5.6936  -34.9515  -42.9347 N   0  0  0  0  0  0  0  0  0  0  0  0
   -4.5624  -34.3792  -42.4372 C   0  0  0  0  0  0  0  0  0  0  0  0
   -3.5920  -33.8734  -43.3298 C   0  0  0  0  0  0  0  0  0  0  0  0
   -3.8323  -33.9860  -44.7260 C   0  0  0  0  0  0  0  0  0  0  0  0
   -3.0295  -33.5712  -45.5250 O   0  0  0  0  0  0  0  0  0  0  0  0
   -2.5165  -33.3274  -42.5082 C   0  0  0  0  0  0  0  0  0  0  0  0
   -2.8701  -33.5261  -41.2259 C   0  0  0  0  0  0  0  0  0  0  0  0
   -4.0958  -34.1563  -41.1772 N   0  0  0  0  0  0  0  0  0  0  0  0
   -1.2582  -32.6623  -43.0044 C   0  0  0  0  0  0  0  0  0  0  0  0
   -0.1153  -33.1313  -42.1948 N   0  0  0  0  0  0  0  0  0  0  0  0
  1  2  1  0  0  0  0
  1  7  1  0  0  0  0
  2  3  1  0  0  0  0
  2  4  2  0  0  0  0
  4  5  1  0  0  0  0
  5  6  2  0  0  0  0
  5 11  1  0  0  0  0
  6  7  1  0  0  0  0
  6  9  1  0  0  0  0
  7  8  2  0  0  0  0
  9 10  2  0  0  0  0
  9 12  1  0  0  0  0
 10 11  1  0  0  0  0
 12 13  1  0  0  0  0
M  END
>  <CHROM.1>
-138.18320045,-3.79377365,-34.05886865,-43.36357002,-2.75962819,0.40825234
1.59044010

>  <Name>
ligand

>  <RI>
0

>  <Rbt.Current_Directory>
/home/itssahil/PROJECTS/Mol_Feturizer/Test_systems_manuscript/rnas/3fu2

>  <Rbt.Executable>
rbdock ($Id: //depot/dev/client3/rdock/2013.1/src/exe/rbdock.cxx#4 $)

>  <Rbt.Library>
libRbt.so (2013.1, Build901 2013/11/27)

>  <Rbt.Parameter_File>
/export/apps/rDock/src/rDock_2013.1_src/data/scripts/dock_solv.prm

>  <Rbt.Receptor>
prm/pocket_docking_7.prm

>  <SCORE>
-16.1143

>  <SCORE.INTER>
-15.8157

>  <SCORE.INTER.CONST>
1

>  <SCORE.INTER.POLAR>
0

>  <SCORE.INTER.ROT>
1

>  <SCORE.INTER.SOLV>
20.3396

>  <SCORE.INTER.VDW>
-21.5903

>  <SCORE.INTER.norm>
-1.21659

>  <SCORE.INTRA>
-0.298616

>  <SCORE.INTRA.DIHEDRAL>
-0.000962414

>  <SCORE.INTRA.DIHEDRAL.0>
1.66609

>  <SCORE.INTRA.POLAR>
0

>  <SCORE.INTRA.POLAR.0>
0

>  <SCORE.INTRA.REPUL>
0

>  <SCORE.INTRA.REPUL.0>
0

>  <SCORE.INTRA.SOLV>
-0.99094

>  <SCORE.INTRA.SOLV.lig_0>
-45.868

>  <SCORE.INTRA.VDW>
0.197335

>  <SCORE.INTRA.VDW.0>
-0.397919

>  <SCORE.INTRA.norm>
-0.0229705

>  <SCORE.RESTR>
0

>  <SCORE.RESTR.CAVITY>
0

>  <SCORE.RESTR.norm>
0

>  <SCORE.SYSTEM>
0

>  <SCORE.SYSTEM.CONST>
0

>  <SCORE.SYSTEM.DIHEDRAL>
0

>  <SCORE.SYSTEM.SOLV>
0

>  <SCORE.SYSTEM.norm>
0

>  <SCORE.heavy>
13

>  <SCORE.norm>
-1.23956

>  <RMSD>
1.383

$$$$
ligand
 OpenBabel02271912143D
libRbt.so/2013.1/901 2013/11/27
 13 14  0  0  0  0  0  0  0  0999 V2000
   -4.9998  -34.5556  -45.1688 N   0  0  0  0  0  0  0  0  0  0  0  0
   -5.9011  -35.0585  -44.2691 C   0  0  0  0  0  0  0  0  0  0  0  0
   -7.0455  -35.6444  -44.7372 N   0  0  0  0  0  0  0  0  0  0  0  0
   -5.6832  -34.9886  -42.9555 N   0  0  0  0  0  0  0  0  0  0  0  0
   -4.5555  -34.4117  -42.4557 C   0  0  0  0  0  0  0  0  0  0  0  0
   -3.5990  -33.8758  -43.3457 C   0  0  0  0  0  0  0  0  0  0  0  0
   -3.8493  -33.9638  -44.7420 C   0  0  0  0  0  0  0  0  0  0  0  0
   -3.0585  -33.5229  -45.5389 O   0  0  0  0  0  0  0  0  0  0  0  0
   -2.5238  -33.3321  -42.5220 C   0  0  0  0  0  0  0  0  0  0  0  0
   -2.8643  -33.5607  -41.2412 C   0  0  0  0  0  0  0  0  0  0  0  0
   -4.0814  -34.2076  -41.1952 N   0  0  0  0  0  0  0  0  0  0  0  0
   -1.2783  -32.6411  -43.0149 C   0  0  0  0  0  0  0  0  0  0  0  0
   -0.1221  -33.1151  -42.2276 N   0  0  0  0  0  0  0  0  0  0  0  0
  1  2  1  0  0  0  0
  1  7  1  0  0  0  0
  2  3  1  0  0  0  0
  2  4  2  0  0  0  0
  4  5  1  0  0  0  0
  5  6  2  0  0  0  0
  5 11  1  0  0  0  0
  6  7  1  0  0  0  0
  6  9  1  0  0  0  0
  7  8  2  0  0  0  0
  9 10  2  0  0  0  0
  9 12  1  0  0  0  0
 10 11  1  0  0  0  0
 12 13  1  0  0  0  0
M  END
>  <CHROM.1>
-137.95736220,-3.79857373,-34.06341489,-43.38190273,-2.76917493,0.42059010
1.61395134

>  <Name>
ligand

>  <RI>
0

>  <Rbt.Current_Directory>
/home/itssahil/PROJECTS/Mol_Feturizer/Test_systems_manuscript/rnas/3fu2

>  <Rbt.Executable>
rbdock ($Id: //depot/dev/client3/rdock/2013.1/src/exe/rbdock.cxx#4 $)

>  <Rbt.Library>
libRbt.so (2013.1, Build901 2013/11/27)

>  <Rbt.Parameter_File>
/export/apps/rDock/src/rDock_2013.1_src/data/scripts/dock_solv.prm

>  <Rbt.Receptor>
prm/pocket_docking_7.prm

>  <SCORE>
-16.0833

>  <SCORE.INTER>
-15.7837

>  <SCORE.INTER.CONST>
1

>  <SCORE.INTER.POLAR>
0

>  <SCORE.INTER.ROT>
1

>  <SCORE.INTER.SOLV>
20.2879

>  <SCORE.INTER.VDW>
-21.5518

>  <SCORE.INTER.norm>
-1.21413

>  <SCORE.INTRA>
-0.299612

>  <SCORE.INTRA.DIHEDRAL>
-0.000833234

>  <SCORE.INTRA.DIHEDRAL.0>
1.66609

>  <SCORE.INTRA.POLAR>
0

>  <SCORE.INTRA.POLAR.0>
0

>  <SCORE.INTRA.REPUL>
0

>  <SCORE.INTRA.REPUL.0>
0

>  <SCORE.INTRA.SOLV>
-0.99103

>  <SCORE.INTRA.SOLV.lig_0>
-45.868

>  <SCORE.INTRA.VDW>
0.19632

>  <SCORE.INTRA.VDW.0>
-0.397919

>  <SCORE.INTRA.norm>
-0.0230471

>  <SCORE.RESTR>
0

>  <SCORE.RESTR.CAVITY>
0

>  <SCORE.RESTR.norm>
0

>  <SCORE.SYSTEM>
0

>  <SCORE.SYSTEM.CONST>
0

>  <SCORE.SYSTEM.DIHEDRAL>
0

>  <SCORE.SYSTEM.SOLV>
0

>  <SCORE.SYSTEM.norm>
0

>  <SCORE.heavy>
13

>  <SCORE.norm>
-1.23718

>  <RMSD>
1.383

$$$$
ligand
 OpenBabel02271912143D
libRbt.so/2013.1/901 2013/11/27
 13 14  0  0  0  0  0  0  0  0999 V2000
   -5.0040  -34.5507  -45.1452 N   0  0  0  0  0  0  0  0  0  0  0  0
   -5.9127  -35.0374  -44.2440 C   0  0  0  0  0  0  0  0  0  0  0  0
   -7.0605  -35.6177  -44.7106 N   0  0  0  0  0  0  0  0  0  0  0  0
   -5.6986  -34.9570  -42.9303 N   0  0  0  0  0  0  0  0  0  0  0  0
   -4.5676  -34.3852  -42.4321 C   0  0  0  0  0  0  0  0  0  0  0  0
   -3.6035  -33.8660  -43.3238 C   0  0  0  0  0  0  0  0  0  0  0  0
   -3.8498  -33.9649  -44.7200 C   0  0  0  0  0  0  0  0  0  0  0  0
   -3.0525  -33.5384  -45.5182 O   0  0  0  0  0  0  0  0  0  0  0  0
   -2.5264  -33.3240  -42.5015 C   0  0  0  0  0  0  0  0  0  0  0  0
   -2.8732  -33.5376  -41.2198 C   0  0  0  0  0  0  0  0  0  0  0  0
   -4.0960  -34.1735  -41.1719 N   0  0  0  0  0  0  0  0  0  0  0  0
   -1.2733  -32.6484  -42.9965 C   0  0  0  0  0  0  0  0  0  0  0  0
   -0.1232  -33.1288  -42.2040 N   0  0  0  0  0  0  0  0  0  0  0  0
  1  2  1  0  0  0  0
  1  7  1  0  0  0  0
  2  3  1  0  0  0  0
  2  4  2  0  0  0  0
  4  5  1  0  0  0  0
  5  6  2  0  0  0  0
  5 11  1  0  0  0  0
  6  7  1  0  0  0  0
  6  9  1  0  0  0  0
  7  8  2  0  0  0  0
  9 10  2  0  0  0  0
  9 12  1  0  0  0  0
 10 11  1  0  0  0  0
 12 13  1  0  0  0  0
M  END
>  <CHROM.1>
-137.75205820,-3.80449500,-34.05254166,-43.35913562,-2.76532707,0.41176865
1.60290336

>  <Name>
ligand

>  <RI>
0

>  <Rbt.Current_Directory>
/home/itssahil/PROJECTS/Mol_Feturizer/Test_systems_manuscript/rnas/3fu2

>  <Rbt.Executable>
rbdock ($Id: //depot/dev/client3/rdock/2013.1/src/exe/rbdock.cxx#4 $)

>  <Rbt.Library>
libRbt.so (2013.1, Build901 2013/11/27)

>  <Rbt.Parameter_File>
/export/apps/rDock/src/rDock_2013.1_src/data/scripts/dock_solv.prm

>  <Rbt.Receptor>
prm/blind_docking_60.prm

>  <SCORE>
-16.1134

>  <SCORE.INTER>
-15.8129

>  <SCORE.INTER.CONST>
1

>  <SCORE.INTER.POLAR>
0

>  <SCORE.INTER.ROT>
1

>  <SCORE.INTER.SOLV>
20.3229

>  <SCORE.INTER.VDW>
-21.5829

>  <SCORE.INTER.norm>
-1.21637

>  <SCORE.INTRA>
-0.300513

>  <SCORE.INTRA.DIHEDRAL>
-0.00071401

>  <SCORE.INTRA.DIHEDRAL.0>
1.66609

>  <SCORE.INTRA.POLAR>
0

>  <SCORE.INTRA.POLAR.0>
0

>  <SCORE.INTRA.REPUL>
0

>  <SCORE.INTRA.REPUL.0>
0

>  <SCORE.INTRA.SOLV>
-0.991112

>  <SCORE.INTRA.SOLV.lig_0>
-45.868

>  <SCORE.INTRA.VDW>
0.1954

>  <SCORE.INTRA.VDW.0>
-0.397919

>  <SCORE.INTRA.norm>
-0.0231164

>  <SCORE.RESTR>
0

>  <SCORE.RESTR.CAVITY>
0

>  <SCORE.RESTR.norm>
0

>  <SCORE.SYSTEM>
0

>  <SCORE.SYSTEM.CONST>
0

>  <SCORE.SYSTEM.DIHEDRAL>
0

>  <SCORE.SYSTEM.SOLV>
0

>  <SCORE.SYSTEM.norm>
0

>  <SCORE.heavy>
13

>  <SCORE.norm>
-1.23949

>  <RMSD>
1.384

$$$$
ligand
 OpenBabel02271912143D
libRbt.so/2013.1/901 2013/11/27
 13 14  0  0  0  0  0  0  0  0999 V2000
   -4.9864  -34.5673  -45.1502 N   0  0  0  0  0  0  0  0  0  0  0  0
   -5.9043  -35.0360  -44.2487 C   0  0  0  0  0  0  0  0  0  0  0  0
   -7.0538  -35.6131  -44.7153 N   0  0  0  0  0  0  0  0  0  0  0  0
   -5.6975  -34.9414  -42.9349 N   0  0  0  0  0  0  0  0  0  0  0  0
   -4.5651  -34.3723  -42.4366 C   0  0  0  0  0  0  0  0  0  0  0  0
   -3.5917  -33.8714  -43.3286 C   0  0  0  0  0  0  0  0  0  0  0  0
   -3.8304  -33.9853  -44.7250 C   0  0  0  0  0  0  0  0  0  0  0  0
   -3.0250  -33.5746  -45.5235 O   0  0  0  0  0  0  0  0  0  0  0  0
   -2.5154  -33.3278  -42.5063 C   0  0  0  0  0  0  0  0  0  0  0  0
   -2.8716  -33.5232  -41.2243 C   0  0  0  0  0  0  0  0  0  0  0  0
   -4.0995  -34.1490  -41.1763 N   0  0  0  0  0  0  0  0  0  0  0  0
   -1.2541  -32.6679  -43.0018 C   0  0  0  0  0  0  0  0  0  0  0  0
   -0.1146  -33.1364  -42.1872 N   0  0  0  0  0  0  0  0  0  0  0  0
  1  2  1  0  0  0  0
  1  7  1  0  0  0  0
  2  3  1  0  0  0  0
  2  4  2  0  0  0  0
  4  5  1  0  0  0  0
  5  6  2  0  0  0  0
  5 11  1  0  0  0  0
  6  7  1  0  0  0  0
  6  9  1  0  0  0  0
  7  8  2  0  0  0  0
  9 10  2  0  0  0  0
  9 12  1  0  0  0  0
 10 11  1  0  0  0  0
 12 13  1  0  0  0  0
M  END
>  <CHROM.1>
-138.35369304,-3.79409259,-34.05588475,-43.36219127,-2.75781618,0.40503293
1.58825363

>  <Name>
ligand

>  <RI>
0

>  <Rbt.Current_Directory>
/home/itssahil/PROJECTS/Mol_Feturizer/Test_systems_manuscript/rnas/3fu2

>  <Rbt.Executable>
rbdock ($Id: //depot/dev/client3/rdock/2013.1/src/exe/rbdock.cxx#4 $)

>  <Rbt.Library>
libRbt.so (2013.1, Build901 2013/11/27)

>  <Rbt.Parameter_File>
/export/apps/rDock/src/rDock_2013.1_src/data/scripts/dock_solv.prm

>  <Rbt.Receptor>
prm/blind_docking_80.prm

>  <SCORE>
-16.1091

>  <SCORE.INTER>
-15.8112

>  <SCORE.INTER.CONST>
1

>  <SCORE.INTER.POLAR>
0

>  <SCORE.INTER.ROT>
1

>  <SCORE.INTER.SOLV>
20.3466

>  <SCORE.INTER.VDW>
-21.5897

>  <SCORE.INTER.norm>
-1.21625

>  <SCORE.INTRA>
-0.297862

>  <SCORE.INTRA.DIHEDRAL>
-0.00105856

>  <SCORE.INTRA.DIHEDRAL.0>
1.66609

>  <SCORE.INTRA.POLAR>
0

>  <SCORE.INTRA.POLAR.0>
0

>  <SCORE.INTRA.REPUL>
0

>  <SCORE.INTRA.REPUL.0>
0

>  <SCORE.INTRA.SOLV>
-0.990871

>  <SCORE.INTRA.SOLV.lig_0>
-45.868

>  <SCORE.INTRA.VDW>
0.198103

>  <SCORE.INTRA.VDW.0>
-0.397919

>  <SCORE.INTRA.norm>
-0.0229125

>  <SCORE.RESTR>
0

>  <SCORE.RESTR.CAVITY>
0

>  <SCORE.RESTR.norm>
0

>  <SCORE.SYSTEM>
0

>  <SCORE.SYSTEM.CONST>
0

>  <SCORE.SYSTEM.DIHEDRAL>
0

>  <SCORE.SYSTEM.SOLV>
0

>  <SCORE.SYSTEM.norm>
0

>  <SCORE.heavy>
13

>  <SCORE.norm>
-1.23916

>  <RMSD>
1.384

$$$$
ligand
 OpenBabel02271912143D
libRbt.so/2013.1/901 2013/11/27
 13 14  0  0  0  0  0  0  0  0999 V2000
   -4.9797  -34.5793  -45.1531 N   0  0  0  0  0  0  0  0  0  0  0  0
   -5.8985  -35.0466  -44.2519 C   0  0  0  0  0  0  0  0  0  0  0  0
   -7.0452  -35.6289  -44.7188 N   0  0  0  0  0  0  0  0  0  0  0  0
   -5.6952  -34.9458  -42.9380 N   0  0  0  0  0  0  0  0  0  0  0  0
   -4.5655  -34.3714  -42.4394 C   0  0  0  0  0  0  0  0  0  0  0  0
   -3.5913  -33.8716  -43.3312 C   0  0  0  0  0  0  0  0  0  0  0  0
   -3.8262  -33.9923  -44.7277 C   0  0  0  0  0  0  0  0  0  0  0  0
   -3.0201  -33.5828  -45.5260 O   0  0  0  0  0  0  0  0  0  0  0  0
   -2.5185  -33.3215  -42.5087 C   0  0  0  0  0  0  0  0  0  0  0  0
   -2.8773  -33.5124  -41.2267 C   0  0  0  0  0  0  0  0  0  0  0  0
   -4.1036  -34.1413  -41.1790 N   0  0  0  0  0  0  0  0  0  0  0  0
   -1.2579  -32.6603  -43.0039 C   0  0  0  0  0  0  0  0  0  0  0  0
   -0.1175  -33.1305  -42.1915 N   0  0  0  0  0  0  0  0  0  0  0  0
  1  2  1  0  0  0  0
  1  7  1  0  0  0  0
  2  3  1  0  0  0  0
  2  4  2  0  0  0  0
  4  5  1  0  0  0  0
  5  6  2  0  0  0  0
  5 11  1  0  0  0  0
  6  7  1  0  0  0  0
  6  9  1  0  0  0  0
  7  8  2  0  0  0  0
  9 10  2  0  0  0  0
  9 12  1  0  0  0  0
 10 11  1  0  0  0  0
 12 13  1  0  0  0  0
M  END
>  <CHROM.1>
-137.90167957,-3.79299416,-34.05753839,-43.36506060,-2.75572238,0.40718703
1.58277988

>  <Name>
ligand

>  <RI>
0

>  <Rbt.Current_Directory>
/home/itssahil/PROJECTS/Mol_Feturizer/Test_systems_manuscript/rnas/3fu2

>  <Rbt.Executable>
rbdock ($Id: //depot/dev/client3/rdock/2013.1/src/exe/rbdock.cxx#4 $)

>  <Rbt.Library>
libRbt.so (2013.1, Build901 2013/11/27)

>  <Rbt.Parameter_File>
/export/apps/rDock/src/rDock_2013.1_src/data/scripts/dock_solv.prm

>  <Rbt.Receptor>
prm/pocket_docking_2.prm

>  <SCORE>
-16.1151

>  <SCORE.INTER>
-15.8152

>  <SCORE.INTER.CONST>
1

>  <SCORE.INTER.POLAR>
0

>  <SCORE.INTER.ROT>
1

>  <SCORE.INTER.SOLV>
20.351

>  <SCORE.INTER.VDW>
-21.5938

>  <SCORE.INTER.norm>
-1.21655

>  <SCORE.INTRA>
-0.299857

>  <SCORE.INTRA.DIHEDRAL>
-0.000801066

>  <SCORE.INTRA.DIHEDRAL.0>
1.66609

>  <SCORE.INTRA.POLAR>
0

>  <SCORE.INTRA.POLAR.0>
0

>  <SCORE.INTRA.REPUL>
0

>  <SCORE.INTRA.REPUL.0>
0

>  <SCORE.INTRA.SOLV>
-0.991053

>  <SCORE.INTRA.SOLV.lig_0>
-45.868

>  <SCORE.INTRA.VDW>
0.19607

>  <SCORE.INTRA.VDW.0>
-0.397919

>  <SCORE.INTRA.norm>
-0.0230659

>  <SCORE.RESTR>
0

>  <SCORE.RESTR.CAVITY>
0

>  <SCORE.RESTR.norm>
0

>  <SCORE.SYSTEM>
0

>  <SCORE.SYSTEM.CONST>
0

>  <SCORE.SYSTEM.DIHEDRAL>
0

>  <SCORE.SYSTEM.SOLV>
0

>  <SCORE.SYSTEM.norm>
0

>  <SCORE.heavy>
13

>  <SCORE.norm>
-1.23962

>  <RMSD>
1.384

$$$$
ligand
 OpenBabel02271912143D
libRbt.so/2013.1/901 2013/11/27
 13 14  0  0  0  0  0  0  0  0999 V2000
   -4.9962  -34.5826  -45.1505 N   0  0  0  0  0  0  0  0  0  0  0  0
   -5.9076  -35.0534  -44.2435 C   0  0  0  0  0  0  0  0  0  0  0  0
   -7.0579  -35.6345  -44.7033 N   0  0  0  0  0  0  0  0  0  0  0  0
   -5.6940  -34.9570  -42.9310 N   0  0  0  0  0  0  0  0  0  0  0  0
   -4.5606  -34.3839  -42.4394 C   0  0  0  0  0  0  0  0  0  0  0  0
   -3.5937  -33.8806  -43.3372 C   0  0  0  0  0  0  0  0  0  0  0  0
   -3.8396  -33.9966  -44.7321 C   0  0  0  0  0  0  0  0  0  0  0  0
   -3.0400  -33.5841  -45.5354 O   0  0  0  0  0  0  0  0  0  0  0  0
   -2.5146  -33.3329  -42.5213 C   0  0  0  0  0  0  0  0  0  0  0  0
   -2.8631  -33.5283  -41.2372 C   0  0  0  0  0  0  0  0  0  0  0  0
   -4.0888  -34.1579  -41.1819 N   0  0  0  0  0  0  0  0  0  0  0  0
   -1.2582  -32.6695  -43.0242 C   0  0  0  0  0  0  0  0  0  0  0  0
   -0.1152  -33.1209  -42.2048 N   0  0  0  0  0  0  0  0  0  0  0  0
  1  2  1  0  0  0  0
  1  7  1  0  0  0  0
  2  3  1  0  0  0  0
  2  4  2  0  0  0  0
  4  5  1  0  0  0  0
  5  6  2  0  0  0  0
  5 11  1  0  0  0  0
  6  7  1  0  0  0  0
  6  9  1  0  0  0  0
  7  8  2  0  0  0  0
  9 10  2  0  0  0  0
  9 12  1  0  0  0  0
 10 11  1  0  0  0  0
 12 13  1  0  0  0  0
M  END
>  <CHROM.1>
-139.04596206,-3.79587837,-34.06478636,-43.36860356,-2.76304959,0.40905001
1.58992219

>  <Name>
ligand

>  <RI>
0

>  <Rbt.Current_Directory>
/home/itssahil/PROJECTS/Mol_Feturizer/Test_systems_manuscript/rnas/3fu2

>  <Rbt.Executable>
rbdock ($Id: //depot/dev/client3/rdock/2013.1/src/exe/rbdock.cxx#4 $)

>  <Rbt.Library>
libRbt.so (2013.1, Build901 2013/11/27)

>  <Rbt.Parameter_File>
/export/apps/rDock/src/rDock_2013.1_src/data/scripts/dock_solv.prm

>  <Rbt.Receptor>
prm/pocket_docking_5.prm

>  <SCORE>
-16.1045

>  <SCORE.INTER>
-15.8097

>  <SCORE.INTER.CONST>
1

>  <SCORE.INTER.POLAR>
0

>  <SCORE.INTER.ROT>
1

>  <SCORE.INTER.SOLV>
20.3514

>  <SCORE.INTER.VDW>
-21.5903

>  <SCORE.INTER.norm>
-1.21613

>  <SCORE.INTRA>
-0.294778

>  <SCORE.INTRA.DIHEDRAL>
-0.00143662

>  <SCORE.INTRA.DIHEDRAL.0>
1.66609

>  <SCORE.INTRA.POLAR>
0

>  <SCORE.INTRA.POLAR.0>
0

>  <SCORE.INTRA.REPUL>
0

>  <SCORE.INTRA.REPUL.0>
0

>  <SCORE.INTRA.SOLV>
-0.990593

>  <SCORE.INTRA.SOLV.lig_0>
-45.868

>  <SCORE.INTRA.VDW>
0.201237

>  <SCORE.INTRA.VDW.0>
-0.397919

>  <SCORE.INTRA.norm>
-0.0226752

>  <SCORE.RESTR>
0

>  <SCORE.RESTR.CAVITY>
0

>  <SCORE.RESTR.norm>
0

>  <SCORE.SYSTEM>
0

>  <SCORE.SYSTEM.CONST>
0

>  <SCORE.SYSTEM.DIHEDRAL>
0

>  <SCORE.SYSTEM.SOLV>
0

>  <SCORE.SYSTEM.norm>
0

>  <SCORE.heavy>
13

>  <SCORE.norm>
-1.2388

>  <RMSD>
1.384

$$$$
ligand
 OpenBabel02271912143D
libRbt.so/2013.1/901 2013/11/27
 13 14  0  0  0  0  0  0  0  0999 V2000
   -4.9956  -34.5834  -45.1519 N   0  0  0  0  0  0  0  0  0  0  0  0
   -5.9079  -35.0519  -44.2447 C   0  0  0  0  0  0  0  0  0  0  0  0
   -7.0575  -35.6347  -44.7041 N   0  0  0  0  0  0  0  0  0  0  0  0
   -5.6957  -34.9518  -42.9321 N   0  0  0  0  0  0  0  0  0  0  0  0
   -4.5630  -34.3770  -42.4410 C   0  0  0  0  0  0  0  0  0  0  0  0
   -3.5953  -33.8760  -43.3391 C   0  0  0  0  0  0  0  0  0  0  0  0
   -3.8397  -33.9959  -44.7340 C   0  0  0  0  0  0  0  0  0  0  0  0
   -3.0392  -33.5854  -45.5375 O   0  0  0  0  0  0  0  0  0  0  0  0
   -2.5173  -33.3257  -42.5235 C   0  0  0  0  0  0  0  0  0  0  0  0
   -2.8671  -33.5176  -41.2393 C   0  0  0  0  0  0  0  0  0  0  0  0
   -4.0926  -34.1474  -41.1835 N   0  0  0  0  0  0  0  0  0  0  0  0
   -1.2605  -32.6633  -43.0270 C   0  0  0  0  0  0  0  0  0  0  0  0
   -0.1166  -33.1204  -42.2120 N   0  0  0  0  0  0  0  0  0  0  0  0
  1  2  1  0  0  0  0
  1  7  1  0  0  0  0
  2  3  1  0  0  0  0
  2  4  2  0  0  0  0
  4  5  1  0  0  0  0
  5  6  2  0  0  0  0
  5 11  1  0  0  0  0
  6  7  1  0  0  0  0
  6  9  1  0  0  0  0
  7  8  2  0  0  0  0
  9 10  2  0  0  0  0
  9 12  1  0  0  0  0
 10 11  1  0  0  0  0
 12 13  1  0  0  0  0
M  END
>  <CHROM.1>
-138.59477313,-3.79725165,-34.06094200,-43.37077436,-2.76239011,0.40872324
1.58656163

>  <Name>
ligand

>  <RI>
0

>  <Rbt.Current_Directory>
/home/itssahil/PROJECTS/Mol_Feturizer/Test_systems_manuscript/rnas/3fu2

>  <Rbt.Executable>
rbdock ($Id: //depot/dev/client3/rdock/2013.1/src/exe/rbdock.cxx#4 $)

>  <Rbt.Library>
libRbt.so (2013.1, Build901 2013/11/27)

>  <Rbt.Parameter_File>
/export/apps/rDock/src/rDock_2013.1_src/data/scripts/dock_solv.prm

>  <Rbt.Receptor>
prm/pocket_docking_5.prm

>  <SCORE>
-16.1013

>  <SCORE.INTER>
-15.8046

>  <SCORE.INTER.CONST>
1

>  <SCORE.INTER.POLAR>
0

>  <SCORE.INTER.ROT>
1

>  <SCORE.INTER.SOLV>
20.3621

>  <SCORE.INTER.VDW>
-21.5904

>  <SCORE.INTER.norm>
-1.21573

>  <SCORE.INTRA>
-0.296792

>  <SCORE.INTRA.DIHEDRAL>
-0.00119247

>  <SCORE.INTRA.DIHEDRAL.0>
1.66609

>  <SCORE.INTRA.POLAR>
0

>  <SCORE.INTRA.POLAR.0>
0

>  <SCORE.INTRA.REPUL>
0

>  <SCORE.INTRA.REPUL.0>
0

>  <SCORE.INTRA.SOLV>
-0.990774

>  <SCORE.INTRA.SOLV.lig_0>
-45.868

>  <SCORE.INTRA.VDW>
0.199191

>  <SCORE.INTRA.VDW.0>
-0.397919

>  <SCORE.INTRA.norm>
-0.0228302

>  <SCORE.RESTR>
0

>  <SCORE.RESTR.CAVITY>
0

>  <SCORE.RESTR.norm>
0

>  <SCORE.SYSTEM>
0

>  <SCORE.SYSTEM.CONST>
0

>  <SCORE.SYSTEM.DIHEDRAL>
0

>  <SCORE.SYSTEM.SOLV>
0

>  <SCORE.SYSTEM.norm>
0

>  <SCORE.heavy>
13

>  <SCORE.norm>
-1.23856

>  <RMSD>
1.384

$$$$
ligand
 OpenBabel02271912143D
libRbt.so/2013.1/901 2013/11/27
 13 14  0  0  0  0  0  0  0  0999 V2000
   -5.0005  -34.5541  -45.1593 N   0  0  0  0  0  0  0  0  0  0  0  0
   -5.9056  -35.0505  -44.2599 C   0  0  0  0  0  0  0  0  0  0  0  0
   -7.0506  -35.6350  -44.7285 N   0  0  0  0  0  0  0  0  0  0  0  0
   -5.6909  -34.9757  -42.9460 N   0  0  0  0  0  0  0  0  0  0  0  0
   -4.5628  -34.4000  -42.4457 C   0  0  0  0  0  0  0  0  0  0  0  0
   -3.6024  -33.8706  -43.3355 C   0  0  0  0  0  0  0  0  0  0  0  0
   -3.8494  -33.9638  -44.7321 C   0  0  0  0  0  0  0  0  0  0  0  0
   -3.0552  -33.5286  -45.5288 O   0  0  0  0  0  0  0  0  0  0  0  0
   -2.5278  -33.3267  -42.5114 C   0  0  0  0  0  0  0  0  0  0  0  0
   -2.8723  -33.5489  -41.2305 C   0  0  0  0  0  0  0  0  0  0  0  0
   -4.0913  -34.1920  -41.1849 N   0  0  0  0  0  0  0  0  0  0  0  0
   -1.2790  -32.6414  -43.0039 C   0  0  0  0  0  0  0  0  0  0  0  0
   -0.1243  -33.1250  -42.2201 N   0  0  0  0  0  0  0  0  0  0  0  0
  1  2  1  0  0  0  0
  1  7  1  0  0  0  0
  2  3  1  0  0  0  0
  2  4  2  0  0  0  0
  4  5  1  0  0  0  0
  5  6  2  0  0  0  0
  5 11  1  0  0  0  0
  6  7  1  0  0  0  0
  6  9  1  0  0  0  0
  7  8  2  0  0  0  0
  9 10  2  0  0  0  0
  9 12  1  0  0  0  0
 10 11  1  0  0  0  0
 12 13  1  0  0  0  0
M  END
>  <CHROM.1>
-137.43158615,-3.80231047,-34.05862321,-43.37213771,-2.76682093,0.41701555
1.60838367

>  <Name>
ligand

>  <RI>
0

>  <Rbt.Current_Directory>
/home/itssahil/PROJECTS/Mol_Feturizer/Test_systems_manuscript/rnas/3fu2

>  <Rbt.Executable>
rbdock ($Id: //depot/dev/client3/rdock/2013.1/src/exe/rbdock.cxx#4 $)

>  <Rbt.Library>
libRbt.so (2013.1, Build901 2013/11/27)

>  <Rbt.Parameter_File>
/export/apps/rDock/src/rDock_2013.1_src/data/scripts/dock_solv.prm

>  <Rbt.Receptor>
prm/pocket_docking_8.prm

>  <SCORE>
-16.0887

>  <SCORE.INTER>
-15.7867

>  <SCORE.INTER.CONST>
1

>  <SCORE.INTER.POLAR>
0

>  <SCORE.INTER.ROT>
1

>  <SCORE.INTER.SOLV>
20.3053

>  <SCORE.INTER.VDW>
-21.5596

>  <SCORE.INTER.norm>
-1.21437

>  <SCORE.INTRA>
-0.301913

>  <SCORE.INTRA.DIHEDRAL>
-0.000524534

>  <SCORE.INTRA.DIHEDRAL.0>
1.66609

>  <SCORE.INTRA.POLAR>
0

>  <SCORE.INTRA.POLAR.0>
0

>  <SCORE.INTRA.REPUL>
0

>  <SCORE.INTRA.REPUL.0>
0

>  <SCORE.INTRA.SOLV>
-0.99124

>  <SCORE.INTRA.SOLV.lig_0>
-45.868

>  <SCORE.INTRA.VDW>
0.193969

>  <SCORE.INTRA.VDW.0>
-0.397919

>  <SCORE.INTRA.norm>
-0.0232241

>  <SCORE.RESTR>
0

>  <SCORE.RESTR.CAVITY>
0

>  <SCORE.RESTR.norm>
0

>  <SCORE.SYSTEM>
0

>  <SCORE.SYSTEM.CONST>
0

>  <SCORE.SYSTEM.DIHEDRAL>
0

>  <SCORE.SYSTEM.SOLV>
0

>  <SCORE.SYSTEM.norm>
0

>  <SCORE.heavy>
13

>  <SCORE.norm>
-1.23759

>  <RMSD>
1.384

$$$$
ligand
 OpenBabel02271912143D
libRbt.so/2013.1/901 2013/11/27
 13 14  0  0  0  0  0  0  0  0999 V2000
   -4.9879  -34.5756  -45.1636 N   0  0  0  0  0  0  0  0  0  0  0  0
   -5.8996  -35.0555  -44.2619 C   0  0  0  0  0  0  0  0  0  0  0  0
   -7.0466  -35.6381  -44.7280 N   0  0  0  0  0  0  0  0  0  0  0  0
   -5.6894  -34.9667  -42.9482 N   0  0  0  0  0  0  0  0  0  0  0  0
   -4.5593  -34.3925  -42.4504 C   0  0  0  0  0  0  0  0  0  0  0  0
   -3.5922  -33.8799  -43.3426 C   0  0  0  0  0  0  0  0  0  0  0  0
   -3.8345  -33.9879  -44.7389 C   0  0  0  0  0  0  0  0  0  0  0  0
   -3.0345  -33.5672  -45.5376 O   0  0  0  0  0  0  0  0  0  0  0  0
   -2.5171  -33.3333  -42.5208 C   0  0  0  0  0  0  0  0  0  0  0  0
   -2.8679  -33.5381  -41.2387 C   0  0  0  0  0  0  0  0  0  0  0  0
   -4.0913  -34.1727  -41.1903 N   0  0  0  0  0  0  0  0  0  0  0  0
   -1.2621  -32.6620  -43.0166 C   0  0  0  0  0  0  0  0  0  0  0  0
   -0.1174  -33.1235  -42.2051 N   0  0  0  0  0  0  0  0  0  0  0  0
  1  2  1  0  0  0  0
  1  7  1  0  0  0  0
  2  3  1  0  0  0  0
  2  4  2  0  0  0  0
  4  5  1  0  0  0  0
  5  6  2  0  0  0  0
  5 11  1  0  0  0  0
  6  7  1  0  0  0  0
  6  9  1  0  0  0  0
  7  8  2  0  0  0  0
  9 10  2  0  0  0  0
  9 12  1  0  0  0  0
 10 11  1  0  0  0  0
 12 13  1  0  0  0  0
M  END
>  <CHROM.1>
-138.54238959,-3.79350226,-34.06532215,-43.37635316,-2.76117952,0.41216635
1.59518436

>  <Name>
ligand

>  <RI>
0

>  <Rbt.Current_Directory>
/home/itssahil/PROJECTS/Mol_Feturizer/Test_systems_manuscript/rnas/3fu2

>  <Rbt.Executable>
rbdock ($Id: //depot/dev/client3/rdock/2013.1/src/exe/rbdock.cxx#4 $)

>  <Rbt.Library>
libRbt.so (2013.1, Build901 2013/11/27)

>  <Rbt.Parameter_File>
/export/apps/rDock/src/rDock_2013.1_src/data/scripts/dock_solv.prm

>  <Rbt.Receptor>
prm/blind_docking_100.prm

>  <SCORE>
-16.0893

>  <SCORE.INTER>
-15.7923

>  <SCORE.INTER.CONST>
1

>  <SCORE.INTER.POLAR>
0

>  <SCORE.INTER.ROT>
1

>  <SCORE.INTER.SOLV>
20.3226

>  <SCORE.INTER.VDW>
-21.569

>  <SCORE.INTER.norm>
-1.21479

>  <SCORE.INTRA>
-0.297025

>  <SCORE.INTRA.DIHEDRAL>
-0.00116358

>  <SCORE.INTRA.DIHEDRAL.0>
1.66609

>  <SCORE.INTRA.POLAR>
0

>  <SCORE.INTRA.POLAR.0>
0

>  <SCORE.INTRA.REPUL>
0

>  <SCORE.INTRA.REPUL.0>
0

>  <SCORE.INTRA.SOLV>
-0.990796

>  <SCORE.INTRA.SOLV.lig_0>
-45.868

>  <SCORE.INTRA.VDW>
0.198954

>  <SCORE.INTRA.VDW.0>
-0.397919

>  <SCORE.INTRA.norm>
-0.0228481

>  <SCORE.RESTR>
0

>  <SCORE.RESTR.CAVITY>
0

>  <SCORE.RESTR.norm>
0

>  <SCORE.SYSTEM>
0

>  <SCORE.SYSTEM.CONST>
0

>  <SCORE.SYSTEM.DIHEDRAL>
0

>  <SCORE.SYSTEM.SOLV>
0

>  <SCORE.SYSTEM.norm>
0

>  <SCORE.heavy>
13

>  <SCORE.norm>
-1.23764

>  <RMSD>
1.385

$$$$
ligand
 OpenBabel02271912143D
libRbt.so/2013.1/901 2013/11/27
 13 14  0  0  0  0  0  0  0  0999 V2000
   -4.9899  -34.5700  -45.1546 N   0  0  0  0  0  0  0  0  0  0  0  0
   -5.9061  -35.0396  -44.2519 C   0  0  0  0  0  0  0  0  0  0  0  0
   -7.0563  -35.6166  -44.7170 N   0  0  0  0  0  0  0  0  0  0  0  0
   -5.6971  -34.9460  -42.9384 N   0  0  0  0  0  0  0  0  0  0  0  0
   -4.5640  -34.3771  -42.4416 C   0  0  0  0  0  0  0  0  0  0  0  0
   -3.5922  -33.8752  -43.3349 C   0  0  0  0  0  0  0  0  0  0  0  0
   -3.8332  -33.9881  -44.7310 C   0  0  0  0  0  0  0  0  0  0  0  0
   -3.0293  -33.5765  -45.5305 O   0  0  0  0  0  0  0  0  0  0  0  0
   -2.5146  -33.3320  -42.5140 C   0  0  0  0  0  0  0  0  0  0  0  0
   -2.8685  -33.5285  -41.2315 C   0  0  0  0  0  0  0  0  0  0  0  0
   -4.0962  -34.1546  -41.1819 N   0  0  0  0  0  0  0  0  0  0  0  0
   -1.2544  -32.6714  -43.0111 C   0  0  0  0  0  0  0  0  0  0  0  0
   -0.1157  -33.1285  -42.1889 N   0  0  0  0  0  0  0  0  0  0  0  0
  1  2  1  0  0  0  0
  1  7  1  0  0  0  0
  2  3  1  0  0  0  0
  2  4  2  0  0  0  0
  4  5  1  0  0  0  0
  5  6  2  0  0  0  0
  5 11  1  0  0  0  0
  6  7  1  0  0  0  0
  6  9  1  0  0  0  0
  7  8  2  0  0  0  0
  9 10  2  0  0  0  0
  9 12  1  0  0  0  0
 10 11  1  0  0  0  0
 12 13  1  0  0  0  0
M  END
>  <CHROM.1>
-138.99326883,-3.79480246,-34.05874379,-43.36745036,-2.75894494,0.40612399
1.58993198

>  <Name>
ligand

>  <RI>
0

>  <Rbt.Current_Directory>
/home/itssahil/PROJECTS/Mol_Feturizer/Test_systems_manuscript/rnas/3fu2

>  <Rbt.Executable>
rbdock ($Id: //depot/dev/client3/rdock/2013.1/src/exe/rbdock.cxx#4 $)

>  <Rbt.Library>
libRbt.so (2013.1, Build901 2013/11/27)

>  <Rbt.Parameter_File>
/export/apps/rDock/src/rDock_2013.1_src/data/scripts/dock_solv.prm

>  <Rbt.Receptor>
prm/pocket_docking_6.prm

>  <SCORE>
-16.1137

>  <SCORE.INTER>
-15.8187

>  <SCORE.INTER.CONST>
1

>  <SCORE.INTER.POLAR>
0

>  <SCORE.INTER.ROT>
1

>  <SCORE.INTER.SOLV>
20.339

>  <SCORE.INTER.VDW>
-21.5921

>  <SCORE.INTER.norm>
-1.21682

>  <SCORE.INTRA>
-0.295014

>  <SCORE.INTRA.DIHEDRAL>
-0.00140854

>  <SCORE.INTRA.DIHEDRAL.0>
1.66609

>  <SCORE.INTRA.POLAR>
0

>  <SCORE.INTRA.POLAR.0>
0

>  <SCORE.INTRA.REPUL>
0

>  <SCORE.INTRA.REPUL.0>
0

>  <SCORE.INTRA.SOLV>
-0.990614

>  <SCORE.INTRA.SOLV.lig_0>
-45.868

>  <SCORE.INTRA.VDW>
0.200997

>  <SCORE.INTRA.VDW.0>
-0.397919

>  <SCORE.INTRA.norm>
-0.0226934

>  <SCORE.RESTR>
0

>  <SCORE.RESTR.CAVITY>
0

>  <SCORE.RESTR.norm>
0

>  <SCORE.SYSTEM>
0

>  <SCORE.SYSTEM.CONST>
0

>  <SCORE.SYSTEM.DIHEDRAL>
0

>  <SCORE.SYSTEM.SOLV>
0

>  <SCORE.SYSTEM.norm>
0

>  <SCORE.heavy>
13

>  <SCORE.norm>
-1.23952

>  <RMSD>
1.385

$$$$
ligand
 OpenBabel02271912143D
libRbt.so/2013.1/901 2013/11/27
 13 14  0  0  0  0  0  0  0  0999 V2000
   -5.0075  -34.5679  -45.1504 N   0  0  0  0  0  0  0  0  0  0  0  0
   -5.9200  -35.0331  -44.2418 C   0  0  0  0  0  0  0  0  0  0  0  0
   -7.0753  -35.6060  -44.6994 N   0  0  0  0  0  0  0  0  0  0  0  0
   -5.7028  -34.9392  -42.9296 N   0  0  0  0  0  0  0  0  0  0  0  0
   -4.5644  -34.3742  -42.4402 C   0  0  0  0  0  0  0  0  0  0  0  0
   -3.5961  -33.8769  -43.3398 C   0  0  0  0  0  0  0  0  0  0  0  0
   -3.8460  -33.9901  -44.7343 C   0  0  0  0  0  0  0  0  0  0  0  0
   -3.0453  -33.5825  -45.5390 O   0  0  0  0  0  0  0  0  0  0  0  0
   -2.5114  -33.3373  -42.5259 C   0  0  0  0  0  0  0  0  0  0  0  0
   -2.8584  -33.5313  -41.2412 C   0  0  0  0  0  0  0  0  0  0  0  0
   -4.0882  -34.1525  -41.1836 N   0  0  0  0  0  0  0  0  0  0  0  0
   -1.2516  -32.6821  -43.0312 C   0  0  0  0  0  0  0  0  0  0  0  0
   -0.1135  -33.1234  -42.1996 N   0  0  0  0  0  0  0  0  0  0  0  0
  1  2  1  0  0  0  0
  1  7  1  0  0  0  0
  2  3  1  0  0  0  0
  2  4  2  0  0  0  0
  4  5  1  0  0  0  0
  5  6  2  0  0  0  0
  5 11  1  0  0  0  0
  6  7  1  0  0  0  0
  6  9  1  0  0  0  0
  7  8  2  0  0  0  0
  9 10  2  0  0  0  0
  9 12  1  0  0  0  0
 10 11  1  0  0  0  0
 12 13  1  0  0  0  0
M  END
>  <CHROM.1>
-140.03815860,-3.79989268,-34.05816545,-43.36966550,-2.76423919,0.40355483
1.59182311

>  <Name>
ligand

>  <RI>
0

>  <Rbt.Current_Directory>
/home/itssahil/PROJECTS/Mol_Feturizer/Test_systems_manuscript/rnas/3fu2

>  <Rbt.Executable>
rbdock ($Id: //depot/dev/client3/rdock/2013.1/src/exe/rbdock.cxx#4 $)

>  <Rbt.Library>
libRbt.so (2013.1, Build901 2013/11/27)

>  <Rbt.Parameter_File>
/export/apps/rDock/src/rDock_2013.1_src/data/scripts/dock_solv.prm

>  <Rbt.Receptor>
prm/pocket_docking_6.prm

>  <SCORE>
-16.117

>  <SCORE.INTER>
-15.8267

>  <SCORE.INTER.CONST>
1

>  <SCORE.INTER.POLAR>
0

>  <SCORE.INTER.ROT>
1

>  <SCORE.INTER.SOLV>
20.3714

>  <SCORE.INTER.VDW>
-21.6083

>  <SCORE.INTER.norm>
-1.21744

>  <SCORE.INTRA>
-0.290295

>  <SCORE.INTRA.DIHEDRAL>
-0.00194319

>  <SCORE.INTRA.DIHEDRAL.0>
1.66609

>  <SCORE.INTRA.POLAR>
0

>  <SCORE.INTRA.POLAR.0>
0

>  <SCORE.INTRA.REPUL>
0

>  <SCORE.INTRA.REPUL.0>
0

>  <SCORE.INTRA.SOLV>
-0.990192

>  <SCORE.INTRA.SOLV.lig_0>
-45.868

>  <SCORE.INTRA.VDW>
0.205773

>  <SCORE.INTRA.VDW.0>
-0.397919

>  <SCORE.INTRA.norm>
-0.0223304

>  <SCORE.RESTR>
0

>  <SCORE.RESTR.CAVITY>
0

>  <SCORE.RESTR.norm>
0

>  <SCORE.SYSTEM>
0

>  <SCORE.SYSTEM.CONST>
0

>  <SCORE.SYSTEM.DIHEDRAL>
0

>  <SCORE.SYSTEM.SOLV>
0

>  <SCORE.SYSTEM.norm>
0

>  <SCORE.heavy>
13

>  <SCORE.norm>
-1.23977

>  <RMSD>
1.385

$$$$
ligand
 OpenBabel02271912143D
libRbt.so/2013.1/901 2013/11/27
 13 14  0  0  0  0  0  0  0  0999 V2000
   -5.0052  -34.5705  -45.1504 N   0  0  0  0  0  0  0  0  0  0  0  0
   -5.9196  -35.0349  -44.2432 C   0  0  0  0  0  0  0  0  0  0  0  0
   -7.0711  -35.6139  -44.7027 N   0  0  0  0  0  0  0  0  0  0  0  0
   -5.7077  -34.9344  -42.9307 N   0  0  0  0  0  0  0  0  0  0  0  0
   -4.5733  -34.3633  -42.4394 C   0  0  0  0  0  0  0  0  0  0  0  0
   -3.6032  -33.8666  -43.3375 C   0  0  0  0  0  0  0  0  0  0  0  0
   -3.8474  -33.9868  -44.7324 C   0  0  0  0  0  0  0  0  0  0  0  0
   -3.0451  -33.5799  -45.5359 O   0  0  0  0  0  0  0  0  0  0  0  0
   -2.5236  -33.3194  -42.5219 C   0  0  0  0  0  0  0  0  0  0  0  0
   -2.8748  -33.5089  -41.2376 C   0  0  0  0  0  0  0  0  0  0  0  0
   -4.1027  -34.1343  -41.1820 N   0  0  0  0  0  0  0  0  0  0  0  0
   -1.2642  -32.6620  -43.0253 C   0  0  0  0  0  0  0  0  0  0  0  0
   -0.1227  -33.1214  -42.2083 N   0  0  0  0  0  0  0  0  0  0  0  0
  1  2  1  0  0  0  0
  1  7  1  0  0  0  0
  2  3  1  0  0  0  0
  2  4  2  0  0  0  0
  4  5  1  0  0  0  0
  5  6  2  0  0  0  0
  5 11  1  0  0  0  0
  6  7  1  0  0  0  0
  6  9  1  0  0  0  0
  7  8  2  0  0  0  0
  9 10  2  0  0  0  0
  9 12  1  0  0  0  0
 10 11  1  0  0  0  0
 12 13  1  0  0  0  0
M  END
>  <CHROM.1>
-138.65920420,-3.80588569,-34.05072279,-43.36906832,-2.76171108,0.40520347
1.58545970

>  <Name>
ligand

>  <RI>
0

>  <Rbt.Current_Directory>
/home/itssahil/PROJECTS/Mol_Feturizer/Test_systems_manuscript/rnas/3fu2

>  <Rbt.Executable>
rbdock ($Id: //depot/dev/client3/rdock/2013.1/src/exe/rbdock.cxx#4 $)

>  <Rbt.Library>
libRbt.so (2013.1, Build901 2013/11/27)

>  <Rbt.Parameter_File>
/export/apps/rDock/src/rDock_2013.1_src/data/scripts/dock_solv.prm

>  <Rbt.Receptor>
prm/blind_docking_80.prm

>  <SCORE>
-16.1098

>  <SCORE.INTER>
-15.8133

>  <SCORE.INTER.CONST>
1

>  <SCORE.INTER.POLAR>
0

>  <SCORE.INTER.ROT>
1

>  <SCORE.INTER.SOLV>
20.3826

>  <SCORE.INTER.VDW>
-21.6031

>  <SCORE.INTER.norm>
-1.21641

>  <SCORE.INTRA>
-0.296506

>  <SCORE.INTRA.DIHEDRAL>
-0.00122786

>  <SCORE.INTRA.DIHEDRAL.0>
1.66609

>  <SCORE.INTRA.POLAR>
0

>  <SCORE.INTRA.POLAR.0>
0

>  <SCORE.INTRA.REPUL>
0

>  <SCORE.INTRA.REPUL.0>
0

>  <SCORE.INTRA.SOLV>
-0.990749

>  <SCORE.INTRA.SOLV.lig_0>
-45.868

>  <SCORE.INTRA.VDW>
0.199482

>  <SCORE.INTRA.VDW.0>
-0.397919

>  <SCORE.INTRA.norm>
-0.0228081

>  <SCORE.RESTR>
0

>  <SCORE.RESTR.CAVITY>
0

>  <SCORE.RESTR.norm>
0

>  <SCORE.SYSTEM>
0

>  <SCORE.SYSTEM.CONST>
0

>  <SCORE.SYSTEM.DIHEDRAL>
0

>  <SCORE.SYSTEM.SOLV>
0

>  <SCORE.SYSTEM.norm>
0

>  <SCORE.heavy>
13

>  <SCORE.norm>
-1.23922

>  <RMSD>
1.386

$$$$
ligand
 OpenBabel02271912143D
libRbt.so/2013.1/901 2013/11/27
 13 14  0  0  0  0  0  0  0  0999 V2000
   -4.9999  -34.5646  -45.1372 N   0  0  0  0  0  0  0  0  0  0  0  0
   -5.9082  -35.0524  -44.2362 C   0  0  0  0  0  0  0  0  0  0  0  0
   -7.0535  -35.6376  -44.7032 N   0  0  0  0  0  0  0  0  0  0  0  0
   -5.6964  -34.9686  -42.9224 N   0  0  0  0  0  0  0  0  0  0  0  0
   -4.5679  -34.3920  -42.4238 C   0  0  0  0  0  0  0  0  0  0  0  0
   -3.6043  -33.8714  -43.3152 C   0  0  0  0  0  0  0  0  0  0  0  0
   -3.8483  -33.9741  -44.7115 C   0  0  0  0  0  0  0  0  0  0  0  0
   -3.0513  -33.5465  -45.5095 O   0  0  0  0  0  0  0  0  0  0  0  0
   -2.5303  -33.3241  -42.4925 C   0  0  0  0  0  0  0  0  0  0  0  0
   -2.8782  -33.5361  -41.2108 C   0  0  0  0  0  0  0  0  0  0  0  0
   -4.0989  -34.1760  -41.1634 N   0  0  0  0  0  0  0  0  0  0  0  0
   -1.2787  -32.6453  -42.9871 C   0  0  0  0  0  0  0  0  0  0  0  0
   -0.1259  -33.1316  -42.2022 N   0  0  0  0  0  0  0  0  0  0  0  0
  1  2  1  0  0  0  0
  1  7  1  0  0  0  0
  2  3  1  0  0  0  0
  2  4  2  0  0  0  0
  4  5  1  0  0  0  0
  5  6  2  0  0  0  0
  5 11  1  0  0  0  0
  6  7  1  0  0  0  0
  6  9  1  0  0  0  0
  7  8  2  0  0  0  0
  9 10  2  0  0  0  0
  9 12  1  0  0  0  0
 10 11  1  0  0  0  0
 12 13  1  0  0  0  0
M  END
>  <CHROM.1>
-137.11847071,-3.80448743,-34.05960266,-43.35126261,-2.76460726,0.41428508
1.60002743

>  <Name>
ligand

>  <RI>
0

>  <Rbt.Current_Directory>
/home/itssahil/PROJECTS/Mol_Feturizer/Test_systems_manuscript/rnas/3fu2

>  <Rbt.Executable>
rbdock ($Id: //depot/dev/client3/rdock/2013.1/src/exe/rbdock.cxx#4 $)

>  <Rbt.Library>
libRbt.so (2013.1, Build901 2013/11/27)

>  <Rbt.Parameter_File>
/export/apps/rDock/src/rDock_2013.1_src/data/scripts/dock_solv.prm

>  <Rbt.Receptor>
prm/pocket_docking_6.prm

>  <SCORE>
-16.1072

>  <SCORE.INTER>
-15.8039

>  <SCORE.INTER.CONST>
1

>  <SCORE.INTER.POLAR>
0

>  <SCORE.INTER.ROT>
1

>  <SCORE.INTER.SOLV>
20.3298

>  <SCORE.INTER.VDW>
-21.5792

>  <SCORE.INTER.norm>
-1.21568

>  <SCORE.INTRA>
-0.303274

>  <SCORE.INTRA.DIHEDRAL>
-0.000335481

>  <SCORE.INTRA.DIHEDRAL.0>
1.66609

>  <SCORE.INTRA.POLAR>
0

>  <SCORE.INTRA.POLAR.0>
0

>  <SCORE.INTRA.REPUL>
0

>  <SCORE.INTRA.REPUL.0>
0

>  <SCORE.INTRA.SOLV>
-0.991365

>  <SCORE.INTRA.SOLV.lig_0>
-45.868

>  <SCORE.INTRA.VDW>
0.192577

>  <SCORE.INTRA.VDW.0>
-0.397919

>  <SCORE.INTRA.norm>
-0.0233287

>  <SCORE.RESTR>
0

>  <SCORE.RESTR.CAVITY>
0

>  <SCORE.RESTR.norm>
0

>  <SCORE.SYSTEM>
0

>  <SCORE.SYSTEM.CONST>
0

>  <SCORE.SYSTEM.DIHEDRAL>
0

>  <SCORE.SYSTEM.SOLV>
0

>  <SCORE.SYSTEM.norm>
0

>  <SCORE.heavy>
13

>  <SCORE.norm>
-1.23901

>  <RMSD>
1.386

$$$$
ligand
 OpenBabel02271912143D
libRbt.so/2013.1/901 2013/11/27
 13 14  0  0  0  0  0  0  0  0999 V2000
   -4.9861  -34.5709  -45.1541 N   0  0  0  0  0  0  0  0  0  0  0  0
   -5.9045  -35.0397  -44.2532 C   0  0  0  0  0  0  0  0  0  0  0  0
   -7.0539  -35.6165  -44.7205 N   0  0  0  0  0  0  0  0  0  0  0  0
   -5.6984  -34.9454  -42.9392 N   0  0  0  0  0  0  0  0  0  0  0  0
   -4.5662  -34.3766  -42.4402 C   0  0  0  0  0  0  0  0  0  0  0  0
   -3.5922  -33.8756  -43.3316 C   0  0  0  0  0  0  0  0  0  0  0  0
   -3.8302  -33.9892  -44.7282 C   0  0  0  0  0  0  0  0  0  0  0  0
   -3.0243  -33.5784  -45.5261 O   0  0  0  0  0  0  0  0  0  0  0  0
   -2.5163  -33.3323  -42.5087 C   0  0  0  0  0  0  0  0  0  0  0  0
   -2.8731  -33.5279  -41.2269 C   0  0  0  0  0  0  0  0  0  0  0  0
   -4.1012  -34.1536  -41.1796 N   0  0  0  0  0  0  0  0  0  0  0  0
   -1.2547  -32.6725  -43.0034 C   0  0  0  0  0  0  0  0  0  0  0  0
   -0.1170  -33.1346  -42.1826 N   0  0  0  0  0  0  0  0  0  0  0  0
  1  2  1  0  0  0  0
  1  7  1  0  0  0  0
  2  3  1  0  0  0  0
  2  4  2  0  0  0  0
  4  5  1  0  0  0  0
  5  6  2  0  0  0  0
  5 11  1  0  0  0  0
  6  7  1  0  0  0  0
  6  9  1  0  0  0  0
  7  8  2  0  0  0  0
  9 10  2  0  0  0  0
  9 12  1  0  0  0  0
 10 11  1  0  0  0  0
 12 13  1  0  0  0  0
M  END
>  <CHROM.1>
-138.71798821,-3.79473266,-34.05949614,-43.36488621,-2.75682673,0.40539778
1.58832435

>  <Name>
ligand

>  <RI>
0

>  <Rbt.Current_Directory>
/home/itssahil/PROJECTS/Mol_Feturizer/Test_systems_manuscript/rnas/3fu2

>  <Rbt.Executable>
rbdock ($Id: //depot/dev/client3/rdock/2013.1/src/exe/rbdock.cxx#4 $)

>  <Rbt.Library>
libRbt.so (2013.1, Build901 2013/11/27)

>  <Rbt.Parameter_File>
/export/apps/rDock/src/rDock_2013.1_src/data/scripts/dock_solv.prm

>  <Rbt.Receptor>
prm/blind_docking_100.prm

>  <SCORE>
-16.1151

>  <SCORE.INTER>
-15.8189

>  <SCORE.INTER.CONST>
1

>  <SCORE.INTER.POLAR>
0

>  <SCORE.INTER.ROT>
1

>  <SCORE.INTER.SOLV>
20.3405

>  <SCORE.INTER.VDW>
-21.5928

>  <SCORE.INTER.norm>
-1.21684

>  <SCORE.INTRA>
-0.296244

>  <SCORE.INTRA.DIHEDRAL>
-0.00125999

>  <SCORE.INTRA.DIHEDRAL.0>
1.66609

>  <SCORE.INTRA.POLAR>
0

>  <SCORE.INTRA.POLAR.0>
0

>  <SCORE.INTRA.REPUL>
0

>  <SCORE.INTRA.REPUL.0>
0

>  <SCORE.INTRA.SOLV>
-0.990725

>  <SCORE.INTRA.SOLV.lig_0>
-45.868

>  <SCORE.INTRA.VDW>
0.199749

>  <SCORE.INTRA.VDW.0>
-0.397919

>  <SCORE.INTRA.norm>
-0.022788

>  <SCORE.RESTR>
0

>  <SCORE.RESTR.CAVITY>
0

>  <SCORE.RESTR.norm>
0

>  <SCORE.SYSTEM>
0

>  <SCORE.SYSTEM.CONST>
0

>  <SCORE.SYSTEM.DIHEDRAL>
0

>  <SCORE.SYSTEM.SOLV>
0

>  <SCORE.SYSTEM.norm>
0

>  <SCORE.heavy>
13

>  <SCORE.norm>
-1.23963

>  <RMSD>
1.387

$$$$
ligand
 OpenBabel02271912143D
libRbt.so/2013.1/901 2013/11/27
 13 14  0  0  0  0  0  0  0  0999 V2000
   -4.9882  -34.5737  -45.1542 N   0  0  0  0  0  0  0  0  0  0  0  0
   -5.9053  -35.0424  -44.2520 C   0  0  0  0  0  0  0  0  0  0  0  0
   -7.0550  -35.6199  -44.7176 N   0  0  0  0  0  0  0  0  0  0  0  0
   -5.6977  -34.9473  -42.9383 N   0  0  0  0  0  0  0  0  0  0  0  0
   -4.5651  -34.3778  -42.4410 C   0  0  0  0  0  0  0  0  0  0  0  0
   -3.5924  -33.8768  -43.3338 C   0  0  0  0  0  0  0  0  0  0  0  0
   -3.8320  -33.9912  -44.7300 C   0  0  0  0  0  0  0  0  0  0  0  0
   -3.0273  -33.5805  -45.5292 O   0  0  0  0  0  0  0  0  0  0  0  0
   -2.5157  -33.3326  -42.5125 C   0  0  0  0  0  0  0  0  0  0  0  0
   -2.8709  -33.5278  -41.2301 C   0  0  0  0  0  0  0  0  0  0  0  0
   -4.0986  -34.1539  -41.1811 N   0  0  0  0  0  0  0  0  0  0  0  0
   -1.2550  -32.6725  -43.0090 C   0  0  0  0  0  0  0  0  0  0  0  0
   -0.1158  -33.1353  -42.1907 N   0  0  0  0  0  0  0  0  0  0  0  0
  1  2  1  0  0  0  0
  1  7  1  0  0  0  0
  2  3  1  0  0  0  0
  2  4  2  0  0  0  0
  4  5  1  0  0  0  0
  5  6  2  0  0  0  0
  5 11  1  0  0  0  0
  6  7  1  0  0  0  0
  6  9  1  0  0  0  0
  7  8  2  0  0  0  0
  9 10  2  0  0  0  0
  9 12  1  0  0  0  0
 10 11  1  0  0  0  0
 12 13  1  0  0  0  0
M  END
>  <CHROM.1>
-138.63654587,-3.79485961,-34.06094550,-43.36684477,-2.75825223,0.40569824
1.58832912

>  <Name>
ligand

>  <RI>
0

>  <Rbt.Current_Directory>
/home/itssahil/PROJECTS/Mol_Feturizer/Test_systems_manuscript/rnas/3fu2

>  <Rbt.Executable>
rbdock ($Id: //depot/dev/client3/rdock/2013.1/src/exe/rbdock.cxx#4 $)

>  <Rbt.Library>
libRbt.so (2013.1, Build901 2013/11/27)

>  <Rbt.Parameter_File>
/export/apps/rDock/src/rDock_2013.1_src/data/scripts/dock_solv.prm

>  <Rbt.Receptor>
prm/blind_docking_80.prm

>  <SCORE>
-16.1155

>  <SCORE.INTER>
-15.8189

>  <SCORE.INTER.CONST>
1

>  <SCORE.INTER.POLAR>
0

>  <SCORE.INTER.ROT>
1

>  <SCORE.INTER.SOLV>
20.3473

>  <SCORE.INTER.VDW>
-21.5951

>  <SCORE.INTER.norm>
-1.21684

>  <SCORE.INTRA>
-0.296607

>  <SCORE.INTRA.DIHEDRAL>
-0.00121543

>  <SCORE.INTRA.DIHEDRAL.0>
1.66609

>  <SCORE.INTRA.POLAR>
0

>  <SCORE.INTRA.POLAR.0>
0

>  <SCORE.INTRA.REPUL>
0

>  <SCORE.INTRA.REPUL.0>
0

>  <SCORE.INTRA.SOLV>
-0.990758

>  <SCORE.INTRA.SOLV.lig_0>
-45.868

>  <SCORE.INTRA.VDW>
0.19938

>  <SCORE.INTRA.VDW.0>
-0.397919

>  <SCORE.INTRA.norm>
-0.0228159

>  <SCORE.RESTR>
0

>  <SCORE.RESTR.CAVITY>
0

>  <SCORE.RESTR.norm>
0

>  <SCORE.SYSTEM>
0

>  <SCORE.SYSTEM.CONST>
0

>  <SCORE.SYSTEM.DIHEDRAL>
0

>  <SCORE.SYSTEM.SOLV>
0

>  <SCORE.SYSTEM.norm>
0

>  <SCORE.heavy>
13

>  <SCORE.norm>
-1.23966

>  <RMSD>
1.387

$$$$
ligand
 OpenBabel02271912143D
libRbt.so/2013.1/901 2013/11/27
 13 14  0  0  0  0  0  0  0  0999 V2000
   -4.9893  -34.5714  -45.1659 N   0  0  0  0  0  0  0  0  0  0  0  0
   -5.9031  -35.0481  -44.2644 C   0  0  0  0  0  0  0  0  0  0  0  0
   -7.0518  -35.6269  -44.7310 N   0  0  0  0  0  0  0  0  0  0  0  0
   -5.6932  -34.9595  -42.9507 N   0  0  0  0  0  0  0  0  0  0  0  0
   -4.5615  -34.3890  -42.4525 C   0  0  0  0  0  0  0  0  0  0  0  0
   -3.5922  -33.8799  -43.3444 C   0  0  0  0  0  0  0  0  0  0  0  0
   -3.8342  -33.9875  -44.7408 C   0  0  0  0  0  0  0  0  0  0  0  0
   -3.0324  -33.5698  -45.5392 O   0  0  0  0  0  0  0  0  0  0  0  0
   -2.5157  -33.3368  -42.5222 C   0  0  0  0  0  0  0  0  0  0  0  0
   -2.8677  -33.5401  -41.2403 C   0  0  0  0  0  0  0  0  0  0  0  0
   -4.0933  -34.1705  -41.1922 N   0  0  0  0  0  0  0  0  0  0  0  0
   -1.2581  -32.6698  -43.0176 C   0  0  0  0  0  0  0  0  0  0  0  0
   -0.1169  -33.1275  -42.1991 N   0  0  0  0  0  0  0  0  0  0  0  0
  1  2  1  0  0  0  0
  1  7  1  0  0  0  0
  2  3  1  0  0  0  0
  2  4  2  0  0  0  0
  4  5  1  0  0  0  0
  5  6  2  0  0  0  0
  5 11  1  0  0  0  0
  6  7  1  0  0  0  0
  6  9  1  0  0  0  0
  7  8  2  0  0  0  0
  9 10  2  0  0  0  0
  9 12  1  0  0  0  0
 10 11  1  0  0  0  0
 12 13  1  0  0  0  0
M  END
>  <CHROM.1>
-138.95057436,-3.79420961,-34.06411871,-43.37767600,-2.76009343,0.40937696
1.59475723

>  <Name>
ligand

>  <RI>
0

>  <Rbt.Current_Directory>
/home/itssahil/PROJECTS/Mol_Feturizer/Test_systems_manuscript/rnas/3fu2

>  <Rbt.Executable>
rbdock ($Id: //depot/dev/client3/rdock/2013.1/src/exe/rbdock.cxx#4 $)

>  <Rbt.Library>
libRbt.so (2013.1, Build901 2013/11/27)

>  <Rbt.Parameter_File>
/export/apps/rDock/src/rDock_2013.1_src/data/scripts/dock_solv.prm

>  <Rbt.Receptor>
prm/blind_docking_80.prm

>  <SCORE>
-16.0896

>  <SCORE.INTER>
-15.7944

>  <SCORE.INTER.CONST>
1

>  <SCORE.INTER.POLAR>
0

>  <SCORE.INTER.ROT>
1

>  <SCORE.INTER.SOLV>
20.3223

>  <SCORE.INTER.VDW>
-21.5704

>  <SCORE.INTER.norm>
-1.21496

>  <SCORE.INTRA>
-0.295205

>  <SCORE.INTRA.DIHEDRAL>
-0.00138571

>  <SCORE.INTRA.DIHEDRAL.0>
1.66609

>  <SCORE.INTRA.POLAR>
0

>  <SCORE.INTRA.POLAR.0>
0

>  <SCORE.INTRA.REPUL>
0

>  <SCORE.INTRA.REPUL.0>
0

>  <SCORE.INTRA.SOLV>
-0.990631

>  <SCORE.INTRA.SOLV.lig_0>
-45.868

>  <SCORE.INTRA.VDW>
0.200803

>  <SCORE.INTRA.VDW.0>
-0.397919

>  <SCORE.INTRA.norm>
-0.0227081

>  <SCORE.RESTR>
0

>  <SCORE.RESTR.CAVITY>
0

>  <SCORE.RESTR.norm>
0

>  <SCORE.SYSTEM>
0

>  <SCORE.SYSTEM.CONST>
0

>  <SCORE.SYSTEM.DIHEDRAL>
0

>  <SCORE.SYSTEM.SOLV>
0

>  <SCORE.SYSTEM.norm>
0

>  <SCORE.heavy>
13

>  <SCORE.norm>
-1.23766

>  <RMSD>
1.387

$$$$
ligand
 OpenBabel02271912143D
libRbt.so/2013.1/901 2013/11/27
 13 14  0  0  0  0  0  0  0  0999 V2000
   -4.9818  -34.5776  -45.1504 N   0  0  0  0  0  0  0  0  0  0  0  0
   -5.8995  -35.0478  -44.2496 C   0  0  0  0  0  0  0  0  0  0  0  0
   -7.0466  -35.6292  -44.7170 N   0  0  0  0  0  0  0  0  0  0  0  0
   -5.6950  -34.9507  -42.9356 N   0  0  0  0  0  0  0  0  0  0  0  0
   -4.5651  -34.3773  -42.4366 C   0  0  0  0  0  0  0  0  0  0  0  0
   -3.5919  -33.8746  -43.3279 C   0  0  0  0  0  0  0  0  0  0  0  0
   -3.8282  -33.9913  -44.7244 C   0  0  0  0  0  0  0  0  0  0  0  0
   -3.0230  -33.5793  -45.5223 O   0  0  0  0  0  0  0  0  0  0  0  0
   -2.5186  -33.3264  -42.5048 C   0  0  0  0  0  0  0  0  0  0  0  0
   -2.8760  -33.5210  -41.2230 C   0  0  0  0  0  0  0  0  0  0  0  0
   -4.1020  -34.1507  -41.1759 N   0  0  0  0  0  0  0  0  0  0  0  0
   -1.2586  -32.6633  -42.9994 C   0  0  0  0  0  0  0  0  0  0  0  0
   -0.1148  -33.1484  -42.2008 N   0  0  0  0  0  0  0  0  0  0  0  0
  1  2  1  0  0  0  0
  1  7  1  0  0  0  0
  2  3  1  0  0  0  0
  2  4  2  0  0  0  0
  4  5  1  0  0  0  0
  5  6  2  0  0  0  0
  5 11  1  0  0  0  0
  6  7  1  0  0  0  0
  6  9  1  0  0  0  0
  7  8  2  0  0  0  0
  9 10  2  0  0  0  0
  9 12  1  0  0  0  0
 10 11  1  0  0  0  0
 12 13  1  0  0  0  0
M  END
>  <CHROM.1>
-137.18827412,-3.79336930,-34.06152610,-43.36295619,-2.75763702,0.40657317
1.58588415

>  <Name>
ligand

>  <RI>
0

>  <Rbt.Current_Directory>
/home/itssahil/PROJECTS/Mol_Feturizer/Test_systems_manuscript/rnas/3fu2

>  <Rbt.Executable>
rbdock ($Id: //depot/dev/client3/rdock/2013.1/src/exe/rbdock.cxx#4 $)

>  <Rbt.Library>
libRbt.so (2013.1, Build901 2013/11/27)

>  <Rbt.Parameter_File>
/export/apps/rDock/src/rDock_2013.1_src/data/scripts/dock_solv.prm

>  <Rbt.Receptor>
prm/pocket_docking_7.prm

>  <SCORE>
-16.1097

>  <SCORE.INTER>
-15.8067

>  <SCORE.INTER.CONST>
1

>  <SCORE.INTER.POLAR>
0

>  <SCORE.INTER.ROT>
1

>  <SCORE.INTER.SOLV>
20.3736

>  <SCORE.INTER.VDW>
-21.5957

>  <SCORE.INTER.norm>
-1.2159

>  <SCORE.INTRA>
-0.302971

>  <SCORE.INTRA.DIHEDRAL>
-0.00037796

>  <SCORE.INTRA.DIHEDRAL.0>
1.66609

>  <SCORE.INTRA.POLAR>
0

>  <SCORE.INTRA.POLAR.0>
0

>  <SCORE.INTRA.REPUL>
0

>  <SCORE.INTRA.REPUL.0>
0

>  <SCORE.INTRA.SOLV>
-0.991337

>  <SCORE.INTRA.SOLV.lig_0>
-45.868

>  <SCORE.INTRA.VDW>
0.192887

>  <SCORE.INTRA.VDW.0>
-0.397919

>  <SCORE.INTRA.norm>
-0.0233055

>  <SCORE.RESTR>
0

>  <SCORE.RESTR.CAVITY>
0

>  <SCORE.RESTR.norm>
0

>  <SCORE.SYSTEM>
0

>  <SCORE.SYSTEM.CONST>
0

>  <SCORE.SYSTEM.DIHEDRAL>
0

>  <SCORE.SYSTEM.SOLV>
0

>  <SCORE.SYSTEM.norm>
0

>  <SCORE.heavy>
13

>  <SCORE.norm>
-1.23921

>  <RMSD>
1.387

$$$$
ligand
 OpenBabel02271912143D
libRbt.so/2013.1/901 2013/11/27
 13 14  0  0  0  0  0  0  0  0999 V2000
   -4.9872  -34.5716  -45.1543 N   0  0  0  0  0  0  0  0  0  0  0  0
   -5.9054  -35.0391  -44.2526 C   0  0  0  0  0  0  0  0  0  0  0  0
   -7.0553  -35.6157  -44.7189 N   0  0  0  0  0  0  0  0  0  0  0  0
   -5.6986  -34.9438  -42.9388 N   0  0  0  0  0  0  0  0  0  0  0  0
   -4.5658  -34.3752  -42.4409 C   0  0  0  0  0  0  0  0  0  0  0  0
   -3.5920  -33.8754  -43.3331 C   0  0  0  0  0  0  0  0  0  0  0  0
   -3.8307  -33.9901  -44.7295 C   0  0  0  0  0  0  0  0  0  0  0  0
   -3.0250  -33.5805  -45.5282 O   0  0  0  0  0  0  0  0  0  0  0  0
   -2.5154  -33.3321  -42.5112 C   0  0  0  0  0  0  0  0  0  0  0  0
   -2.8717  -33.5264  -41.2291 C   0  0  0  0  0  0  0  0  0  0  0  0
   -4.1001  -34.1514  -41.1807 N   0  0  0  0  0  0  0  0  0  0  0  0
   -1.2537  -32.6734  -43.0070 C   0  0  0  0  0  0  0  0  0  0  0  0
   -0.1156  -33.1365  -42.1874 N   0  0  0  0  0  0  0  0  0  0  0  0
  1  2  1  0  0  0  0
  1  7  1  0  0  0  0
  2  3  1  0  0  0  0
  2  4  2  0  0  0  0
  4  5  1  0  0  0  0
  5  6  2  0  0  0  0
  5 11  1  0  0  0  0
  6  7  1  0  0  0  0
  6  9  1  0  0  0  0
  7  8  2  0  0  0  0
  9 10  2  0  0  0  0
  9 12  1  0  0  0  0
 10 11  1  0  0  0  0
 12 13  1  0  0  0  0
M  END
>  <CHROM.1>
-138.65768679,-3.79464818,-34.05939274,-43.36624828,-2.75740932,0.40476652
1.58768087

>  <Name>
ligand

>  <RI>
0

>  <Rbt.Current_Directory>
/home/itssahil/PROJECTS/Mol_Feturizer/Test_systems_manuscript/rnas/3fu2

>  <Rbt.Executable>
rbdock ($Id: //depot/dev/client3/rdock/2013.1/src/exe/rbdock.cxx#4 $)

>  <Rbt.Library>
libRbt.so (2013.1, Build901 2013/11/27)

>  <Rbt.Parameter_File>
/export/apps/rDock/src/rDock_2013.1_src/data/scripts/dock_solv.prm

>  <Rbt.Receptor>
prm/pocket_docking_8.prm

>  <SCORE>
-16.1141

>  <SCORE.INTER>
-15.8176

>  <SCORE.INTER.CONST>
1

>  <SCORE.INTER.POLAR>
0

>  <SCORE.INTER.ROT>
1

>  <SCORE.INTER.SOLV>
20.3475

>  <SCORE.INTER.VDW>
-21.5942

>  <SCORE.INTER.norm>
-1.21673

>  <SCORE.INTRA>
-0.296512

>  <SCORE.INTRA.DIHEDRAL>
-0.00122703

>  <SCORE.INTRA.DIHEDRAL.0>
1.66609

>  <SCORE.INTRA.POLAR>
0

>  <SCORE.INTRA.POLAR.0>
0

>  <SCORE.INTRA.REPUL>
0

>  <SCORE.INTRA.REPUL.0>
0

>  <SCORE.INTRA.SOLV>
-0.990749

>  <SCORE.INTRA.SOLV.lig_0>
-45.868

>  <SCORE.INTRA.VDW>
0.199476

>  <SCORE.INTRA.VDW.0>
-0.397919

>  <SCORE.INTRA.norm>
-0.0228087

>  <SCORE.RESTR>
0

>  <SCORE.RESTR.CAVITY>
0

>  <SCORE.RESTR.norm>
0

>  <SCORE.SYSTEM>
0

>  <SCORE.SYSTEM.CONST>
0

>  <SCORE.SYSTEM.DIHEDRAL>
0

>  <SCORE.SYSTEM.SOLV>
0

>  <SCORE.SYSTEM.norm>
0

>  <SCORE.heavy>
13

>  <SCORE.norm>
-1.23954

>  <RMSD>
1.387

$$$$
ligand
 OpenBabel02271912143D
libRbt.so/2013.1/901 2013/11/27
 13 14  0  0  0  0  0  0  0  0999 V2000
   -4.9823  -34.5759  -45.1660 N   0  0  0  0  0  0  0  0  0  0  0  0
   -5.8983  -35.0525  -44.2668 C   0  0  0  0  0  0  0  0  0  0  0  0
   -7.0448  -35.6334  -44.7361 N   0  0  0  0  0  0  0  0  0  0  0  0
   -5.6926  -34.9619  -42.9525 N   0  0  0  0  0  0  0  0  0  0  0  0
   -4.5632  -34.3892  -42.4516 C   0  0  0  0  0  0  0  0  0  0  0  0
   -3.5918  -33.8801  -43.3412 C   0  0  0  0  0  0  0  0  0  0  0  0
   -3.8293  -33.9899  -44.7381 C   0  0  0  0  0  0  0  0  0  0  0  0
   -3.0256  -33.5723  -45.5347 O   0  0  0  0  0  0  0  0  0  0  0  0
   -2.5185  -33.3344  -42.5164 C   0  0  0  0  0  0  0  0  0  0  0  0
   -2.8743  -33.5364  -41.2353 C   0  0  0  0  0  0  0  0  0  0  0  0
   -4.0992  -34.1684  -41.1902 N   0  0  0  0  0  0  0  0  0  0  0  0
   -1.2603  -32.6665  -43.0088 C   0  0  0  0  0  0  0  0  0  0  0  0
   -0.1184  -33.1348  -42.1973 N   0  0  0  0  0  0  0  0  0  0  0  0
  1  2  1  0  0  0  0
  1  7  1  0  0  0  0
  2  3  1  0  0  0  0
  2  4  2  0  0  0  0
  4  5  1  0  0  0  0
  5  6  2  0  0  0  0
  5 11  1  0  0  0  0
  6  7  1  0  0  0  0
  6  9  1  0  0  0  0
  7  8  2  0  0  0  0
  9 10  2  0  0  0  0
  9 12  1  0  0  0  0
 10 11  1  0  0  0  0
 12 13  1  0  0  0  0
M  END
>  <CHROM.1>
-138.23451951,-3.79324839,-34.06567098,-43.37572925,-2.75756372,0.40972503
1.59186231

>  <Name>
ligand

>  <RI>
0

>  <Rbt.Current_Directory>
/home/itssahil/PROJECTS/Mol_Feturizer/Test_systems_manuscript/rnas/3fu2

>  <Rbt.Executable>
rbdock ($Id: //depot/dev/client3/rdock/2013.1/src/exe/rbdock.cxx#4 $)

>  <Rbt.Library>
libRbt.so (2013.1, Build901 2013/11/27)

>  <Rbt.Parameter_File>
/export/apps/rDock/src/rDock_2013.1_src/data/scripts/dock_solv.prm

>  <Rbt.Receptor>
prm/blind_docking_80.prm

>  <SCORE>
-16.0919

>  <SCORE.INTER>
-15.7935

>  <SCORE.INTER.CONST>
1

>  <SCORE.INTER.POLAR>
0

>  <SCORE.INTER.ROT>
1

>  <SCORE.INTER.SOLV>
20.3291

>  <SCORE.INTER.VDW>
-21.5721

>  <SCORE.INTER.norm>
-1.21489

>  <SCORE.INTRA>
-0.29839

>  <SCORE.INTRA.DIHEDRAL>
-0.000991479

>  <SCORE.INTRA.DIHEDRAL.0>
1.66609

>  <SCORE.INTRA.POLAR>
0

>  <SCORE.INTRA.POLAR.0>
0

>  <SCORE.INTRA.REPUL>
0

>  <SCORE.INTRA.REPUL.0>
0

>  <SCORE.INTRA.SOLV>
-0.990919

>  <SCORE.INTRA.SOLV.lig_0>
-45.868

>  <SCORE.INTRA.VDW>
0.197566

>  <SCORE.INTRA.VDW.0>
-0.397919

>  <SCORE.INTRA.norm>
-0.0229531

>  <SCORE.RESTR>
0

>  <SCORE.RESTR.CAVITY>
0

>  <SCORE.RESTR.norm>
0

>  <SCORE.SYSTEM>
0

>  <SCORE.SYSTEM.CONST>
0

>  <SCORE.SYSTEM.DIHEDRAL>
0

>  <SCORE.SYSTEM.SOLV>
0

>  <SCORE.SYSTEM.norm>
0

>  <SCORE.heavy>
13

>  <SCORE.norm>
-1.23784

>  <RMSD>
1.388

$$$$
ligand
 OpenBabel02271912143D
libRbt.so/2013.1/901 2013/11/27
 13 14  0  0  0  0  0  0  0  0999 V2000
   -5.0083  -34.5766  -45.1583 N   0  0  0  0  0  0  0  0  0  0  0  0
   -5.9205  -35.0458  -44.2514 C   0  0  0  0  0  0  0  0  0  0  0  0
   -7.0690  -35.6304  -44.7112 N   0  0  0  0  0  0  0  0  0  0  0  0
   -5.7093  -34.9446  -42.9387 N   0  0  0  0  0  0  0  0  0  0  0  0
   -4.5778  -34.3679  -42.4472 C   0  0  0  0  0  0  0  0  0  0  0  0
   -3.6101  -33.8661  -43.3450 C   0  0  0  0  0  0  0  0  0  0  0  0
   -3.8534  -33.9872  -44.7400 C   0  0  0  0  0  0  0  0  0  0  0  0
   -3.0531  -33.5761  -45.5432 O   0  0  0  0  0  0  0  0  0  0  0  0
   -2.5334  -33.3138  -42.5291 C   0  0  0  0  0  0  0  0  0  0  0  0
   -2.8838  -33.5054  -41.2449 C   0  0  0  0  0  0  0  0  0  0  0  0
   -4.1085  -34.1369  -41.1896 N   0  0  0  0  0  0  0  0  0  0  0  0
   -1.2772  -32.6500  -43.0322 C   0  0  0  0  0  0  0  0  0  0  0  0
   -0.1340  -33.1012  -42.2129 N   0  0  0  0  0  0  0  0  0  0  0  0
  1  2  1  0  0  0  0
  1  7  1  0  0  0  0
  2  3  1  0  0  0  0
  2  4  2  0  0  0  0
  4  5  1  0  0  0  0
  5  6  2  0  0  0  0
  5 11  1  0  0  0  0
  6  7  1  0  0  0  0
  6  9  1  0  0  0  0
  7  8  2  0  0  0  0
  9 10  2  0  0  0  0
  9 12  1  0  0  0  0
 10 11  1  0  0  0  0
 12 13  1  0  0  0  0
M  END
>  <CHROM.1>
-138.80486259,-3.81186872,-34.05106014,-43.37644903,-2.76147335,0.41041653
1.58573455

>  <Name>
ligand

>  <RI>
0

>  <Rbt.Current_Directory>
/home/itssahil/PROJECTS/Mol_Feturizer/Test_systems_manuscript/rnas/3fu2

>  <Rbt.Executable>
rbdock ($Id: //depot/dev/client3/rdock/2013.1/src/exe/rbdock.cxx#4 $)

>  <Rbt.Library>
libRbt.so (2013.1, Build901 2013/11/27)

>  <Rbt.Parameter_File>
/export/apps/rDock/src/rDock_2013.1_src/data/scripts/dock_solv.prm

>  <Rbt.Receptor>
prm/pocket_docking_7.prm

>  <SCORE>
-16.1097

>  <SCORE.INTER>
-15.8139

>  <SCORE.INTER.CONST>
1

>  <SCORE.INTER.POLAR>
0

>  <SCORE.INTER.ROT>
1

>  <SCORE.INTER.SOLV>
20.3719

>  <SCORE.INTER.VDW>
-21.5999

>  <SCORE.INTER.norm>
-1.21645

>  <SCORE.INTRA>
-0.295856

>  <SCORE.INTRA.DIHEDRAL>
-0.00130721

>  <SCORE.INTRA.DIHEDRAL.0>
1.66609

>  <SCORE.INTRA.POLAR>
0

>  <SCORE.INTRA.POLAR.0>
0

>  <SCORE.INTRA.REPUL>
0

>  <SCORE.INTRA.REPUL.0>
0

>  <SCORE.INTRA.SOLV>
-0.99069

>  <SCORE.INTRA.SOLV.lig_0>
-45.868

>  <SCORE.INTRA.VDW>
0.200142

>  <SCORE.INTRA.VDW.0>
-0.397919

>  <SCORE.INTRA.norm>
-0.0227582

>  <SCORE.RESTR>
0

>  <SCORE.RESTR.CAVITY>
0

>  <SCORE.RESTR.norm>
0

>  <SCORE.SYSTEM>
0

>  <SCORE.SYSTEM.CONST>
0

>  <SCORE.SYSTEM.DIHEDRAL>
0

>  <SCORE.SYSTEM.SOLV>
0

>  <SCORE.SYSTEM.norm>
0

>  <SCORE.heavy>
13

>  <SCORE.norm>
-1.23921

>  <RMSD>
1.388

$$$$
ligand
 OpenBabel02271912143D
libRbt.so/2013.1/901 2013/11/27
 13 14  0  0  0  0  0  0  0  0999 V2000
   -5.0233  -34.5573  -45.1744 N   0  0  0  0  0  0  0  0  0  0  0  0
   -5.9237  -35.0511  -44.2688 C   0  0  0  0  0  0  0  0  0  0  0  0
   -7.0725  -35.6343  -44.7297 N   0  0  0  0  0  0  0  0  0  0  0  0
   -5.7008  -34.9750  -42.9564 N   0  0  0  0  0  0  0  0  0  0  0  0
   -4.5687  -34.4006  -42.4638 C   0  0  0  0  0  0  0  0  0  0  0  0
   -3.6129  -33.8740  -43.3601 C   0  0  0  0  0  0  0  0  0  0  0  0
   -3.8686  -33.9685  -44.7550 C   0  0  0  0  0  0  0  0  0  0  0  0
   -3.0786  -33.5356  -45.5571 O   0  0  0  0  0  0  0  0  0  0  0  0
   -2.5323  -33.3308  -42.5433 C   0  0  0  0  0  0  0  0  0  0  0  0
   -2.8693  -33.5508  -41.2601 C   0  0  0  0  0  0  0  0  0  0  0  0
   -4.0891  -34.1918  -41.2062 N   0  0  0  0  0  0  0  0  0  0  0  0
   -1.2854  -32.6482  -43.0444 C   0  0  0  0  0  0  0  0  0  0  0  0
   -0.1331  -33.1006  -42.2388 N   0  0  0  0  0  0  0  0  0  0  0  0
  1  2  1  0  0  0  0
  1  7  1  0  0  0  0
  2  3  1  0  0  0  0
  2  4  2  0  0  0  0
  4  5  1  0  0  0  0
  5  6  2  0  0  0  0
  5 11  1  0  0  0  0
  6  7  1  0  0  0  0
  6  9  1  0  0  0  0
  7  8  2  0  0  0  0
  9 10  2  0  0  0  0
  9 12  1  0  0  0  0
 10 11  1  0  0  0  0
 12 13  1  0  0  0  0
M  END
>  <CHROM.1>
-139.20723772,-3.81384842,-34.05904432,-43.39297862,-2.77144246,0.41757819
1.61029479

>  <Name>
ligand

>  <RI>
0

>  <Rbt.Current_Directory>
/home/itssahil/PROJECTS/Mol_Feturizer/Test_systems_manuscript/rnas/3fu2

>  <Rbt.Executable>
rbdock ($Id: //depot/dev/client3/rdock/2013.1/src/exe/rbdock.cxx#4 $)

>  <Rbt.Library>
libRbt.so (2013.1, Build901 2013/11/27)

>  <Rbt.Parameter_File>
/export/apps/rDock/src/rDock_2013.1_src/data/scripts/dock_solv.prm

>  <Rbt.Receptor>
prm/blind_docking_80.prm

>  <SCORE>
-16.0941

>  <SCORE.INTER>
-15.8

>  <SCORE.INTER.CONST>
1

>  <SCORE.INTER.POLAR>
0

>  <SCORE.INTER.ROT>
1

>  <SCORE.INTER.SOLV>
20.3162

>  <SCORE.INTER.VDW>
-21.5721

>  <SCORE.INTER.norm>
-1.21538

>  <SCORE.INTRA>
-0.294054

>  <SCORE.INTRA.DIHEDRAL>
-0.00152181

>  <SCORE.INTRA.DIHEDRAL.0>
1.66609

>  <SCORE.INTRA.POLAR>
0

>  <SCORE.INTRA.POLAR.0>
0

>  <SCORE.INTRA.REPUL>
0

>  <SCORE.INTRA.REPUL.0>
0

>  <SCORE.INTRA.SOLV>
-0.990528

>  <SCORE.INTRA.SOLV.lig_0>
-45.868

>  <SCORE.INTRA.VDW>
0.201971

>  <SCORE.INTRA.VDW.0>
-0.397919

>  <SCORE.INTRA.norm>
-0.0226196

>  <SCORE.RESTR>
0

>  <SCORE.RESTR.CAVITY>
0

>  <SCORE.RESTR.norm>
0

>  <SCORE.SYSTEM>
0

>  <SCORE.SYSTEM.CONST>
0

>  <SCORE.SYSTEM.DIHEDRAL>
0

>  <SCORE.SYSTEM.SOLV>
0

>  <SCORE.SYSTEM.norm>
0

>  <SCORE.heavy>
13

>  <SCORE.norm>
-1.238

>  <RMSD>
1.389

$$$$
ligand
 OpenBabel02271912143D
libRbt.so/2013.1/901 2013/11/27
 13 14  0  0  0  0  0  0  0  0999 V2000
   -4.9831  -34.5762  -45.1482 N   0  0  0  0  0  0  0  0  0  0  0  0
   -5.9032  -35.0440  -44.2485 C   0  0  0  0  0  0  0  0  0  0  0  0
   -7.0515  -35.6217  -44.7173 N   0  0  0  0  0  0  0  0  0  0  0  0
   -5.6997  -34.9479  -42.9343 N   0  0  0  0  0  0  0  0  0  0  0  0
   -4.5685  -34.3782  -42.4338 C   0  0  0  0  0  0  0  0  0  0  0  0
   -3.5929  -33.8781  -43.3239 C   0  0  0  0  0  0  0  0  0  0  0  0
   -3.8281  -33.9936  -44.7208 C   0  0  0  0  0  0  0  0  0  0  0  0
   -3.0208  -33.5837  -45.5177 O   0  0  0  0  0  0  0  0  0  0  0  0
   -2.5188  -33.3335  -42.4996 C   0  0  0  0  0  0  0  0  0  0  0  0
   -2.8781  -33.5276  -41.2182 C   0  0  0  0  0  0  0  0  0  0  0  0
   -4.1061  -34.1535  -41.1726 N   0  0  0  0  0  0  0  0  0  0  0  0
   -1.2563  -32.6740  -42.9926 C   0  0  0  0  0  0  0  0  0  0  0  0
   -0.1195  -33.1380  -42.1717 N   0  0  0  0  0  0  0  0  0  0  0  0
  1  2  1  0  0  0  0
  1  7  1  0  0  0  0
  2  3  1  0  0  0  0
  2  4  2  0  0  0  0
  4  5  1  0  0  0  0
  5  6  2  0  0  0  0
  5 11  1  0  0  0  0
  6  7  1  0  0  0  0
  6  9  1  0  0  0  0
  7  8  2  0  0  0  0
  9 10  2  0  0  0  0
  9 12  1  0  0  0  0
 10 11  1  0  0  0  0
 12 13  1  0  0  0  0
M  END
>  <CHROM.1>
-138.54422126,-3.79530910,-34.06239080,-43.35757255,-2.75489486,0.40543108
1.58616001

>  <Name>
ligand

>  <RI>
0

>  <Rbt.Current_Directory>
/home/itssahil/PROJECTS/Mol_Feturizer/Test_systems_manuscript/rnas/3fu2

>  <Rbt.Executable>
rbdock ($Id: //depot/dev/client3/rdock/2013.1/src/exe/rbdock.cxx#4 $)

>  <Rbt.Library>
libRbt.so (2013.1, Build901 2013/11/27)

>  <Rbt.Parameter_File>
/export/apps/rDock/src/rDock_2013.1_src/data/scripts/dock_solv.prm

>  <Rbt.Receptor>
prm/pocket_docking_2.prm

>  <SCORE>
-16.0895

>  <SCORE.INTER>
-15.7925

>  <SCORE.INTER.CONST>
1

>  <SCORE.INTER.POLAR>
0

>  <SCORE.INTER.ROT>
1

>  <SCORE.INTER.SOLV>
20.3427

>  <SCORE.INTER.VDW>
-21.5759

>  <SCORE.INTER.norm>
-1.2148

>  <SCORE.INTRA>
-0.297017

>  <SCORE.INTRA.DIHEDRAL>
-0.00116459

>  <SCORE.INTRA.DIHEDRAL.0>
1.66609

>  <SCORE.INTRA.POLAR>
0

>  <SCORE.INTRA.POLAR.0>
0

>  <SCORE.INTRA.REPUL>
0

>  <SCORE.INTRA.REPUL.0>
0

>  <SCORE.INTRA.SOLV>
-0.990795

>  <SCORE.INTRA.SOLV.lig_0>
-45.868

>  <SCORE.INTRA.VDW>
0.198963

>  <SCORE.INTRA.VDW.0>
-0.397919

>  <SCORE.INTRA.norm>
-0.0228475

>  <SCORE.RESTR>
0

>  <SCORE.RESTR.CAVITY>
0

>  <SCORE.RESTR.norm>
0

>  <SCORE.SYSTEM>
0

>  <SCORE.SYSTEM.CONST>
0

>  <SCORE.SYSTEM.DIHEDRAL>
0

>  <SCORE.SYSTEM.SOLV>
0

>  <SCORE.SYSTEM.norm>
0

>  <SCORE.heavy>
13

>  <SCORE.norm>
-1.23765

>  <RMSD>
1.389

$$$$
ligand
 OpenBabel02271912143D
libRbt.so/2013.1/901 2013/11/27
 13 14  0  0  0  0  0  0  0  0999 V2000
   -4.9914  -34.5854  -45.1488 N   0  0  0  0  0  0  0  0  0  0  0  0
   -5.9069  -35.0537  -44.2446 C   0  0  0  0  0  0  0  0  0  0  0  0
   -7.0562  -35.6339  -44.7080 N   0  0  0  0  0  0  0  0  0  0  0  0
   -5.6981  -34.9558  -42.9314 N   0  0  0  0  0  0  0  0  0  0  0  0
   -4.5658  -34.3836  -42.4364 C   0  0  0  0  0  0  0  0  0  0  0  0
   -3.5948  -33.8829  -43.3312 C   0  0  0  0  0  0  0  0  0  0  0  0
   -3.8357  -34.0004  -44.7269 C   0  0  0  0  0  0  0  0  0  0  0  0
   -3.0324  -33.5901  -45.5277 O   0  0  0  0  0  0  0  0  0  0  0  0
   -2.5180  -33.3355  -42.5120 C   0  0  0  0  0  0  0  0  0  0  0  0
   -2.8716  -33.5287  -41.2289 C   0  0  0  0  0  0  0  0  0  0  0  0
   -4.0983  -34.1566  -41.1774 N   0  0  0  0  0  0  0  0  0  0  0  0
   -1.2588  -32.6745  -43.0112 C   0  0  0  0  0  0  0  0  0  0  0  0
   -0.1181  -33.1337  -42.1929 N   0  0  0  0  0  0  0  0  0  0  0  0
  1  2  1  0  0  0  0
  1  7  1  0  0  0  0
  2  3  1  0  0  0  0
  2  4  2  0  0  0  0
  4  5  1  0  0  0  0
  5  6  2  0  0  0  0
  5 11  1  0  0  0  0
  6  7  1  0  0  0  0
  6  9  1  0  0  0  0
  7  8  2  0  0  0  0
  9 10  2  0  0  0  0
  9 12  1  0  0  0  0
 10 11  1  0  0  0  0
 12 13  1  0  0  0  0
M  END
>  <CHROM.1>
-138.64882793,-3.79699768,-34.06738138,-43.36363895,-2.75939910,0.40718708
1.58683722

>  <Name>
ligand

>  <RI>
0

>  <Rbt.Current_Directory>
/home/itssahil/PROJECTS/Mol_Feturizer/Test_systems_manuscript/rnas/3fu2

>  <Rbt.Executable>
rbdock ($Id: //depot/dev/client3/rdock/2013.1/src/exe/rbdock.cxx#4 $)

>  <Rbt.Library>
libRbt.so (2013.1, Build901 2013/11/27)

>  <Rbt.Parameter_File>
/export/apps/rDock/src/rDock_2013.1_src/data/scripts/dock_solv.prm

>  <Rbt.Receptor>
prm/pocket_docking_2.prm

>  <SCORE>
-16.1068

>  <SCORE.INTER>
-15.8103

>  <SCORE.INTER.CONST>
1

>  <SCORE.INTER.POLAR>
0

>  <SCORE.INTER.ROT>
1

>  <SCORE.INTER.SOLV>
20.3581

>  <SCORE.INTER.VDW>
-21.5929

>  <SCORE.INTER.norm>
-1.21618

>  <SCORE.INTRA>
-0.296552

>  <SCORE.INTRA.DIHEDRAL>
-0.00122217

>  <SCORE.INTRA.DIHEDRAL.0>
1.66609

>  <SCORE.INTRA.POLAR>
0

>  <SCORE.INTRA.POLAR.0>
0

>  <SCORE.INTRA.REPUL>
0

>  <SCORE.INTRA.REPUL.0>
0

>  <SCORE.INTRA.SOLV>
-0.990753

>  <SCORE.INTRA.SOLV.lig_0>
-45.868

>  <SCORE.INTRA.VDW>
0.199436

>  <SCORE.INTRA.VDW.0>
-0.397919

>  <SCORE.INTRA.norm>
-0.0228117

>  <SCORE.RESTR>
0

>  <SCORE.RESTR.CAVITY>
0

>  <SCORE.RESTR.norm>
0

>  <SCORE.SYSTEM>
0

>  <SCORE.SYSTEM.CONST>
0

>  <SCORE.SYSTEM.DIHEDRAL>
0

>  <SCORE.SYSTEM.SOLV>
0

>  <SCORE.SYSTEM.norm>
0

>  <SCORE.heavy>
13

>  <SCORE.norm>
-1.23899

>  <RMSD>
1.389

$$$$
ligand
 OpenBabel02271912143D
libRbt.so/2013.1/901 2013/11/27
 13 14  0  0  0  0  0  0  0  0999 V2000
   -4.9874  -34.5905  -45.1468 N   0  0  0  0  0  0  0  0  0  0  0  0
   -5.9038  -35.0575  -44.2430 C   0  0  0  0  0  0  0  0  0  0  0  0
   -7.0522  -35.6392  -44.7067 N   0  0  0  0  0  0  0  0  0  0  0  0
   -5.6968  -34.9567  -42.9297 N   0  0  0  0  0  0  0  0  0  0  0  0
   -4.5655  -34.3829  -42.4343 C   0  0  0  0  0  0  0  0  0  0  0  0
   -3.5936  -33.8835  -43.3288 C   0  0  0  0  0  0  0  0  0  0  0  0
   -3.8325  -34.0040  -44.7246 C   0  0  0  0  0  0  0  0  0  0  0  0
   -3.0284  -33.5949  -45.5251 O   0  0  0  0  0  0  0  0  0  0  0  0
   -2.5183  -33.3339  -42.5093 C   0  0  0  0  0  0  0  0  0  0  0  0
   -2.8735  -33.5245  -41.2263 C   0  0  0  0  0  0  0  0  0  0  0  0
   -4.0999  -34.1530  -41.1751 N   0  0  0  0  0  0  0  0  0  0  0  0
   -1.2587  -32.6732  -43.0081 C   0  0  0  0  0  0  0  0  0  0  0  0
   -0.1180  -33.1348  -42.1912 N   0  0  0  0  0  0  0  0  0  0  0  0
  1  2  1  0  0  0  0
  1  7  1  0  0  0  0
  2  3  1  0  0  0  0
  2  4  2  0  0  0  0
  4  5  1  0  0  0  0
  5  6  2  0  0  0  0
  5 11  1  0  0  0  0
  6  7  1  0  0  0  0
  6  9  1  0  0  0  0
  7  8  2  0  0  0  0
  9 10  2  0  0  0  0
  9 12  1  0  0  0  0
 10 11  1  0  0  0  0
 12 13  1  0  0  0  0
M  END
>  <CHROM.1>
-138.39454514,-3.79557445,-34.06855478,-43.36145684,-2.75820629,0.40740415
1.58412846

>  <Name>
ligand

>  <RI>
0

>  <Rbt.Current_Directory>
/home/itssahil/PROJECTS/Mol_Feturizer/Test_systems_manuscript/rnas/3fu2

>  <Rbt.Executable>
rbdock ($Id: //depot/dev/client3/rdock/2013.1/src/exe/rbdock.cxx#4 $)

>  <Rbt.Library>
libRbt.so (2013.1, Build901 2013/11/27)

>  <Rbt.Parameter_File>
/export/apps/rDock/src/rDock_2013.1_src/data/scripts/dock_solv.prm

>  <Rbt.Receptor>
prm/pocket_docking_2.prm

>  <SCORE>
-16.107

>  <SCORE.INTER>
-15.8093

>  <SCORE.INTER.CONST>
1

>  <SCORE.INTER.POLAR>
0

>  <SCORE.INTER.ROT>
1

>  <SCORE.INTER.SOLV>
20.3628

>  <SCORE.INTER.VDW>
-21.5938

>  <SCORE.INTER.norm>
-1.2161

>  <SCORE.INTRA>
-0.297681

>  <SCORE.INTRA.DIHEDRAL>
-0.00108142

>  <SCORE.INTRA.DIHEDRAL.0>
1.66609

>  <SCORE.INTRA.POLAR>
0

>  <SCORE.INTRA.POLAR.0>
0

>  <SCORE.INTRA.REPUL>
0

>  <SCORE.INTRA.REPUL.0>
0

>  <SCORE.INTRA.SOLV>
-0.990855

>  <SCORE.INTRA.SOLV.lig_0>
-45.868

>  <SCORE.INTRA.VDW>
0.198287

>  <SCORE.INTRA.VDW.0>
-0.397919

>  <SCORE.INTRA.norm>
-0.0228986

>  <SCORE.RESTR>
0

>  <SCORE.RESTR.CAVITY>
0

>  <SCORE.RESTR.norm>
0

>  <SCORE.SYSTEM>
0

>  <SCORE.SYSTEM.CONST>
0

>  <SCORE.SYSTEM.DIHEDRAL>
0

>  <SCORE.SYSTEM.SOLV>
0

>  <SCORE.SYSTEM.norm>
0

>  <SCORE.heavy>
13

>  <SCORE.norm>
-1.239

>  <RMSD>
1.389

$$$$
ligand
 OpenBabel02271912143D
libRbt.so/2013.1/901 2013/11/27
 13 14  0  0  0  0  0  0  0  0999 V2000
   -4.9863  -34.5898  -45.1471 N   0  0  0  0  0  0  0  0  0  0  0  0
   -5.9044  -35.0556  -44.2444 C   0  0  0  0  0  0  0  0  0  0  0  0
   -7.0520  -35.6377  -44.7094 N   0  0  0  0  0  0  0  0  0  0  0  0
   -5.6996  -34.9534  -42.9308 N   0  0  0  0  0  0  0  0  0  0  0  0
   -4.5691  -34.3793  -42.4341 C   0  0  0  0  0  0  0  0  0  0  0  0
   -3.5955  -33.8810  -43.3274 C   0  0  0  0  0  0  0  0  0  0  0  0
   -3.8320  -34.0031  -44.7236 C   0  0  0  0  0  0  0  0  0  0  0  0
   -3.0264  -33.5949  -45.5231 O   0  0  0  0  0  0  0  0  0  0  0  0
   -2.5215  -33.3307  -42.5067 C   0  0  0  0  0  0  0  0  0  0  0  0
   -2.8790  -33.5199  -41.2241 C   0  0  0  0  0  0  0  0  0  0  0  0
   -4.1057  -34.1481  -41.1744 N   0  0  0  0  0  0  0  0  0  0  0  0
   -1.2610  -32.6708  -43.0040 C   0  0  0  0  0  0  0  0  0  0  0  0
   -0.1211  -33.1352  -42.1876 N   0  0  0  0  0  0  0  0  0  0  0  0
  1  2  1  0  0  0  0
  1  7  1  0  0  0  0
  2  3  1  0  0  0  0
  2  4  2  0  0  0  0
  4  5  1  0  0  0  0
  5  6  2  0  0  0  0
  5 11  1  0  0  0  0
  6  7  1  0  0  0  0
  6  9  1  0  0  0  0
  7  8  2  0  0  0  0
  9 10  2  0  0  0  0
  9 12  1  0  0  0  0
 10 11  1  0  0  0  0
 12 13  1  0  0  0  0
M  END
>  <CHROM.1>
-138.20581217,-3.79743952,-34.06640015,-43.36050422,-2.75653264,0.40697174
1.58224036

>  <Name>
ligand

>  <RI>
0

>  <Rbt.Current_Directory>
/home/itssahil/PROJECTS/Mol_Feturizer/Test_systems_manuscript/rnas/3fu2

>  <Rbt.Executable>
rbdock ($Id: //depot/dev/client3/rdock/2013.1/src/exe/rbdock.cxx#4 $)

>  <Rbt.Library>
libRbt.so (2013.1, Build901 2013/11/27)

>  <Rbt.Parameter_File>
/export/apps/rDock/src/rDock_2013.1_src/data/scripts/dock_solv.prm

>  <Rbt.Receptor>
prm/pocket_docking_4.prm

>  <SCORE>
-16.1047

>  <SCORE.INTER>
-15.8062

>  <SCORE.INTER.CONST>
1

>  <SCORE.INTER.POLAR>
0

>  <SCORE.INTER.ROT>
1

>  <SCORE.INTER.SOLV>
20.3646

>  <SCORE.INTER.VDW>
-21.5923

>  <SCORE.INTER.norm>
-1.21586

>  <SCORE.INTRA>
-0.298517

>  <SCORE.INTRA.DIHEDRAL>
-0.000975234

>  <SCORE.INTRA.DIHEDRAL.0>
1.66609

>  <SCORE.INTRA.POLAR>
0

>  <SCORE.INTRA.POLAR.0>
0

>  <SCORE.INTRA.REPUL>
0

>  <SCORE.INTRA.REPUL.0>
0

>  <SCORE.INTRA.SOLV>
-0.990931

>  <SCORE.INTRA.SOLV.lig_0>
-45.868

>  <SCORE.INTRA.VDW>
0.197436

>  <SCORE.INTRA.VDW.0>
-0.397919

>  <SCORE.INTRA.norm>
-0.0229628

>  <SCORE.RESTR>
0

>  <SCORE.RESTR.CAVITY>
0

>  <SCORE.RESTR.norm>
0

>  <SCORE.SYSTEM>
0

>  <SCORE.SYSTEM.CONST>
0

>  <SCORE.SYSTEM.DIHEDRAL>
0

>  <SCORE.SYSTEM.SOLV>
0

>  <SCORE.SYSTEM.norm>
0

>  <SCORE.heavy>
13

>  <SCORE.norm>
-1.23882

>  <RMSD>
1.390

$$$$
ligand
 OpenBabel02271912143D
libRbt.so/2013.1/901 2013/11/27
 13 14  0  0  0  0  0  0  0  0999 V2000
   -5.0311  -34.5601  -45.1667 N   0  0  0  0  0  0  0  0  0  0  0  0
   -5.9301  -35.0510  -44.2581 C   0  0  0  0  0  0  0  0  0  0  0  0
   -7.0815  -35.6319  -44.7152 N   0  0  0  0  0  0  0  0  0  0  0  0
   -5.7033  -34.9741  -42.9464 N   0  0  0  0  0  0  0  0  0  0  0  0
   -4.5684  -34.4019  -42.4575 C   0  0  0  0  0  0  0  0  0  0  0  0
   -3.6140  -33.8784  -43.3570 C   0  0  0  0  0  0  0  0  0  0  0  0
   -3.8738  -33.9736  -44.7511 C   0  0  0  0  0  0  0  0  0  0  0  0
   -3.0851  -33.5433  -45.5558 O   0  0  0  0  0  0  0  0  0  0  0  0
   -2.5299  -33.3370  -42.5437 C   0  0  0  0  0  0  0  0  0  0  0  0
   -2.8637  -33.5549  -41.2593 C   0  0  0  0  0  0  0  0  0  0  0  0
   -4.0849  -34.1930  -41.2014 N   0  0  0  0  0  0  0  0  0  0  0  0
   -1.2828  -32.6577  -43.0490 C   0  0  0  0  0  0  0  0  0  0  0  0
   -0.1302  -33.1072  -42.2421 N   0  0  0  0  0  0  0  0  0  0  0  0
  1  2  1  0  0  0  0
  1  7  1  0  0  0  0
  2  3  1  0  0  0  0
  2  4  2  0  0  0  0
  4  5  1  0  0  0  0
  5  6  2  0  0  0  0
  5 11  1  0  0  0  0
  6  7  1  0  0  0  0
  6  9  1  0  0  0  0
  7  8  2  0  0  0  0
  9 10  2  0  0  0  0
  9 12  1  0  0  0  0
 10 11  1  0  0  0  0
 12 13  1  0  0  0  0
M  END
>  <CHROM.1>
-139.46806107,-3.81552959,-34.06260699,-43.38880321,-2.77410619,0.41551556
1.61060387

>  <Name>
ligand

>  <RI>
0

>  <Rbt.Current_Directory>
/home/itssahil/PROJECTS/Mol_Feturizer/Test_systems_manuscript/rnas/3fu2

>  <Rbt.Executable>
rbdock ($Id: //depot/dev/client3/rdock/2013.1/src/exe/rbdock.cxx#4 $)

>  <Rbt.Library>
libRbt.so (2013.1, Build901 2013/11/27)

>  <Rbt.Parameter_File>
/export/apps/rDock/src/rDock_2013.1_src/data/scripts/dock_solv.prm

>  <Rbt.Receptor>
prm/pocket_docking_7.prm

>  <SCORE>
-16.1226

>  <SCORE.INTER>
-15.8297

>  <SCORE.INTER.CONST>
1

>  <SCORE.INTER.POLAR>
0

>  <SCORE.INTER.ROT>
1

>  <SCORE.INTER.SOLV>
20.3331

>  <SCORE.INTER.VDW>
-21.5975

>  <SCORE.INTER.norm>
-1.21767

>  <SCORE.INTRA>
-0.29288

>  <SCORE.INTRA.DIHEDRAL>
-0.00165726

>  <SCORE.INTRA.DIHEDRAL.0>
1.66609

>  <SCORE.INTRA.POLAR>
0

>  <SCORE.INTRA.POLAR.0>
0

>  <SCORE.INTRA.REPUL>
0

>  <SCORE.INTRA.REPUL.0>
0

>  <SCORE.INTRA.SOLV>
-0.990422

>  <SCORE.INTRA.SOLV.lig_0>
-45.868

>  <SCORE.INTRA.VDW>
0.20316

>  <SCORE.INTRA.VDW.0>
-0.397919

>  <SCORE.INTRA.norm>
-0.0225292

>  <SCORE.RESTR>
0

>  <SCORE.RESTR.CAVITY>
0

>  <SCORE.RESTR.norm>
0

>  <SCORE.SYSTEM>
0

>  <SCORE.SYSTEM.CONST>
0

>  <SCORE.SYSTEM.DIHEDRAL>
0

>  <SCORE.SYSTEM.SOLV>
0

>  <SCORE.SYSTEM.norm>
0

>  <SCORE.heavy>
13

>  <SCORE.norm>
-1.2402

>  <RMSD>
1.390

$$$$
ligand
 OpenBabel02271912143D
libRbt.so/2013.1/901 2013/11/27
 13 14  0  0  0  0  0  0  0  0999 V2000
   -4.9810  -34.5850  -45.1619 N   0  0  0  0  0  0  0  0  0  0  0  0
   -5.8973  -35.0616  -44.2629 C   0  0  0  0  0  0  0  0  0  0  0  0
   -7.0424  -35.6448  -44.7327 N   0  0  0  0  0  0  0  0  0  0  0  0
   -5.6931  -34.9689  -42.9486 N   0  0  0  0  0  0  0  0  0  0  0  0
   -4.5651  -34.3939  -42.4472 C   0  0  0  0  0  0  0  0  0  0  0  0
   -3.5934  -33.8847  -43.3365 C   0  0  0  0  0  0  0  0  0  0  0  0
   -3.8292  -33.9968  -44.7335 C   0  0  0  0  0  0  0  0  0  0  0  0
   -3.0252  -33.5791  -45.5297 O   0  0  0  0  0  0  0  0  0  0  0  0
   -2.5218  -33.3363  -42.5112 C   0  0  0  0  0  0  0  0  0  0  0  0
   -2.8787  -33.5370  -41.2302 C   0  0  0  0  0  0  0  0  0  0  0  0
   -4.1028  -34.1706  -41.1856 N   0  0  0  0  0  0  0  0  0  0  0  0
   -1.2640  -32.6673  -43.0032 C   0  0  0  0  0  0  0  0  0  0  0  0
   -0.1217  -33.1364  -42.1929 N   0  0  0  0  0  0  0  0  0  0  0  0
  1  2  1  0  0  0  0
  1  7  1  0  0  0  0
  2  3  1  0  0  0  0
  2  4  2  0  0  0  0
  4  5  1  0  0  0  0
  5  6  2  0  0  0  0
  5 11  1  0  0  0  0
  6  7  1  0  0  0  0
  6  9  1  0  0  0  0
  7  8  2  0  0  0  0
  9 10  2  0  0  0  0
  9 12  1  0  0  0  0
 10 11  1  0  0  0  0
 12 13  1  0  0  0  0
M  END
>  <CHROM.1>
-138.03680592,-3.79452029,-34.07084750,-43.37121229,-2.75661928,0.41089610
1.58995542

>  <Name>
ligand

>  <RI>
0

>  <Rbt.Current_Directory>
/home/itssahil/PROJECTS/Mol_Feturizer/Test_systems_manuscript/rnas/3fu2

>  <Rbt.Executable>
rbdock ($Id: //depot/dev/client3/rdock/2013.1/src/exe/rbdock.cxx#4 $)

>  <Rbt.Library>
libRbt.so (2013.1, Build901 2013/11/27)

>  <Rbt.Parameter_File>
/export/apps/rDock/src/rDock_2013.1_src/data/scripts/dock_solv.prm

>  <Rbt.Receptor>
prm/blind_docking_100.prm

>  <SCORE>
-16.0907

>  <SCORE.INTER>
-15.7914

>  <SCORE.INTER.CONST>
1

>  <SCORE.INTER.POLAR>
0

>  <SCORE.INTER.ROT>
1

>  <SCORE.INTER.SOLV>
20.3367

>  <SCORE.INTER.VDW>
-21.5732

>  <SCORE.INTER.norm>
-1.21472

>  <SCORE.INTRA>
-0.299262

>  <SCORE.INTRA.DIHEDRAL>
-0.000878912

>  <SCORE.INTRA.DIHEDRAL.0>
1.66609

>  <SCORE.INTRA.POLAR>
0

>  <SCORE.INTRA.POLAR.0>
0

>  <SCORE.INTRA.REPUL>
0

>  <SCORE.INTRA.REPUL.0>
0

>  <SCORE.INTRA.SOLV>
-0.990998

>  <SCORE.INTRA.SOLV.lig_0>
-45.868

>  <SCORE.INTRA.VDW>
0.196677

>  <SCORE.INTRA.VDW.0>
-0.397919

>  <SCORE.INTRA.norm>
-0.0230202

>  <SCORE.RESTR>
0

>  <SCORE.RESTR.CAVITY>
0

>  <SCORE.RESTR.norm>
0

>  <SCORE.SYSTEM>
0

>  <SCORE.SYSTEM.CONST>
0

>  <SCORE.SYSTEM.DIHEDRAL>
0

>  <SCORE.SYSTEM.SOLV>
0

>  <SCORE.SYSTEM.norm>
0

>  <SCORE.heavy>
13

>  <SCORE.norm>
-1.23774

>  <RMSD>
1.391

$$$$
ligand
 OpenBabel02271912143D
libRbt.so/2013.1/901 2013/11/27
 13 14  0  0  0  0  0  0  0  0999 V2000
   -4.9774  -34.5718  -45.1539 N   0  0  0  0  0  0  0  0  0  0  0  0
   -5.9044  -35.0339  -44.2584 C   0  0  0  0  0  0  0  0  0  0  0  0
   -7.0531  -35.6065  -44.7324 N   0  0  0  0  0  0  0  0  0  0  0  0
   -5.7072  -34.9373  -42.9432 N   0  0  0  0  0  0  0  0  0  0  0  0
   -4.5758  -34.3726  -42.4376 C   0  0  0  0  0  0  0  0  0  0  0  0
   -3.5932  -33.8784  -43.3233 C   0  0  0  0  0  0  0  0  0  0  0  0
   -3.8218  -33.9944  -44.7212 C   0  0  0  0  0  0  0  0  0  0  0  0
   -3.0084  -33.5894  -45.5145 O   0  0  0  0  0  0  0  0  0  0  0  0
   -2.5205  -33.3381  -42.4941 C   0  0  0  0  0  0  0  0  0  0  0  0
   -2.8874  -33.5289  -41.2144 C   0  0  0  0  0  0  0  0  0  0  0  0
   -4.1187  -34.1486  -41.1743 N   0  0  0  0  0  0  0  0  0  0  0  0
   -1.2524  -32.6855  -42.9815 C   0  0  0  0  0  0  0  0  0  0  0  0
   -0.1224  -33.1525  -42.1528 N   0  0  0  0  0  0  0  0  0  0  0  0
  1  2  1  0  0  0  0
  1  7  1  0  0  0  0
  2  3  1  0  0  0  0
  2  4  2  0  0  0  0
  4  5  1  0  0  0  0
  5  6  2  0  0  0  0
  5 11  1  0  0  0  0
  6  7  1  0  0  0  0
  6  9  1  0  0  0  0
  7  8  2  0  0  0  0
  9 10  2  0  0  0  0
  9 12  1  0  0  0  0
 10 11  1  0  0  0  0
 12 13  1  0  0  0  0
M  END
>  <CHROM.1>
-138.63166824,-3.79630246,-34.06159120,-43.35768409,-2.74914695,0.40067109
1.58277521

>  <Name>
ligand

>  <RI>
0

>  <Rbt.Current_Directory>
/home/itssahil/PROJECTS/Mol_Feturizer/Test_systems_manuscript/rnas/3fu2

>  <Rbt.Executable>
rbdock ($Id: //depot/dev/client3/rdock/2013.1/src/exe/rbdock.cxx#4 $)

>  <Rbt.Library>
libRbt.so (2013.1, Build901 2013/11/27)

>  <Rbt.Parameter_File>
/export/apps/rDock/src/rDock_2013.1_src/data/scripts/dock_solv.prm

>  <Rbt.Receptor>
prm/blind_docking_80.prm

>  <SCORE>
-16.0861

>  <SCORE.INTER>
-15.7895

>  <SCORE.INTER.CONST>
1

>  <SCORE.INTER.POLAR>
0

>  <SCORE.INTER.ROT>
1

>  <SCORE.INTER.SOLV>
20.3437

>  <SCORE.INTER.VDW>
-21.5742

>  <SCORE.INTER.norm>
-1.21458

>  <SCORE.INTRA>
-0.296628

>  <SCORE.INTRA.DIHEDRAL>
-0.00121276

>  <SCORE.INTRA.DIHEDRAL.0>
1.66609

>  <SCORE.INTRA.POLAR>
0

>  <SCORE.INTRA.POLAR.0>
0

>  <SCORE.INTRA.REPUL>
0

>  <SCORE.INTRA.REPUL.0>
0

>  <SCORE.INTRA.SOLV>
-0.99076

>  <SCORE.INTRA.SOLV.lig_0>
-45.868

>  <SCORE.INTRA.VDW>
0.199358

>  <SCORE.INTRA.VDW.0>
-0.397919

>  <SCORE.INTRA.norm>
-0.0228176

>  <SCORE.RESTR>
0

>  <SCORE.RESTR.CAVITY>
0

>  <SCORE.RESTR.norm>
0

>  <SCORE.SYSTEM>
0

>  <SCORE.SYSTEM.CONST>
0

>  <SCORE.SYSTEM.DIHEDRAL>
0

>  <SCORE.SYSTEM.SOLV>
0

>  <SCORE.SYSTEM.norm>
0

>  <SCORE.heavy>
13

>  <SCORE.norm>
-1.23739

>  <RMSD>
1.395

$$$$
ligand
 OpenBabel02271912143D
libRbt.so/2013.1/901 2013/11/27
 13 14  0  0  0  0  0  0  0  0999 V2000
   -5.5559  -34.8844  -42.9519 N   0  0  0  0  0  0  0  0  0  0  0  0
   -5.8626  -35.0478  -44.2763 C   0  0  0  0  0  0  0  0  0  0  0  0
   -7.0469  -35.6457  -44.6116 N   0  0  0  0  0  0  0  0  0  0  0  0
   -5.0341  -34.6363  -45.2365 N   0  0  0  0  0  0  0  0  0  0  0  0
   -3.8475  -34.0384  -44.9380 C   0  0  0  0  0  0  0  0  0  0  0  0
   -3.4870  -33.8520  -43.5854 C   0  0  0  0  0  0  0  0  0  0  0  0
   -4.3861  -34.2949  -42.5778 C   0  0  0  0  0  0  0  0  0  0  0  0
   -4.1211  -34.1530  -41.4097 O   0  0  0  0  0  0  0  0  0  0  0  0
   -2.1808  -33.2008  -43.5897 C   0  0  0  0  0  0  0  0  0  0  0  0
   -1.8381  -33.0297  -44.8788 C   0  0  0  0  0  0  0  0  0  0  0  0
   -2.8334  -33.5299  -45.6917 N   0  0  0  0  0  0  0  0  0  0  0  0
   -1.3717  -32.8060  -42.3809 C   0  0  0  0  0  0  0  0  0  0  0  0
   -0.4580  -31.7066  -42.7523 N   0  0  0  0  0  0  0  0  0  0  0  0
  1  2  1  0  0  0  0
  1  7  1  0  0  0  0
  2  3  1  0  0  0  0
  2  4  2  0  0  0  0
  4  5  1  0  0  0  0
  5  6  2  0  0  0  0
  5 11  1  0  0  0  0
  6  7  1  0  0  0  0
  6  9  1  0  0  0  0
  7  8  2  0  0  0  0
  9 10  2  0  0  0  0
  9 12  1  0  0  0  0
 10 11  1  0  0  0  0
 12 13  1  0  0  0  0
M  END
>  <CHROM.1>
-155.73449941,-3.70529052,-33.91227369,-43.71777392,2.94589803,-0.50139117
-1.59127520

>  <Name>
ligand

>  <RI>
0

>  <Rbt.Current_Directory>
/home/itssahil/PROJECTS/Mol_Feturizer/Test_systems_manuscript/rnas/3fu2

>  <Rbt.Executable>
rbdock ($Id: //depot/dev/client3/rdock/2013.1/src/exe/rbdock.cxx#4 $)

>  <Rbt.Library>
libRbt.so (2013.1, Build901 2013/11/27)

>  <Rbt.Parameter_File>
/export/apps/rDock/src/rDock_2013.1_src/data/scripts/dock_solv.prm

>  <Rbt.Receptor>
prm/blind_docking_60.prm

>  <SCORE>
-16.3203

>  <SCORE.INTER>
-16.1063

>  <SCORE.INTER.CONST>
1

>  <SCORE.INTER.POLAR>
0

>  <SCORE.INTER.ROT>
1

>  <SCORE.INTER.SOLV>
21.145

>  <SCORE.INTER.VDW>
-22.0525

>  <SCORE.INTER.norm>
-1.23895

>  <SCORE.INTRA>
-0.213954

>  <SCORE.INTRA.DIHEDRAL>
-0.00372691

>  <SCORE.INTRA.DIHEDRAL.0>
1.66609

>  <SCORE.INTRA.POLAR>
0

>  <SCORE.INTRA.POLAR.0>
0

>  <SCORE.INTRA.REPUL>
0

>  <SCORE.INTRA.REPUL.0>
0

>  <SCORE.INTRA.SOLV>
-0.984059

>  <SCORE.INTRA.SOLV.lig_0>
-45.868

>  <SCORE.INTRA.VDW>
0.279939

>  <SCORE.INTRA.VDW.0>
-0.397919

>  <SCORE.INTRA.norm>
-0.016458

>  <SCORE.RESTR>
0

>  <SCORE.RESTR.CAVITY>
0

>  <SCORE.RESTR.norm>
0

>  <SCORE.SYSTEM>
0

>  <SCORE.SYSTEM.CONST>
0

>  <SCORE.SYSTEM.DIHEDRAL>
0

>  <SCORE.SYSTEM.SOLV>
0

>  <SCORE.SYSTEM.norm>
0

>  <SCORE.heavy>
13

>  <SCORE.norm>
-1.2554

>  <RMSD>
2.673

$$$$
ligand
 OpenBabel02271912143D
libRbt.so/2013.1/901 2013/11/27
 13 14  0  0  0  0  0  0  0  0999 V2000
   -1.9436  -33.1291  -43.7518 N   0  0  0  0  0  0  0  0  0  0  0  0
   -3.1149  -33.6386  -43.2587 C   0  0  0  0  0  0  0  0  0  0  0  0
   -4.1078  -33.9810  -44.1357 N   0  0  0  0  0  0  0  0  0  0  0  0
   -3.3018  -33.8066  -41.9492 N   0  0  0  0  0  0  0  0  0  0  0  0
   -2.3351  -33.4757  -41.0490 C   0  0  0  0  0  0  0  0  0  0  0  0
   -1.1117  -32.9430  -41.5111 C   0  0  0  0  0  0  0  0  0  0  0  0
   -0.9319  -32.7753  -42.9109 C   0  0  0  0  0  0  0  0  0  0  0  0
    0.0980  -32.3273  -43.3507 O   0  0  0  0  0  0  0  0  0  0  0  0
   -0.2962  -32.6884  -40.3278 C   0  0  0  0  0  0  0  0  0  0  0  0
   -1.0281  -33.0665  -39.2648 C   0  0  0  0  0  0  0  0  0  0  0  0
   -2.2514  -33.5394  -39.6910 N   0  0  0  0  0  0  0  0  0  0  0  0
    1.0938  -32.1060  -40.3050 C   0  0  0  0  0  0  0  0  0  0  0  0
    2.0771  -33.2077  -40.3375 N   0  0  0  0  0  0  0  0  0  0  0  0
  1  2  1  0  0  0  0
  1  7  1  0  0  0  0
  2  3  1  0  0  0  0
  2  4  2  0  0  0  0
  4  5  1  0  0  0  0
  5  6  2  0  0  0  0
  5 11  1  0  0  0  0
  6  7  1  0  0  0  0
  6  9  1  0  0  0  0
  7  8  2  0  0  0  0
  9 10  2  0  0  0  0
  9 12  1  0  0  0  0
 10 11  1  0  0  0  0
 12 13  1  0  0  0  0
M  END
>  <CHROM.1>
-92.29504714,-1.29237007,-33.12237494,-41.71981577,-2.50551041,0.28063547
1.64956644

>  <Name>
ligand

>  <RI>
0

>  <Rbt.Current_Directory>
/home/itssahil/PROJECTS/Mol_Feturizer/Test_systems_manuscript/rnas/3fu2

>  <Rbt.Executable>
rbdock ($Id: //depot/dev/client3/rdock/2013.1/src/exe/rbdock.cxx#4 $)

>  <Rbt.Library>
libRbt.so (2013.1, Build901 2013/11/27)

>  <Rbt.Parameter_File>
/export/apps/rDock/src/rDock_2013.1_src/data/scripts/dock_solv.prm

>  <Rbt.Receptor>
prm/pocket_docking_7.prm

>  <SCORE>
-13.7196

>  <SCORE.INTER>
-13.5533

>  <SCORE.INTER.CONST>
1

>  <SCORE.INTER.POLAR>
0

>  <SCORE.INTER.ROT>
1

>  <SCORE.INTER.SOLV>
11.4665

>  <SCORE.INTER.VDW>
-17.1243

>  <SCORE.INTER.norm>
-1.04256

>  <SCORE.INTRA>
-0.166355

>  <SCORE.INTRA.DIHEDRAL>
0.032203

>  <SCORE.INTRA.DIHEDRAL.0>
1.66609

>  <SCORE.INTRA.POLAR>
0

>  <SCORE.INTRA.POLAR.0>
0

>  <SCORE.INTRA.REPUL>
0

>  <SCORE.INTRA.REPUL.0>
0

>  <SCORE.INTRA.SOLV>
-0.457356

>  <SCORE.INTRA.SOLV.lig_0>
-45.868

>  <SCORE.INTRA.VDW>
0.0462219

>  <SCORE.INTRA.VDW.0>
-0.397919

>  <SCORE.INTRA.norm>
-0.0127965

>  <SCORE.RESTR>
0

>  <SCORE.RESTR.CAVITY>
0

>  <SCORE.RESTR.norm>
0

>  <SCORE.SYSTEM>
0

>  <SCORE.SYSTEM.CONST>
0

>  <SCORE.SYSTEM.DIHEDRAL>
0

>  <SCORE.SYSTEM.SOLV>
0

>  <SCORE.SYSTEM.norm>
0

>  <SCORE.heavy>
13

>  <SCORE.norm>
-1.05535

>  <RMSD>
2.679

$$$$
ligand
 OpenBabel02271912143D
libRbt.so/2013.1/901 2013/11/27
 13 14  0  0  0  0  0  0  0  0999 V2000
   -1.9276  -33.1232  -43.7595 N   0  0  0  0  0  0  0  0  0  0  0  0
   -3.1252  -33.6081  -43.3062 C   0  0  0  0  0  0  0  0  0  0  0  0
   -4.0982  -33.9215  -44.2157 N   0  0  0  0  0  0  0  0  0  0  0  0
   -3.3564  -33.7799  -42.0043 N   0  0  0  0  0  0  0  0  0  0  0  0
   -2.4105  -33.4775  -41.0725 C   0  0  0  0  0  0  0  0  0  0  0  0
   -1.1612  -32.9709  -41.4929 C   0  0  0  0  0  0  0  0  0  0  0  0
   -0.9343  -32.7986  -42.8853 C   0  0  0  0  0  0  0  0  0  0  0  0
    0.1189  -32.3724  -43.2901 O   0  0  0  0  0  0  0  0  0  0  0  0
   -0.3770  -32.7430  -40.2834 C   0  0  0  0  0  0  0  0  0  0  0  0
   -1.1501  -33.1104  -39.2461 C   0  0  0  0  0  0  0  0  0  0  0  0
   -2.3704  -33.5516  -39.7130 N   0  0  0  0  0  0  0  0  0  0  0  0
    1.0248  -32.1936  -40.2137 C   0  0  0  0  0  0  0  0  0  0  0  0
    1.9849  -33.3069  -40.3565 N   0  0  0  0  0  0  0  0  0  0  0  0
  1  2  1  0  0  0  0
  1  7  1  0  0  0  0
  2  3  1  0  0  0  0
  2  4  2  0  0  0  0
  4  5  1  0  0  0  0
  5  6  2  0  0  0  0
  5 11  1  0  0  0  0
  6  7  1  0  0  0  0
  6  9  1  0  0  0  0
  7  8  2  0  0  0  0
  9 10  2  0  0  0  0
  9 12  1  0  0  0  0
 10 11  1  0  0  0  0
 12 13  1  0  0  0  0
M  END
>  <CHROM.1>
-86.82185804,-1.33933100,-33.14372697,-41.71921994,-2.47975525,0.25764222
1.64203638

>  <Name>
ligand

>  <RI>
0

>  <Rbt.Current_Directory>
/home/itssahil/PROJECTS/Mol_Feturizer/Test_systems_manuscript/rnas/3fu2

>  <Rbt.Executable>
rbdock ($Id: //depot/dev/client3/rdock/2013.1/src/exe/rbdock.cxx#4 $)

>  <Rbt.Library>
libRbt.so (2013.1, Build901 2013/11/27)

>  <Rbt.Parameter_File>
/export/apps/rDock/src/rDock_2013.1_src/data/scripts/dock_solv.prm

>  <Rbt.Receptor>
prm/blind_docking_80.prm

>  <SCORE>
-13.7403

>  <SCORE.INTER>
-13.6377

>  <SCORE.INTER.CONST>
1

>  <SCORE.INTER.POLAR>
0

>  <SCORE.INTER.ROT>
1

>  <SCORE.INTER.SOLV>
11.6314

>  <SCORE.INTER.VDW>
-17.2356

>  <SCORE.INTER.norm>
-1.04905

>  <SCORE.INTRA>
-0.102631

>  <SCORE.INTRA.DIHEDRAL>
0.0320239

>  <SCORE.INTRA.DIHEDRAL.0>
1.66609

>  <SCORE.INTRA.POLAR>
0

>  <SCORE.INTRA.POLAR.0>
0

>  <SCORE.INTRA.REPUL>
0

>  <SCORE.INTRA.REPUL.0>
0

>  <SCORE.INTRA.SOLV>
-0.29784

>  <SCORE.INTRA.SOLV.lig_0>
-45.868

>  <SCORE.INTRA.VDW>
0.0302769

>  <SCORE.INTRA.VDW.0>
-0.397919

>  <SCORE.INTRA.norm>
-0.00789468

>  <SCORE.RESTR>
0

>  <SCORE.RESTR.CAVITY>
0

>  <SCORE.RESTR.norm>
0

>  <SCORE.SYSTEM>
0

>  <SCORE.SYSTEM.CONST>
0

>  <SCORE.SYSTEM.DIHEDRAL>
0

>  <SCORE.SYSTEM.SOLV>
0

>  <SCORE.SYSTEM.norm>
0

>  <SCORE.heavy>
13

>  <SCORE.norm>
-1.05695

>  <RMSD>
2.682

$$$$
ligand
 OpenBabel02271912143D
libRbt.so/2013.1/901 2013/11/27
 13 14  0  0  0  0  0  0  0  0999 V2000
   -5.5353  -34.8376  -42.9570 N   0  0  0  0  0  0  0  0  0  0  0  0
   -5.7902  -35.0035  -44.2920 C   0  0  0  0  0  0  0  0  0  0  0  0
   -6.9625  -35.5978  -44.6722 N   0  0  0  0  0  0  0  0  0  0  0  0
   -4.9228  -34.5976  -45.2198 N   0  0  0  0  0  0  0  0  0  0  0  0
   -3.7467  -34.0033  -44.8763 C   0  0  0  0  0  0  0  0  0  0  0  0
   -3.4390  -33.8146  -43.5110 C   0  0  0  0  0  0  0  0  0  0  0  0
   -4.3789  -34.2514  -42.5385 C   0  0  0  0  0  0  0  0  0  0  0  0
   -4.1597  -34.1074  -41.3612 O   0  0  0  0  0  0  0  0  0  0  0  0
   -2.1313  -33.1683  -43.4654 C   0  0  0  0  0  0  0  0  0  0  0  0
   -1.7373  -33.0019  -44.7404 C   0  0  0  0  0  0  0  0  0  0  0  0
   -2.7017  -33.5006  -45.5907 N   0  0  0  0  0  0  0  0  0  0  0  0
   -1.3689  -32.7733  -42.2266 C   0  0  0  0  0  0  0  0  0  0  0  0
    0.0491  -32.5621  -42.5819 N   0  0  0  0  0  0  0  0  0  0  0  0
  1  2  1  0  0  0  0
  1  7  1  0  0  0  0
  2  3  1  0  0  0  0
  2  4  2  0  0  0  0
  4  5  1  0  0  0  0
  5  6  2  0  0  0  0
  5 11  1  0  0  0  0
  6  7  1  0  0  0  0
  6  9  1  0  0  0  0
  7  8  2  0  0  0  0
  9 10  2  0  0  0  0
  9 12  1  0  0  0  0
 10 11  1  0  0  0  0
 12 13  1  0  0  0  0
M  END
>  <CHROM.1>
161.92230460,-3.61263739,-33.94634844,-43.65311274,2.92019348,-0.42978465
-1.58427232

>  <Name>
ligand

>  <RI>
0

>  <Rbt.Current_Directory>
/home/itssahil/PROJECTS/Mol_Feturizer/Test_systems_manuscript/rnas/3fu2

>  <Rbt.Executable>
rbdock ($Id: //depot/dev/client3/rdock/2013.1/src/exe/rbdock.cxx#4 $)

>  <Rbt.Library>
libRbt.so (2013.1, Build901 2013/11/27)

>  <Rbt.Parameter_File>
/export/apps/rDock/src/rDock_2013.1_src/data/scripts/dock_solv.prm

>  <Rbt.Receptor>
prm/pocket_docking_2.prm

>  <SCORE>
-16.8229

>  <SCORE.INTER>
-16.6729

>  <SCORE.INTER.CONST>
1

>  <SCORE.INTER.POLAR>
0

>  <SCORE.INTER.ROT>
1

>  <SCORE.INTER.SOLV>
20.034

>  <SCORE.INTER.VDW>
-22.0599

>  <SCORE.INTER.norm>
-1.28253

>  <SCORE.INTRA>
-0.150092

>  <SCORE.INTRA.DIHEDRAL>
0.0287233

>  <SCORE.INTRA.DIHEDRAL.0>
1.66609

>  <SCORE.INTRA.POLAR>
0

>  <SCORE.INTRA.POLAR.0>
0

>  <SCORE.INTRA.REPUL>
0

>  <SCORE.INTRA.REPUL.0>
0

>  <SCORE.INTRA.SOLV>
-0.980507

>  <SCORE.INTRA.SOLV.lig_0>
-45.868

>  <SCORE.INTRA.VDW>
0.325799

>  <SCORE.INTRA.VDW.0>
-0.397919

>  <SCORE.INTRA.norm>
-0.0115456

>  <SCORE.RESTR>
0

>  <SCORE.RESTR.CAVITY>
0

>  <SCORE.RESTR.norm>
0

>  <SCORE.SYSTEM>
0

>  <SCORE.SYSTEM.CONST>
0

>  <SCORE.SYSTEM.DIHEDRAL>
0

>  <SCORE.SYSTEM.SOLV>
0

>  <SCORE.SYSTEM.norm>
0

>  <SCORE.heavy>
13

>  <SCORE.norm>
-1.29407

>  <RMSD>
2.682

$$$$
ligand
 OpenBabel02271912143D
libRbt.so/2013.1/901 2013/11/27
 13 14  0  0  0  0  0  0  0  0999 V2000
   -1.9361  -33.1220  -43.7560 N   0  0  0  0  0  0  0  0  0  0  0  0
   -3.1350  -33.6021  -43.3009 C   0  0  0  0  0  0  0  0  0  0  0  0
   -4.1115  -33.9092  -44.2088 N   0  0  0  0  0  0  0  0  0  0  0  0
   -3.3640  -33.7752  -41.9988 N   0  0  0  0  0  0  0  0  0  0  0  0
   -2.4147  -33.4790  -41.0685 C   0  0  0  0  0  0  0  0  0  0  0  0
   -1.1640  -32.9775  -41.4909 C   0  0  0  0  0  0  0  0  0  0  0  0
   -0.9394  -32.8037  -42.8835 C   0  0  0  0  0  0  0  0  0  0  0  0
    0.1149  -32.3816  -43.2898 O   0  0  0  0  0  0  0  0  0  0  0  0
   -0.3760  -32.7555  -40.2826 C   0  0  0  0  0  0  0  0  0  0  0  0
   -1.1484  -33.1213  -39.2443 C   0  0  0  0  0  0  0  0  0  0  0  0
   -2.3718  -33.5559  -39.7093 N   0  0  0  0  0  0  0  0  0  0  0  0
    1.0286  -32.2129  -40.2151 C   0  0  0  0  0  0  0  0  0  0  0  0
    1.9831  -33.3310  -40.3578 N   0  0  0  0  0  0  0  0  0  0  0  0
  1  2  1  0  0  0  0
  1  7  1  0  0  0  0
  2  3  1  0  0  0  0
  2  4  2  0  0  0  0
  4  5  1  0  0  0  0
  5  6  2  0  0  0  0
  5 11  1  0  0  0  0
  6  7  1  0  0  0  0
  6  9  1  0  0  0  0
  7  8  2  0  0  0  0
  9 10  2  0  0  0  0
  9 12  1  0  0  0  0
 10 11  1  0  0  0  0
 12 13  1  0  0  0  0
M  END
>  <CHROM.1>
-87.00328876,-1.34340809,-33.14911948,-41.71670704,-2.48146394,0.25283100
1.64457869

>  <Name>
ligand

>  <RI>
0

>  <Rbt.Current_Directory>
/home/itssahil/PROJECTS/Mol_Feturizer/Test_systems_manuscript/rnas/3fu2

>  <Rbt.Executable>
rbdock ($Id: //depot/dev/client3/rdock/2013.1/src/exe/rbdock.cxx#4 $)

>  <Rbt.Library>
libRbt.so (2013.1, Build901 2013/11/27)

>  <Rbt.Parameter_File>
/export/apps/rDock/src/rDock_2013.1_src/data/scripts/dock_solv.prm

>  <Rbt.Receptor>
prm/pocket_docking_8.prm

>  <SCORE>
-13.7462

>  <SCORE.INTER>
-13.6414

>  <SCORE.INTER.CONST>
1

>  <SCORE.INTER.POLAR>
0

>  <SCORE.INTER.ROT>
1

>  <SCORE.INTER.SOLV>
11.6204

>  <SCORE.INTER.VDW>
-17.2344

>  <SCORE.INTER.norm>
-1.04934

>  <SCORE.INTRA>
-0.10475

>  <SCORE.INTRA.DIHEDRAL>
0.0320539

>  <SCORE.INTRA.DIHEDRAL.0>
1.66609

>  <SCORE.INTRA.POLAR>
0

>  <SCORE.INTRA.POLAR.0>
0

>  <SCORE.INTRA.REPUL>
0

>  <SCORE.INTRA.REPUL.0>
0

>  <SCORE.INTRA.SOLV>
-0.303183

>  <SCORE.INTRA.SOLV.lig_0>
-45.868

>  <SCORE.INTRA.VDW>
0.0308144

>  <SCORE.INTRA.VDW.0>
-0.397919

>  <SCORE.INTRA.norm>
-0.00805771

>  <SCORE.RESTR>
0

>  <SCORE.RESTR.CAVITY>
0

>  <SCORE.RESTR.norm>
0

>  <SCORE.SYSTEM>
0

>  <SCORE.SYSTEM.CONST>
0

>  <SCORE.SYSTEM.DIHEDRAL>
0

>  <SCORE.SYSTEM.SOLV>
0

>  <SCORE.SYSTEM.norm>
0

>  <SCORE.heavy>
13

>  <SCORE.norm>
-1.0574

>  <RMSD>
2.682

$$$$
ligand
 OpenBabel02271912143D
libRbt.so/2013.1/901 2013/11/27
 13 14  0  0  0  0  0  0  0  0999 V2000
   -5.4995  -34.8900  -42.9504 N   0  0  0  0  0  0  0  0  0  0  0  0
   -5.7794  -35.0257  -44.2838 C   0  0  0  0  0  0  0  0  0  0  0  0
   -6.9525  -35.6242  -44.6553 N   0  0  0  0  0  0  0  0  0  0  0  0
   -4.9357  -34.5867  -45.2183 N   0  0  0  0  0  0  0  0  0  0  0  0
   -3.7597  -33.9873  -44.8835 C   0  0  0  0  0  0  0  0  0  0  0  0
   -3.4266  -33.8289  -43.5203 C   0  0  0  0  0  0  0  0  0  0  0  0
   -4.3415  -34.3008  -42.5405 C   0  0  0  0  0  0  0  0  0  0  0  0
   -4.1002  -34.1833  -41.3646 O   0  0  0  0  0  0  0  0  0  0  0  0
   -2.1255  -33.1685  -43.4847 C   0  0  0  0  0  0  0  0  0  0  0  0
   -1.7593  -32.9659  -44.7627 C   0  0  0  0  0  0  0  0  0  0  0  0
   -2.7351  -33.4547  -45.6058 N   0  0  0  0  0  0  0  0  0  0  0  0
   -1.3428  -32.7954  -42.2518 C   0  0  0  0  0  0  0  0  0  0  0  0
    0.0579  -32.5257  -42.6352 N   0  0  0  0  0  0  0  0  0  0  0  0
  1  2  1  0  0  0  0
  1  7  1  0  0  0  0
  2  3  1  0  0  0  0
  2  4  2  0  0  0  0
  4  5  1  0  0  0  0
  5  6  2  0  0  0  0
  5 11  1  0  0  0  0
  6  7  1  0  0  0  0
  6  9  1  0  0  0  0
  7  8  2  0  0  0  0
  9 10  2  0  0  0  0
  9 12  1  0  0  0  0
 10 11  1  0  0  0  0
 12 13  1  0  0  0  0
M  END
>  <CHROM.1>
163.32238044,-3.60211877,-33.95642103,-43.66262834,2.94271300,-0.44342966
-1.55098663

>  <Name>
ligand

>  <RI>
0

>  <Rbt.Current_Directory>
/home/itssahil/PROJECTS/Mol_Feturizer/Test_systems_manuscript/rnas/3fu2

>  <Rbt.Executable>
rbdock ($Id: //depot/dev/client3/rdock/2013.1/src/exe/rbdock.cxx#4 $)

>  <Rbt.Library>
libRbt.so (2013.1, Build901 2013/11/27)

>  <Rbt.Parameter_File>
/export/apps/rDock/src/rDock_2013.1_src/data/scripts/dock_solv.prm

>  <Rbt.Receptor>
prm/pocket_docking_2.prm

>  <SCORE>
-16.7887

>  <SCORE.INTER>
-16.6434

>  <SCORE.INTER.CONST>
1

>  <SCORE.INTER.POLAR>
0

>  <SCORE.INTER.ROT>
1

>  <SCORE.INTER.SOLV>
20.001

>  <SCORE.INTER.VDW>
-22.0293

>  <SCORE.INTER.norm>
-1.28026

>  <SCORE.INTRA>
-0.145349

>  <SCORE.INTRA.DIHEDRAL>
0.0278838

>  <SCORE.INTRA.DIHEDRAL.0>
1.66609

>  <SCORE.INTRA.POLAR>
0

>  <SCORE.INTRA.POLAR.0>
0

>  <SCORE.INTRA.REPUL>
0

>  <SCORE.INTRA.REPUL.0>
0

>  <SCORE.INTRA.SOLV>
-0.980226

>  <SCORE.INTRA.SOLV.lig_0>
-45.868

>  <SCORE.INTRA.VDW>
0.330822

>  <SCORE.INTRA.VDW.0>
-0.397919

>  <SCORE.INTRA.norm>
-0.0111807

>  <SCORE.RESTR>
0

>  <SCORE.RESTR.CAVITY>
0

>  <SCORE.RESTR.norm>
0

>  <SCORE.SYSTEM>
0

>  <SCORE.SYSTEM.CONST>
0

>  <SCORE.SYSTEM.DIHEDRAL>
0

>  <SCORE.SYSTEM.SOLV>
0

>  <SCORE.SYSTEM.norm>
0

>  <SCORE.heavy>
13

>  <SCORE.norm>
-1.29144

>  <RMSD>
2.685

$$$$
ligand
 OpenBabel02271912143D
libRbt.so/2013.1/901 2013/11/27
 13 14  0  0  0  0  0  0  0  0999 V2000
   -5.4320  -34.8911  -42.9240 N   0  0  0  0  0  0  0  0  0  0  0  0
   -5.7608  -35.0240  -44.2465 C   0  0  0  0  0  0  0  0  0  0  0  0
   -6.9459  -35.6235  -44.5759 N   0  0  0  0  0  0  0  0  0  0  0  0
   -4.9529  -34.5813  -45.2104 N   0  0  0  0  0  0  0  0  0  0  0  0
   -3.7662  -33.9808  -44.9178 C   0  0  0  0  0  0  0  0  0  0  0  0
   -3.3832  -33.8252  -43.5675 C   0  0  0  0  0  0  0  0  0  0  0  0
   -4.2606  -34.3010  -42.5557 C   0  0  0  0  0  0  0  0  0  0  0  0
   -3.9762  -34.1861  -41.3892 O   0  0  0  0  0  0  0  0  0  0  0  0
   -2.0828  -33.1628  -43.5782 C   0  0  0  0  0  0  0  0  0  0  0  0
   -1.7644  -32.9565  -44.8684 C   0  0  0  0  0  0  0  0  0  0  0  0
   -2.7698  -33.4448  -45.6762 N   0  0  0  0  0  0  0  0  0  0  0  0
   -1.2556  -32.7914  -42.3743 C   0  0  0  0  0  0  0  0  0  0  0  0
    0.1186  -32.4757  -42.8141 N   0  0  0  0  0  0  0  0  0  0  0  0
  1  2  1  0  0  0  0
  1  7  1  0  0  0  0
  2  3  1  0  0  0  0
  2  4  2  0  0  0  0
  4  5  1  0  0  0  0
  5  6  2  0  0  0  0
  5 11  1  0  0  0  0
  6  7  1  0  0  0  0
  6  9  1  0  0  0  0
  7  8  2  0  0  0  0
  9 10  2  0  0  0  0
  9 12  1  0  0  0  0
 10 11  1  0  0  0  0
 12 13  1  0  0  0  0
M  END
>  <CHROM.1>
165.15381589,-3.56460753,-33.94920657,-43.70399211,2.98404504,-0.44682184
-1.53206088

>  <Name>
ligand

>  <RI>
0

>  <Rbt.Current_Directory>
/home/itssahil/PROJECTS/Mol_Feturizer/Test_systems_manuscript/rnas/3fu2

>  <Rbt.Executable>
rbdock ($Id: //depot/dev/client3/rdock/2013.1/src/exe/rbdock.cxx#4 $)

>  <Rbt.Library>
libRbt.so (2013.1, Build901 2013/11/27)

>  <Rbt.Parameter_File>
/export/apps/rDock/src/rDock_2013.1_src/data/scripts/dock_solv.prm

>  <Rbt.Receptor>
prm/pocket_docking_6.prm

>  <SCORE>
-16.7981

>  <SCORE.INTER>
-16.6585

>  <SCORE.INTER.CONST>
1

>  <SCORE.INTER.POLAR>
0

>  <SCORE.INTER.ROT>
1

>  <SCORE.INTER.SOLV>
20.2707

>  <SCORE.INTER.VDW>
-22.1292

>  <SCORE.INTER.norm>
-1.28142

>  <SCORE.INTRA>
-0.139677

>  <SCORE.INTRA.DIHEDRAL>
0.0266731

>  <SCORE.INTRA.DIHEDRAL.0>
1.66609

>  <SCORE.INTRA.POLAR>
0

>  <SCORE.INTRA.POLAR.0>
0

>  <SCORE.INTRA.REPUL>
0

>  <SCORE.INTRA.REPUL.0>
0

>  <SCORE.INTRA.SOLV>
-0.979895

>  <SCORE.INTRA.SOLV.lig_0>
-45.868

>  <SCORE.INTRA.VDW>
0.336934

>  <SCORE.INTRA.VDW.0>
-0.397919

>  <SCORE.INTRA.norm>
-0.0107444

>  <SCORE.RESTR>
0

>  <SCORE.RESTR.CAVITY>
0

>  <SCORE.RESTR.norm>
0

>  <SCORE.SYSTEM>
0

>  <SCORE.SYSTEM.CONST>
0

>  <SCORE.SYSTEM.DIHEDRAL>
0

>  <SCORE.SYSTEM.SOLV>
0

>  <SCORE.SYSTEM.norm>
0

>  <SCORE.heavy>
13

>  <SCORE.norm>
-1.29217

>  <RMSD>
2.685

$$$$
ligand
 OpenBabel02271912143D
libRbt.so/2013.1/901 2013/11/27
 13 14  0  0  0  0  0  0  0  0999 V2000
   -5.5998  -34.9079  -42.9858 N   0  0  0  0  0  0  0  0  0  0  0  0
   -5.8902  -35.0640  -44.3148 C   0  0  0  0  0  0  0  0  0  0  0  0
   -7.0730  -35.6545  -44.6678 N   0  0  0  0  0  0  0  0  0  0  0  0
   -5.0475  -34.6523  -45.2624 N   0  0  0  0  0  0  0  0  0  0  0  0
   -3.8619  -34.0615  -44.9461 C   0  0  0  0  0  0  0  0  0  0  0  0
   -3.5179  -33.8828  -43.5882 C   0  0  0  0  0  0  0  0  0  0  0  0
   -4.4320  -34.3257  -42.5941 C   0  0  0  0  0  0  0  0  0  0  0  0
   -4.1814  -34.1903  -41.4221 O   0  0  0  0  0  0  0  0  0  0  0  0
   -2.2086  -33.2381  -43.5728 C   0  0  0  0  0  0  0  0  0  0  0  0
   -1.8485  -33.0630  -44.8567 C   0  0  0  0  0  0  0  0  0  0  0  0
   -2.8358  -33.5547  -45.6845 N   0  0  0  0  0  0  0  0  0  0  0  0
   -1.4132  -32.8526  -42.3520 C   0  0  0  0  0  0  0  0  0  0  0  0
   -0.5555  -31.6964  -42.6826 N   0  0  0  0  0  0  0  0  0  0  0  0
  1  2  1  0  0  0  0
  1  7  1  0  0  0  0
  2  3  1  0  0  0  0
  2  4  2  0  0  0  0
  4  5  1  0  0  0  0
  5  6  2  0  0  0  0
  5 11  1  0  0  0  0
  6  7  1  0  0  0  0
  6  9  1  0  0  0  0
  7  8  2  0  0  0  0
  9 10  2  0  0  0  0
  9 12  1  0  0  0  0
 10 11  1  0  0  0  0
 12 13  1  0  0  0  0
M  END
>  <CHROM.1>
-151.95077170,-3.74013863,-33.93661607,-43.72161547,2.92667111,-0.50148731
-1.59706988

>  <Name>
ligand

>  <RI>
0

>  <Rbt.Current_Directory>
/home/itssahil/PROJECTS/Mol_Feturizer/Test_systems_manuscript/rnas/3fu2

>  <Rbt.Executable>
rbdock ($Id: //depot/dev/client3/rdock/2013.1/src/exe/rbdock.cxx#4 $)

>  <Rbt.Library>
libRbt.so (2013.1, Build901 2013/11/27)

>  <Rbt.Parameter_File>
/export/apps/rDock/src/rDock_2013.1_src/data/scripts/dock_solv.prm

>  <Rbt.Receptor>
prm/pocket_docking_2.prm

>  <SCORE>
-16.3155

>  <SCORE.INTER>
-16.083

>  <SCORE.INTER.CONST>
1

>  <SCORE.INTER.POLAR>
0

>  <SCORE.INTER.ROT>
1

>  <SCORE.INTER.SOLV>
21.3161

>  <SCORE.INTER.VDW>
-22.094

>  <SCORE.INTER.norm>
-1.23715

>  <SCORE.INTRA>
-0.23257

>  <SCORE.INTRA.DIHEDRAL>
-0.00441519

>  <SCORE.INTRA.DIHEDRAL.0>
1.66609

>  <SCORE.INTRA.POLAR>
0

>  <SCORE.INTRA.POLAR.0>
0

>  <SCORE.INTRA.REPUL>
0

>  <SCORE.INTRA.REPUL.0>
0

>  <SCORE.INTRA.SOLV>
-0.985439

>  <SCORE.INTRA.SOLV.lig_0>
-45.868

>  <SCORE.INTRA.VDW>
0.262357

>  <SCORE.INTRA.VDW.0>
-0.397919

>  <SCORE.INTRA.norm>
-0.01789

>  <SCORE.RESTR>
0

>  <SCORE.RESTR.CAVITY>
0

>  <SCORE.RESTR.norm>
0

>  <SCORE.SYSTEM>
0

>  <SCORE.SYSTEM.CONST>
0

>  <SCORE.SYSTEM.DIHEDRAL>
0

>  <SCORE.SYSTEM.SOLV>
0

>  <SCORE.SYSTEM.norm>
0

>  <SCORE.heavy>
13

>  <SCORE.norm>
-1.25504

>  <RMSD>
2.686

$$$$
ligand
 OpenBabel02271912143D
libRbt.so/2013.1/901 2013/11/27
 13 14  0  0  0  0  0  0  0  0999 V2000
   -5.4566  -34.8686  -42.9404 N   0  0  0  0  0  0  0  0  0  0  0  0
   -5.7718  -35.0147  -44.2648 C   0  0  0  0  0  0  0  0  0  0  0  0
   -6.9530  -35.6182  -44.6005 N   0  0  0  0  0  0  0  0  0  0  0  0
   -4.9542  -34.5809  -45.2247 N   0  0  0  0  0  0  0  0  0  0  0  0
   -3.7710  -33.9767  -44.9259 C   0  0  0  0  0  0  0  0  0  0  0  0
   -3.4020  -33.8076  -43.5733 C   0  0  0  0  0  0  0  0  0  0  0  0
   -4.2894  -34.2741  -42.5660 C   0  0  0  0  0  0  0  0  0  0  0  0
   -4.0170  -34.1475  -41.3978 O   0  0  0  0  0  0  0  0  0  0  0  0
   -2.1019  -33.1444  -43.5773 C   0  0  0  0  0  0  0  0  0  0  0  0
   -1.7704  -32.9505  -44.8661 C   0  0  0  0  0  0  0  0  0  0  0  0
   -2.7672  -33.4474  -45.6792 N   0  0  0  0  0  0  0  0  0  0  0  0
   -1.2873  -32.7606  -42.3686 C   0  0  0  0  0  0  0  0  0  0  0  0
    0.1014  -32.4885  -42.7915 N   0  0  0  0  0  0  0  0  0  0  0  0
  1  2  1  0  0  0  0
  1  7  1  0  0  0  0
  2  3  1  0  0  0  0
  2  4  2  0  0  0  0
  4  5  1  0  0  0  0
  5  6  2  0  0  0  0
  5 11  1  0  0  0  0
  6  7  1  0  0  0  0
  6  9  1  0  0  0  0
  7  8  2  0  0  0  0
  9 10  2  0  0  0  0
  9 12  1  0  0  0  0
 10 11  1  0  0  0  0
 12 13  1  0  0  0  0
M  END
>  <CHROM.1>
163.42850980,-3.58101427,-33.93632182,-43.70995952,2.97237635,-0.44508872
-1.54566695

>  <Name>
ligand

>  <RI>
0

>  <Rbt.Current_Directory>
/home/itssahil/PROJECTS/Mol_Feturizer/Test_systems_manuscript/rnas/3fu2

>  <Rbt.Executable>
rbdock ($Id: //depot/dev/client3/rdock/2013.1/src/exe/rbdock.cxx#4 $)

>  <Rbt.Library>
libRbt.so (2013.1, Build901 2013/11/27)

>  <Rbt.Parameter_File>
/export/apps/rDock/src/rDock_2013.1_src/data/scripts/dock_solv.prm

>  <Rbt.Receptor>
prm/blind_docking_80.prm

>  <SCORE>
-16.8644

>  <SCORE.INTER>
-16.7194

>  <SCORE.INTER.CONST>
1

>  <SCORE.INTER.POLAR>
0

>  <SCORE.INTER.ROT>
1

>  <SCORE.INTER.SOLV>
20.2627

>  <SCORE.INTER.VDW>
-22.1672

>  <SCORE.INTER.norm>
-1.28611

>  <SCORE.INTRA>
-0.145004

>  <SCORE.INTRA.DIHEDRAL>
0.027817

>  <SCORE.INTRA.DIHEDRAL.0>
1.66609

>  <SCORE.INTRA.POLAR>
0

>  <SCORE.INTRA.POLAR.0>
0

>  <SCORE.INTRA.REPUL>
0

>  <SCORE.INTRA.REPUL.0>
0

>  <SCORE.INTRA.SOLV>
-0.980206

>  <SCORE.INTRA.SOLV.lig_0>
-45.868

>  <SCORE.INTRA.VDW>
0.331191

>  <SCORE.INTRA.VDW.0>
-0.397919

>  <SCORE.INTRA.norm>
-0.0111541

>  <SCORE.RESTR>
0

>  <SCORE.RESTR.CAVITY>
0

>  <SCORE.RESTR.norm>
0

>  <SCORE.SYSTEM>
0

>  <SCORE.SYSTEM.CONST>
0

>  <SCORE.SYSTEM.DIHEDRAL>
0

>  <SCORE.SYSTEM.SOLV>
0

>  <SCORE.SYSTEM.norm>
0

>  <SCORE.heavy>
13

>  <SCORE.norm>
-1.29726

>  <RMSD>
2.687

$$$$
ligand
 OpenBabel02271912143D
libRbt.so/2013.1/901 2013/11/27
 13 14  0  0  0  0  0  0  0  0999 V2000
   -5.5054  -34.8551  -42.9461 N   0  0  0  0  0  0  0  0  0  0  0  0
   -5.7811  -35.0130  -44.2779 C   0  0  0  0  0  0  0  0  0  0  0  0
   -6.9515  -35.6205  -44.6430 N   0  0  0  0  0  0  0  0  0  0  0  0
   -4.9358  -34.5870  -45.2169 N   0  0  0  0  0  0  0  0  0  0  0  0
   -3.7622  -33.9791  -44.8885 C   0  0  0  0  0  0  0  0  0  0  0  0
   -3.4335  -33.7979  -43.5272 C   0  0  0  0  0  0  0  0  0  0  0  0
   -4.3501  -34.2563  -42.5425 C   0  0  0  0  0  0  0  0  0  0  0  0
   -4.1125  -34.1193  -41.3679 O   0  0  0  0  0  0  0  0  0  0  0  0
   -2.1343  -33.1337  -43.4985 C   0  0  0  0  0  0  0  0  0  0  0  0
   -1.7649  -32.9508  -44.7786 C   0  0  0  0  0  0  0  0  0  0  0  0
   -2.7370  -33.4556  -45.6164 N   0  0  0  0  0  0  0  0  0  0  0  0
   -1.3561  -32.7386  -42.2696 C   0  0  0  0  0  0  0  0  0  0  0  0
    0.0727  -32.6174  -42.6239 N   0  0  0  0  0  0  0  0  0  0  0  0
  1  2  1  0  0  0  0
  1  7  1  0  0  0  0
  2  3  1  0  0  0  0
  2  4  2  0  0  0  0
  4  5  1  0  0  0  0
  5  6  2  0  0  0  0
  5 11  1  0  0  0  0
  6  7  1  0  0  0  0
  6  9  1  0  0  0  0
  7  8  2  0  0  0  0
  9 10  2  0  0  0  0
  9 12  1  0  0  0  0
 10 11  1  0  0  0  0
 12 13  1  0  0  0  0
M  END
>  <CHROM.1>
157.10846836,-3.60608375,-33.94005063,-43.66549953,2.93780642,-0.43670261
-1.56385600

>  <Name>
ligand

>  <RI>
0

>  <Rbt.Current_Directory>
/home/itssahil/PROJECTS/Mol_Feturizer/Test_systems_manuscript/rnas/3fu2

>  <Rbt.Executable>
rbdock ($Id: //depot/dev/client3/rdock/2013.1/src/exe/rbdock.cxx#4 $)

>  <Rbt.Library>
libRbt.so (2013.1, Build901 2013/11/27)

>  <Rbt.Parameter_File>
/export/apps/rDock/src/rDock_2013.1_src/data/scripts/dock_solv.prm

>  <Rbt.Receptor>
prm/blind_docking_60.prm

>  <SCORE>
-16.872

>  <SCORE.INTER>
-16.7033

>  <SCORE.INTER.CONST>
1

>  <SCORE.INTER.POLAR>
0

>  <SCORE.INTER.ROT>
1

>  <SCORE.INTER.SOLV>
20.1

>  <SCORE.INTER.VDW>
-22.1022

>  <SCORE.INTER.norm>
-1.28487

>  <SCORE.INTRA>
-0.168703

>  <SCORE.INTRA.DIHEDRAL>
0.0309783

>  <SCORE.INTRA.DIHEDRAL.0>
1.66609

>  <SCORE.INTRA.POLAR>
0

>  <SCORE.INTRA.POLAR.0>
0

>  <SCORE.INTRA.REPUL>
0

>  <SCORE.INTRA.REPUL.0>
0

>  <SCORE.INTRA.SOLV>
-0.98164

>  <SCORE.INTRA.SOLV.lig_0>
-45.868

>  <SCORE.INTRA.VDW>
0.306628

>  <SCORE.INTRA.VDW.0>
-0.397919

>  <SCORE.INTRA.norm>
-0.0129772

>  <SCORE.RESTR>
0

>  <SCORE.RESTR.CAVITY>
0

>  <SCORE.RESTR.norm>
0

>  <SCORE.SYSTEM>
0

>  <SCORE.SYSTEM.CONST>
0

>  <SCORE.SYSTEM.DIHEDRAL>
0

>  <SCORE.SYSTEM.SOLV>
0

>  <SCORE.SYSTEM.norm>
0

>  <SCORE.heavy>
13

>  <SCORE.norm>
-1.29785

>  <RMSD>
2.689

$$$$
ligand
 OpenBabel02271912143D
libRbt.so/2013.1/901 2013/11/27
 13 14  0  0  0  0  0  0  0  0999 V2000
   -5.4723  -34.8508  -42.9491 N   0  0  0  0  0  0  0  0  0  0  0  0
   -5.7818  -35.0137  -44.2729 C   0  0  0  0  0  0  0  0  0  0  0  0
   -6.9632  -35.6183  -44.6059 N   0  0  0  0  0  0  0  0  0  0  0  0
   -4.9587  -34.5950  -45.2347 N   0  0  0  0  0  0  0  0  0  0  0  0
   -3.7751  -33.9902  -44.9385 C   0  0  0  0  0  0  0  0  0  0  0  0
   -3.4118  -33.8041  -43.5866 C   0  0  0  0  0  0  0  0  0  0  0  0
   -4.3051  -34.2546  -42.5773 C   0  0  0  0  0  0  0  0  0  0  0  0
   -4.0377  -34.1133  -41.4096 O   0  0  0  0  0  0  0  0  0  0  0  0
   -2.1098  -33.1447  -43.5934 C   0  0  0  0  0  0  0  0  0  0  0  0
   -1.7719  -32.9689  -44.8832 C   0  0  0  0  0  0  0  0  0  0  0  0
   -2.7664  -33.4738  -45.6942 N   0  0  0  0  0  0  0  0  0  0  0  0
   -1.2997  -32.7471  -42.3862 C   0  0  0  0  0  0  0  0  0  0  0  0
    0.0874  -32.4668  -42.8093 N   0  0  0  0  0  0  0  0  0  0  0  0
  1  2  1  0  0  0  0
  1  7  1  0  0  0  0
  2  3  1  0  0  0  0
  2  4  2  0  0  0  0
  4  5  1  0  0  0  0
  5  6  2  0  0  0  0
  5 11  1  0  0  0  0
  6  7  1  0  0  0  0
  6  9  1  0  0  0  0
  7  8  2  0  0  0  0
  9 10  2  0  0  0  0
  9 12  1  0  0  0  0
 10 11  1  0  0  0  0
 12 13  1  0  0  0  0
M  END
>  <CHROM.1>
164.18889015,-3.59092698,-33.93270817,-43.72261863,2.96741414,-0.44352591
-1.56168014

>  <Name>
ligand

>  <RI>
0

>  <Rbt.Current_Directory>
/home/itssahil/PROJECTS/Mol_Feturizer/Test_systems_manuscript/rnas/3fu2

>  <Rbt.Executable>
rbdock ($Id: //depot/dev/client3/rdock/2013.1/src/exe/rbdock.cxx#4 $)

>  <Rbt.Library>
libRbt.so (2013.1, Build901 2013/11/27)

>  <Rbt.Parameter_File>
/export/apps/rDock/src/rDock_2013.1_src/data/scripts/dock_solv.prm

>  <Rbt.Receptor>
prm/blind_docking_80.prm

>  <SCORE>
-16.8784

>  <SCORE.INTER>
-16.7358

>  <SCORE.INTER.CONST>
1

>  <SCORE.INTER.POLAR>
0

>  <SCORE.INTER.ROT>
1

>  <SCORE.INTER.SOLV>
20.3013

>  <SCORE.INTER.VDW>
-22.191

>  <SCORE.INTER.norm>
-1.28737

>  <SCORE.INTRA>
-0.142587

>  <SCORE.INTRA.DIHEDRAL>
0.0273263

>  <SCORE.INTRA.DIHEDRAL.0>
1.66609

>  <SCORE.INTRA.POLAR>
0

>  <SCORE.INTRA.POLAR.0>
0

>  <SCORE.INTRA.REPUL>
0

>  <SCORE.INTRA.REPUL.0>
0

>  <SCORE.INTRA.SOLV>
-0.980064

>  <SCORE.INTRA.SOLV.lig_0>
-45.868

>  <SCORE.INTRA.VDW>
0.333782

>  <SCORE.INTRA.VDW.0>
-0.397919

>  <SCORE.INTRA.norm>
-0.0109683

>  <SCORE.RESTR>
0

>  <SCORE.RESTR.CAVITY>
0

>  <SCORE.RESTR.norm>
0

>  <SCORE.SYSTEM>
0

>  <SCORE.SYSTEM.CONST>
0

>  <SCORE.SYSTEM.DIHEDRAL>
0

>  <SCORE.SYSTEM.SOLV>
0

>  <SCORE.SYSTEM.norm>
0

>  <SCORE.heavy>
13

>  <SCORE.norm>
-1.29834

>  <RMSD>
2.689

$$$$
ligand
 OpenBabel02271912143D
libRbt.so/2013.1/901 2013/11/27
 13 14  0  0  0  0  0  0  0  0999 V2000
   -5.4391  -34.8100  -42.9767 N   0  0  0  0  0  0  0  0  0  0  0  0
   -5.7446  -35.0225  -44.2944 C   0  0  0  0  0  0  0  0  0  0  0  0
   -6.9078  -35.6720  -44.6067 N   0  0  0  0  0  0  0  0  0  0  0  0
   -4.9351  -34.6093  -45.2699 N   0  0  0  0  0  0  0  0  0  0  0  0
   -3.7698  -33.9607  -44.9944 C   0  0  0  0  0  0  0  0  0  0  0  0
   -3.4111  -33.7225  -43.6494 C   0  0  0  0  0  0  0  0  0  0  0  0
   -4.2899  -34.1682  -42.6252 C   0  0  0  0  0  0  0  0  0  0  0  0
   -4.0259  -33.9833  -41.4629 O   0  0  0  0  0  0  0  0  0  0  0  0
   -2.1294  -33.0252  -43.6786 C   0  0  0  0  0  0  0  0  0  0  0  0
   -1.7978  -32.8791  -44.9737 C   0  0  0  0  0  0  0  0  0  0  0  0
   -2.7775  -33.4380  -45.7672 N   0  0  0  0  0  0  0  0  0  0  0  0
   -1.3305  -32.5669  -42.4855 C   0  0  0  0  0  0  0  0  0  0  0  0
    0.0819  -32.4049  -42.8862 N   0  0  0  0  0  0  0  0  0  0  0  0
  1  2  1  0  0  0  0
  1  7  1  0  0  0  0
  2  3  1  0  0  0  0
  2  4  2  0  0  0  0
  4  5  1  0  0  0  0
  5  6  2  0  0  0  0
  5 11  1  0  0  0  0
  6  7  1  0  0  0  0
  6  9  1  0  0  0  0
  7  8  2  0  0  0  0
  9 10  2  0  0  0  0
  9 12  1  0  0  0  0
 10 11  1  0  0  0  0
 12 13  1  0  0  0  0
M  END
>  <CHROM.1>
157.86948053,-3.58364960,-33.87243083,-43.77841430,2.96691318,-0.46358335
-1.58743095

>  <Name>
ligand

>  <RI>
0

>  <Rbt.Current_Directory>
/home/itssahil/PROJECTS/Mol_Feturizer/Test_systems_manuscript/rnas/3fu2

>  <Rbt.Executable>
rbdock ($Id: //depot/dev/client3/rdock/2013.1/src/exe/rbdock.cxx#4 $)

>  <Rbt.Library>
libRbt.so (2013.1, Build901 2013/11/27)

>  <Rbt.Parameter_File>
/export/apps/rDock/src/rDock_2013.1_src/data/scripts/dock_solv.prm

>  <Rbt.Receptor>
prm/pocket_docking_2.prm

>  <SCORE>
-16.8667

>  <SCORE.INTER>
-16.7012

>  <SCORE.INTER.CONST>
1

>  <SCORE.INTER.POLAR>
0

>  <SCORE.INTER.ROT>
1

>  <SCORE.INTER.SOLV>
20.4242

>  <SCORE.INTER.VDW>
-22.2089

>  <SCORE.INTER.norm>
-1.28471

>  <SCORE.INTRA>
-0.165552

>  <SCORE.INTRA.DIHEDRAL>
0.0306907

>  <SCORE.INTRA.DIHEDRAL.0>
1.66609

>  <SCORE.INTRA.POLAR>
0

>  <SCORE.INTRA.POLAR.0>
0

>  <SCORE.INTRA.REPUL>
0

>  <SCORE.INTRA.REPUL.0>
0

>  <SCORE.INTRA.SOLV>
-0.981445

>  <SCORE.INTRA.SOLV.lig_0>
-45.868

>  <SCORE.INTRA.VDW>
0.309825

>  <SCORE.INTRA.VDW.0>
-0.397919

>  <SCORE.INTRA.norm>
-0.0127348

>  <SCORE.RESTR>
0

>  <SCORE.RESTR.CAVITY>
0

>  <SCORE.RESTR.norm>
0

>  <SCORE.SYSTEM>
0

>  <SCORE.SYSTEM.CONST>
0

>  <SCORE.SYSTEM.DIHEDRAL>
0

>  <SCORE.SYSTEM.SOLV>
0

>  <SCORE.SYSTEM.norm>
0

>  <SCORE.heavy>
13

>  <SCORE.norm>
-1.29744

>  <RMSD>
2.689

$$$$
ligand
 OpenBabel02271912143D
libRbt.so/2013.1/901 2013/11/27
 13 14  0  0  0  0  0  0  0  0999 V2000
   -5.4562  -34.7910  -42.9675 N   0  0  0  0  0  0  0  0  0  0  0  0
   -5.7620  -35.0111  -44.2839 C   0  0  0  0  0  0  0  0  0  0  0  0
   -6.9287  -35.6560  -44.5925 N   0  0  0  0  0  0  0  0  0  0  0  0
   -4.9493  -34.6096  -45.2617 N   0  0  0  0  0  0  0  0  0  0  0  0
   -3.7805  -33.9659  -44.9899 C   0  0  0  0  0  0  0  0  0  0  0  0
   -3.4215  -33.7201  -43.6464 C   0  0  0  0  0  0  0  0  0  0  0  0
   -4.3036  -34.1534  -42.6197 C   0  0  0  0  0  0  0  0  0  0  0  0
   -4.0394  -33.9616  -41.4586 O   0  0  0  0  0  0  0  0  0  0  0  0
   -2.1357  -33.0305  -43.6796 C   0  0  0  0  0  0  0  0  0  0  0  0
   -1.8023  -32.8956  -44.9754 C   0  0  0  0  0  0  0  0  0  0  0  0
   -2.7846  -33.4545  -45.7657 N   0  0  0  0  0  0  0  0  0  0  0  0
   -1.3351  -32.5682  -42.4892 C   0  0  0  0  0  0  0  0  0  0  0  0
    0.0743  -32.3952  -42.8957 N   0  0  0  0  0  0  0  0  0  0  0  0
  1  2  1  0  0  0  0
  1  7  1  0  0  0  0
  2  3  1  0  0  0  0
  2  4  2  0  0  0  0
  4  5  1  0  0  0  0
  5  6  2  0  0  0  0
  5 11  1  0  0  0  0
  6  7  1  0  0  0  0
  6  9  1  0  0  0  0
  7  8  2  0  0  0  0
  9 10  2  0  0  0  0
  9 12  1  0  0  0  0
 10 11  1  0  0  0  0
 12 13  1  0  0  0  0
M  END
>  <CHROM.1>
158.82614932,-3.59512951,-33.86814061,-43.77493451,2.96651261,-0.45919486
-1.59561953

>  <Name>
ligand

>  <RI>
0

>  <Rbt.Current_Directory>
/home/itssahil/PROJECTS/Mol_Feturizer/Test_systems_manuscript/rnas/3fu2

>  <Rbt.Executable>
rbdock ($Id: //depot/dev/client3/rdock/2013.1/src/exe/rbdock.cxx#4 $)

>  <Rbt.Library>
libRbt.so (2013.1, Build901 2013/11/27)

>  <Rbt.Parameter_File>
/export/apps/rDock/src/rDock_2013.1_src/data/scripts/dock_solv.prm

>  <Rbt.Receptor>
prm/pocket_docking_6.prm

>  <SCORE>
-16.8963

>  <SCORE.INTER>
-16.7346

>  <SCORE.INTER.CONST>
1

>  <SCORE.INTER.POLAR>
0

>  <SCORE.INTER.ROT>
1

>  <SCORE.INTER.SOLV>
20.4763

>  <SCORE.INTER.VDW>
-22.2485

>  <SCORE.INTER.norm>
-1.28727

>  <SCORE.INTRA>
-0.161693

>  <SCORE.INTRA.DIHEDRAL>
0.0302914

>  <SCORE.INTRA.DIHEDRAL.0>
1.66609

>  <SCORE.INTRA.POLAR>
0

>  <SCORE.INTRA.POLAR.0>
0

>  <SCORE.INTRA.REPUL>
0

>  <SCORE.INTRA.REPUL.0>
0

>  <SCORE.INTRA.SOLV>
-0.981208

>  <SCORE.INTRA.SOLV.lig_0>
-45.868

>  <SCORE.INTRA.VDW>
0.313765

>  <SCORE.INTRA.VDW.0>
-0.397919

>  <SCORE.INTRA.norm>
-0.0124379

>  <SCORE.RESTR>
0

>  <SCORE.RESTR.CAVITY>
0

>  <SCORE.RESTR.norm>
0

>  <SCORE.SYSTEM>
0

>  <SCORE.SYSTEM.CONST>
0

>  <SCORE.SYSTEM.DIHEDRAL>
0

>  <SCORE.SYSTEM.SOLV>
0

>  <SCORE.SYSTEM.norm>
0

>  <SCORE.heavy>
13

>  <SCORE.norm>
-1.29971

>  <RMSD>
2.689

$$$$
ligand
 OpenBabel02271912143D
libRbt.so/2013.1/901 2013/11/27
 13 14  0  0  0  0  0  0  0  0999 V2000
   -5.4446  -34.7942  -42.9639 N   0  0  0  0  0  0  0  0  0  0  0  0
   -5.7610  -35.0062  -44.2791 C   0  0  0  0  0  0  0  0  0  0  0  0
   -6.9330  -35.6438  -44.5825 N   0  0  0  0  0  0  0  0  0  0  0  0
   -4.9534  -34.6038  -45.2608 N   0  0  0  0  0  0  0  0  0  0  0  0
   -3.7794  -33.9672  -44.9943 C   0  0  0  0  0  0  0  0  0  0  0  0
   -3.4095  -33.7300  -43.6522 C   0  0  0  0  0  0  0  0  0  0  0  0
   -4.2864  -34.1640  -42.6213 C   0  0  0  0  0  0  0  0  0  0  0  0
   -4.0128  -33.9794  -41.4612 O   0  0  0  0  0  0  0  0  0  0  0  0
   -2.1206  -33.0465  -43.6912 C   0  0  0  0  0  0  0  0  0  0  0  0
   -1.7959  -32.9068  -44.9888 C   0  0  0  0  0  0  0  0  0  0  0  0
   -2.7866  -33.4569  -45.7747 N   0  0  0  0  0  0  0  0  0  0  0  0
   -1.3091  -32.5942  -42.5043 C   0  0  0  0  0  0  0  0  0  0  0  0
    0.0901  -32.3869  -42.9296 N   0  0  0  0  0  0  0  0  0  0  0  0
  1  2  1  0  0  0  0
  1  7  1  0  0  0  0
  2  3  1  0  0  0  0
  2  4  2  0  0  0  0
  4  5  1  0  0  0  0
  5  6  2  0  0  0  0
  5 11  1  0  0  0  0
  6  7  1  0  0  0  0
  6  9  1  0  0  0  0
  7  8  2  0  0  0  0
  9 10  2  0  0  0  0
  9 12  1  0  0  0  0
 10 11  1  0  0  0  0
 12 13  1  0  0  0  0
M  END
>  <CHROM.1>
160.50803319,-3.58548820,-33.87330549,-43.78096400,2.97519044,-0.45696997
-1.58819646

>  <Name>
ligand

>  <RI>
0

>  <Rbt.Current_Directory>
/home/itssahil/PROJECTS/Mol_Feturizer/Test_systems_manuscript/rnas/3fu2

>  <Rbt.Executable>
rbdock ($Id: //depot/dev/client3/rdock/2013.1/src/exe/rbdock.cxx#4 $)

>  <Rbt.Library>
libRbt.so (2013.1, Build901 2013/11/27)

>  <Rbt.Parameter_File>
/export/apps/rDock/src/rDock_2013.1_src/data/scripts/dock_solv.prm

>  <Rbt.Receptor>
prm/pocket_docking_7.prm

>  <SCORE>
-16.8908

>  <SCORE.INTER>
-16.7356

>  <SCORE.INTER.CONST>
1

>  <SCORE.INTER.POLAR>
0

>  <SCORE.INTER.ROT>
1

>  <SCORE.INTER.SOLV>
20.5307

>  <SCORE.INTER.VDW>
-22.2673

>  <SCORE.INTER.norm>
-1.28735

>  <SCORE.INTRA>
-0.155213

>  <SCORE.INTRA.DIHEDRAL>
0.0294905

>  <SCORE.INTRA.DIHEDRAL.0>
1.66609

>  <SCORE.INTRA.POLAR>
0

>  <SCORE.INTRA.POLAR.0>
0

>  <SCORE.INTRA.REPUL>
0

>  <SCORE.INTRA.REPUL.0>
0

>  <SCORE.INTRA.SOLV>
-0.980814

>  <SCORE.INTRA.SOLV.lig_0>
-45.868

>  <SCORE.INTRA.VDW>
0.320449

>  <SCORE.INTRA.VDW.0>
-0.397919

>  <SCORE.INTRA.norm>
-0.0119394

>  <SCORE.RESTR>
0

>  <SCORE.RESTR.CAVITY>
0

>  <SCORE.RESTR.norm>
0

>  <SCORE.SYSTEM>
0

>  <SCORE.SYSTEM.CONST>
0

>  <SCORE.SYSTEM.DIHEDRAL>
0

>  <SCORE.SYSTEM.SOLV>
0

>  <SCORE.SYSTEM.norm>
0

>  <SCORE.heavy>
13

>  <SCORE.norm>
-1.29929

>  <RMSD>
2.689

$$$$
ligand
 OpenBabel02271912143D
libRbt.so/2013.1/901 2013/11/27
 13 14  0  0  0  0  0  0  0  0999 V2000
   -5.5675  -34.9757  -42.9707 N   0  0  0  0  0  0  0  0  0  0  0  0
   -5.8778  -35.0769  -44.3004 C   0  0  0  0  0  0  0  0  0  0  0  0
   -7.0652  -35.6539  -44.6600 N   0  0  0  0  0  0  0  0  0  0  0  0
   -5.0498  -34.6248  -45.2427 N   0  0  0  0  0  0  0  0  0  0  0  0
   -3.8601  -34.0460  -44.9199 C   0  0  0  0  0  0  0  0  0  0  0  0
   -3.4958  -33.9234  -43.5610 C   0  0  0  0  0  0  0  0  0  0  0  0
   -4.3945  -34.4087  -42.5727 C   0  0  0  0  0  0  0  0  0  0  0  0
   -4.1263  -34.3217  -41.3999 O   0  0  0  0  0  0  0  0  0  0  0  0
   -2.1870  -33.2780  -43.5385 C   0  0  0  0  0  0  0  0  0  0  0  0
   -1.8465  -33.0490  -44.8192 C   0  0  0  0  0  0  0  0  0  0  0  0
   -2.8456  -33.5073  -45.6518 N   0  0  0  0  0  0  0  0  0  0  0  0
   -1.3736  -32.9424  -42.3147 C   0  0  0  0  0  0  0  0  0  0  0  0
   -0.4582  -31.8288  -42.6366 N   0  0  0  0  0  0  0  0  0  0  0  0
  1  2  1  0  0  0  0
  1  7  1  0  0  0  0
  2  3  1  0  0  0  0
  2  4  2  0  0  0  0
  4  5  1  0  0  0  0
  5  6  2  0  0  0  0
  5 11  1  0  0  0  0
  6  7  1  0  0  0  0
  6  9  1  0  0  0  0
  7  8  2  0  0  0  0
  9 10  2  0  0  0  0
  9 12  1  0  0  0  0
 10 11  1  0  0  0  0
 12 13  1  0  0  0  0
M  END
>  <CHROM.1>
-155.62211587,-3.71481670,-33.97655952,-43.69539283,2.94839124,-0.49754186
-1.54408259

>  <Name>
ligand

>  <RI>
0

>  <Rbt.Current_Directory>
/home/itssahil/PROJECTS/Mol_Feturizer/Test_systems_manuscript/rnas/3fu2

>  <Rbt.Executable>
rbdock ($Id: //depot/dev/client3/rdock/2013.1/src/exe/rbdock.cxx#4 $)

>  <Rbt.Library>
libRbt.so (2013.1, Build901 2013/11/27)

>  <Rbt.Parameter_File>
/export/apps/rDock/src/rDock_2013.1_src/data/scripts/dock_solv.prm

>  <Rbt.Receptor>
prm/blind_docking_60.prm

>  <SCORE>
-16.3154

>  <SCORE.INTER>
-16.1009

>  <SCORE.INTER.CONST>
1

>  <SCORE.INTER.POLAR>
0

>  <SCORE.INTER.ROT>
1

>  <SCORE.INTER.SOLV>
20.9936

>  <SCORE.INTER.VDW>
-21.9985

>  <SCORE.INTER.norm>
-1.23853

>  <SCORE.INTRA>
-0.214499

>  <SCORE.INTRA.DIHEDRAL>
-0.00375749

>  <SCORE.INTRA.DIHEDRAL.0>
1.66609

>  <SCORE.INTRA.POLAR>
0

>  <SCORE.INTRA.POLAR.0>
0

>  <SCORE.INTRA.REPUL>
0

>  <SCORE.INTRA.REPUL.0>
0

>  <SCORE.INTRA.SOLV>
-0.984098

>  <SCORE.INTRA.SOLV.lig_0>
-45.868

>  <SCORE.INTRA.VDW>
0.279429

>  <SCORE.INTRA.VDW.0>
-0.397919

>  <SCORE.INTRA.norm>
-0.0164999

>  <SCORE.RESTR>
0

>  <SCORE.RESTR.CAVITY>
0

>  <SCORE.RESTR.norm>
0

>  <SCORE.SYSTEM>
0

>  <SCORE.SYSTEM.CONST>
0

>  <SCORE.SYSTEM.DIHEDRAL>
0

>  <SCORE.SYSTEM.SOLV>
0

>  <SCORE.SYSTEM.norm>
0

>  <SCORE.heavy>
13

>  <SCORE.norm>
-1.25503

>  <RMSD>
2.690

$$$$
ligand
 OpenBabel02271912143D
libRbt.so/2013.1/901 2013/11/27
 13 14  0  0  0  0  0  0  0  0999 V2000
   -5.4481  -34.7927  -42.9696 N   0  0  0  0  0  0  0  0  0  0  0  0
   -5.7647  -34.9996  -44.2855 C   0  0  0  0  0  0  0  0  0  0  0  0
   -6.9384  -35.6330  -44.5912 N   0  0  0  0  0  0  0  0  0  0  0  0
   -4.9557  -34.5963  -45.2657 N   0  0  0  0  0  0  0  0  0  0  0  0
   -3.7801  -33.9639  -44.9968 C   0  0  0  0  0  0  0  0  0  0  0  0
   -3.4099  -33.7320  -43.6539 C   0  0  0  0  0  0  0  0  0  0  0  0
   -4.2882  -34.1669  -42.6246 C   0  0  0  0  0  0  0  0  0  0  0  0
   -4.0144  -33.9868  -41.4639 O   0  0  0  0  0  0  0  0  0  0  0  0
   -2.1190  -33.0521  -43.6904 C   0  0  0  0  0  0  0  0  0  0  0  0
   -1.7936  -32.9091  -44.9874 C   0  0  0  0  0  0  0  0  0  0  0  0
   -2.7856  -33.4538  -45.7753 N   0  0  0  0  0  0  0  0  0  0  0  0
   -1.3066  -32.6059  -42.5018 C   0  0  0  0  0  0  0  0  0  0  0  0
    0.0914  -32.3925  -42.9280 N   0  0  0  0  0  0  0  0  0  0  0  0
  1  2  1  0  0  0  0
  1  7  1  0  0  0  0
  2  3  1  0  0  0  0
  2  4  2  0  0  0  0
  4  5  1  0  0  0  0
  5  6  2  0  0  0  0
  5 11  1  0  0  0  0
  6  7  1  0  0  0  0
  6  9  1  0  0  0  0
  7  8  2  0  0  0  0
  9 10  2  0  0  0  0
  9 12  1  0  0  0  0
 10 11  1  0  0  0  0
 12 13  1  0  0  0  0
M  END
>  <CHROM.1>
160.88087142,-3.58631707,-33.87373448,-43.78330041,2.97505836,-0.45472868
-1.58532685

>  <Name>
ligand

>  <RI>
0

>  <Rbt.Current_Directory>
/home/itssahil/PROJECTS/Mol_Feturizer/Test_systems_manuscript/rnas/3fu2

>  <Rbt.Executable>
rbdock ($Id: //depot/dev/client3/rdock/2013.1/src/exe/rbdock.cxx#4 $)

>  <Rbt.Library>
libRbt.so (2013.1, Build901 2013/11/27)

>  <Rbt.Parameter_File>
/export/apps/rDock/src/rDock_2013.1_src/data/scripts/dock_solv.prm

>  <Rbt.Receptor>
prm/pocket_docking_2.prm

>  <SCORE>
-16.8929

>  <SCORE.INTER>
-16.7391

>  <SCORE.INTER.CONST>
1

>  <SCORE.INTER.POLAR>
0

>  <SCORE.INTER.ROT>
1

>  <SCORE.INTER.SOLV>
20.5275

>  <SCORE.INTER.VDW>
-22.2685

>  <SCORE.INTER.norm>
-1.28762

>  <SCORE.INTRA>
-0.153832

>  <SCORE.INTRA.DIHEDRAL>
0.0292964

>  <SCORE.INTRA.DIHEDRAL.0>
1.66609

>  <SCORE.INTRA.POLAR>
0

>  <SCORE.INTRA.POLAR.0>
0

>  <SCORE.INTRA.REPUL>
0

>  <SCORE.INTRA.REPUL.0>
0

>  <SCORE.INTRA.SOLV>
-0.980731

>  <SCORE.INTRA.SOLV.lig_0>
-45.868

>  <SCORE.INTRA.VDW>
0.321885

>  <SCORE.INTRA.VDW.0>
-0.397919

>  <SCORE.INTRA.norm>
-0.0118332

>  <SCORE.RESTR>
0

>  <SCORE.RESTR.CAVITY>
0

>  <SCORE.RESTR.norm>
0

>  <SCORE.SYSTEM>
0

>  <SCORE.SYSTEM.CONST>
0

>  <SCORE.SYSTEM.DIHEDRAL>
0

>  <SCORE.SYSTEM.SOLV>
0

>  <SCORE.SYSTEM.norm>
0

>  <SCORE.heavy>
13

>  <SCORE.norm>
-1.29945

>  <RMSD>
2.690

$$$$
ligand
 OpenBabel02271912143D
libRbt.so/2013.1/901 2013/11/27
 13 14  0  0  0  0  0  0  0  0999 V2000
   -5.5105  -34.8748  -42.9267 N   0  0  0  0  0  0  0  0  0  0  0  0
   -5.7930  -35.0141  -44.2592 C   0  0  0  0  0  0  0  0  0  0  0  0
   -6.9684  -35.6105  -44.6268 N   0  0  0  0  0  0  0  0  0  0  0  0
   -4.9496  -34.5806  -45.1966 N   0  0  0  0  0  0  0  0  0  0  0  0
   -3.7714  -33.9833  -44.8657 C   0  0  0  0  0  0  0  0  0  0  0  0
   -3.4355  -33.8214  -43.5037 C   0  0  0  0  0  0  0  0  0  0  0  0
   -4.3502  -34.2875  -42.5207 C   0  0  0  0  0  0  0  0  0  0  0  0
   -4.1065  -34.1670  -41.3456 O   0  0  0  0  0  0  0  0  0  0  0  0
   -2.1326  -33.1647  -43.4723 C   0  0  0  0  0  0  0  0  0  0  0  0
   -1.7680  -32.9672  -44.7516 C   0  0  0  0  0  0  0  0  0  0  0  0
   -2.7465  -33.4560  -45.5915 N   0  0  0  0  0  0  0  0  0  0  0  0
   -1.3467  -32.7897  -42.2421 C   0  0  0  0  0  0  0  0  0  0  0  0
    0.0749  -32.6309  -42.6098 N   0  0  0  0  0  0  0  0  0  0  0  0
  1  2  1  0  0  0  0
  1  7  1  0  0  0  0
  2  3  1  0  0  0  0
  2  4  2  0  0  0  0
  4  5  1  0  0  0  0
  5  6  2  0  0  0  0
  5 11  1  0  0  0  0
  6  7  1  0  0  0  0
  6  9  1  0  0  0  0
  7  8  2  0  0  0  0
  9 10  2  0  0  0  0
  9 12  1  0  0  0  0
 10 11  1  0  0  0  0
 12 13  1  0  0  0  0
M  END
>  <CHROM.1>
158.83716727,-3.60997357,-33.95753982,-43.64369507,2.94332408,-0.43375600
-1.55021851

>  <Name>
ligand

>  <RI>
0

>  <Rbt.Current_Directory>
/home/itssahil/PROJECTS/Mol_Feturizer/Test_systems_manuscript/rnas/3fu2

>  <Rbt.Executable>
rbdock ($Id: //depot/dev/client3/rdock/2013.1/src/exe/rbdock.cxx#4 $)

>  <Rbt.Library>
libRbt.so (2013.1, Build901 2013/11/27)

>  <Rbt.Parameter_File>
/export/apps/rDock/src/rDock_2013.1_src/data/scripts/dock_solv.prm

>  <Rbt.Receptor>
prm/pocket_docking_2.prm

>  <SCORE>
-16.8195

>  <SCORE.INTER>
-16.6579

>  <SCORE.INTER.CONST>
1

>  <SCORE.INTER.POLAR>
0

>  <SCORE.INTER.ROT>
1

>  <SCORE.INTER.SOLV>
20.0766

>  <SCORE.INTER.VDW>
-22.0641

>  <SCORE.INTER.norm>
-1.28137

>  <SCORE.INTRA>
-0.161649

>  <SCORE.INTRA.DIHEDRAL>
0.0302866

>  <SCORE.INTRA.DIHEDRAL.0>
1.66609

>  <SCORE.INTRA.POLAR>
0

>  <SCORE.INTRA.POLAR.0>
0

>  <SCORE.INTRA.REPUL>
0

>  <SCORE.INTRA.REPUL.0>
0

>  <SCORE.INTRA.SOLV>
-0.981205

>  <SCORE.INTRA.SOLV.lig_0>
-45.868

>  <SCORE.INTRA.VDW>
0.31381

>  <SCORE.INTRA.VDW.0>
-0.397919

>  <SCORE.INTRA.norm>
-0.0124346

>  <SCORE.RESTR>
0

>  <SCORE.RESTR.CAVITY>
0

>  <SCORE.RESTR.norm>
0

>  <SCORE.SYSTEM>
0

>  <SCORE.SYSTEM.CONST>
0

>  <SCORE.SYSTEM.DIHEDRAL>
0

>  <SCORE.SYSTEM.SOLV>
0

>  <SCORE.SYSTEM.norm>
0

>  <SCORE.heavy>
13

>  <SCORE.norm>
-1.29381

>  <RMSD>
2.690

$$$$
ligand
 OpenBabel02271912143D
libRbt.so/2013.1/901 2013/11/27
 13 14  0  0  0  0  0  0  0  0999 V2000
   -5.4450  -34.7965  -42.9669 N   0  0  0  0  0  0  0  0  0  0  0  0
   -5.7660  -34.9948  -44.2831 C   0  0  0  0  0  0  0  0  0  0  0  0
   -6.9401  -35.6275  -44.5890 N   0  0  0  0  0  0  0  0  0  0  0  0
   -4.9610  -34.5839  -45.2634 N   0  0  0  0  0  0  0  0  0  0  0  0
   -3.7852  -33.9518  -44.9943 C   0  0  0  0  0  0  0  0  0  0  0  0
   -3.4105  -33.7286  -43.6512 C   0  0  0  0  0  0  0  0  0  0  0  0
   -4.2846  -34.1716  -42.6219 C   0  0  0  0  0  0  0  0  0  0  0  0
   -4.0070  -33.9990  -41.4608 O   0  0  0  0  0  0  0  0  0  0  0  0
   -2.1206  -33.0469  -43.6876 C   0  0  0  0  0  0  0  0  0  0  0  0
   -1.8000  -32.8946  -44.9848 C   0  0  0  0  0  0  0  0  0  0  0  0
   -2.7942  -33.4352  -45.7729 N   0  0  0  0  0  0  0  0  0  0  0  0
   -1.3045  -32.6077  -42.4990 C   0  0  0  0  0  0  0  0  0  0  0  0
    0.0909  -32.3859  -42.9294 N   0  0  0  0  0  0  0  0  0  0  0  0
  1  2  1  0  0  0  0
  1  7  1  0  0  0  0
  2  3  1  0  0  0  0
  2  4  2  0  0  0  0
  4  5  1  0  0  0  0
  5  6  2  0  0  0  0
  5 11  1  0  0  0  0
  6  7  1  0  0  0  0
  6  9  1  0  0  0  0
  7  8  2  0  0  0  0
  9 10  2  0  0  0  0
  9 12  1  0  0  0  0
 10 11  1  0  0  0  0
 12 13  1  0  0  0  0
M  END
>  <CHROM.1>
161.04386738,-3.58732087,-33.86936864,-43.78103433,2.97903617,-0.45624728
-1.57689887

>  <Name>
ligand

>  <RI>
0

>  <Rbt.Current_Directory>
/home/itssahil/PROJECTS/Mol_Feturizer/Test_systems_manuscript/rnas/3fu2

>  <Rbt.Executable>
rbdock ($Id: //depot/dev/client3/rdock/2013.1/src/exe/rbdock.cxx#4 $)

>  <Rbt.Library>
libRbt.so (2013.1, Build901 2013/11/27)

>  <Rbt.Parameter_File>
/export/apps/rDock/src/rDock_2013.1_src/data/scripts/dock_solv.prm

>  <Rbt.Receptor>
prm/pocket_docking_2.prm

>  <SCORE>
-16.8899

>  <SCORE.INTER>
-16.7366

>  <SCORE.INTER.CONST>
1

>  <SCORE.INTER.POLAR>
0

>  <SCORE.INTER.ROT>
1

>  <SCORE.INTER.SOLV>
20.5082

>  <SCORE.INTER.VDW>
-22.2605

>  <SCORE.INTER.norm>
-1.28743

>  <SCORE.INTRA>
-0.153236

>  <SCORE.INTRA.DIHEDRAL>
0.0292096

>  <SCORE.INTRA.DIHEDRAL.0>
1.66609

>  <SCORE.INTRA.POLAR>
0

>  <SCORE.INTRA.POLAR.0>
0

>  <SCORE.INTRA.REPUL>
0

>  <SCORE.INTRA.REPUL.0>
0

>  <SCORE.INTRA.SOLV>
-0.980695

>  <SCORE.INTRA.SOLV.lig_0>
-45.868

>  <SCORE.INTRA.VDW>
0.322507

>  <SCORE.INTRA.VDW.0>
-0.397919

>  <SCORE.INTRA.norm>
-0.0117873

>  <SCORE.RESTR>
0

>  <SCORE.RESTR.CAVITY>
0

>  <SCORE.RESTR.norm>
0

>  <SCORE.SYSTEM>
0

>  <SCORE.SYSTEM.CONST>
0

>  <SCORE.SYSTEM.DIHEDRAL>
0

>  <SCORE.SYSTEM.SOLV>
0

>  <SCORE.SYSTEM.norm>
0

>  <SCORE.heavy>
13

>  <SCORE.norm>
-1.29922

>  <RMSD>
2.690

$$$$
ligand
 OpenBabel02271912143D
libRbt.so/2013.1/901 2013/11/27
 13 14  0  0  0  0  0  0  0  0999 V2000
   -5.4536  -34.8045  -42.9372 N   0  0  0  0  0  0  0  0  0  0  0  0
   -5.7690  -35.0336  -44.2498 C   0  0  0  0  0  0  0  0  0  0  0  0
   -6.9407  -35.6753  -44.5457 N   0  0  0  0  0  0  0  0  0  0  0  0
   -4.9609  -34.6436  -45.2361 N   0  0  0  0  0  0  0  0  0  0  0  0
   -3.7873  -34.0033  -44.9770 C   0  0  0  0  0  0  0  0  0  0  0  0
   -3.4183  -33.7487  -43.6379 C   0  0  0  0  0  0  0  0  0  0  0  0
   -4.2957  -34.1696  -42.6021 C   0  0  0  0  0  0  0  0  0  0  0  0
   -4.0230  -33.9700  -41.4442 O   0  0  0  0  0  0  0  0  0  0  0  0
   -2.1295  -33.0654  -43.6849 C   0  0  0  0  0  0  0  0  0  0  0  0
   -1.8041  -32.9423  -44.9839 C   0  0  0  0  0  0  0  0  0  0  0  0
   -2.7942  -33.5028  -45.7633 N   0  0  0  0  0  0  0  0  0  0  0  0
   -1.3190  -32.5976  -42.5034 C   0  0  0  0  0  0  0  0  0  0  0  0
    0.0843  -32.4134  -42.9259 N   0  0  0  0  0  0  0  0  0  0  0  0
  1  2  1  0  0  0  0
  1  7  1  0  0  0  0
  2  3  1  0  0  0  0
  2  4  2  0  0  0  0
  4  5  1  0  0  0  0
  5  6  2  0  0  0  0
  5 11  1  0  0  0  0
  6  7  1  0  0  0  0
  6  9  1  0  0  0  0
  7  8  2  0  0  0  0
  9 10  2  0  0  0  0
  9 12  1  0  0  0  0
 10 11  1  0  0  0  0
 12 13  1  0  0  0  0
M  END
>  <CHROM.1>
159.73471451,-3.59385129,-33.89515515,-43.76452464,2.97424086,-0.45603840
-1.60087070

>  <Name>
ligand

>  <RI>
0

>  <Rbt.Current_Directory>
/home/itssahil/PROJECTS/Mol_Feturizer/Test_systems_manuscript/rnas/3fu2

>  <Rbt.Executable>
rbdock ($Id: //depot/dev/client3/rdock/2013.1/src/exe/rbdock.cxx#4 $)

>  <Rbt.Library>
libRbt.so (2013.1, Build901 2013/11/27)

>  <Rbt.Parameter_File>
/export/apps/rDock/src/rDock_2013.1_src/data/scripts/dock_solv.prm

>  <Rbt.Receptor>
prm/blind_docking_100.prm

>  <SCORE>
-16.8586

>  <SCORE.INTER>
-16.7005

>  <SCORE.INTER.CONST>
1

>  <SCORE.INTER.POLAR>
0

>  <SCORE.INTER.ROT>
1

>  <SCORE.INTER.SOLV>
20.5881

>  <SCORE.INTER.VDW>
-22.263

>  <SCORE.INTER.norm>
-1.28465

>  <SCORE.INTRA>
-0.158142

>  <SCORE.INTRA.DIHEDRAL>
0.0298741

>  <SCORE.INTRA.DIHEDRAL.0>
1.66609

>  <SCORE.INTRA.POLAR>
0

>  <SCORE.INTRA.POLAR.0>
0

>  <SCORE.INTRA.REPUL>
0

>  <SCORE.INTRA.REPUL.0>
0

>  <SCORE.INTRA.SOLV>
-0.980991

>  <SCORE.INTRA.SOLV.lig_0>
-45.868

>  <SCORE.INTRA.VDW>
0.317417

>  <SCORE.INTRA.VDW.0>
-0.397919

>  <SCORE.INTRA.norm>
-0.0121648

>  <SCORE.RESTR>
0

>  <SCORE.RESTR.CAVITY>
0

>  <SCORE.RESTR.norm>
0

>  <SCORE.SYSTEM>
0

>  <SCORE.SYSTEM.CONST>
0

>  <SCORE.SYSTEM.DIHEDRAL>
0

>  <SCORE.SYSTEM.SOLV>
0

>  <SCORE.SYSTEM.norm>
0

>  <SCORE.heavy>
13

>  <SCORE.norm>
-1.29682

>  <RMSD>
2.691

$$$$
ligand
 OpenBabel02271912143D
libRbt.so/2013.1/901 2013/11/27
 13 14  0  0  0  0  0  0  0  0999 V2000
   -5.4977  -34.8978  -42.9056 N   0  0  0  0  0  0  0  0  0  0  0  0
   -5.8101  -35.0119  -44.2338 C   0  0  0  0  0  0  0  0  0  0  0  0
   -6.9941  -35.6002  -44.5861 N   0  0  0  0  0  0  0  0  0  0  0  0
   -4.9873  -34.5616  -45.1815 N   0  0  0  0  0  0  0  0  0  0  0  0
   -3.8011  -33.9718  -44.8659 C   0  0  0  0  0  0  0  0  0  0  0  0
   -3.4348  -33.8356  -43.5089 C   0  0  0  0  0  0  0  0  0  0  0  0
   -4.3279  -34.3192  -42.5147 C   0  0  0  0  0  0  0  0  0  0  0  0
   -4.0579  -34.2209  -41.3433 O   0  0  0  0  0  0  0  0  0  0  0  0
   -2.1306  -33.1808  -43.4944 C   0  0  0  0  0  0  0  0  0  0  0  0
   -1.7943  -32.9598  -44.7776 C   0  0  0  0  0  0  0  0  0  0  0  0
   -2.7920  -33.4319  -45.6044 N   0  0  0  0  0  0  0  0  0  0  0  0
   -1.3170  -32.8295  -42.2752 C   0  0  0  0  0  0  0  0  0  0  0  0
    0.0762  -32.5634  -42.6874 N   0  0  0  0  0  0  0  0  0  0  0  0
  1  2  1  0  0  0  0
  1  7  1  0  0  0  0
  2  3  1  0  0  0  0
  2  4  2  0  0  0  0
  4  5  1  0  0  0  0
  5  6  2  0  0  0  0
  5 11  1  0  0  0  0
  6  7  1  0  0  0  0
  6  9  1  0  0  0  0
  7  8  2  0  0  0  0
  9 10  2  0  0  0  0
  9 12  1  0  0  0  0
 10 11  1  0  0  0  0
 12 13  1  0  0  0  0
M  END
>  <CHROM.1>
163.14416830,-3.61411071,-33.96069270,-43.64881218,2.96908655,-0.43848075
-1.52419767

>  <Name>
ligand

>  <RI>
0

>  <Rbt.Current_Directory>
/home/itssahil/PROJECTS/Mol_Feturizer/Test_systems_manuscript/rnas/3fu2

>  <Rbt.Executable>
rbdock ($Id: //depot/dev/client3/rdock/2013.1/src/exe/rbdock.cxx#4 $)

>  <Rbt.Library>
libRbt.so (2013.1, Build901 2013/11/27)

>  <Rbt.Parameter_File>
/export/apps/rDock/src/rDock_2013.1_src/data/scripts/dock_solv.prm

>  <Rbt.Receptor>
prm/blind_docking_60.prm

>  <SCORE>
-16.7597

>  <SCORE.INTER>
-16.6137

>  <SCORE.INTER.CONST>
1

>  <SCORE.INTER.POLAR>
0

>  <SCORE.INTER.ROT>
1

>  <SCORE.INTER.SOLV>
20.1444

>  <SCORE.INTER.VDW>
-22.0573

>  <SCORE.INTER.norm>
-1.27798

>  <SCORE.INTRA>
-0.145934

>  <SCORE.INTRA.DIHEDRAL>
0.0279949

>  <SCORE.INTRA.DIHEDRAL.0>
1.66609

>  <SCORE.INTRA.POLAR>
0

>  <SCORE.INTRA.POLAR.0>
0

>  <SCORE.INTRA.REPUL>
0

>  <SCORE.INTRA.REPUL.0>
0

>  <SCORE.INTRA.SOLV>
-0.980261

>  <SCORE.INTRA.SOLV.lig_0>
-45.868

>  <SCORE.INTRA.VDW>
0.330199

>  <SCORE.INTRA.VDW.0>
-0.397919

>  <SCORE.INTRA.norm>
-0.0112257

>  <SCORE.RESTR>
0

>  <SCORE.RESTR.CAVITY>
0

>  <SCORE.RESTR.norm>
0

>  <SCORE.SYSTEM>
0

>  <SCORE.SYSTEM.CONST>
0

>  <SCORE.SYSTEM.DIHEDRAL>
0

>  <SCORE.SYSTEM.SOLV>
0

>  <SCORE.SYSTEM.norm>
0

>  <SCORE.heavy>
13

>  <SCORE.norm>
-1.2892

>  <RMSD>
2.691

$$$$
ligand
 OpenBabel02271912143D
libRbt.so/2013.1/901 2013/11/27
 13 14  0  0  0  0  0  0  0  0999 V2000
   -5.4428  -34.8067  -42.9715 N   0  0  0  0  0  0  0  0  0  0  0  0
   -5.7645  -35.0013  -44.2882 C   0  0  0  0  0  0  0  0  0  0  0  0
   -6.9379  -35.6345  -44.5952 N   0  0  0  0  0  0  0  0  0  0  0  0
   -4.9607  -34.5862  -45.2677 N   0  0  0  0  0  0  0  0  0  0  0  0
   -3.7855  -33.9534  -44.9974 C   0  0  0  0  0  0  0  0  0  0  0  0
   -3.4101  -33.7340  -43.6539 C   0  0  0  0  0  0  0  0  0  0  0  0
   -4.2830  -34.1815  -42.6253 C   0  0  0  0  0  0  0  0  0  0  0  0
   -4.0047  -34.0122  -41.4639 O   0  0  0  0  0  0  0  0  0  0  0  0
   -2.1211  -33.0505  -43.6890 C   0  0  0  0  0  0  0  0  0  0  0  0
   -1.8016  -32.8937  -44.9859 C   0  0  0  0  0  0  0  0  0  0  0  0
   -2.7956  -33.4331  -45.7750 N   0  0  0  0  0  0  0  0  0  0  0  0
   -1.3048  -32.6141  -42.4995 C   0  0  0  0  0  0  0  0  0  0  0  0
    0.0888  -32.3837  -42.9314 N   0  0  0  0  0  0  0  0  0  0  0  0
  1  2  1  0  0  0  0
  1  7  1  0  0  0  0
  2  3  1  0  0  0  0
  2  4  2  0  0  0  0
  4  5  1  0  0  0  0
  5  6  2  0  0  0  0
  5 11  1  0  0  0  0
  6  7  1  0  0  0  0
  6  9  1  0  0  0  0
  7  8  2  0  0  0  0
  9 10  2  0  0  0  0
  9 12  1  0  0  0  0
 10 11  1  0  0  0  0
 12 13  1  0  0  0  0
M  END
>  <CHROM.1>
161.27696577,-3.58695349,-33.87416694,-43.78409018,2.97987471,-0.45790634
-1.57353090

>  <Name>
ligand

>  <RI>
0

>  <Rbt.Current_Directory>
/home/itssahil/PROJECTS/Mol_Feturizer/Test_systems_manuscript/rnas/3fu2

>  <Rbt.Executable>
rbdock ($Id: //depot/dev/client3/rdock/2013.1/src/exe/rbdock.cxx#4 $)

>  <Rbt.Library>
libRbt.so (2013.1, Build901 2013/11/27)

>  <Rbt.Parameter_File>
/export/apps/rDock/src/rDock_2013.1_src/data/scripts/dock_solv.prm

>  <Rbt.Receptor>
prm/blind_docking_60.prm

>  <SCORE>
-16.8928

>  <SCORE.INTER>
-16.7405

>  <SCORE.INTER.CONST>
1

>  <SCORE.INTER.POLAR>
0

>  <SCORE.INTER.ROT>
1

>  <SCORE.INTER.SOLV>
20.4911

>  <SCORE.INTER.VDW>
-22.2573

>  <SCORE.INTER.norm>
-1.28773

>  <SCORE.INTRA>
-0.152389

>  <SCORE.INTRA.DIHEDRAL>
0.0290837

>  <SCORE.INTRA.DIHEDRAL.0>
1.66609

>  <SCORE.INTRA.POLAR>
0

>  <SCORE.INTRA.POLAR.0>
0

>  <SCORE.INTRA.REPUL>
0

>  <SCORE.INTRA.REPUL.0>
0

>  <SCORE.INTRA.SOLV>
-0.980644

>  <SCORE.INTRA.SOLV.lig_0>
-45.868

>  <SCORE.INTRA.VDW>
0.323391

>  <SCORE.INTRA.VDW.0>
-0.397919

>  <SCORE.INTRA.norm>
-0.0117223

>  <SCORE.RESTR>
0

>  <SCORE.RESTR.CAVITY>
0

>  <SCORE.RESTR.norm>
0

>  <SCORE.SYSTEM>
0

>  <SCORE.SYSTEM.CONST>
0

>  <SCORE.SYSTEM.DIHEDRAL>
0

>  <SCORE.SYSTEM.SOLV>
0

>  <SCORE.SYSTEM.norm>
0

>  <SCORE.heavy>
13

>  <SCORE.norm>
-1.29945

>  <RMSD>
2.691

$$$$
ligand
 OpenBabel02271912143D
libRbt.so/2013.1/901 2013/11/27
 13 14  0  0  0  0  0  0  0  0999 V2000
   -5.4441  -34.8044  -42.9700 N   0  0  0  0  0  0  0  0  0  0  0  0
   -5.7628  -35.0080  -44.2860 C   0  0  0  0  0  0  0  0  0  0  0  0
   -6.9353  -35.6436  -44.5914 N   0  0  0  0  0  0  0  0  0  0  0  0
   -4.9568  -34.5993  -45.2665 N   0  0  0  0  0  0  0  0  0  0  0  0
   -3.7824  -33.9644  -44.9978 C   0  0  0  0  0  0  0  0  0  0  0  0
   -3.4102  -33.7358  -43.6549 C   0  0  0  0  0  0  0  0  0  0  0  0
   -4.2853  -34.1764  -42.6254 C   0  0  0  0  0  0  0  0  0  0  0  0
   -4.0097  -33.9992  -41.4646 O   0  0  0  0  0  0  0  0  0  0  0  0
   -2.1213  -33.0521  -43.6918 C   0  0  0  0  0  0  0  0  0  0  0  0
   -1.7988  -32.9041  -44.9890 C   0  0  0  0  0  0  0  0  0  0  0  0
   -2.7909  -33.4491  -45.7767 N   0  0  0  0  0  0  0  0  0  0  0  0
   -1.3078  -32.6074  -42.5034 C   0  0  0  0  0  0  0  0  0  0  0  0
    0.0885  -32.3877  -42.9319 N   0  0  0  0  0  0  0  0  0  0  0  0
  1  2  1  0  0  0  0
  1  7  1  0  0  0  0
  2  3  1  0  0  0  0
  2  4  2  0  0  0  0
  4  5  1  0  0  0  0
  5  6  2  0  0  0  0
  5 11  1  0  0  0  0
  6  7  1  0  0  0  0
  6  9  1  0  0  0  0
  7  8  2  0  0  0  0
  9 10  2  0  0  0  0
  9 12  1  0  0  0  0
 10 11  1  0  0  0  0
 12 13  1  0  0  0  0
M  END
>  <CHROM.1>
160.92717591,-3.58654432,-33.87749461,-43.78448150,2.97722547,-0.45761520
-1.58122264

>  <Name>
ligand

>  <RI>
0

>  <Rbt.Current_Directory>
/home/itssahil/PROJECTS/Mol_Feturizer/Test_systems_manuscript/rnas/3fu2

>  <Rbt.Executable>
rbdock ($Id: //depot/dev/client3/rdock/2013.1/src/exe/rbdock.cxx#4 $)

>  <Rbt.Library>
libRbt.so (2013.1, Build901 2013/11/27)

>  <Rbt.Parameter_File>
/export/apps/rDock/src/rDock_2013.1_src/data/scripts/dock_solv.prm

>  <Rbt.Receptor>
prm/blind_docking_60.prm

>  <SCORE>
-16.8944

>  <SCORE.INTER>
-16.7408

>  <SCORE.INTER.CONST>
1

>  <SCORE.INTER.POLAR>
0

>  <SCORE.INTER.ROT>
1

>  <SCORE.INTER.SOLV>
20.5131

>  <SCORE.INTER.VDW>
-22.2649

>  <SCORE.INTER.norm>
-1.28775

>  <SCORE.INTRA>
-0.153662

>  <SCORE.INTRA.DIHEDRAL>
0.0292718

>  <SCORE.INTRA.DIHEDRAL.0>
1.66609

>  <SCORE.INTRA.POLAR>
0

>  <SCORE.INTRA.POLAR.0>
0

>  <SCORE.INTRA.REPUL>
0

>  <SCORE.INTRA.REPUL.0>
0

>  <SCORE.INTRA.SOLV>
-0.980721

>  <SCORE.INTRA.SOLV.lig_0>
-45.868

>  <SCORE.INTRA.VDW>
0.322062

>  <SCORE.INTRA.VDW.0>
-0.397919

>  <SCORE.INTRA.norm>
-0.0118202

>  <SCORE.RESTR>
0

>  <SCORE.RESTR.CAVITY>
0

>  <SCORE.RESTR.norm>
0

>  <SCORE.SYSTEM>
0

>  <SCORE.SYSTEM.CONST>
0

>  <SCORE.SYSTEM.DIHEDRAL>
0

>  <SCORE.SYSTEM.SOLV>
0

>  <SCORE.SYSTEM.norm>
0

>  <SCORE.heavy>
13

>  <SCORE.norm>
-1.29957

>  <RMSD>
2.691

$$$$
ligand
 OpenBabel02271912143D
libRbt.so/2013.1/901 2013/11/27
 13 14  0  0  0  0  0  0  0  0999 V2000
   -5.4453  -34.8026  -42.9703 N   0  0  0  0  0  0  0  0  0  0  0  0
   -5.7677  -34.9972  -44.2867 C   0  0  0  0  0  0  0  0  0  0  0  0
   -6.9424  -35.6285  -44.5931 N   0  0  0  0  0  0  0  0  0  0  0  0
   -4.9635  -34.5840  -45.2667 N   0  0  0  0  0  0  0  0  0  0  0  0
   -3.7871  -33.9532  -44.9970 C   0  0  0  0  0  0  0  0  0  0  0  0
   -3.4110  -33.7339  -43.6537 C   0  0  0  0  0  0  0  0  0  0  0  0
   -4.2843  -34.1792  -42.6247 C   0  0  0  0  0  0  0  0  0  0  0  0
   -4.0055  -34.0099  -41.4635 O   0  0  0  0  0  0  0  0  0  0  0  0
   -2.1207  -33.0526  -43.6895 C   0  0  0  0  0  0  0  0  0  0  0  0
   -1.8013  -32.8971  -44.9866 C   0  0  0  0  0  0  0  0  0  0  0  0
   -2.7965  -33.4351  -45.7751 N   0  0  0  0  0  0  0  0  0  0  0  0
   -1.3033  -32.6171  -42.5005 C   0  0  0  0  0  0  0  0  0  0  0  0
    0.0853  -32.3674  -42.9374 N   0  0  0  0  0  0  0  0  0  0  0  0
  1  2  1  0  0  0  0
  1  7  1  0  0  0  0
  2  3  1  0  0  0  0
  2  4  2  0  0  0  0
  4  5  1  0  0  0  0
  5  6  2  0  0  0  0
  5 11  1  0  0  0  0
  6  7  1  0  0  0  0
  6  9  1  0  0  0  0
  7  8  2  0  0  0  0
  9 10  2  0  0  0  0
  9 12  1  0  0  0  0
 10 11  1  0  0  0  0
 12 13  1  0  0  0  0
M  END
>  <CHROM.1>
162.22636369,-3.58850108,-33.87193450,-43.78416807,2.98042918,-0.45758786
-1.57452404

>  <Name>
ligand

>  <RI>
0

>  <Rbt.Current_Directory>
/home/itssahil/PROJECTS/Mol_Feturizer/Test_systems_manuscript/rnas/3fu2

>  <Rbt.Executable>
rbdock ($Id: //depot/dev/client3/rdock/2013.1/src/exe/rbdock.cxx#4 $)

>  <Rbt.Library>
libRbt.so (2013.1, Build901 2013/11/27)

>  <Rbt.Parameter_File>
/export/apps/rDock/src/rDock_2013.1_src/data/scripts/dock_solv.prm

>  <Rbt.Receptor>
prm/pocket_docking_5.prm

>  <SCORE>
-16.8907

>  <SCORE.INTER>
-16.7416

>  <SCORE.INTER.CONST>
1

>  <SCORE.INTER.POLAR>
0

>  <SCORE.INTER.ROT>
1

>  <SCORE.INTER.SOLV>
20.4911

>  <SCORE.INTER.VDW>
-22.2581

>  <SCORE.INTER.norm>
-1.28782

>  <SCORE.INTRA>
-0.149034

>  <SCORE.INTRA.DIHEDRAL>
0.0285476

>  <SCORE.INTRA.DIHEDRAL.0>
1.66609

>  <SCORE.INTRA.POLAR>
0

>  <SCORE.INTRA.POLAR.0>
0

>  <SCORE.INTRA.REPUL>
0

>  <SCORE.INTRA.REPUL.0>
0

>  <SCORE.INTRA.SOLV>
-0.980444

>  <SCORE.INTRA.SOLV.lig_0>
-45.868

>  <SCORE.INTRA.VDW>
0.326914

>  <SCORE.INTRA.VDW.0>
-0.397919

>  <SCORE.INTRA.norm>
-0.0114641

>  <SCORE.RESTR>
0

>  <SCORE.RESTR.CAVITY>
0

>  <SCORE.RESTR.norm>
0

>  <SCORE.SYSTEM>
0

>  <SCORE.SYSTEM.CONST>
0

>  <SCORE.SYSTEM.DIHEDRAL>
0

>  <SCORE.SYSTEM.SOLV>
0

>  <SCORE.SYSTEM.norm>
0

>  <SCORE.heavy>
13

>  <SCORE.norm>
-1.29928

>  <RMSD>
2.691

$$$$
ligand
 OpenBabel02271912143D
libRbt.so/2013.1/901 2013/11/27
 13 14  0  0  0  0  0  0  0  0999 V2000
   -5.4818  -34.8604  -42.9444 N   0  0  0  0  0  0  0  0  0  0  0  0
   -5.7877  -35.0210  -44.2693 C   0  0  0  0  0  0  0  0  0  0  0  0
   -6.9658  -35.6298  -44.6064 N   0  0  0  0  0  0  0  0  0  0  0  0
   -4.9643  -34.5963  -45.2282 N   0  0  0  0  0  0  0  0  0  0  0  0
   -3.7840  -33.9872  -44.9278 C   0  0  0  0  0  0  0  0  0  0  0  0
   -3.4244  -33.8032  -43.5746 C   0  0  0  0  0  0  0  0  0  0  0  0
   -4.3180  -34.2602  -42.5684 C   0  0  0  0  0  0  0  0  0  0  0  0
   -4.0536  -34.1208  -41.3998 O   0  0  0  0  0  0  0  0  0  0  0  0
   -2.1252  -33.1382  -43.5769 C   0  0  0  0  0  0  0  0  0  0  0  0
   -1.7853  -32.9575  -44.8654 C   0  0  0  0  0  0  0  0  0  0  0  0
   -2.7759  -33.4645  -45.6799 N   0  0  0  0  0  0  0  0  0  0  0  0
   -1.3194  -32.7403  -42.3668 C   0  0  0  0  0  0  0  0  0  0  0  0
    0.0753  -32.4852  -42.7809 N   0  0  0  0  0  0  0  0  0  0  0  0
  1  2  1  0  0  0  0
  1  7  1  0  0  0  0
  2  3  1  0  0  0  0
  2  4  2  0  0  0  0
  4  5  1  0  0  0  0
  5  6  2  0  0  0  0
  5 11  1  0  0  0  0
  6  7  1  0  0  0  0
  6  9  1  0  0  0  0
  7  8  2  0  0  0  0
  9 10  2  0  0  0  0
  9 12  1  0  0  0  0
 10 11  1  0  0  0  0
 12 13  1  0  0  0  0
M  END
>  <CHROM.1>
162.81185145,-3.60202898,-33.93480143,-43.71091099,2.96476937,-0.44566717
-1.55912084

>  <Name>
ligand

>  <RI>
0

>  <Rbt.Current_Directory>
/home/itssahil/PROJECTS/Mol_Feturizer/Test_systems_manuscript/rnas/3fu2

>  <Rbt.Executable>
rbdock ($Id: //depot/dev/client3/rdock/2013.1/src/exe/rbdock.cxx#4 $)

>  <Rbt.Library>
libRbt.so (2013.1, Build901 2013/11/27)

>  <Rbt.Parameter_File>
/export/apps/rDock/src/rDock_2013.1_src/data/scripts/dock_solv.prm

>  <Rbt.Receptor>
prm/pocket_docking_7.prm

>  <SCORE>
-16.8664

>  <SCORE.INTER>
-16.7193

>  <SCORE.INTER.CONST>
1

>  <SCORE.INTER.POLAR>
0

>  <SCORE.INTER.ROT>
1

>  <SCORE.INTER.SOLV>
20.2588

>  <SCORE.INTER.VDW>
-22.1658

>  <SCORE.INTER.norm>
-1.2861

>  <SCORE.INTRA>
-0.14704

>  <SCORE.INTRA.DIHEDRAL>
0.0281988

>  <SCORE.INTRA.DIHEDRAL.0>
1.66609

>  <SCORE.INTRA.POLAR>
0

>  <SCORE.INTRA.POLAR.0>
0

>  <SCORE.INTRA.REPUL>
0

>  <SCORE.INTRA.REPUL.0>
0

>  <SCORE.INTRA.SOLV>
-0.980326

>  <SCORE.INTRA.SOLV.lig_0>
-45.868

>  <SCORE.INTRA.VDW>
0.329024

>  <SCORE.INTRA.VDW.0>
-0.397919

>  <SCORE.INTRA.norm>
-0.0113107

>  <SCORE.RESTR>
0

>  <SCORE.RESTR.CAVITY>
0

>  <SCORE.RESTR.norm>
0

>  <SCORE.SYSTEM>
0

>  <SCORE.SYSTEM.CONST>
0

>  <SCORE.SYSTEM.DIHEDRAL>
0

>  <SCORE.SYSTEM.SOLV>
0

>  <SCORE.SYSTEM.norm>
0

>  <SCORE.heavy>
13

>  <SCORE.norm>
-1.29741

>  <RMSD>
2.691

$$$$
ligand
 OpenBabel02271912143D
libRbt.so/2013.1/901 2013/11/27
 13 14  0  0  0  0  0  0  0  0999 V2000
   -5.4594  -34.7884  -42.9562 N   0  0  0  0  0  0  0  0  0  0  0  0
   -5.7767  -35.0059  -44.2703 C   0  0  0  0  0  0  0  0  0  0  0  0
   -6.9493  -35.6441  -44.5702 N   0  0  0  0  0  0  0  0  0  0  0  0
   -4.9693  -34.6083  -45.2542 N   0  0  0  0  0  0  0  0  0  0  0  0
   -3.7948  -33.9713  -44.9910 C   0  0  0  0  0  0  0  0  0  0  0  0
   -3.4240  -33.7285  -43.6502 C   0  0  0  0  0  0  0  0  0  0  0  0
   -4.3006  -34.1575  -42.6170 C   0  0  0  0  0  0  0  0  0  0  0  0
   -4.0263  -33.9680  -41.4578 O   0  0  0  0  0  0  0  0  0  0  0  0
   -2.1347  -33.0461  -43.6929 C   0  0  0  0  0  0  0  0  0  0  0  0
   -1.8106  -32.9122  -44.9912 C   0  0  0  0  0  0  0  0  0  0  0  0
   -2.8021  -33.4650  -45.7742 N   0  0  0  0  0  0  0  0  0  0  0  0
   -1.3223  -32.5891  -42.5084 C   0  0  0  0  0  0  0  0  0  0  0  0
    0.0792  -32.3957  -42.9327 N   0  0  0  0  0  0  0  0  0  0  0  0
  1  2  1  0  0  0  0
  1  7  1  0  0  0  0
  2  3  1  0  0  0  0
  2  4  2  0  0  0  0
  4  5  1  0  0  0  0
  5  6  2  0  0  0  0
  5 11  1  0  0  0  0
  6  7  1  0  0  0  0
  6  9  1  0  0  0  0
  7  8  2  0  0  0  0
  9 10  2  0  0  0  0
  9 12  1  0  0  0  0
 10 11  1  0  0  0  0
 12 13  1  0  0  0  0
M  END
>  <CHROM.1>
160.03124845,-3.59995696,-33.87318346,-43.77801521,2.97566990,-0.45559503
-1.59193723

>  <Name>
ligand

>  <RI>
0

>  <Rbt.Current_Directory>
/home/itssahil/PROJECTS/Mol_Feturizer/Test_systems_manuscript/rnas/3fu2

>  <Rbt.Executable>
rbdock ($Id: //depot/dev/client3/rdock/2013.1/src/exe/rbdock.cxx#4 $)

>  <Rbt.Library>
libRbt.so (2013.1, Build901 2013/11/27)

>  <Rbt.Parameter_File>
/export/apps/rDock/src/rDock_2013.1_src/data/scripts/dock_solv.prm

>  <Rbt.Receptor>
prm/blind_docking_60.prm

>  <SCORE>
-16.8669

>  <SCORE.INTER>
-16.7099

>  <SCORE.INTER.CONST>
1

>  <SCORE.INTER.POLAR>
0

>  <SCORE.INTER.ROT>
1

>  <SCORE.INTER.SOLV>
20.5672

>  <SCORE.INTER.VDW>
-22.2623

>  <SCORE.INTER.norm>
-1.28538

>  <SCORE.INTRA>
-0.157008

>  <SCORE.INTRA.DIHEDRAL>
0.0297301

>  <SCORE.INTRA.DIHEDRAL.0>
1.66609

>  <SCORE.INTRA.POLAR>
0

>  <SCORE.INTRA.POLAR.0>
0

>  <SCORE.INTRA.REPUL>
0

>  <SCORE.INTRA.REPUL.0>
0

>  <SCORE.INTRA.SOLV>
-0.980922

>  <SCORE.INTRA.SOLV.lig_0>
-45.868

>  <SCORE.INTRA.VDW>
0.318588

>  <SCORE.INTRA.VDW.0>
-0.397919

>  <SCORE.INTRA.norm>
-0.0120776

>  <SCORE.RESTR>
0

>  <SCORE.RESTR.CAVITY>
0

>  <SCORE.RESTR.norm>
0

>  <SCORE.SYSTEM>
0

>  <SCORE.SYSTEM.CONST>
0

>  <SCORE.SYSTEM.DIHEDRAL>
0

>  <SCORE.SYSTEM.SOLV>
0

>  <SCORE.SYSTEM.norm>
0

>  <SCORE.heavy>
13

>  <SCORE.norm>
-1.29746

>  <RMSD>
2.692

$$$$
ligand
 OpenBabel02271912143D
libRbt.so/2013.1/901 2013/11/27
 13 14  0  0  0  0  0  0  0  0999 V2000
   -5.4461  -34.8023  -42.9723 N   0  0  0  0  0  0  0  0  0  0  0  0
   -5.7641  -35.0044  -44.2886 C   0  0  0  0  0  0  0  0  0  0  0  0
   -6.9374  -35.6380  -44.5954 N   0  0  0  0  0  0  0  0  0  0  0  0
   -4.9568  -34.5962  -45.2682 N   0  0  0  0  0  0  0  0  0  0  0  0
   -3.7816  -33.9633  -44.9982 C   0  0  0  0  0  0  0  0  0  0  0  0
   -3.4101  -33.7363  -43.6549 C   0  0  0  0  0  0  0  0  0  0  0  0
   -4.2866  -34.1764  -42.6263 C   0  0  0  0  0  0  0  0  0  0  0  0
   -4.0116  -34.0005  -41.4651 O   0  0  0  0  0  0  0  0  0  0  0  0
   -2.1201  -33.0546  -43.6902 C   0  0  0  0  0  0  0  0  0  0  0  0
   -1.7964  -32.9060  -44.9871 C   0  0  0  0  0  0  0  0  0  0  0  0
   -2.7888  -33.4489  -45.7759 N   0  0  0  0  0  0  0  0  0  0  0  0
   -1.3068  -32.6120  -42.5010 C   0  0  0  0  0  0  0  0  0  0  0  0
    0.0900  -32.3933  -42.9284 N   0  0  0  0  0  0  0  0  0  0  0  0
  1  2  1  0  0  0  0
  1  7  1  0  0  0  0
  2  3  1  0  0  0  0
  2  4  2  0  0  0  0
  4  5  1  0  0  0  0
  5  6  2  0  0  0  0
  5 11  1  0  0  0  0
  6  7  1  0  0  0  0
  6  9  1  0  0  0  0
  7  8  2  0  0  0  0
  9 10  2  0  0  0  0
  9 12  1  0  0  0  0
 10 11  1  0  0  0  0
 12 13  1  0  0  0  0
M  END
>  <CHROM.1>
160.96618142,-3.58653783,-33.87755920,-43.78466844,2.97643077,-0.45613375
-1.58085121

>  <Name>
ligand

>  <RI>
0

>  <Rbt.Current_Directory>
/home/itssahil/PROJECTS/Mol_Feturizer/Test_systems_manuscript/rnas/3fu2

>  <Rbt.Executable>
rbdock ($Id: //depot/dev/client3/rdock/2013.1/src/exe/rbdock.cxx#4 $)

>  <Rbt.Library>
libRbt.so (2013.1, Build901 2013/11/27)

>  <Rbt.Parameter_File>
/export/apps/rDock/src/rDock_2013.1_src/data/scripts/dock_solv.prm

>  <Rbt.Receptor>
prm/pocket_docking_5.prm

>  <SCORE>
-16.8971

>  <SCORE.INTER>
-16.7436

>  <SCORE.INTER.CONST>
1

>  <SCORE.INTER.POLAR>
0

>  <SCORE.INTER.ROT>
1

>  <SCORE.INTER.SOLV>
20.5119

>  <SCORE.INTER.VDW>
-22.2664

>  <SCORE.INTER.norm>
-1.28797

>  <SCORE.INTRA>
-0.153519

>  <SCORE.INTRA.DIHEDRAL>
0.0292511

>  <SCORE.INTRA.DIHEDRAL.0>
1.66609

>  <SCORE.INTRA.POLAR>
0

>  <SCORE.INTRA.POLAR.0>
0

>  <SCORE.INTRA.REPUL>
0

>  <SCORE.INTRA.REPUL.0>
0

>  <SCORE.INTRA.SOLV>
-0.980712

>  <SCORE.INTRA.SOLV.lig_0>
-45.868

>  <SCORE.INTRA.VDW>
0.322211

>  <SCORE.INTRA.VDW.0>
-0.397919

>  <SCORE.INTRA.norm>
-0.0118092

>  <SCORE.RESTR>
0

>  <SCORE.RESTR.CAVITY>
0

>  <SCORE.RESTR.norm>
0

>  <SCORE.SYSTEM>
0

>  <SCORE.SYSTEM.CONST>
0

>  <SCORE.SYSTEM.DIHEDRAL>
0

>  <SCORE.SYSTEM.SOLV>
0

>  <SCORE.SYSTEM.norm>
0

>  <SCORE.heavy>
13

>  <SCORE.norm>
-1.29978

>  <RMSD>
2.692

$$$$
ligand
 OpenBabel02271912143D
libRbt.so/2013.1/901 2013/11/27
 13 14  0  0  0  0  0  0  0  0999 V2000
   -5.4730  -34.8931  -42.9466 N   0  0  0  0  0  0  0  0  0  0  0  0
   -5.7842  -35.0283  -44.2731 C   0  0  0  0  0  0  0  0  0  0  0  0
   -6.9630  -35.6319  -44.6172 N   0  0  0  0  0  0  0  0  0  0  0  0
   -4.9652  -34.5841  -45.2269 N   0  0  0  0  0  0  0  0  0  0  0  0
   -3.7843  -33.9795  -44.9196 C   0  0  0  0  0  0  0  0  0  0  0  0
   -3.4194  -33.8214  -43.5646 C   0  0  0  0  0  0  0  0  0  0  0  0
   -4.3083  -34.2989  -42.5638 C   0  0  0  0  0  0  0  0  0  0  0  0
   -4.0393  -34.1820  -41.3938 O   0  0  0  0  0  0  0  0  0  0  0  0
   -2.1209  -33.1549  -43.5592 C   0  0  0  0  0  0  0  0  0  0  0  0
   -1.7865  -32.9489  -44.8454 C   0  0  0  0  0  0  0  0  0  0  0  0
   -2.7799  -33.4411  -45.6655 N   0  0  0  0  0  0  0  0  0  0  0  0
   -1.3106  -32.7797  -42.3450 C   0  0  0  0  0  0  0  0  0  0  0  0
    0.0792  -32.5031  -42.7614 N   0  0  0  0  0  0  0  0  0  0  0  0
  1  2  1  0  0  0  0
  1  7  1  0  0  0  0
  2  3  1  0  0  0  0
  2  4  2  0  0  0  0
  4  5  1  0  0  0  0
  5  6  2  0  0  0  0
  5 11  1  0  0  0  0
  6  7  1  0  0  0  0
  6  9  1  0  0  0  0
  7  8  2  0  0  0  0
  9 10  2  0  0  0  0
  9 12  1  0  0  0  0
 10 11  1  0  0  0  0
 12 13  1  0  0  0  0
M  END
>  <CHROM.1>
163.31698358,-3.59764621,-33.94957500,-43.70279773,2.96944985,-0.44751368
-1.53805413

>  <Name>
ligand

>  <RI>
0

>  <Rbt.Current_Directory>
/home/itssahil/PROJECTS/Mol_Feturizer/Test_systems_manuscript/rnas/3fu2

>  <Rbt.Executable>
rbdock ($Id: //depot/dev/client3/rdock/2013.1/src/exe/rbdock.cxx#4 $)

>  <Rbt.Library>
libRbt.so (2013.1, Build901 2013/11/27)

>  <Rbt.Parameter_File>
/export/apps/rDock/src/rDock_2013.1_src/data/scripts/dock_solv.prm

>  <Rbt.Receptor>
prm/pocket_docking_6.prm

>  <SCORE>
-16.8205

>  <SCORE.INTER>
-16.6751

>  <SCORE.INTER.CONST>
1

>  <SCORE.INTER.POLAR>
0

>  <SCORE.INTER.ROT>
1

>  <SCORE.INTER.SOLV>
20.1844

>  <SCORE.INTER.VDW>
-22.1115

>  <SCORE.INTER.norm>
-1.2827

>  <SCORE.INTRA>
-0.145367

>  <SCORE.INTRA.DIHEDRAL>
0.0278872

>  <SCORE.INTRA.DIHEDRAL.0>
1.66609

>  <SCORE.INTRA.POLAR>
0

>  <SCORE.INTRA.POLAR.0>
0

>  <SCORE.INTRA.REPUL>
0

>  <SCORE.INTRA.REPUL.0>
0

>  <SCORE.INTRA.SOLV>
-0.980227

>  <SCORE.INTRA.SOLV.lig_0>
-45.868

>  <SCORE.INTRA.VDW>
0.330803

>  <SCORE.INTRA.VDW.0>
-0.397919

>  <SCORE.INTRA.norm>
-0.0111821

>  <SCORE.RESTR>
0

>  <SCORE.RESTR.CAVITY>
0

>  <SCORE.RESTR.norm>
0

>  <SCORE.SYSTEM>
0

>  <SCORE.SYSTEM.CONST>
0

>  <SCORE.SYSTEM.DIHEDRAL>
0

>  <SCORE.SYSTEM.SOLV>
0

>  <SCORE.SYSTEM.norm>
0

>  <SCORE.heavy>
13

>  <SCORE.norm>
-1.29388

>  <RMSD>
2.692

$$$$
ligand
 OpenBabel02271912143D
libRbt.so/2013.1/901 2013/11/27
 13 14  0  0  0  0  0  0  0  0999 V2000
   -5.4713  -34.7895  -42.9637 N   0  0  0  0  0  0  0  0  0  0  0  0
   -5.7702  -35.0257  -44.2788 C   0  0  0  0  0  0  0  0  0  0  0  0
   -6.9332  -35.6781  -44.5854 N   0  0  0  0  0  0  0  0  0  0  0  0
   -4.9544  -34.6324  -45.2574 N   0  0  0  0  0  0  0  0  0  0  0  0
   -3.7891  -33.9815  -44.9876 C   0  0  0  0  0  0  0  0  0  0  0  0
   -3.4371  -33.7193  -43.6454 C   0  0  0  0  0  0  0  0  0  0  0  0
   -4.3225  -34.1440  -42.6179 C   0  0  0  0  0  0  0  0  0  0  0  0
   -4.0643  -33.9381  -41.4578 O   0  0  0  0  0  0  0  0  0  0  0  0
   -2.1536  -33.0255  -43.6805 C   0  0  0  0  0  0  0  0  0  0  0  0
   -1.8147  -32.9041  -44.9762 C   0  0  0  0  0  0  0  0  0  0  0  0
   -2.7914  -33.4754  -45.7646 N   0  0  0  0  0  0  0  0  0  0  0  0
   -1.3601  -32.5470  -42.4917 C   0  0  0  0  0  0  0  0  0  0  0  0
    0.0568  -32.4066  -42.8846 N   0  0  0  0  0  0  0  0  0  0  0  0
  1  2  1  0  0  0  0
  1  7  1  0  0  0  0
  2  3  1  0  0  0  0
  2  4  2  0  0  0  0
  4  5  1  0  0  0  0
  5  6  2  0  0  0  0
  5 11  1  0  0  0  0
  6  7  1  0  0  0  0
  6  9  1  0  0  0  0
  7  8  2  0  0  0  0
  9 10  2  0  0  0  0
  9 12  1  0  0  0  0
 10 11  1  0  0  0  0
 12 13  1  0  0  0  0
M  END
>  <CHROM.1>
157.39661172,-3.60915130,-33.87202057,-43.77224771,2.96079278,-0.46041772
-1.60822063

>  <Name>
ligand

>  <RI>
0

>  <Rbt.Current_Directory>
/home/itssahil/PROJECTS/Mol_Feturizer/Test_systems_manuscript/rnas/3fu2

>  <Rbt.Executable>
rbdock ($Id: //depot/dev/client3/rdock/2013.1/src/exe/rbdock.cxx#4 $)

>  <Rbt.Library>
libRbt.so (2013.1, Build901 2013/11/27)

>  <Rbt.Parameter_File>
/export/apps/rDock/src/rDock_2013.1_src/data/scripts/dock_solv.prm

>  <Rbt.Receptor>
prm/pocket_docking_8.prm

>  <SCORE>
-16.8925

>  <SCORE.INTER>
-16.725

>  <SCORE.INTER.CONST>
1

>  <SCORE.INTER.POLAR>
0

>  <SCORE.INTER.ROT>
1

>  <SCORE.INTER.SOLV>
20.5022

>  <SCORE.INTER.VDW>
-22.2507

>  <SCORE.INTER.norm>
-1.28654

>  <SCORE.INTRA>
-0.167502

>  <SCORE.INTRA.DIHEDRAL>
0.0308725

>  <SCORE.INTRA.DIHEDRAL.0>
1.66609

>  <SCORE.INTRA.POLAR>
0

>  <SCORE.INTRA.POLAR.0>
0

>  <SCORE.INTRA.REPUL>
0

>  <SCORE.INTRA.REPUL.0>
0

>  <SCORE.INTRA.SOLV>
-0.981566

>  <SCORE.INTRA.SOLV.lig_0>
-45.868

>  <SCORE.INTRA.VDW>
0.307845

>  <SCORE.INTRA.VDW.0>
-0.397919

>  <SCORE.INTRA.norm>
-0.0128848

>  <SCORE.RESTR>
0

>  <SCORE.RESTR.CAVITY>
0

>  <SCORE.RESTR.norm>
0

>  <SCORE.SYSTEM>
0

>  <SCORE.SYSTEM.CONST>
0

>  <SCORE.SYSTEM.DIHEDRAL>
0

>  <SCORE.SYSTEM.SOLV>
0

>  <SCORE.SYSTEM.norm>
0

>  <SCORE.heavy>
13

>  <SCORE.norm>
-1.29942

>  <RMSD>
2.692

$$$$
ligand
 OpenBabel02271912143D
libRbt.so/2013.1/901 2013/11/27
 13 14  0  0  0  0  0  0  0  0999 V2000
   -5.5404  -34.8436  -42.9508 N   0  0  0  0  0  0  0  0  0  0  0  0
   -5.8096  -35.0176  -44.2820 C   0  0  0  0  0  0  0  0  0  0  0  0
   -6.9794  -35.6271  -44.6456 N   0  0  0  0  0  0  0  0  0  0  0  0
   -4.9585  -34.6052  -45.2219 N   0  0  0  0  0  0  0  0  0  0  0  0
   -3.7853  -33.9958  -44.8950 C   0  0  0  0  0  0  0  0  0  0  0  0
   -3.4633  -33.7982  -43.5343 C   0  0  0  0  0  0  0  0  0  0  0  0
   -4.3859  -34.2423  -42.5488 C   0  0  0  0  0  0  0  0  0  0  0  0
   -4.1541  -34.0912  -41.3748 O   0  0  0  0  0  0  0  0  0  0  0  0
   -2.1627  -33.1365  -43.5072 C   0  0  0  0  0  0  0  0  0  0  0  0
   -1.7863  -32.9704  -44.7875 C   0  0  0  0  0  0  0  0  0  0  0  0
   -2.7551  -33.4836  -45.6241 N   0  0  0  0  0  0  0  0  0  0  0  0
   -1.3900  -32.7278  -42.2793 C   0  0  0  0  0  0  0  0  0  0  0  0
    0.0387  -32.5996  -42.6311 N   0  0  0  0  0  0  0  0  0  0  0  0
  1  2  1  0  0  0  0
  1  7  1  0  0  0  0
  2  3  1  0  0  0  0
  2  4  2  0  0  0  0
  4  5  1  0  0  0  0
  5  6  2  0  0  0  0
  5 11  1  0  0  0  0
  6  7  1  0  0  0  0
  6  9  1  0  0  0  0
  7  8  2  0  0  0  0
  9 10  2  0  0  0  0
  9 12  1  0  0  0  0
 10 11  1  0  0  0  0
 12 13  1  0  0  0  0
M  END
>  <CHROM.1>
157.72788729,-3.63557748,-33.94056432,-43.67204914,2.93231125,-0.43541953
-1.57924120

>  <Name>
ligand

>  <RI>
0

>  <Rbt.Current_Directory>
/home/itssahil/PROJECTS/Mol_Feturizer/Test_systems_manuscript/rnas/3fu2

>  <Rbt.Executable>
rbdock ($Id: //depot/dev/client3/rdock/2013.1/src/exe/rbdock.cxx#4 $)

>  <Rbt.Library>
libRbt.so (2013.1, Build901 2013/11/27)

>  <Rbt.Parameter_File>
/export/apps/rDock/src/rDock_2013.1_src/data/scripts/dock_solv.prm

>  <Rbt.Receptor>
prm/pocket_docking_2.prm

>  <SCORE>
-16.8872

>  <SCORE.INTER>
-16.7211

>  <SCORE.INTER.CONST>
1

>  <SCORE.INTER.POLAR>
0

>  <SCORE.INTER.ROT>
1

>  <SCORE.INTER.SOLV>
20.1406

>  <SCORE.INTER.VDW>
-22.1276

>  <SCORE.INTER.norm>
-1.28624

>  <SCORE.INTRA>
-0.166133

>  <SCORE.INTRA.DIHEDRAL>
0.0307462

>  <SCORE.INTRA.DIHEDRAL.0>
1.66609

>  <SCORE.INTRA.POLAR>
0

>  <SCORE.INTRA.POLAR.0>
0

>  <SCORE.INTRA.REPUL>
0

>  <SCORE.INTRA.REPUL.0>
0

>  <SCORE.INTRA.SOLV>
-0.981481

>  <SCORE.INTRA.SOLV.lig_0>
-45.868

>  <SCORE.INTRA.VDW>
0.309234

>  <SCORE.INTRA.VDW.0>
-0.397919

>  <SCORE.INTRA.norm>
-0.0127795

>  <SCORE.RESTR>
0

>  <SCORE.RESTR.CAVITY>
0

>  <SCORE.RESTR.norm>
0

>  <SCORE.SYSTEM>
0

>  <SCORE.SYSTEM.CONST>
0

>  <SCORE.SYSTEM.DIHEDRAL>
0

>  <SCORE.SYSTEM.SOLV>
0

>  <SCORE.SYSTEM.norm>
0

>  <SCORE.heavy>
13

>  <SCORE.norm>
-1.29902

>  <RMSD>
2.694

$$$$
ligand
 OpenBabel02271912143D
libRbt.so/2013.1/901 2013/11/27
 13 14  0  0  0  0  0  0  0  0999 V2000
   -5.5379  -34.8426  -42.9507 N   0  0  0  0  0  0  0  0  0  0  0  0
   -5.8051  -35.0195  -44.2819 C   0  0  0  0  0  0  0  0  0  0  0  0
   -6.9733  -35.6320  -44.6458 N   0  0  0  0  0  0  0  0  0  0  0  0
   -4.9537  -34.6070  -45.2215 N   0  0  0  0  0  0  0  0  0  0  0  0
   -3.7822  -33.9946  -44.8943 C   0  0  0  0  0  0  0  0  0  0  0  0
   -3.4622  -33.7939  -43.5336 C   0  0  0  0  0  0  0  0  0  0  0  0
   -4.3851  -34.2382  -42.5483 C   0  0  0  0  0  0  0  0  0  0  0  0
   -4.1550  -34.0844  -41.3743 O   0  0  0  0  0  0  0  0  0  0  0  0
   -2.1630  -33.1295  -43.5060 C   0  0  0  0  0  0  0  0  0  0  0  0
   -1.7854  -32.9649  -44.7862 C   0  0  0  0  0  0  0  0  0  0  0  0
   -2.7521  -33.4816  -45.6230 N   0  0  0  0  0  0  0  0  0  0  0  0
   -1.3927  -32.7170  -42.2779 C   0  0  0  0  0  0  0  0  0  0  0  0
    0.0415  -32.6246  -42.6188 N   0  0  0  0  0  0  0  0  0  0  0  0
  1  2  1  0  0  0  0
  1  7  1  0  0  0  0
  2  3  1  0  0  0  0
  2  4  2  0  0  0  0
  4  5  1  0  0  0  0
  5  6  2  0  0  0  0
  5 11  1  0  0  0  0
  6  7  1  0  0  0  0
  6  9  1  0  0  0  0
  7  8  2  0  0  0  0
  9 10  2  0  0  0  0
  9 12  1  0  0  0  0
 10 11  1  0  0  0  0
 12 13  1  0  0  0  0
M  END
>  <CHROM.1>
156.10703745,-3.63360478,-33.93998502,-43.67045846,2.93035720,-0.43509373
-1.58031522

>  <Name>
ligand

>  <RI>
0

>  <Rbt.Current_Directory>
/home/itssahil/PROJECTS/Mol_Feturizer/Test_systems_manuscript/rnas/3fu2

>  <Rbt.Executable>
rbdock ($Id: //depot/dev/client3/rdock/2013.1/src/exe/rbdock.cxx#4 $)

>  <Rbt.Library>
libRbt.so (2013.1, Build901 2013/11/27)

>  <Rbt.Parameter_File>
/export/apps/rDock/src/rDock_2013.1_src/data/scripts/dock_solv.prm

>  <Rbt.Receptor>
prm/blind_docking_80.prm

>  <SCORE>
-16.8856

>  <SCORE.INTER>
-16.7126

>  <SCORE.INTER.CONST>
1

>  <SCORE.INTER.POLAR>
0

>  <SCORE.INTER.ROT>
1

>  <SCORE.INTER.SOLV>
20.1428

>  <SCORE.INTER.VDW>
-22.1227

>  <SCORE.INTER.norm>
-1.28558

>  <SCORE.INTRA>
-0.172953

>  <SCORE.INTRA.DIHEDRAL>
0.0313154

>  <SCORE.INTRA.DIHEDRAL.0>
1.66609

>  <SCORE.INTRA.POLAR>
0

>  <SCORE.INTRA.POLAR.0>
0

>  <SCORE.INTRA.REPUL>
0

>  <SCORE.INTRA.REPUL.0>
0

>  <SCORE.INTRA.SOLV>
-0.981906

>  <SCORE.INTRA.SOLV.lig_0>
-45.868

>  <SCORE.INTRA.VDW>
0.302342

>  <SCORE.INTRA.VDW.0>
-0.397919

>  <SCORE.INTRA.norm>
-0.013304

>  <SCORE.RESTR>
0

>  <SCORE.RESTR.CAVITY>
0

>  <SCORE.RESTR.norm>
0

>  <SCORE.SYSTEM>
0

>  <SCORE.SYSTEM.CONST>
0

>  <SCORE.SYSTEM.DIHEDRAL>
0

>  <SCORE.SYSTEM.SOLV>
0

>  <SCORE.SYSTEM.norm>
0

>  <SCORE.heavy>
13

>  <SCORE.norm>
-1.29889

>  <RMSD>
2.695

$$$$
ligand
 OpenBabel02271912143D
libRbt.so/2013.1/901 2013/11/27
 13 14  0  0  0  0  0  0  0  0999 V2000
   -5.5412  -34.8441  -42.9503 N   0  0  0  0  0  0  0  0  0  0  0  0
   -5.8102  -35.0163  -44.2818 C   0  0  0  0  0  0  0  0  0  0  0  0
   -6.9800  -35.6253  -44.6464 N   0  0  0  0  0  0  0  0  0  0  0  0
   -4.9590  -34.6026  -45.2210 N   0  0  0  0  0  0  0  0  0  0  0  0
   -3.7859  -33.9936  -44.8931 C   0  0  0  0  0  0  0  0  0  0  0  0
   -3.4640  -33.7979  -43.5321 C   0  0  0  0  0  0  0  0  0  0  0  0
   -4.3868  -34.2433  -42.5473 C   0  0  0  0  0  0  0  0  0  0  0  0
   -4.1551  -34.0936  -41.3731 O   0  0  0  0  0  0  0  0  0  0  0  0
   -2.1635  -33.1362  -43.5039 C   0  0  0  0  0  0  0  0  0  0  0  0
   -1.7869  -32.9684  -44.7840 C   0  0  0  0  0  0  0  0  0  0  0  0
   -2.7556  -33.4805  -45.6213 N   0  0  0  0  0  0  0  0  0  0  0  0
   -1.3910  -32.7290  -42.2754 C   0  0  0  0  0  0  0  0  0  0  0  0
    0.0399  -32.6147  -42.6234 N   0  0  0  0  0  0  0  0  0  0  0  0
  1  2  1  0  0  0  0
  1  7  1  0  0  0  0
  2  3  1  0  0  0  0
  2  4  2  0  0  0  0
  4  5  1  0  0  0  0
  5  6  2  0  0  0  0
  5 11  1  0  0  0  0
  6  7  1  0  0  0  0
  6  9  1  0  0  0  0
  7  8  2  0  0  0  0
  9 10  2  0  0  0  0
  9 12  1  0  0  0  0
 10 11  1  0  0  0  0
 12 13  1  0  0  0  0
M  END
>  <CHROM.1>
157.11696714,-3.63612901,-33.94119408,-43.66979247,2.93192065,-0.43454316
-1.57752402

>  <Name>
ligand

>  <RI>
0

>  <Rbt.Current_Directory>
/home/itssahil/PROJECTS/Mol_Feturizer/Test_systems_manuscript/rnas/3fu2

>  <Rbt.Executable>
rbdock ($Id: //depot/dev/client3/rdock/2013.1/src/exe/rbdock.cxx#4 $)

>  <Rbt.Library>
libRbt.so (2013.1, Build901 2013/11/27)

>  <Rbt.Parameter_File>
/export/apps/rDock/src/rDock_2013.1_src/data/scripts/dock_solv.prm

>  <Rbt.Receptor>
prm/pocket_docking_2.prm

>  <SCORE>
-16.8895

>  <SCORE.INTER>
-16.7209

>  <SCORE.INTER.CONST>
1

>  <SCORE.INTER.POLAR>
0

>  <SCORE.INTER.ROT>
1

>  <SCORE.INTER.SOLV>
20.1379

>  <SCORE.INTER.VDW>
-22.1265

>  <SCORE.INTER.norm>
-1.28622

>  <SCORE.INTRA>
-0.168668

>  <SCORE.INTRA.DIHEDRAL>
0.0309752

>  <SCORE.INTRA.DIHEDRAL.0>
1.66609

>  <SCORE.INTRA.POLAR>
0

>  <SCORE.INTRA.POLAR.0>
0

>  <SCORE.INTRA.REPUL>
0

>  <SCORE.INTRA.REPUL.0>
0

>  <SCORE.INTRA.SOLV>
-0.981638

>  <SCORE.INTRA.SOLV.lig_0>
-45.868

>  <SCORE.INTRA.VDW>
0.306664

>  <SCORE.INTRA.VDW.0>
-0.397919

>  <SCORE.INTRA.norm>
-0.0129744

>  <SCORE.RESTR>
0

>  <SCORE.RESTR.CAVITY>
0

>  <SCORE.RESTR.norm>
0

>  <SCORE.SYSTEM>
0

>  <SCORE.SYSTEM.CONST>
0

>  <SCORE.SYSTEM.DIHEDRAL>
0

>  <SCORE.SYSTEM.SOLV>
0

>  <SCORE.SYSTEM.norm>
0

>  <SCORE.heavy>
13

>  <SCORE.norm>
-1.2992

>  <RMSD>
2.695

$$$$
ligand
 OpenBabel02271912143D
libRbt.so/2013.1/901 2013/11/27
 13 14  0  0  0  0  0  0  0  0999 V2000
   -5.5341  -34.8438  -42.9518 N   0  0  0  0  0  0  0  0  0  0  0  0
   -5.8094  -35.0178  -44.2817 C   0  0  0  0  0  0  0  0  0  0  0  0
   -6.9807  -35.6276  -44.6399 N   0  0  0  0  0  0  0  0  0  0  0  0
   -4.9627  -34.6052  -45.2255 N   0  0  0  0  0  0  0  0  0  0  0  0
   -3.7882  -33.9955  -44.9041 C   0  0  0  0  0  0  0  0  0  0  0  0
   -3.4599  -33.7978  -43.5449 C   0  0  0  0  0  0  0  0  0  0  0  0
   -4.3779  -34.2422  -42.5551 C   0  0  0  0  0  0  0  0  0  0  0  0
   -4.1406  -34.0909  -41.3822 O   0  0  0  0  0  0  0  0  0  0  0  0
   -2.1594  -33.1358  -43.5238 C   0  0  0  0  0  0  0  0  0  0  0  0
   -1.7890  -32.9696  -44.8059 C   0  0  0  0  0  0  0  0  0  0  0  0
   -2.7616  -33.4831  -45.6379 N   0  0  0  0  0  0  0  0  0  0  0  0
   -1.3812  -32.7269  -42.2995 C   0  0  0  0  0  0  0  0  0  0  0  0
    0.0422  -32.5750  -42.6634 N   0  0  0  0  0  0  0  0  0  0  0  0
  1  2  1  0  0  0  0
  1  7  1  0  0  0  0
  2  3  1  0  0  0  0
  2  4  2  0  0  0  0
  4  5  1  0  0  0  0
  5  6  2  0  0  0  0
  5 11  1  0  0  0  0
  6  7  1  0  0  0  0
  6  9  1  0  0  0  0
  7  8  2  0  0  0  0
  9 10  2  0  0  0  0
  9 12  1  0  0  0  0
 10 11  1  0  0  0  0
 12 13  1  0  0  0  0
M  END
>  <CHROM.1>
158.72554576,-3.63313298,-33.93833286,-43.68227705,2.93775250,-0.43717092
-1.57786815

>  <Name>
ligand

>  <RI>
0

>  <Rbt.Current_Directory>
/home/itssahil/PROJECTS/Mol_Feturizer/Test_systems_manuscript/rnas/3fu2

>  <Rbt.Executable>
rbdock ($Id: //depot/dev/client3/rdock/2013.1/src/exe/rbdock.cxx#4 $)

>  <Rbt.Library>
libRbt.so (2013.1, Build901 2013/11/27)

>  <Rbt.Parameter_File>
/export/apps/rDock/src/rDock_2013.1_src/data/scripts/dock_solv.prm

>  <Rbt.Receptor>
prm/pocket_docking_2.prm

>  <SCORE>
-16.8734

>  <SCORE.INTER>
-16.7113

>  <SCORE.INTER.CONST>
1

>  <SCORE.INTER.POLAR>
0

>  <SCORE.INTER.ROT>
1

>  <SCORE.INTER.SOLV>
20.1794

>  <SCORE.INTER.VDW>
-22.134

>  <SCORE.INTER.norm>
-1.28549

>  <SCORE.INTRA>
-0.162093

>  <SCORE.INTRA.DIHEDRAL>
0.0303353

>  <SCORE.INTRA.DIHEDRAL.0>
1.66609

>  <SCORE.INTRA.POLAR>
0

>  <SCORE.INTRA.POLAR.0>
0

>  <SCORE.INTRA.REPUL>
0

>  <SCORE.INTRA.REPUL.0>
0

>  <SCORE.INTRA.SOLV>
-0.981232

>  <SCORE.INTRA.SOLV.lig_0>
-45.868

>  <SCORE.INTRA.VDW>
0.313355

>  <SCORE.INTRA.VDW.0>
-0.397919

>  <SCORE.INTRA.norm>
-0.0124687

>  <SCORE.RESTR>
0

>  <SCORE.RESTR.CAVITY>
0

>  <SCORE.RESTR.norm>
0

>  <SCORE.SYSTEM>
0

>  <SCORE.SYSTEM.CONST>
0

>  <SCORE.SYSTEM.DIHEDRAL>
0

>  <SCORE.SYSTEM.SOLV>
0

>  <SCORE.SYSTEM.norm>
0

>  <SCORE.heavy>
13

>  <SCORE.norm>
-1.29795

>  <RMSD>
2.695

$$$$
ligand
 OpenBabel02271912143D
libRbt.so/2013.1/901 2013/11/27
 13 14  0  0  0  0  0  0  0  0999 V2000
   -5.5443  -34.8554  -42.9393 N   0  0  0  0  0  0  0  0  0  0  0  0
   -5.8161  -35.0187  -44.2713 C   0  0  0  0  0  0  0  0  0  0  0  0
   -6.9861  -35.6265  -44.6374 N   0  0  0  0  0  0  0  0  0  0  0  0
   -4.9675  -34.5976  -45.2095 N   0  0  0  0  0  0  0  0  0  0  0  0
   -3.7943  -33.9897  -44.8801 C   0  0  0  0  0  0  0  0  0  0  0  0
   -3.4695  -33.8030  -43.5185 C   0  0  0  0  0  0  0  0  0  0  0  0
   -4.3896  -34.2562  -42.5347 C   0  0  0  0  0  0  0  0  0  0  0  0
   -4.1554  -34.1144  -41.3600 O   0  0  0  0  0  0  0  0  0  0  0  0
   -2.1697  -33.1401  -43.4886 C   0  0  0  0  0  0  0  0  0  0  0  0
   -1.7961  -32.9630  -44.7684 C   0  0  0  0  0  0  0  0  0  0  0  0
   -2.7662  -33.4704  -45.6071 N   0  0  0  0  0  0  0  0  0  0  0  0
   -1.3948  -32.7406  -42.2591 C   0  0  0  0  0  0  0  0  0  0  0  0
    0.0341  -32.6146  -42.6113 N   0  0  0  0  0  0  0  0  0  0  0  0
  1  2  1  0  0  0  0
  1  7  1  0  0  0  0
  2  3  1  0  0  0  0
  2  4  2  0  0  0  0
  4  5  1  0  0  0  0
  5  6  2  0  0  0  0
  5 11  1  0  0  0  0
  6  7  1  0  0  0  0
  6  9  1  0  0  0  0
  7  8  2  0  0  0  0
  9 10  2  0  0  0  0
  9 12  1  0  0  0  0
 10 11  1  0  0  0  0
 12 13  1  0  0  0  0
M  END
>  <CHROM.1>
157.44785468,-3.64189776,-33.94488834,-43.65691794,2.93453636,-0.43609281
-1.56982231

>  <Name>
ligand

>  <RI>
0

>  <Rbt.Current_Directory>
/home/itssahil/PROJECTS/Mol_Feturizer/Test_systems_manuscript/rnas/3fu2

>  <Rbt.Executable>
rbdock ($Id: //depot/dev/client3/rdock/2013.1/src/exe/rbdock.cxx#4 $)

>  <Rbt.Library>
libRbt.so (2013.1, Build901 2013/11/27)

>  <Rbt.Parameter_File>
/export/apps/rDock/src/rDock_2013.1_src/data/scripts/dock_solv.prm

>  <Rbt.Receptor>
prm/pocket_docking_7.prm

>  <SCORE>
-16.8625

>  <SCORE.INTER>
-16.6952

>  <SCORE.INTER.CONST>
1

>  <SCORE.INTER.POLAR>
0

>  <SCORE.INTER.ROT>
1

>  <SCORE.INTER.SOLV>
20.101

>  <SCORE.INTER.VDW>
-22.0971

>  <SCORE.INTER.norm>
-1.28425

>  <SCORE.INTRA>
-0.167289

>  <SCORE.INTRA.DIHEDRAL>
0.0308533

>  <SCORE.INTRA.DIHEDRAL.0>
1.66609

>  <SCORE.INTRA.POLAR>
0

>  <SCORE.INTRA.POLAR.0>
0

>  <SCORE.INTRA.REPUL>
0

>  <SCORE.INTRA.REPUL.0>
0

>  <SCORE.INTRA.SOLV>
-0.981552

>  <SCORE.INTRA.SOLV.lig_0>
-45.868

>  <SCORE.INTRA.VDW>
0.30806

>  <SCORE.INTRA.VDW.0>
-0.397919

>  <SCORE.INTRA.norm>
-0.0128684

>  <SCORE.RESTR>
0

>  <SCORE.RESTR.CAVITY>
0

>  <SCORE.RESTR.norm>
0

>  <SCORE.SYSTEM>
0

>  <SCORE.SYSTEM.CONST>
0

>  <SCORE.SYSTEM.DIHEDRAL>
0

>  <SCORE.SYSTEM.SOLV>
0

>  <SCORE.SYSTEM.norm>
0

>  <SCORE.heavy>
13

>  <SCORE.norm>
-1.29711

>  <RMSD>
2.695

$$$$
ligand
 OpenBabel02271912143D
libRbt.so/2013.1/901 2013/11/27
 13 14  0  0  0  0  0  0  0  0999 V2000
   -5.5114  -34.8425  -42.9567 N   0  0  0  0  0  0  0  0  0  0  0  0
   -5.8036  -35.0229  -44.2822 C   0  0  0  0  0  0  0  0  0  0  0  0
   -6.9772  -35.6384  -44.6225 N   0  0  0  0  0  0  0  0  0  0  0  0
   -4.9711  -34.6107  -45.2387 N   0  0  0  0  0  0  0  0  0  0  0  0
   -3.7948  -33.9953  -44.9351 C   0  0  0  0  0  0  0  0  0  0  0  0
   -3.4493  -33.7911  -43.5812 C   0  0  0  0  0  0  0  0  0  0  0  0
   -4.3524  -34.2350  -42.5776 C   0  0  0  0  0  0  0  0  0  0  0  0
   -4.1003  -34.0783  -41.4086 O   0  0  0  0  0  0  0  0  0  0  0  0
   -2.1512  -33.1241  -43.5798 C   0  0  0  0  0  0  0  0  0  0  0  0
   -1.7984  -32.9615  -44.8673 C   0  0  0  0  0  0  0  0  0  0  0  0
   -2.7798  -33.4819  -45.6844 N   0  0  0  0  0  0  0  0  0  0  0  0
   -1.3584  -32.7074  -42.3675 C   0  0  0  0  0  0  0  0  0  0  0  0
    0.0525  -32.5137  -42.7592 N   0  0  0  0  0  0  0  0  0  0  0  0
  1  2  1  0  0  0  0
  1  7  1  0  0  0  0
  2  3  1  0  0  0  0
  2  4  2  0  0  0  0
  4  5  1  0  0  0  0
  5  6  2  0  0  0  0
  5 11  1  0  0  0  0
  6  7  1  0  0  0  0
  6  9  1  0  0  0  0
  7  8  2  0  0  0  0
  9 10  2  0  0  0  0
  9 12  1  0  0  0  0
 10 11  1  0  0  0  0
 12 13  1  0  0  0  0
M  END
>  <CHROM.1>
160.33964559,-3.62433811,-33.92970562,-43.71640759,2.95280701,-0.44349220
-1.57674993

>  <Name>
ligand

>  <RI>
0

>  <Rbt.Current_Directory>
/home/itssahil/PROJECTS/Mol_Feturizer/Test_systems_manuscript/rnas/3fu2

>  <Rbt.Executable>
rbdock ($Id: //depot/dev/client3/rdock/2013.1/src/exe/rbdock.cxx#4 $)

>  <Rbt.Library>
libRbt.so (2013.1, Build901 2013/11/27)

>  <Rbt.Parameter_File>
/export/apps/rDock/src/rDock_2013.1_src/data/scripts/dock_solv.prm

>  <Rbt.Receptor>
prm/pocket_docking_2.prm

>  <SCORE>
-16.8249

>  <SCORE.INTER>
-16.669

>  <SCORE.INTER.CONST>
1

>  <SCORE.INTER.POLAR>
0

>  <SCORE.INTER.ROT>
1

>  <SCORE.INTER.SOLV>
20.2973

>  <SCORE.INTER.VDW>
-22.1451

>  <SCORE.INTER.norm>
-1.28223

>  <SCORE.INTRA>
-0.155843

>  <SCORE.INTRA.DIHEDRAL>
0.0295762

>  <SCORE.INTRA.DIHEDRAL.0>
1.66609

>  <SCORE.INTRA.POLAR>
0

>  <SCORE.INTRA.POLAR.0>
0

>  <SCORE.INTRA.REPUL>
0

>  <SCORE.INTRA.REPUL.0>
0

>  <SCORE.INTRA.SOLV>
-0.980852

>  <SCORE.INTRA.SOLV.lig_0>
-45.868

>  <SCORE.INTRA.VDW>
0.319795

>  <SCORE.INTRA.VDW.0>
-0.397919

>  <SCORE.INTRA.norm>
-0.0119879

>  <SCORE.RESTR>
0

>  <SCORE.RESTR.CAVITY>
0

>  <SCORE.RESTR.norm>
0

>  <SCORE.SYSTEM>
0

>  <SCORE.SYSTEM.CONST>
0

>  <SCORE.SYSTEM.DIHEDRAL>
0

>  <SCORE.SYSTEM.SOLV>
0

>  <SCORE.SYSTEM.norm>
0

>  <SCORE.heavy>
13

>  <SCORE.norm>
-1.29422

>  <RMSD>
2.696

$$$$
ligand
 OpenBabel02271912143D
libRbt.so/2013.1/901 2013/11/27
 13 14  0  0  0  0  0  0  0  0999 V2000
   -5.5387  -34.8397  -42.9539 N   0  0  0  0  0  0  0  0  0  0  0  0
   -5.8155  -35.0025  -44.2849 C   0  0  0  0  0  0  0  0  0  0  0  0
   -6.9894  -35.6050  -44.6470 N   0  0  0  0  0  0  0  0  0  0  0  0
   -4.9678  -34.5860  -45.2261 N   0  0  0  0  0  0  0  0  0  0  0  0
   -3.7908  -33.9833  -44.9008 C   0  0  0  0  0  0  0  0  0  0  0  0
   -3.4609  -33.7973  -43.5403 C   0  0  0  0  0  0  0  0  0  0  0  0
   -4.3800  -34.2456  -42.5533 C   0  0  0  0  0  0  0  0  0  0  0  0
   -4.1414  -34.1042  -41.3795 O   0  0  0  0  0  0  0  0  0  0  0  0
   -2.1578  -33.1405  -43.5150 C   0  0  0  0  0  0  0  0  0  0  0  0
   -1.7875  -32.9660  -44.7960 C   0  0  0  0  0  0  0  0  0  0  0  0
   -2.7625  -33.4693  -45.6313 N   0  0  0  0  0  0  0  0  0  0  0  0
   -1.3772  -32.7438  -42.2881 C   0  0  0  0  0  0  0  0  0  0  0  0
    0.0472  -32.5989  -42.6509 N   0  0  0  0  0  0  0  0  0  0  0  0
  1  2  1  0  0  0  0
  1  7  1  0  0  0  0
  2  3  1  0  0  0  0
  2  4  2  0  0  0  0
  4  5  1  0  0  0  0
  5  6  2  0  0  0  0
  5 11  1  0  0  0  0
  6  7  1  0  0  0  0
  6  9  1  0  0  0  0
  7  8  2  0  0  0  0
  9 10  2  0  0  0  0
  9 12  1  0  0  0  0
 10 11  1  0  0  0  0
 12 13  1  0  0  0  0
M  END
>  <CHROM.1>
158.54704499,-3.63463259,-33.93639030,-43.67857491,2.93839473,-0.43304178
-1.56982609

>  <Name>
ligand

>  <RI>
0

>  <Rbt.Current_Directory>
/home/itssahil/PROJECTS/Mol_Feturizer/Test_systems_manuscript/rnas/3fu2

>  <Rbt.Executable>
rbdock ($Id: //depot/dev/client3/rdock/2013.1/src/exe/rbdock.cxx#4 $)

>  <Rbt.Library>
libRbt.so (2013.1, Build901 2013/11/27)

>  <Rbt.Parameter_File>
/export/apps/rDock/src/rDock_2013.1_src/data/scripts/dock_solv.prm

>  <Rbt.Receptor>
prm/pocket_docking_3.prm

>  <SCORE>
-16.8732

>  <SCORE.INTER>
-16.7104

>  <SCORE.INTER.CONST>
1

>  <SCORE.INTER.POLAR>
0

>  <SCORE.INTER.ROT>
1

>  <SCORE.INTER.SOLV>
20.1718

>  <SCORE.INTER.VDW>
-22.1308

>  <SCORE.INTER.norm>
-1.28541

>  <SCORE.INTRA>
-0.162807

>  <SCORE.INTRA.DIHEDRAL>
0.0304122

>  <SCORE.INTRA.DIHEDRAL.0>
1.66609

>  <SCORE.INTRA.POLAR>
0

>  <SCORE.INTRA.POLAR.0>
0

>  <SCORE.INTRA.REPUL>
0

>  <SCORE.INTRA.REPUL.0>
0

>  <SCORE.INTRA.SOLV>
-0.981276

>  <SCORE.INTRA.SOLV.lig_0>
-45.868

>  <SCORE.INTRA.VDW>
0.312625

>  <SCORE.INTRA.VDW.0>
-0.397919

>  <SCORE.INTRA.norm>
-0.0125236

>  <SCORE.RESTR>
0

>  <SCORE.RESTR.CAVITY>
0

>  <SCORE.RESTR.norm>
0

>  <SCORE.SYSTEM>
0

>  <SCORE.SYSTEM.CONST>
0

>  <SCORE.SYSTEM.DIHEDRAL>
0

>  <SCORE.SYSTEM.SOLV>
0

>  <SCORE.SYSTEM.norm>
0

>  <SCORE.heavy>
13

>  <SCORE.norm>
-1.29794

>  <RMSD>
2.696

$$$$
ligand
 OpenBabel02271912143D
libRbt.so/2013.1/901 2013/11/27
 13 14  0  0  0  0  0  0  0  0999 V2000
   -5.5520  -34.8514  -42.9416 N   0  0  0  0  0  0  0  0  0  0  0  0
   -5.8243  -35.0120  -44.2739 C   0  0  0  0  0  0  0  0  0  0  0  0
   -6.9976  -35.6128  -44.6409 N   0  0  0  0  0  0  0  0  0  0  0  0
   -4.9730  -34.5949  -45.2115 N   0  0  0  0  0  0  0  0  0  0  0  0
   -3.7965  -33.9939  -44.8812 C   0  0  0  0  0  0  0  0  0  0  0  0
   -3.4711  -33.8103  -43.5193 C   0  0  0  0  0  0  0  0  0  0  0  0
   -4.3941  -34.2591  -42.5362 C   0  0  0  0  0  0  0  0  0  0  0  0
   -4.1595  -34.1197  -41.3613 O   0  0  0  0  0  0  0  0  0  0  0  0
   -2.1675  -33.1548  -43.4884 C   0  0  0  0  0  0  0  0  0  0  0  0
   -1.7926  -32.9788  -44.7679 C   0  0  0  0  0  0  0  0  0  0  0  0
   -2.7652  -33.4799  -45.6074 N   0  0  0  0  0  0  0  0  0  0  0  0
   -1.3908  -32.7609  -42.2583 C   0  0  0  0  0  0  0  0  0  0  0  0
    0.0338  -32.6090  -42.6176 N   0  0  0  0  0  0  0  0  0  0  0  0
  1  2  1  0  0  0  0
  1  7  1  0  0  0  0
  2  3  1  0  0  0  0
  2  4  2  0  0  0  0
  4  5  1  0  0  0  0
  5  6  2  0  0  0  0
  5 11  1  0  0  0  0
  6  7  1  0  0  0  0
  6  9  1  0  0  0  0
  7  8  2  0  0  0  0
  9 10  2  0  0  0  0
  9 12  1  0  0  0  0
 10 11  1  0  0  0  0
 12 13  1  0  0  0  0
M  END
>  <CHROM.1>
158.88042488,-3.64465732,-33.94836838,-43.65850462,2.93468016,-0.43252087
-1.57017297

>  <Name>
ligand

>  <RI>
0

>  <Rbt.Current_Directory>
/home/itssahil/PROJECTS/Mol_Feturizer/Test_systems_manuscript/rnas/3fu2

>  <Rbt.Executable>
rbdock ($Id: //depot/dev/client3/rdock/2013.1/src/exe/rbdock.cxx#4 $)

>  <Rbt.Library>
libRbt.so (2013.1, Build901 2013/11/27)

>  <Rbt.Parameter_File>
/export/apps/rDock/src/rDock_2013.1_src/data/scripts/dock_solv.prm

>  <Rbt.Receptor>
prm/pocket_docking_4.prm

>  <SCORE>
-16.8641

>  <SCORE.INTER>
-16.7026

>  <SCORE.INTER.CONST>
1

>  <SCORE.INTER.POLAR>
0

>  <SCORE.INTER.ROT>
1

>  <SCORE.INTER.SOLV>
20.1148

>  <SCORE.INTER.VDW>
-22.1067

>  <SCORE.INTER.norm>
-1.28482

>  <SCORE.INTRA>
-0.161478

>  <SCORE.INTRA.DIHEDRAL>
0.0302675

>  <SCORE.INTRA.DIHEDRAL.0>
1.66609

>  <SCORE.INTRA.POLAR>
0

>  <SCORE.INTRA.POLAR.0>
0

>  <SCORE.INTRA.REPUL>
0

>  <SCORE.INTRA.REPUL.0>
0

>  <SCORE.INTRA.SOLV>
-0.981195

>  <SCORE.INTRA.SOLV.lig_0>
-45.868

>  <SCORE.INTRA.VDW>
0.313986

>  <SCORE.INTRA.VDW.0>
-0.397919

>  <SCORE.INTRA.norm>
-0.0124214

>  <SCORE.RESTR>
0

>  <SCORE.RESTR.CAVITY>
0

>  <SCORE.RESTR.norm>
0

>  <SCORE.SYSTEM>
0

>  <SCORE.SYSTEM.CONST>
0

>  <SCORE.SYSTEM.DIHEDRAL>
0

>  <SCORE.SYSTEM.SOLV>
0

>  <SCORE.SYSTEM.norm>
0

>  <SCORE.heavy>
13

>  <SCORE.norm>
-1.29724

>  <RMSD>
2.696

$$$$
ligand
 OpenBabel02271912143D
libRbt.so/2013.1/901 2013/11/27
 13 14  0  0  0  0  0  0  0  0999 V2000
   -5.5572  -34.8318  -42.9583 N   0  0  0  0  0  0  0  0  0  0  0  0
   -5.8258  -34.9949  -44.2910 C   0  0  0  0  0  0  0  0  0  0  0  0
   -7.0010  -35.5905  -44.6603 N   0  0  0  0  0  0  0  0  0  0  0  0
   -4.9690  -34.5852  -45.2269 N   0  0  0  0  0  0  0  0  0  0  0  0
   -3.7904  -33.9896  -44.8943 C   0  0  0  0  0  0  0  0  0  0  0  0
   -3.4688  -33.8036  -43.5319 C   0  0  0  0  0  0  0  0  0  0  0  0
   -4.3975  -34.2446  -42.5506 C   0  0  0  0  0  0  0  0  0  0  0  0
   -4.1662  -34.1029  -41.3753 O   0  0  0  0  0  0  0  0  0  0  0  0
   -2.1617  -33.1551  -43.4984 C   0  0  0  0  0  0  0  0  0  0  0  0
   -1.7815  -32.9849  -44.7771 C   0  0  0  0  0  0  0  0  0  0  0  0
   -2.7539  -33.4833  -45.6184 N   0  0  0  0  0  0  0  0  0  0  0  0
   -1.3871  -32.7617  -42.2668 C   0  0  0  0  0  0  0  0  0  0  0  0
    0.0371  -32.6039  -42.6247 N   0  0  0  0  0  0  0  0  0  0  0  0
  1  2  1  0  0  0  0
  1  7  1  0  0  0  0
  2  3  1  0  0  0  0
  2  4  2  0  0  0  0
  4  5  1  0  0  0  0
  5  6  2  0  0  0  0
  5 11  1  0  0  0  0
  6  7  1  0  0  0  0
  6  9  1  0  0  0  0
  7  8  2  0  0  0  0
  9 10  2  0  0  0  0
  9 12  1  0  0  0  0
 10 11  1  0  0  0  0
 12 13  1  0  0  0  0
M  END
>  <CHROM.1>
159.49918634,-3.64274409,-33.94000453,-43.67149367,2.93107644,-0.42805203
-1.57520761

>  <Name>
ligand

>  <RI>
0

>  <Rbt.Current_Directory>
/home/itssahil/PROJECTS/Mol_Feturizer/Test_systems_manuscript/rnas/3fu2

>  <Rbt.Executable>
rbdock ($Id: //depot/dev/client3/rdock/2013.1/src/exe/rbdock.cxx#4 $)

>  <Rbt.Library>
libRbt.so (2013.1, Build901 2013/11/27)

>  <Rbt.Parameter_File>
/export/apps/rDock/src/rDock_2013.1_src/data/scripts/dock_solv.prm

>  <Rbt.Receptor>
prm/pocket_docking_7.prm

>  <SCORE>
-16.9089

>  <SCORE.INTER>
-16.7498

>  <SCORE.INTER.CONST>
1

>  <SCORE.INTER.POLAR>
0

>  <SCORE.INTER.ROT>
1

>  <SCORE.INTER.SOLV>
20.1402

>  <SCORE.INTER.VDW>
-22.1466

>  <SCORE.INTER.norm>
-1.28845

>  <SCORE.INTRA>
-0.159051

>  <SCORE.INTRA.DIHEDRAL>
0.0299858

>  <SCORE.INTRA.DIHEDRAL.0>
1.66609

>  <SCORE.INTRA.POLAR>
0

>  <SCORE.INTRA.POLAR.0>
0

>  <SCORE.INTRA.REPUL>
0

>  <SCORE.INTRA.REPUL.0>
0

>  <SCORE.INTRA.SOLV>
-0.981047

>  <SCORE.INTRA.SOLV.lig_0>
-45.868

>  <SCORE.INTRA.VDW>
0.316479

>  <SCORE.INTRA.VDW.0>
-0.397919

>  <SCORE.INTRA.norm>
-0.0122347

>  <SCORE.RESTR>
0

>  <SCORE.RESTR.CAVITY>
0

>  <SCORE.RESTR.norm>
0

>  <SCORE.SYSTEM>
0

>  <SCORE.SYSTEM.CONST>
0

>  <SCORE.SYSTEM.DIHEDRAL>
0

>  <SCORE.SYSTEM.SOLV>
0

>  <SCORE.SYSTEM.norm>
0

>  <SCORE.heavy>
13

>  <SCORE.norm>
-1.30068

>  <RMSD>
2.696

$$$$
ligand
 OpenBabel02271912143D
libRbt.so/2013.1/901 2013/11/27
 13 14  0  0  0  0  0  0  0  0999 V2000
   -5.5188  -34.8454  -42.9404 N   0  0  0  0  0  0  0  0  0  0  0  0
   -5.8181  -35.0068  -44.2667 C   0  0  0  0  0  0  0  0  0  0  0  0
   -6.9961  -35.6127  -44.6094 N   0  0  0  0  0  0  0  0  0  0  0  0
   -4.9885  -34.5855  -45.2217 N   0  0  0  0  0  0  0  0  0  0  0  0
   -3.8081  -33.9792  -44.9158 C   0  0  0  0  0  0  0  0  0  0  0  0
   -3.4552  -33.7945  -43.5609 C   0  0  0  0  0  0  0  0  0  0  0  0
   -4.3554  -34.2479  -42.5589 C   0  0  0  0  0  0  0  0  0  0  0  0
   -4.0969  -34.1079  -41.3891 O   0  0  0  0  0  0  0  0  0  0  0  0
   -2.1542  -33.1331  -43.5570 C   0  0  0  0  0  0  0  0  0  0  0  0
   -1.8069  -32.9549  -44.8439 C   0  0  0  0  0  0  0  0  0  0  0  0
   -2.7945  -33.4602  -45.6631 N   0  0  0  0  0  0  0  0  0  0  0  0
   -1.3538  -32.7361  -42.3432 C   0  0  0  0  0  0  0  0  0  0  0  0
    0.0569  -32.5477  -42.7383 N   0  0  0  0  0  0  0  0  0  0  0  0
  1  2  1  0  0  0  0
  1  7  1  0  0  0  0
  2  3  1  0  0  0  0
  2  4  2  0  0  0  0
  4  5  1  0  0  0  0
  5  6  2  0  0  0  0
  5 11  1  0  0  0  0
  6  7  1  0  0  0  0
  6  9  1  0  0  0  0
  7  8  2  0  0  0  0
  9 10  2  0  0  0  0
  9 12  1  0  0  0  0
 10 11  1  0  0  0  0
 12 13  1  0  0  0  0
M  END
>  <CHROM.1>
160.14975012,-3.63138636,-33.93094437,-43.69702408,2.95813448,-0.43889026
-1.56098444

>  <Name>
ligand

>  <RI>
0

>  <Rbt.Current_Directory>
/home/itssahil/PROJECTS/Mol_Feturizer/Test_systems_manuscript/rnas/3fu2

>  <Rbt.Executable>
rbdock ($Id: //depot/dev/client3/rdock/2013.1/src/exe/rbdock.cxx#4 $)

>  <Rbt.Library>
libRbt.so (2013.1, Build901 2013/11/27)

>  <Rbt.Parameter_File>
/export/apps/rDock/src/rDock_2013.1_src/data/scripts/dock_solv.prm

>  <Rbt.Receptor>
prm/pocket_docking_4.prm

>  <SCORE>
-16.8147

>  <SCORE.INTER>
-16.6582

>  <SCORE.INTER.CONST>
1

>  <SCORE.INTER.POLAR>
0

>  <SCORE.INTER.ROT>
1

>  <SCORE.INTER.SOLV>
20.2872

>  <SCORE.INTER.VDW>
-22.1345

>  <SCORE.INTER.norm>
-1.2814

>  <SCORE.INTRA>
-0.156559

>  <SCORE.INTRA.DIHEDRAL>
0.0296714

>  <SCORE.INTRA.DIHEDRAL.0>
1.66609

>  <SCORE.INTRA.POLAR>
0

>  <SCORE.INTRA.POLAR.0>
0

>  <SCORE.INTRA.REPUL>
0

>  <SCORE.INTRA.REPUL.0>
0

>  <SCORE.INTRA.SOLV>
-0.980895

>  <SCORE.INTRA.SOLV.lig_0>
-45.868

>  <SCORE.INTRA.VDW>
0.319053

>  <SCORE.INTRA.VDW.0>
-0.397919

>  <SCORE.INTRA.norm>
-0.012043

>  <SCORE.RESTR>
0

>  <SCORE.RESTR.CAVITY>
0

>  <SCORE.RESTR.norm>
0

>  <SCORE.SYSTEM>
0

>  <SCORE.SYSTEM.CONST>
0

>  <SCORE.SYSTEM.DIHEDRAL>
0

>  <SCORE.SYSTEM.SOLV>
0

>  <SCORE.SYSTEM.norm>
0

>  <SCORE.heavy>
13

>  <SCORE.norm>
-1.29344

>  <RMSD>
2.697

$$$$
ligand
 OpenBabel02271912143D
libRbt.so/2013.1/901 2013/11/27
 13 14  0  0  0  0  0  0  0  0999 V2000
   -5.5382  -34.8413  -42.9529 N   0  0  0  0  0  0  0  0  0  0  0  0
   -5.8132  -35.0053  -44.2842 C   0  0  0  0  0  0  0  0  0  0  0  0
   -6.9858  -35.6099  -44.6472 N   0  0  0  0  0  0  0  0  0  0  0  0
   -4.9652  -34.5878  -45.2246 N   0  0  0  0  0  0  0  0  0  0  0  0
   -3.7895  -33.9830  -44.8982 C   0  0  0  0  0  0  0  0  0  0  0  0
   -3.4614  -33.7958  -43.5375 C   0  0  0  0  0  0  0  0  0  0  0  0
   -4.3809  -34.2452  -42.5513 C   0  0  0  0  0  0  0  0  0  0  0  0
   -4.1439  -34.1028  -41.3773 O   0  0  0  0  0  0  0  0  0  0  0  0
   -2.1595  -33.1369  -43.5110 C   0  0  0  0  0  0  0  0  0  0  0  0
   -1.7881  -32.9623  -44.7917 C   0  0  0  0  0  0  0  0  0  0  0  0
   -2.7613  -33.4677  -45.6279 N   0  0  0  0  0  0  0  0  0  0  0  0
   -1.3809  -32.7384  -42.2835 C   0  0  0  0  0  0  0  0  0  0  0  0
    0.0501  -32.6352  -42.6345 N   0  0  0  0  0  0  0  0  0  0  0  0
  1  2  1  0  0  0  0
  1  7  1  0  0  0  0
  2  3  1  0  0  0  0
  2  4  2  0  0  0  0
  4  5  1  0  0  0  0
  5  6  2  0  0  0  0
  5 11  1  0  0  0  0
  6  7  1  0  0  0  0
  6  9  1  0  0  0  0
  7  8  2  0  0  0  0
  9 10  2  0  0  0  0
  9 12  1  0  0  0  0
 10 11  1  0  0  0  0
 12 13  1  0  0  0  0
M  END
>  <CHROM.1>
156.67710392,-3.63431120,-33.93885600,-43.67506805,2.93650673,-0.43193767
-1.56936248

>  <Name>
ligand

>  <RI>
0

>  <Rbt.Current_Directory>
/home/itssahil/PROJECTS/Mol_Feturizer/Test_systems_manuscript/rnas/3fu2

>  <Rbt.Executable>
rbdock ($Id: //depot/dev/client3/rdock/2013.1/src/exe/rbdock.cxx#4 $)

>  <Rbt.Library>
libRbt.so (2013.1, Build901 2013/11/27)

>  <Rbt.Parameter_File>
/export/apps/rDock/src/rDock_2013.1_src/data/scripts/dock_solv.prm

>  <Rbt.Receptor>
prm/pocket_docking_2.prm

>  <SCORE>
-16.8783

>  <SCORE.INTER>
-16.7078

>  <SCORE.INTER.CONST>
1

>  <SCORE.INTER.POLAR>
0

>  <SCORE.INTER.ROT>
1

>  <SCORE.INTER.SOLV>
20.1734

>  <SCORE.INTER.VDW>
-22.1297

>  <SCORE.INTER.norm>
-1.28522

>  <SCORE.INTRA>
-0.17052

>  <SCORE.INTRA.DIHEDRAL>
0.0311293

>  <SCORE.INTRA.DIHEDRAL.0>
1.66609

>  <SCORE.INTRA.POLAR>
0

>  <SCORE.INTRA.POLAR.0>
0

>  <SCORE.INTRA.REPUL>
0

>  <SCORE.INTRA.REPUL.0>
0

>  <SCORE.INTRA.SOLV>
-0.981753

>  <SCORE.INTRA.SOLV.lig_0>
-45.868

>  <SCORE.INTRA.VDW>
0.304792

>  <SCORE.INTRA.VDW.0>
-0.397919

>  <SCORE.INTRA.norm>
-0.0131169

>  <SCORE.RESTR>
0

>  <SCORE.RESTR.CAVITY>
0

>  <SCORE.RESTR.norm>
0

>  <SCORE.SYSTEM>
0

>  <SCORE.SYSTEM.CONST>
0

>  <SCORE.SYSTEM.DIHEDRAL>
0

>  <SCORE.SYSTEM.SOLV>
0

>  <SCORE.SYSTEM.norm>
0

>  <SCORE.heavy>
13

>  <SCORE.norm>
-1.29833

>  <RMSD>
2.698

$$$$
ligand
 OpenBabel02271912143D
libRbt.so/2013.1/901 2013/11/27
 13 14  0  0  0  0  0  0  0  0999 V2000
   -5.5274  -34.8628  -42.9327 N   0  0  0  0  0  0  0  0  0  0  0  0
   -5.8059  -35.0349  -44.2623 C   0  0  0  0  0  0  0  0  0  0  0  0
   -6.9733  -35.6534  -44.6184 N   0  0  0  0  0  0  0  0  0  0  0  0
   -4.9661  -34.6120  -45.2076 N   0  0  0  0  0  0  0  0  0  0  0  0
   -3.7957  -33.9934  -44.8882 C   0  0  0  0  0  0  0  0  0  0  0  0
   -3.4643  -33.7974  -43.5296 C   0  0  0  0  0  0  0  0  0  0  0  0
   -4.3750  -34.2528  -42.5380 C   0  0  0  0  0  0  0  0  0  0  0  0
   -4.1350  -34.1033  -41.3655 O   0  0  0  0  0  0  0  0  0  0  0  0
   -2.1694  -33.1245  -43.5108 C   0  0  0  0  0  0  0  0  0  0  0  0
   -1.8049  -32.9510  -44.7936 C   0  0  0  0  0  0  0  0  0  0  0  0
   -2.7759  -33.4700  -45.6239 N   0  0  0  0  0  0  0  0  0  0  0  0
   -1.3904  -32.7129  -42.2879 C   0  0  0  0  0  0  0  0  0  0  0  0
    0.0440  -32.6422  -42.6331 N   0  0  0  0  0  0  0  0  0  0  0  0
  1  2  1  0  0  0  0
  1  7  1  0  0  0  0
  2  3  1  0  0  0  0
  2  4  2  0  0  0  0
  4  5  1  0  0  0  0
  5  6  2  0  0  0  0
  5 11  1  0  0  0  0
  6  7  1  0  0  0  0
  6  9  1  0  0  0  0
  7  8  2  0  0  0  0
  9 10  2  0  0  0  0
  9 12  1  0  0  0  0
 10 11  1  0  0  0  0
 12 13  1  0  0  0  0
M  END
>  <CHROM.1>
154.69776355,-3.63569218,-33.94662945,-43.66491863,2.94006337,-0.43980151
-1.56980479

>  <Name>
ligand

>  <RI>
0

>  <Rbt.Current_Directory>
/home/itssahil/PROJECTS/Mol_Feturizer/Test_systems_manuscript/rnas/3fu2

>  <Rbt.Executable>
rbdock ($Id: //depot/dev/client3/rdock/2013.1/src/exe/rbdock.cxx#4 $)

>  <Rbt.Library>
libRbt.so (2013.1, Build901 2013/11/27)

>  <Rbt.Parameter_File>
/export/apps/rDock/src/rDock_2013.1_src/data/scripts/dock_solv.prm

>  <Rbt.Receptor>
prm/pocket_docking_3.prm

>  <SCORE>
-16.848

>  <SCORE.INTER>
-16.6512

>  <SCORE.INTER.CONST>
1

>  <SCORE.INTER.POLAR>
0

>  <SCORE.INTER.ROT>
1

>  <SCORE.INTER.SOLV>
20.1745

>  <SCORE.INTER.VDW>
-22.0923

>  <SCORE.INTER.norm>
-1.28087

>  <SCORE.INTRA>
-0.196735

>  <SCORE.INTRA.DIHEDRAL>
0.0317086

>  <SCORE.INTRA.DIHEDRAL.0>
1.66609

>  <SCORE.INTRA.POLAR>
0

>  <SCORE.INTRA.POLAR.0>
0

>  <SCORE.INTRA.REPUL>
0

>  <SCORE.INTRA.REPUL.0>
0

>  <SCORE.INTRA.SOLV>
-0.982294

>  <SCORE.INTRA.SOLV.lig_0>
-45.868

>  <SCORE.INTRA.VDW>
0.278558

>  <SCORE.INTRA.VDW.0>
-0.397919

>  <SCORE.INTRA.norm>
-0.0151334

>  <SCORE.RESTR>
0

>  <SCORE.RESTR.CAVITY>
0

>  <SCORE.RESTR.norm>
0

>  <SCORE.SYSTEM>
0

>  <SCORE.SYSTEM.CONST>
0

>  <SCORE.SYSTEM.DIHEDRAL>
0

>  <SCORE.SYSTEM.SOLV>
0

>  <SCORE.SYSTEM.norm>
0

>  <SCORE.heavy>
13

>  <SCORE.norm>
-1.296

>  <RMSD>
2.698

$$$$
ligand
 OpenBabel02271912143D
libRbt.so/2013.1/901 2013/11/27
 13 14  0  0  0  0  0  0  0  0999 V2000
   -5.5110  -34.8496  -42.9504 N   0  0  0  0  0  0  0  0  0  0  0  0
   -5.8070  -35.0127  -44.2773 C   0  0  0  0  0  0  0  0  0  0  0  0
   -6.9816  -35.6240  -44.6221 N   0  0  0  0  0  0  0  0  0  0  0  0
   -4.9773  -34.5880  -45.2308 N   0  0  0  0  0  0  0  0  0  0  0  0
   -3.8002  -33.9764  -44.9227 C   0  0  0  0  0  0  0  0  0  0  0  0
   -3.4508  -33.7898  -43.5672 C   0  0  0  0  0  0  0  0  0  0  0  0
   -4.3509  -34.2469  -42.5668 C   0  0  0  0  0  0  0  0  0  0  0  0
   -4.0954  -34.1054  -41.3966 O   0  0  0  0  0  0  0  0  0  0  0  0
   -2.1528  -33.1227  -43.5609 C   0  0  0  0  0  0  0  0  0  0  0  0
   -1.8038  -32.9433  -44.8472 C   0  0  0  0  0  0  0  0  0  0  0  0
   -2.7876  -33.4532  -45.6682 N   0  0  0  0  0  0  0  0  0  0  0  0
   -1.3565  -32.7217  -42.3457 C   0  0  0  0  0  0  0  0  0  0  0  0
    0.0612  -32.5661  -42.7298 N   0  0  0  0  0  0  0  0  0  0  0  0
  1  2  1  0  0  0  0
  1  7  1  0  0  0  0
  2  3  1  0  0  0  0
  2  4  2  0  0  0  0
  4  5  1  0  0  0  0
  5  6  2  0  0  0  0
  5 11  1  0  0  0  0
  6  7  1  0  0  0  0
  6  9  1  0  0  0  0
  7  8  2  0  0  0  0
  9 10  2  0  0  0  0
  9 12  1  0  0  0  0
 10 11  1  0  0  0  0
 12 13  1  0  0  0  0
M  END
>  <CHROM.1>
158.49149138,-3.62558019,-33.93019996,-43.70295385,2.95548879,-0.44083323
-1.56097954

>  <Name>
ligand

>  <RI>
0

>  <Rbt.Current_Directory>
/home/itssahil/PROJECTS/Mol_Feturizer/Test_systems_manuscript/rnas/3fu2

>  <Rbt.Executable>
rbdock ($Id: //depot/dev/client3/rdock/2013.1/src/exe/rbdock.cxx#4 $)

>  <Rbt.Library>
libRbt.so (2013.1, Build901 2013/11/27)

>  <Rbt.Parameter_File>
/export/apps/rDock/src/rDock_2013.1_src/data/scripts/dock_solv.prm

>  <Rbt.Receptor>
prm/pocket_docking_7.prm

>  <SCORE>
-16.8562

>  <SCORE.INTER>
-16.6931

>  <SCORE.INTER.CONST>
1

>  <SCORE.INTER.POLAR>
0

>  <SCORE.INTER.ROT>
1

>  <SCORE.INTER.SOLV>
20.2783

>  <SCORE.INTER.VDW>
-22.1548

>  <SCORE.INTER.norm>
-1.28409

>  <SCORE.INTRA>
-0.163029

>  <SCORE.INTRA.DIHEDRAL>
0.0304358

>  <SCORE.INTRA.DIHEDRAL.0>
1.66609

>  <SCORE.INTRA.POLAR>
0

>  <SCORE.INTRA.POLAR.0>
0

>  <SCORE.INTRA.REPUL>
0

>  <SCORE.INTRA.REPUL.0>
0

>  <SCORE.INTRA.SOLV>
-0.98129

>  <SCORE.INTRA.SOLV.lig_0>
-45.868

>  <SCORE.INTRA.VDW>
0.312397

>  <SCORE.INTRA.VDW.0>
-0.397919

>  <SCORE.INTRA.norm>
-0.0125407

>  <SCORE.RESTR>
0

>  <SCORE.RESTR.CAVITY>
0

>  <SCORE.RESTR.norm>
0

>  <SCORE.SYSTEM>
0

>  <SCORE.SYSTEM.CONST>
0

>  <SCORE.SYSTEM.DIHEDRAL>
0

>  <SCORE.SYSTEM.SOLV>
0

>  <SCORE.SYSTEM.norm>
0

>  <SCORE.heavy>
13

>  <SCORE.norm>
-1.29663

>  <RMSD>
2.698

$$$$
ligand
 OpenBabel02271912143D
libRbt.so/2013.1/901 2013/11/27
 13 14  0  0  0  0  0  0  0  0999 V2000
   -5.5216  -34.8455  -42.9521 N   0  0  0  0  0  0  0  0  0  0  0  0
   -5.8248  -35.0032  -44.2780 C   0  0  0  0  0  0  0  0  0  0  0  0
   -7.0069  -35.6021  -44.6189 N   0  0  0  0  0  0  0  0  0  0  0  0
   -4.9950  -34.5851  -45.2342 N   0  0  0  0  0  0  0  0  0  0  0  0
   -3.8105  -33.9859  -44.9300 C   0  0  0  0  0  0  0  0  0  0  0  0
   -3.4536  -33.8052  -43.5757 C   0  0  0  0  0  0  0  0  0  0  0  0
   -4.3540  -34.2551  -42.5724 C   0  0  0  0  0  0  0  0  0  0  0  0
   -4.0921  -34.1182  -41.4030 O   0  0  0  0  0  0  0  0  0  0  0  0
   -2.1489  -33.1511  -43.5737 C   0  0  0  0  0  0  0  0  0  0  0  0
   -1.8035  -32.9729  -44.8612 C   0  0  0  0  0  0  0  0  0  0  0  0
   -2.7958  -33.4715  -45.6789 N   0  0  0  0  0  0  0  0  0  0  0  0
   -1.3436  -32.7603  -42.3611 C   0  0  0  0  0  0  0  0  0  0  0  0
    0.0522  -32.5070  -42.7724 N   0  0  0  0  0  0  0  0  0  0  0  0
  1  2  1  0  0  0  0
  1  7  1  0  0  0  0
  2  3  1  0  0  0  0
  2  4  2  0  0  0  0
  4  5  1  0  0  0  0
  5  6  2  0  0  0  0
  5 11  1  0  0  0  0
  6  7  1  0  0  0  0
  6  9  1  0  0  0  0
  7  8  2  0  0  0  0
  9 10  2  0  0  0  0
  9 12  1  0  0  0  0
 10 11  1  0  0  0  0
 12 13  1  0  0  0  0
M  END
>  <CHROM.1>
163.22632649,-3.63206738,-33.93458140,-43.71271369,2.96135074,-0.43802839
-1.56062418

>  <Name>
ligand

>  <RI>
0

>  <Rbt.Current_Directory>
/home/itssahil/PROJECTS/Mol_Feturizer/Test_systems_manuscript/rnas/3fu2

>  <Rbt.Executable>
rbdock ($Id: //depot/dev/client3/rdock/2013.1/src/exe/rbdock.cxx#4 $)

>  <Rbt.Library>
libRbt.so (2013.1, Build901 2013/11/27)

>  <Rbt.Parameter_File>
/export/apps/rDock/src/rDock_2013.1_src/data/scripts/dock_solv.prm

>  <Rbt.Receptor>
prm/blind_docking_60.prm

>  <SCORE>
-16.8745

>  <SCORE.INTER>
-16.7288

>  <SCORE.INTER.CONST>
1

>  <SCORE.INTER.POLAR>
0

>  <SCORE.INTER.ROT>
1

>  <SCORE.INTER.SOLV>
20.307

>  <SCORE.INTER.VDW>
-22.1882

>  <SCORE.INTER.norm>
-1.28683

>  <SCORE.INTRA>
-0.145664

>  <SCORE.INTRA.DIHEDRAL>
0.0279438

>  <SCORE.INTRA.DIHEDRAL.0>
1.66609

>  <SCORE.INTRA.POLAR>
0

>  <SCORE.INTRA.POLAR.0>
0

>  <SCORE.INTRA.REPUL>
0

>  <SCORE.INTRA.REPUL.0>
0

>  <SCORE.INTRA.SOLV>
-0.980245

>  <SCORE.INTRA.SOLV.lig_0>
-45.868

>  <SCORE.INTRA.VDW>
0.330487

>  <SCORE.INTRA.VDW.0>
-0.397919

>  <SCORE.INTRA.norm>
-0.0112049

>  <SCORE.RESTR>
0

>  <SCORE.RESTR.CAVITY>
0

>  <SCORE.RESTR.norm>
0

>  <SCORE.SYSTEM>
0

>  <SCORE.SYSTEM.CONST>
0

>  <SCORE.SYSTEM.DIHEDRAL>
0

>  <SCORE.SYSTEM.SOLV>
0

>  <SCORE.SYSTEM.norm>
0

>  <SCORE.heavy>
13

>  <SCORE.norm>
-1.29804

>  <RMSD>
2.699

$$$$
ligand
 OpenBabel02271912143D
libRbt.so/2013.1/901 2013/11/27
 13 14  0  0  0  0  0  0  0  0999 V2000
   -5.5046  -34.8747  -42.9584 N   0  0  0  0  0  0  0  0  0  0  0  0
   -5.8118  -35.0200  -44.2848 C   0  0  0  0  0  0  0  0  0  0  0  0
   -6.9879  -35.6293  -44.6279 N   0  0  0  0  0  0  0  0  0  0  0  0
   -4.9914  -34.5801  -45.2394 N   0  0  0  0  0  0  0  0  0  0  0  0
   -3.8131  -33.9701  -44.9331 C   0  0  0  0  0  0  0  0  0  0  0  0
   -3.4524  -33.8014  -43.5782 C   0  0  0  0  0  0  0  0  0  0  0  0
   -4.3427  -34.2745  -42.5765 C   0  0  0  0  0  0  0  0  0  0  0  0
   -4.0773  -34.1486  -41.4067 O   0  0  0  0  0  0  0  0  0  0  0  0
   -2.1559  -33.1313  -43.5739 C   0  0  0  0  0  0  0  0  0  0  0  0
   -1.8184  -32.9332  -44.8606 C   0  0  0  0  0  0  0  0  0  0  0  0
   -2.8082  -33.4340  -45.6800 N   0  0  0  0  0  0  0  0  0  0  0  0
   -1.3500  -32.7453  -42.3601 C   0  0  0  0  0  0  0  0  0  0  0  0
    0.0457  -32.4904  -42.7710 N   0  0  0  0  0  0  0  0  0  0  0  0
  1  2  1  0  0  0  0
  1  7  1  0  0  0  0
  2  3  1  0  0  0  0
  2  4  2  0  0  0  0
  4  5  1  0  0  0  0
  5  6  2  0  0  0  0
  5 11  1  0  0  0  0
  6  7  1  0  0  0  0
  6  9  1  0  0  0  0
  7  8  2  0  0  0  0
  9 10  2  0  0  0  0
  9 12  1  0  0  0  0
 10 11  1  0  0  0  0
 12 13  1  0  0  0  0
M  END
>  <CHROM.1>
162.34564455,-3.62946610,-33.93296832,-43.71574463,2.96625445,-0.44891650
-1.54566521

>  <Name>
ligand

>  <RI>
0

>  <Rbt.Current_Directory>
/home/itssahil/PROJECTS/Mol_Feturizer/Test_systems_manuscript/rnas/3fu2

>  <Rbt.Executable>
rbdock ($Id: //depot/dev/client3/rdock/2013.1/src/exe/rbdock.cxx#4 $)

>  <Rbt.Library>
libRbt.so (2013.1, Build901 2013/11/27)

>  <Rbt.Parameter_File>
/export/apps/rDock/src/rDock_2013.1_src/data/scripts/dock_solv.prm

>  <Rbt.Receptor>
prm/pocket_docking_7.prm

>  <SCORE>
-16.8035

>  <SCORE.INTER>
-16.6549

>  <SCORE.INTER.CONST>
1

>  <SCORE.INTER.POLAR>
0

>  <SCORE.INTER.ROT>
1

>  <SCORE.INTER.SOLV>
20.2216

>  <SCORE.INTER.VDW>
-22.1104

>  <SCORE.INTER.norm>
-1.28114

>  <SCORE.INTRA>
-0.148623

>  <SCORE.INTRA.DIHEDRAL>
0.0284776

>  <SCORE.INTRA.DIHEDRAL.0>
1.66609

>  <SCORE.INTRA.POLAR>
0

>  <SCORE.INTRA.POLAR.0>
0

>  <SCORE.INTRA.REPUL>
0

>  <SCORE.INTRA.REPUL.0>
0

>  <SCORE.INTRA.SOLV>
-0.98042

>  <SCORE.INTRA.SOLV.lig_0>
-45.868

>  <SCORE.INTRA.VDW>
0.327348

>  <SCORE.INTRA.VDW.0>
-0.397919

>  <SCORE.INTRA.norm>
-0.0114325

>  <SCORE.RESTR>
0

>  <SCORE.RESTR.CAVITY>
0

>  <SCORE.RESTR.norm>
0

>  <SCORE.SYSTEM>
0

>  <SCORE.SYSTEM.CONST>
0

>  <SCORE.SYSTEM.DIHEDRAL>
0

>  <SCORE.SYSTEM.SOLV>
0

>  <SCORE.SYSTEM.norm>
0

>  <SCORE.heavy>
13

>  <SCORE.norm>
-1.29258

>  <RMSD>
2.699

$$$$
ligand
 OpenBabel02271912143D
libRbt.so/2013.1/901 2013/11/27
 13 14  0  0  0  0  0  0  0  0999 V2000
   -5.5566  -34.8649  -42.9664 N   0  0  0  0  0  0  0  0  0  0  0  0
   -5.8209  -35.0254  -44.3003 C   0  0  0  0  0  0  0  0  0  0  0  0
   -6.9922  -35.6256  -44.6744 N   0  0  0  0  0  0  0  0  0  0  0  0
   -4.9636  -34.6089  -45.2327 N   0  0  0  0  0  0  0  0  0  0  0  0
   -3.7888  -34.0085  -44.8953 C   0  0  0  0  0  0  0  0  0  0  0  0
   -3.4716  -33.8249  -43.5315 C   0  0  0  0  0  0  0  0  0  0  0  0
   -4.4008  -34.2732  -42.5540 C   0  0  0  0  0  0  0  0  0  0  0  0
   -4.1733  -34.1338  -41.3777 O   0  0  0  0  0  0  0  0  0  0  0  0
   -2.1678  -33.1702  -43.4927 C   0  0  0  0  0  0  0  0  0  0  0  0
   -1.7850  -32.9944  -44.7699 C   0  0  0  0  0  0  0  0  0  0  0  0
   -2.7528  -33.4951  -45.6152 N   0  0  0  0  0  0  0  0  0  0  0  0
   -1.3984  -32.7765  -42.2579 C   0  0  0  0  0  0  0  0  0  0  0  0
    0.0262  -32.6118  -42.6115 N   0  0  0  0  0  0  0  0  0  0  0  0
  1  2  1  0  0  0  0
  1  7  1  0  0  0  0
  2  3  1  0  0  0  0
  2  4  2  0  0  0  0
  4  5  1  0  0  0  0
  5  6  2  0  0  0  0
  5 11  1  0  0  0  0
  6  7  1  0  0  0  0
  6  9  1  0  0  0  0
  7  8  2  0  0  0  0
  9 10  2  0  0  0  0
  9 12  1  0  0  0  0
 10 11  1  0  0  0  0
 12 13  1  0  0  0  0
M  END
>  <CHROM.1>
159.45984437,-3.64455672,-33.96182209,-43.67197542,2.92813717,-0.43282766
-1.57352113

>  <Name>
ligand

>  <RI>
0

>  <Rbt.Current_Directory>
/home/itssahil/PROJECTS/Mol_Feturizer/Test_systems_manuscript/rnas/3fu2

>  <Rbt.Executable>
rbdock ($Id: //depot/dev/client3/rdock/2013.1/src/exe/rbdock.cxx#4 $)

>  <Rbt.Library>
libRbt.so (2013.1, Build901 2013/11/27)

>  <Rbt.Parameter_File>
/export/apps/rDock/src/rDock_2013.1_src/data/scripts/dock_solv.prm

>  <Rbt.Receptor>
prm/pocket_docking_2.prm

>  <SCORE>
-16.9112

>  <SCORE.INTER>
-16.752

>  <SCORE.INTER.CONST>
1

>  <SCORE.INTER.POLAR>
0

>  <SCORE.INTER.ROT>
1

>  <SCORE.INTER.SOLV>
20.0795

>  <SCORE.INTER.VDW>
-22.1278

>  <SCORE.INTER.norm>
-1.28862

>  <SCORE.INTRA>
-0.159204

>  <SCORE.INTRA.DIHEDRAL>
0.0300042

>  <SCORE.INTRA.DIHEDRAL.0>
1.66609

>  <SCORE.INTRA.POLAR>
0

>  <SCORE.INTRA.POLAR.0>
0

>  <SCORE.INTRA.REPUL>
0

>  <SCORE.INTRA.REPUL.0>
0

>  <SCORE.INTRA.SOLV>
-0.981056

>  <SCORE.INTRA.SOLV.lig_0>
-45.868

>  <SCORE.INTRA.VDW>
0.316322

>  <SCORE.INTRA.VDW.0>
-0.397919

>  <SCORE.INTRA.norm>
-0.0122465

>  <SCORE.RESTR>
0

>  <SCORE.RESTR.CAVITY>
0

>  <SCORE.RESTR.norm>
0

>  <SCORE.SYSTEM>
0

>  <SCORE.SYSTEM.CONST>
0

>  <SCORE.SYSTEM.DIHEDRAL>
0

>  <SCORE.SYSTEM.SOLV>
0

>  <SCORE.SYSTEM.norm>
0

>  <SCORE.heavy>
13

>  <SCORE.norm>
-1.30086

>  <RMSD>
2.700

$$$$
ligand
 OpenBabel02271912143D
libRbt.so/2013.1/901 2013/11/27
 13 14  0  0  0  0  0  0  0  0999 V2000
   -5.5571  -34.8637  -42.9626 N   0  0  0  0  0  0  0  0  0  0  0  0
   -5.8241  -35.0199  -44.2964 C   0  0  0  0  0  0  0  0  0  0  0  0
   -6.9967  -35.6179  -44.6702 N   0  0  0  0  0  0  0  0  0  0  0  0
   -4.9682  -34.6013  -45.2292 N   0  0  0  0  0  0  0  0  0  0  0  0
   -3.7922  -34.0030  -44.8921 C   0  0  0  0  0  0  0  0  0  0  0  0
   -3.4723  -33.8239  -43.5284 C   0  0  0  0  0  0  0  0  0  0  0  0
   -4.4001  -34.2743  -42.5505 C   0  0  0  0  0  0  0  0  0  0  0  0
   -4.1702  -34.1387  -41.3742 O   0  0  0  0  0  0  0  0  0  0  0  0
   -2.1679  -33.1704  -43.4901 C   0  0  0  0  0  0  0  0  0  0  0  0
   -1.7873  -32.9911  -44.7675 C   0  0  0  0  0  0  0  0  0  0  0  0
   -2.7571  -33.4883  -45.6125 N   0  0  0  0  0  0  0  0  0  0  0  0
   -1.3958  -32.7812  -42.2556 C   0  0  0  0  0  0  0  0  0  0  0  0
    0.0279  -32.6145  -42.6118 N   0  0  0  0  0  0  0  0  0  0  0  0
  1  2  1  0  0  0  0
  1  7  1  0  0  0  0
  2  3  1  0  0  0  0
  2  4  2  0  0  0  0
  4  5  1  0  0  0  0
  5  6  2  0  0  0  0
  5 11  1  0  0  0  0
  6  7  1  0  0  0  0
  6  9  1  0  0  0  0
  7  8  2  0  0  0  0
  9 10  2  0  0  0  0
  9 12  1  0  0  0  0
 10 11  1  0  0  0  0
 12 13  1  0  0  0  0
M  END
>  <CHROM.1>
159.55529697,-3.64567322,-33.95999245,-43.66901443,2.93024936,-0.43207048
-1.56967553

>  <Name>
ligand

>  <RI>
0

>  <Rbt.Current_Directory>
/home/itssahil/PROJECTS/Mol_Feturizer/Test_systems_manuscript/rnas/3fu2

>  <Rbt.Executable>
rbdock ($Id: //depot/dev/client3/rdock/2013.1/src/exe/rbdock.cxx#4 $)

>  <Rbt.Library>
libRbt.so (2013.1, Build901 2013/11/27)

>  <Rbt.Parameter_File>
/export/apps/rDock/src/rDock_2013.1_src/data/scripts/dock_solv.prm

>  <Rbt.Receptor>
prm/pocket_docking_3.prm

>  <SCORE>
-16.9121

>  <SCORE.INTER>
-16.7533

>  <SCORE.INTER.CONST>
1

>  <SCORE.INTER.POLAR>
0

>  <SCORE.INTER.ROT>
1

>  <SCORE.INTER.SOLV>
20.0818

>  <SCORE.INTER.VDW>
-22.1295

>  <SCORE.INTER.norm>
-1.28871

>  <SCORE.INTRA>
-0.158834

>  <SCORE.INTRA.DIHEDRAL>
0.0299594

>  <SCORE.INTRA.DIHEDRAL.0>
1.66609

>  <SCORE.INTRA.POLAR>
0

>  <SCORE.INTRA.POLAR.0>
0

>  <SCORE.INTRA.REPUL>
0

>  <SCORE.INTRA.REPUL.0>
0

>  <SCORE.INTRA.SOLV>
-0.981033

>  <SCORE.INTRA.SOLV.lig_0>
-45.868

>  <SCORE.INTRA.VDW>
0.316703

>  <SCORE.INTRA.VDW.0>
-0.397919

>  <SCORE.INTRA.norm>
-0.012218

>  <SCORE.RESTR>
0

>  <SCORE.RESTR.CAVITY>
0

>  <SCORE.RESTR.norm>
0

>  <SCORE.SYSTEM>
0

>  <SCORE.SYSTEM.CONST>
0

>  <SCORE.SYSTEM.DIHEDRAL>
0

>  <SCORE.SYSTEM.SOLV>
0

>  <SCORE.SYSTEM.norm>
0

>  <SCORE.heavy>
13

>  <SCORE.norm>
-1.30093

>  <RMSD>
2.700

$$$$
ligand
 OpenBabel02271912143D
libRbt.so/2013.1/901 2013/11/27
 13 14  0  0  0  0  0  0  0  0999 V2000
   -5.4919  -34.8647  -42.9650 N   0  0  0  0  0  0  0  0  0  0  0  0
   -5.8052  -35.0316  -44.2875 C   0  0  0  0  0  0  0  0  0  0  0  0
   -6.9833  -35.6454  -44.6152 N   0  0  0  0  0  0  0  0  0  0  0  0
   -4.9887  -34.6083  -45.2529 N   0  0  0  0  0  0  0  0  0  0  0  0
   -3.8084  -33.9944  -44.9619 C   0  0  0  0  0  0  0  0  0  0  0  0
   -3.4415  -33.8038  -43.6116 C   0  0  0  0  0  0  0  0  0  0  0  0
   -4.3278  -34.2595  -42.5983 C   0  0  0  0  0  0  0  0  0  0  0  0
   -4.0570  -34.1146  -41.4319 O   0  0  0  0  0  0  0  0  0  0  0  0
   -2.1444  -33.1350  -43.6242 C   0  0  0  0  0  0  0  0  0  0  0  0
   -1.8126  -32.9585  -44.9154 C   0  0  0  0  0  0  0  0  0  0  0  0
   -2.8064  -33.4718  -45.7220 N   0  0  0  0  0  0  0  0  0  0  0  0
   -1.3327  -32.7298  -42.4205 C   0  0  0  0  0  0  0  0  0  0  0  0
    0.0522  -32.4456  -42.8482 N   0  0  0  0  0  0  0  0  0  0  0  0
  1  2  1  0  0  0  0
  1  7  1  0  0  0  0
  2  3  1  0  0  0  0
  2  4  2  0  0  0  0
  4  5  1  0  0  0  0
  5  6  2  0  0  0  0
  5 11  1  0  0  0  0
  6  7  1  0  0  0  0
  6  9  1  0  0  0  0
  7  8  2  0  0  0  0
  9 10  2  0  0  0  0
  9 12  1  0  0  0  0
 10 11  1  0  0  0  0
 12 13  1  0  0  0  0
M  END
>  <CHROM.1>
163.94710039,-3.62006312,-33.93439455,-43.74669423,2.97155510,-0.45041636
-1.56107890

>  <Name>
ligand

>  <RI>
0

>  <Rbt.Current_Directory>
/home/itssahil/PROJECTS/Mol_Feturizer/Test_systems_manuscript/rnas/3fu2

>  <Rbt.Executable>
rbdock ($Id: //depot/dev/client3/rdock/2013.1/src/exe/rbdock.cxx#4 $)

>  <Rbt.Library>
libRbt.so (2013.1, Build901 2013/11/27)

>  <Rbt.Parameter_File>
/export/apps/rDock/src/rDock_2013.1_src/data/scripts/dock_solv.prm

>  <Rbt.Receptor>
prm/blind_docking_60.prm

>  <SCORE>
-16.8252

>  <SCORE.INTER>
-16.6819

>  <SCORE.INTER.CONST>
1

>  <SCORE.INTER.POLAR>
0

>  <SCORE.INTER.ROT>
1

>  <SCORE.INTER.SOLV>
20.3503

>  <SCORE.INTER.VDW>
-22.1714

>  <SCORE.INTER.norm>
-1.28322

>  <SCORE.INTRA>
-0.143344

>  <SCORE.INTRA.DIHEDRAL>
0.0274847

>  <SCORE.INTRA.DIHEDRAL.0>
1.66609

>  <SCORE.INTRA.POLAR>
0

>  <SCORE.INTRA.POLAR.0>
0

>  <SCORE.INTRA.REPUL>
0

>  <SCORE.INTRA.REPUL.0>
0

>  <SCORE.INTRA.SOLV>
-0.980108

>  <SCORE.INTRA.SOLV.lig_0>
-45.868

>  <SCORE.INTRA.VDW>
0.332968

>  <SCORE.INTRA.VDW.0>
-0.397919

>  <SCORE.INTRA.norm>
-0.0110265

>  <SCORE.RESTR>
0

>  <SCORE.RESTR.CAVITY>
0

>  <SCORE.RESTR.norm>
0

>  <SCORE.SYSTEM>
0

>  <SCORE.SYSTEM.CONST>
0

>  <SCORE.SYSTEM.DIHEDRAL>
0

>  <SCORE.SYSTEM.SOLV>
0

>  <SCORE.SYSTEM.norm>
0

>  <SCORE.heavy>
13

>  <SCORE.norm>
-1.29425

>  <RMSD>
2.701

$$$$
ligand
 OpenBabel02271912143D
libRbt.so/2013.1/901 2013/11/27
 13 14  0  0  0  0  0  0  0  0999 V2000
   -5.5432  -34.8922  -42.9589 N   0  0  0  0  0  0  0  0  0  0  0  0
   -5.8153  -35.0400  -44.2926 C   0  0  0  0  0  0  0  0  0  0  0  0
   -6.9831  -35.6479  -44.6655 N   0  0  0  0  0  0  0  0  0  0  0  0
   -4.9691  -34.6037  -45.2261 N   0  0  0  0  0  0  0  0  0  0  0  0
   -3.7982  -33.9951  -44.8899 C   0  0  0  0  0  0  0  0  0  0  0  0
   -3.4732  -33.8241  -43.5263 C   0  0  0  0  0  0  0  0  0  0  0  0
   -4.3907  -34.2934  -42.5476 C   0  0  0  0  0  0  0  0  0  0  0  0
   -4.1562  -34.1653  -41.3714 O   0  0  0  0  0  0  0  0  0  0  0  0
   -2.1760  -33.1563  -43.4890 C   0  0  0  0  0  0  0  0  0  0  0  0
   -1.8042  -32.9618  -44.7667 C   0  0  0  0  0  0  0  0  0  0  0  0
   -2.7727  -33.4626  -45.6110 N   0  0  0  0  0  0  0  0  0  0  0  0
   -1.4019  -32.7691  -42.2551 C   0  0  0  0  0  0  0  0  0  0  0  0
    0.0229  -32.6120  -42.6112 N   0  0  0  0  0  0  0  0  0  0  0  0
  1  2  1  0  0  0  0
  1  7  1  0  0  0  0
  2  3  1  0  0  0  0
  2  4  2  0  0  0  0
  4  5  1  0  0  0  0
  5  6  2  0  0  0  0
  5 11  1  0  0  0  0
  6  7  1  0  0  0  0
  6  9  1  0  0  0  0
  7  8  2  0  0  0  0
  9 10  2  0  0  0  0
  9 12  1  0  0  0  0
 10 11  1  0  0  0  0
 12 13  1  0  0  0  0
M  END
>  <CHROM.1>
158.33387534,-3.64534629,-33.96331539,-43.66672900,2.93565536,-0.44148275
-1.55764813

>  <Name>
ligand

>  <RI>
0

>  <Rbt.Current_Directory>
/home/itssahil/PROJECTS/Mol_Feturizer/Test_systems_manuscript/rnas/3fu2

>  <Rbt.Executable>
rbdock ($Id: //depot/dev/client3/rdock/2013.1/src/exe/rbdock.cxx#4 $)

>  <Rbt.Library>
libRbt.so (2013.1, Build901 2013/11/27)

>  <Rbt.Parameter_File>
/export/apps/rDock/src/rDock_2013.1_src/data/scripts/dock_solv.prm

>  <Rbt.Receptor>
prm/blind_docking_80.prm

>  <SCORE>
-16.8788

>  <SCORE.INTER>
-16.7151

>  <SCORE.INTER.CONST>
1

>  <SCORE.INTER.POLAR>
0

>  <SCORE.INTER.ROT>
1

>  <SCORE.INTER.SOLV>
20.0385

>  <SCORE.INTER.VDW>
-22.0896

>  <SCORE.INTER.norm>
-1.28578

>  <SCORE.INTRA>
-0.163664

>  <SCORE.INTRA.DIHEDRAL>
0.0305021

>  <SCORE.INTRA.DIHEDRAL.0>
1.66609

>  <SCORE.INTRA.POLAR>
0

>  <SCORE.INTRA.POLAR.0>
0

>  <SCORE.INTRA.REPUL>
0

>  <SCORE.INTRA.REPUL.0>
0

>  <SCORE.INTRA.SOLV>
-0.981329

>  <SCORE.INTRA.SOLV.lig_0>
-45.868

>  <SCORE.INTRA.VDW>
0.311749

>  <SCORE.INTRA.VDW.0>
-0.397919

>  <SCORE.INTRA.norm>
-0.0125895

>  <SCORE.RESTR>
0

>  <SCORE.RESTR.CAVITY>
0

>  <SCORE.RESTR.norm>
0

>  <SCORE.SYSTEM>
0

>  <SCORE.SYSTEM.CONST>
0

>  <SCORE.SYSTEM.DIHEDRAL>
0

>  <SCORE.SYSTEM.SOLV>
0

>  <SCORE.SYSTEM.norm>
0

>  <SCORE.heavy>
13

>  <SCORE.norm>
-1.29837

>  <RMSD>
2.701

$$$$
ligand
 OpenBabel02271912143D
libRbt.so/2013.1/901 2013/11/27
 13 14  0  0  0  0  0  0  0  0999 V2000
   -5.5527  -34.8716  -42.9694 N   0  0  0  0  0  0  0  0  0  0  0  0
   -5.8169  -35.0321  -44.3032 C   0  0  0  0  0  0  0  0  0  0  0  0
   -6.9866  -35.6356  -44.6773 N   0  0  0  0  0  0  0  0  0  0  0  0
   -4.9613  -34.6124  -45.2357 N   0  0  0  0  0  0  0  0  0  0  0  0
   -3.7882  -34.0086  -44.8983 C   0  0  0  0  0  0  0  0  0  0  0  0
   -3.4711  -33.8249  -43.5345 C   0  0  0  0  0  0  0  0  0  0  0  0
   -4.3986  -34.2766  -42.5569 C   0  0  0  0  0  0  0  0  0  0  0  0
   -4.1710  -34.1373  -41.3806 O   0  0  0  0  0  0  0  0  0  0  0  0
   -2.1693  -33.1662  -43.4958 C   0  0  0  0  0  0  0  0  0  0  0  0
   -1.7875  -32.9885  -44.7730 C   0  0  0  0  0  0  0  0  0  0  0  0
   -2.7541  -33.4916  -45.6183 N   0  0  0  0  0  0  0  0  0  0  0  0
   -1.4007  -32.7710  -42.2610 C   0  0  0  0  0  0  0  0  0  0  0  0
    0.0252  -32.6127  -42.6126 N   0  0  0  0  0  0  0  0  0  0  0  0
  1  2  1  0  0  0  0
  1  7  1  0  0  0  0
  2  3  1  0  0  0  0
  2  4  2  0  0  0  0
  4  5  1  0  0  0  0
  5  6  2  0  0  0  0
  5 11  1  0  0  0  0
  6  7  1  0  0  0  0
  6  9  1  0  0  0  0
  7  8  2  0  0  0  0
  9 10  2  0  0  0  0
  9 12  1  0  0  0  0
 10 11  1  0  0  0  0
 12 13  1  0  0  0  0
M  END
>  <CHROM.1>
158.98958014,-3.64352454,-33.96313734,-43.67481111,2.92838506,-0.43518613
-1.57236840

>  <Name>
ligand

>  <RI>
0

>  <Rbt.Current_Directory>
/home/itssahil/PROJECTS/Mol_Feturizer/Test_systems_manuscript/rnas/3fu2

>  <Rbt.Executable>
rbdock ($Id: //depot/dev/client3/rdock/2013.1/src/exe/rbdock.cxx#4 $)

>  <Rbt.Library>
libRbt.so (2013.1, Build901 2013/11/27)

>  <Rbt.Parameter_File>
/export/apps/rDock/src/rDock_2013.1_src/data/scripts/dock_solv.prm

>  <Rbt.Receptor>
prm/pocket_docking_2.prm

>  <SCORE>
-16.9118

>  <SCORE.INTER>
-16.7508

>  <SCORE.INTER.CONST>
1

>  <SCORE.INTER.POLAR>
0

>  <SCORE.INTER.ROT>
1

>  <SCORE.INTER.SOLV>
20.0716

>  <SCORE.INTER.VDW>
-22.1244

>  <SCORE.INTER.norm>
-1.28852

>  <SCORE.INTRA>
-0.161046

>  <SCORE.INTRA.DIHEDRAL>
0.0302191

>  <SCORE.INTRA.DIHEDRAL.0>
1.66609

>  <SCORE.INTRA.POLAR>
0

>  <SCORE.INTRA.POLAR.0>
0

>  <SCORE.INTRA.REPUL>
0

>  <SCORE.INTRA.REPUL.0>
0

>  <SCORE.INTRA.SOLV>
-0.981168

>  <SCORE.INTRA.SOLV.lig_0>
-45.868

>  <SCORE.INTRA.VDW>
0.314429

>  <SCORE.INTRA.VDW.0>
-0.397919

>  <SCORE.INTRA.norm>
-0.0123881

>  <SCORE.RESTR>
0

>  <SCORE.RESTR.CAVITY>
0

>  <SCORE.RESTR.norm>
0

>  <SCORE.SYSTEM>
0

>  <SCORE.SYSTEM.CONST>
0

>  <SCORE.SYSTEM.DIHEDRAL>
0

>  <SCORE.SYSTEM.SOLV>
0

>  <SCORE.SYSTEM.norm>
0

>  <SCORE.heavy>
13

>  <SCORE.norm>
-1.30091

>  <RMSD>
2.701

$$$$
ligand
 OpenBabel02271912143D
libRbt.so/2013.1/901 2013/11/27
 13 14  0  0  0  0  0  0  0  0999 V2000
   -5.5559  -34.8767  -42.9616 N   0  0  0  0  0  0  0  0  0  0  0  0
   -5.8251  -35.0268  -44.2957 C   0  0  0  0  0  0  0  0  0  0  0  0
   -6.9970  -35.6256  -44.6702 N   0  0  0  0  0  0  0  0  0  0  0  0
   -4.9720  -34.6014  -45.2280 N   0  0  0  0  0  0  0  0  0  0  0  0
   -3.7967  -34.0021  -44.8902 C   0  0  0  0  0  0  0  0  0  0  0  0
   -3.4746  -33.8291  -43.5261 C   0  0  0  0  0  0  0  0  0  0  0  0
   -4.3994  -34.2866  -42.5487 C   0  0  0  0  0  0  0  0  0  0  0  0
   -4.1676  -34.1565  -41.3723 O   0  0  0  0  0  0  0  0  0  0  0  0
   -2.1717  -33.1728  -43.4870 C   0  0  0  0  0  0  0  0  0  0  0  0
   -1.7940  -32.9862  -44.7642 C   0  0  0  0  0  0  0  0  0  0  0  0
   -2.7643  -33.4813  -45.6099 N   0  0  0  0  0  0  0  0  0  0  0  0
   -1.3981  -32.7881  -42.2520 C   0  0  0  0  0  0  0  0  0  0  0  0
    0.0234  -32.6096  -42.6114 N   0  0  0  0  0  0  0  0  0  0  0  0
  1  2  1  0  0  0  0
  1  7  1  0  0  0  0
  2  3  1  0  0  0  0
  2  4  2  0  0  0  0
  4  5  1  0  0  0  0
  5  6  2  0  0  0  0
  5 11  1  0  0  0  0
  6  7  1  0  0  0  0
  6  9  1  0  0  0  0
  7  8  2  0  0  0  0
  9 10  2  0  0  0  0
  9 12  1  0  0  0  0
 10 11  1  0  0  0  0
 12 13  1  0  0  0  0
M  END
>  <CHROM.1>
159.83268263,-3.64804000,-33.96440459,-43.66721238,2.93246983,-0.43481832
-1.56391474

>  <Name>
ligand

>  <RI>
0

>  <Rbt.Current_Directory>
/home/itssahil/PROJECTS/Mol_Feturizer/Test_systems_manuscript/rnas/3fu2

>  <Rbt.Executable>
rbdock ($Id: //depot/dev/client3/rdock/2013.1/src/exe/rbdock.cxx#4 $)

>  <Rbt.Library>
libRbt.so (2013.1, Build901 2013/11/27)

>  <Rbt.Parameter_File>
/export/apps/rDock/src/rDock_2013.1_src/data/scripts/dock_solv.prm

>  <Rbt.Receptor>
prm/pocket_docking_3.prm

>  <SCORE>
-16.918

>  <SCORE.INTER>
-16.7602

>  <SCORE.INTER.CONST>
1

>  <SCORE.INTER.POLAR>
0

>  <SCORE.INTER.ROT>
1

>  <SCORE.INTER.SOLV>
20.0623

>  <SCORE.INTER.VDW>
-22.1276

>  <SCORE.INTER.norm>
-1.28925

>  <SCORE.INTRA>
-0.157766

>  <SCORE.INTRA.DIHEDRAL>
0.029827

>  <SCORE.INTRA.DIHEDRAL.0>
1.66609

>  <SCORE.INTRA.POLAR>
0

>  <SCORE.INTRA.POLAR.0>
0

>  <SCORE.INTRA.REPUL>
0

>  <SCORE.INTRA.REPUL.0>
0

>  <SCORE.INTRA.SOLV>
-0.980968

>  <SCORE.INTRA.SOLV.lig_0>
-45.868

>  <SCORE.INTRA.VDW>
0.317805

>  <SCORE.INTRA.VDW.0>
-0.397919

>  <SCORE.INTRA.norm>
-0.0121358

>  <SCORE.RESTR>
0

>  <SCORE.RESTR.CAVITY>
0

>  <SCORE.RESTR.norm>
0

>  <SCORE.SYSTEM>
0

>  <SCORE.SYSTEM.CONST>
0

>  <SCORE.SYSTEM.DIHEDRAL>
0

>  <SCORE.SYSTEM.SOLV>
0

>  <SCORE.SYSTEM.norm>
0

>  <SCORE.heavy>
13

>  <SCORE.norm>
-1.30138

>  <RMSD>
2.701

$$$$
ligand
 OpenBabel02271912143D
libRbt.so/2013.1/901 2013/11/27
 13 14  0  0  0  0  0  0  0  0999 V2000
   -5.5603  -34.8705  -42.9647 N   0  0  0  0  0  0  0  0  0  0  0  0
   -5.8253  -35.0300  -44.2986 C   0  0  0  0  0  0  0  0  0  0  0  0
   -6.9963  -35.6310  -44.6725 N   0  0  0  0  0  0  0  0  0  0  0  0
   -4.9691  -34.6116  -45.2311 N   0  0  0  0  0  0  0  0  0  0  0  0
   -3.7947  -34.0104  -44.8939 C   0  0  0  0  0  0  0  0  0  0  0  0
   -3.4768  -33.8278  -43.5301 C   0  0  0  0  0  0  0  0  0  0  0  0
   -4.4049  -34.2780  -42.5524 C   0  0  0  0  0  0  0  0  0  0  0  0
   -4.1767  -34.1395  -41.3762 O   0  0  0  0  0  0  0  0  0  0  0  0
   -2.1737  -33.1717  -43.4916 C   0  0  0  0  0  0  0  0  0  0  0  0
   -1.7919  -32.9944  -44.7688 C   0  0  0  0  0  0  0  0  0  0  0  0
   -2.7597  -33.4952  -45.6140 N   0  0  0  0  0  0  0  0  0  0  0  0
   -1.4038  -32.7785  -42.2569 C   0  0  0  0  0  0  0  0  0  0  0  0
    0.0196  -32.6074  -42.6122 N   0  0  0  0  0  0  0  0  0  0  0  0
  1  2  1  0  0  0  0
  1  7  1  0  0  0  0
  2  3  1  0  0  0  0
  2  4  2  0  0  0  0
  4  5  1  0  0  0  0
  5  6  2  0  0  0  0
  5 11  1  0  0  0  0
  6  7  1  0  0  0  0
  6  9  1  0  0  0  0
  7  8  2  0  0  0  0
  9 10  2  0  0  0  0
  9 12  1  0  0  0  0
 10 11  1  0  0  0  0
 12 13  1  0  0  0  0
M  END
>  <CHROM.1>
159.65286497,-3.64974996,-33.96436445,-43.67070976,2.92892488,-0.43415040
-1.57239024

>  <Name>
ligand

>  <RI>
0

>  <Rbt.Current_Directory>
/home/itssahil/PROJECTS/Mol_Feturizer/Test_systems_manuscript/rnas/3fu2

>  <Rbt.Executable>
rbdock ($Id: //depot/dev/client3/rdock/2013.1/src/exe/rbdock.cxx#4 $)

>  <Rbt.Library>
libRbt.so (2013.1, Build901 2013/11/27)

>  <Rbt.Parameter_File>
/export/apps/rDock/src/rDock_2013.1_src/data/scripts/dock_solv.prm

>  <Rbt.Receptor>
prm/blind_docking_60.prm

>  <SCORE>
-16.9118

>  <SCORE.INTER>
-16.7534

>  <SCORE.INTER.CONST>
1

>  <SCORE.INTER.POLAR>
0

>  <SCORE.INTER.ROT>
1

>  <SCORE.INTER.SOLV>
20.077

>  <SCORE.INTER.VDW>
-22.1279

>  <SCORE.INTER.norm>
-1.28872

>  <SCORE.INTRA>
-0.158457

>  <SCORE.INTRA.DIHEDRAL>
0.0299132

>  <SCORE.INTRA.DIHEDRAL.0>
1.66609

>  <SCORE.INTRA.POLAR>
0

>  <SCORE.INTRA.POLAR.0>
0

>  <SCORE.INTRA.REPUL>
0

>  <SCORE.INTRA.REPUL.0>
0

>  <SCORE.INTRA.SOLV>
-0.98101

>  <SCORE.INTRA.SOLV.lig_0>
-45.868

>  <SCORE.INTRA.VDW>
0.317091

>  <SCORE.INTRA.VDW.0>
-0.397919

>  <SCORE.INTRA.norm>
-0.012189

>  <SCORE.RESTR>
0

>  <SCORE.RESTR.CAVITY>
0

>  <SCORE.RESTR.norm>
0

>  <SCORE.SYSTEM>
0

>  <SCORE.SYSTEM.CONST>
0

>  <SCORE.SYSTEM.DIHEDRAL>
0

>  <SCORE.SYSTEM.SOLV>
0

>  <SCORE.SYSTEM.norm>
0

>  <SCORE.heavy>
13

>  <SCORE.norm>
-1.30091

>  <RMSD>
2.702

$$$$
ligand
 OpenBabel02271912143D
libRbt.so/2013.1/901 2013/11/27
 13 14  0  0  0  0  0  0  0  0999 V2000
   -5.5448  -34.8917  -42.9582 N   0  0  0  0  0  0  0  0  0  0  0  0
   -5.8198  -35.0374  -44.2915 C   0  0  0  0  0  0  0  0  0  0  0  0
   -6.9896  -35.6423  -44.6629 N   0  0  0  0  0  0  0  0  0  0  0  0
   -4.9744  -34.6020  -45.2262 N   0  0  0  0  0  0  0  0  0  0  0  0
   -3.8015  -33.9964  -44.8916 C   0  0  0  0  0  0  0  0  0  0  0  0
   -3.4735  -33.8276  -43.5284 C   0  0  0  0  0  0  0  0  0  0  0  0
   -4.3902  -34.2959  -42.5485 C   0  0  0  0  0  0  0  0  0  0  0  0
   -4.1532  -34.1696  -41.3726 O   0  0  0  0  0  0  0  0  0  0  0  0
   -2.1748  -33.1628  -43.4929 C   0  0  0  0  0  0  0  0  0  0  0  0
   -1.8049  -32.9676  -44.7711 C   0  0  0  0  0  0  0  0  0  0  0  0
   -2.7762  -33.4654  -45.6141 N   0  0  0  0  0  0  0  0  0  0  0  0
   -1.3974  -32.7786  -42.2601 C   0  0  0  0  0  0  0  0  0  0  0  0
    0.0233  -32.6019  -42.6234 N   0  0  0  0  0  0  0  0  0  0  0  0
  1  2  1  0  0  0  0
  1  7  1  0  0  0  0
  2  3  1  0  0  0  0
  2  4  2  0  0  0  0
  4  5  1  0  0  0  0
  5  6  2  0  0  0  0
  5 11  1  0  0  0  0
  6  7  1  0  0  0  0
  6  9  1  0  0  0  0
  7  8  2  0  0  0  0
  9 10  2  0  0  0  0
  9 12  1  0  0  0  0
 10 11  1  0  0  0  0
 12 13  1  0  0  0  0
M  END
>  <CHROM.1>
159.28289758,-3.64653353,-33.96444386,-43.66903101,2.93804967,-0.44064047
-1.55639171

>  <Name>
ligand

>  <RI>
0

>  <Rbt.Current_Directory>
/home/itssahil/PROJECTS/Mol_Feturizer/Test_systems_manuscript/rnas/3fu2

>  <Rbt.Executable>
rbdock ($Id: //depot/dev/client3/rdock/2013.1/src/exe/rbdock.cxx#4 $)

>  <Rbt.Library>
libRbt.so (2013.1, Build901 2013/11/27)

>  <Rbt.Parameter_File>
/export/apps/rDock/src/rDock_2013.1_src/data/scripts/dock_solv.prm

>  <Rbt.Receptor>
prm/blind_docking_60.prm

>  <SCORE>
-16.878

>  <SCORE.INTER>
-16.7181

>  <SCORE.INTER.CONST>
1

>  <SCORE.INTER.POLAR>
0

>  <SCORE.INTER.ROT>
1

>  <SCORE.INTER.SOLV>
20.0542

>  <SCORE.INTER.VDW>
-22.0968

>  <SCORE.INTER.norm>
-1.28601

>  <SCORE.INTRA>
-0.159894

>  <SCORE.INTRA.DIHEDRAL>
0.0300862

>  <SCORE.INTRA.DIHEDRAL.0>
1.66609

>  <SCORE.INTRA.POLAR>
0

>  <SCORE.INTRA.POLAR.0>
0

>  <SCORE.INTRA.REPUL>
0

>  <SCORE.INTRA.REPUL.0>
0

>  <SCORE.INTRA.SOLV>
-0.981098

>  <SCORE.INTRA.SOLV.lig_0>
-45.868

>  <SCORE.INTRA.VDW>
0.315612

>  <SCORE.INTRA.VDW.0>
-0.397919

>  <SCORE.INTRA.norm>
-0.0122995

>  <SCORE.RESTR>
0

>  <SCORE.RESTR.CAVITY>
0

>  <SCORE.RESTR.norm>
0

>  <SCORE.SYSTEM>
0

>  <SCORE.SYSTEM.CONST>
0

>  <SCORE.SYSTEM.DIHEDRAL>
0

>  <SCORE.SYSTEM.SOLV>
0

>  <SCORE.SYSTEM.norm>
0

>  <SCORE.heavy>
13

>  <SCORE.norm>
-1.2983

>  <RMSD>
2.702

$$$$
ligand
 OpenBabel02271912143D
libRbt.so/2013.1/901 2013/11/27
 13 14  0  0  0  0  0  0  0  0999 V2000
   -5.5284  -34.8583  -42.9374 N   0  0  0  0  0  0  0  0  0  0  0  0
   -5.8289  -35.0103  -44.2646 C   0  0  0  0  0  0  0  0  0  0  0  0
   -7.0073  -35.6135  -44.6106 N   0  0  0  0  0  0  0  0  0  0  0  0
   -4.9999  -34.5826  -45.2173 N   0  0  0  0  0  0  0  0  0  0  0  0
   -3.8190  -33.9789  -44.9081 C   0  0  0  0  0  0  0  0  0  0  0  0
   -3.4650  -33.8038  -43.5523 C   0  0  0  0  0  0  0  0  0  0  0  0
   -4.3645  -34.2639  -42.5527 C   0  0  0  0  0  0  0  0  0  0  0  0
   -4.1050  -34.1321  -41.3822 O   0  0  0  0  0  0  0  0  0  0  0  0
   -2.1638  -33.1428  -43.5448 C   0  0  0  0  0  0  0  0  0  0  0  0
   -1.8175  -32.9558  -44.8307 C   0  0  0  0  0  0  0  0  0  0  0  0
   -2.8059  -33.4550  -45.6526 N   0  0  0  0  0  0  0  0  0  0  0  0
   -1.3622  -32.7545  -42.3288 C   0  0  0  0  0  0  0  0  0  0  0  0
    0.0524  -32.5869  -42.7192 N   0  0  0  0  0  0  0  0  0  0  0  0
  1  2  1  0  0  0  0
  1  7  1  0  0  0  0
  2  3  1  0  0  0  0
  2  4  2  0  0  0  0
  4  5  1  0  0  0  0
  5  6  2  0  0  0  0
  5 11  1  0  0  0  0
  6  7  1  0  0  0  0
  6  9  1  0  0  0  0
  7  8  2  0  0  0  0
  9 10  2  0  0  0  0
  9 12  1  0  0  0  0
 10 11  1  0  0  0  0
 12 13  1  0  0  0  0
M  END
>  <CHROM.1>
159.17155229,-3.64101295,-33.94104758,-43.68882322,2.95871031,-0.43707533
-1.55291500

>  <Name>
ligand

>  <RI>
0

>  <Rbt.Current_Directory>
/home/itssahil/PROJECTS/Mol_Feturizer/Test_systems_manuscript/rnas/3fu2

>  <Rbt.Executable>
rbdock ($Id: //depot/dev/client3/rdock/2013.1/src/exe/rbdock.cxx#4 $)

>  <Rbt.Library>
libRbt.so (2013.1, Build901 2013/11/27)

>  <Rbt.Parameter_File>
/export/apps/rDock/src/rDock_2013.1_src/data/scripts/dock_solv.prm

>  <Rbt.Receptor>
prm/blind_docking_80.prm

>  <SCORE>
-16.8492

>  <SCORE.INTER>
-16.6889

>  <SCORE.INTER.CONST>
1

>  <SCORE.INTER.POLAR>
0

>  <SCORE.INTER.ROT>
1

>  <SCORE.INTER.SOLV>
20.2849

>  <SCORE.INTER.VDW>
-22.1542

>  <SCORE.INTER.norm>
-1.28376

>  <SCORE.INTRA>
-0.16033

>  <SCORE.INTRA.DIHEDRAL>
0.0301371

>  <SCORE.INTRA.DIHEDRAL.0>
1.66609

>  <SCORE.INTRA.POLAR>
0

>  <SCORE.INTRA.POLAR.0>
0

>  <SCORE.INTRA.REPUL>
0

>  <SCORE.INTRA.REPUL.0>
0

>  <SCORE.INTRA.SOLV>
-0.981124

>  <SCORE.INTRA.SOLV.lig_0>
-45.868

>  <SCORE.INTRA.VDW>
0.315164

>  <SCORE.INTRA.VDW.0>
-0.397919

>  <SCORE.INTRA.norm>
-0.012333

>  <SCORE.RESTR>
0

>  <SCORE.RESTR.CAVITY>
0

>  <SCORE.RESTR.norm>
0

>  <SCORE.SYSTEM>
0

>  <SCORE.SYSTEM.CONST>
0

>  <SCORE.SYSTEM.DIHEDRAL>
0

>  <SCORE.SYSTEM.SOLV>
0

>  <SCORE.SYSTEM.norm>
0

>  <SCORE.heavy>
13

>  <SCORE.norm>
-1.2961

>  <RMSD>
2.702

$$$$
ligand
 OpenBabel02271912143D
libRbt.so/2013.1/901 2013/11/27
 13 14  0  0  0  0  0  0  0  0999 V2000
   -5.5488  -34.8854  -42.9629 N   0  0  0  0  0  0  0  0  0  0  0  0
   -5.8190  -35.0361  -44.2967 C   0  0  0  0  0  0  0  0  0  0  0  0
   -6.9886  -35.6402  -44.6700 N   0  0  0  0  0  0  0  0  0  0  0  0
   -4.9692  -34.6062  -45.2299 N   0  0  0  0  0  0  0  0  0  0  0  0
   -3.7964  -34.0015  -44.8933 C   0  0  0  0  0  0  0  0  0  0  0  0
   -3.4733  -33.8277  -43.5296 C   0  0  0  0  0  0  0  0  0  0  0  0
   -4.3946  -34.2901  -42.5513 C   0  0  0  0  0  0  0  0  0  0  0  0
   -4.1619  -34.1595  -41.3750 O   0  0  0  0  0  0  0  0  0  0  0  0
   -2.1734  -33.1653  -43.4919 C   0  0  0  0  0  0  0  0  0  0  0  0
   -1.7983  -32.9761  -44.7694 C   0  0  0  0  0  0  0  0  0  0  0  0
   -2.7673  -33.4755  -45.6141 N   0  0  0  0  0  0  0  0  0  0  0  0
   -1.4000  -32.7775  -42.2577 C   0  0  0  0  0  0  0  0  0  0  0  0
    0.0227  -32.6070  -42.6158 N   0  0  0  0  0  0  0  0  0  0  0  0
  1  2  1  0  0  0  0
  1  7  1  0  0  0  0
  2  3  1  0  0  0  0
  2  4  2  0  0  0  0
  4  5  1  0  0  0  0
  5  6  2  0  0  0  0
  5 11  1  0  0  0  0
  6  7  1  0  0  0  0
  6  9  1  0  0  0  0
  7  8  2  0  0  0  0
  9 10  2  0  0  0  0
  9 12  1  0  0  0  0
 10 11  1  0  0  0  0
 12 13  1  0  0  0  0
M  END
>  <CHROM.1>
159.19850248,-3.64601936,-33.96496227,-43.67029949,2.93376233,-0.43860640
-1.56227610

>  <Name>
ligand

>  <RI>
0

>  <Rbt.Current_Directory>
/home/itssahil/PROJECTS/Mol_Feturizer/Test_systems_manuscript/rnas/3fu2

>  <Rbt.Executable>
rbdock ($Id: //depot/dev/client3/rdock/2013.1/src/exe/rbdock.cxx#4 $)

>  <Rbt.Library>
libRbt.so (2013.1, Build901 2013/11/27)

>  <Rbt.Parameter_File>
/export/apps/rDock/src/rDock_2013.1_src/data/scripts/dock_solv.prm

>  <Rbt.Receptor>
prm/blind_docking_80.prm

>  <SCORE>
-16.8823

>  <SCORE.INTER>
-16.722

>  <SCORE.INTER.CONST>
1

>  <SCORE.INTER.POLAR>
0

>  <SCORE.INTER.ROT>
1

>  <SCORE.INTER.SOLV>
20.0539

>  <SCORE.INTER.VDW>
-22.0993

>  <SCORE.INTER.norm>
-1.28631

>  <SCORE.INTRA>
-0.160224

>  <SCORE.INTRA.DIHEDRAL>
0.0301248

>  <SCORE.INTRA.DIHEDRAL.0>
1.66609

>  <SCORE.INTRA.POLAR>
0

>  <SCORE.INTRA.POLAR.0>
0

>  <SCORE.INTRA.REPUL>
0

>  <SCORE.INTRA.REPUL.0>
0

>  <SCORE.INTRA.SOLV>
-0.981118

>  <SCORE.INTRA.SOLV.lig_0>
-45.868

>  <SCORE.INTRA.VDW>
0.315273

>  <SCORE.INTRA.VDW.0>
-0.397919

>  <SCORE.INTRA.norm>
-0.0123249

>  <SCORE.RESTR>
0

>  <SCORE.RESTR.CAVITY>
0

>  <SCORE.RESTR.norm>
0

>  <SCORE.SYSTEM>
0

>  <SCORE.SYSTEM.CONST>
0

>  <SCORE.SYSTEM.DIHEDRAL>
0

>  <SCORE.SYSTEM.SOLV>
0

>  <SCORE.SYSTEM.norm>
0

>  <SCORE.heavy>
13

>  <SCORE.norm>
-1.29864

>  <RMSD>
2.702

$$$$
ligand
 OpenBabel02271912143D
libRbt.so/2013.1/901 2013/11/27
 13 14  0  0  0  0  0  0  0  0999 V2000
   -5.4991  -34.8721  -42.9550 N   0  0  0  0  0  0  0  0  0  0  0  0
   -5.8069  -35.0281  -44.2801 C   0  0  0  0  0  0  0  0  0  0  0  0
   -6.9822  -35.6420  -44.6177 N   0  0  0  0  0  0  0  0  0  0  0  0
   -4.9880  -34.5940  -45.2386 N   0  0  0  0  0  0  0  0  0  0  0  0
   -3.8105  -33.9796  -44.9377 C   0  0  0  0  0  0  0  0  0  0  0  0
   -3.4491  -33.8000  -43.5844 C   0  0  0  0  0  0  0  0  0  0  0  0
   -4.3380  -34.2670  -42.5786 C   0  0  0  0  0  0  0  0  0  0  0  0
   -4.0720  -34.1318  -41.4099 O   0  0  0  0  0  0  0  0  0  0  0  0
   -2.1538  -33.1276  -43.5861 C   0  0  0  0  0  0  0  0  0  0  0  0
   -1.8176  -32.9387  -44.8745 C   0  0  0  0  0  0  0  0  0  0  0  0
   -2.8070  -33.4475  -45.6894 N   0  0  0  0  0  0  0  0  0  0  0  0
   -1.3478  -32.7310  -42.3758 C   0  0  0  0  0  0  0  0  0  0  0  0
    0.0605  -32.5398  -42.7779 N   0  0  0  0  0  0  0  0  0  0  0  0
  1  2  1  0  0  0  0
  1  7  1  0  0  0  0
  2  3  1  0  0  0  0
  2  4  2  0  0  0  0
  4  5  1  0  0  0  0
  5  6  2  0  0  0  0
  5 11  1  0  0  0  0
  6  7  1  0  0  0  0
  6  9  1  0  0  0  0
  7  8  2  0  0  0  0
  9 10  2  0  0  0  0
  9 12  1  0  0  0  0
 10 11  1  0  0  0  0
 12 13  1  0  0  0  0
M  END
>  <CHROM.1>
159.65544760,-3.62502087,-33.93802390,-43.71985657,2.96631142,-0.44652305
-1.55105962

>  <Name>
ligand

>  <RI>
0

>  <Rbt.Current_Directory>
/home/itssahil/PROJECTS/Mol_Feturizer/Test_systems_manuscript/rnas/3fu2

>  <Rbt.Executable>
rbdock ($Id: //depot/dev/client3/rdock/2013.1/src/exe/rbdock.cxx#4 $)

>  <Rbt.Library>
libRbt.so (2013.1, Build901 2013/11/27)

>  <Rbt.Parameter_File>
/export/apps/rDock/src/rDock_2013.1_src/data/scripts/dock_solv.prm

>  <Rbt.Receptor>
prm/pocket_docking_2.prm

>  <SCORE>
-16.8249

>  <SCORE.INTER>
-16.6665

>  <SCORE.INTER.CONST>
1

>  <SCORE.INTER.POLAR>
0

>  <SCORE.INTER.ROT>
1

>  <SCORE.INTER.SOLV>
20.3142

>  <SCORE.INTER.VDW>
-22.149

>  <SCORE.INTER.norm>
-1.28204

>  <SCORE.INTRA>
-0.158447

>  <SCORE.INTRA.DIHEDRAL>
0.029912

>  <SCORE.INTRA.DIHEDRAL.0>
1.66609

>  <SCORE.INTRA.POLAR>
0

>  <SCORE.INTRA.POLAR.0>
0

>  <SCORE.INTRA.REPUL>
0

>  <SCORE.INTRA.REPUL.0>
0

>  <SCORE.INTRA.SOLV>
-0.98101

>  <SCORE.INTRA.SOLV.lig_0>
-45.868

>  <SCORE.INTRA.VDW>
0.317102

>  <SCORE.INTRA.VDW.0>
-0.397919

>  <SCORE.INTRA.norm>
-0.0121882

>  <SCORE.RESTR>
0

>  <SCORE.RESTR.CAVITY>
0

>  <SCORE.RESTR.norm>
0

>  <SCORE.SYSTEM>
0

>  <SCORE.SYSTEM.CONST>
0

>  <SCORE.SYSTEM.DIHEDRAL>
0

>  <SCORE.SYSTEM.SOLV>
0

>  <SCORE.SYSTEM.norm>
0

>  <SCORE.heavy>
13

>  <SCORE.norm>
-1.29422

>  <RMSD>
2.702

$$$$
ligand
 OpenBabel02271912143D
libRbt.so/2013.1/901 2013/11/27
 13 14  0  0  0  0  0  0  0  0999 V2000
   -5.5557  -34.8786  -42.9669 N   0  0  0  0  0  0  0  0  0  0  0  0
   -5.8226  -35.0315  -44.3012 C   0  0  0  0  0  0  0  0  0  0  0  0
   -6.9936  -35.6316  -44.6764 N   0  0  0  0  0  0  0  0  0  0  0  0
   -4.9682  -34.6076  -45.2329 N   0  0  0  0  0  0  0  0  0  0  0  0
   -3.7938  -34.0070  -44.8944 C   0  0  0  0  0  0  0  0  0  0  0  0
   -3.4740  -33.8311  -43.5302 C   0  0  0  0  0  0  0  0  0  0  0  0
   -4.4002  -34.2872  -42.5534 C   0  0  0  0  0  0  0  0  0  0  0  0
   -4.1704  -34.1545  -41.3768 O   0  0  0  0  0  0  0  0  0  0  0  0
   -2.1714  -33.1741  -43.4902 C   0  0  0  0  0  0  0  0  0  0  0  0
   -1.7918  -32.9898  -44.7671 C   0  0  0  0  0  0  0  0  0  0  0  0
   -2.7604  -33.4872  -45.6134 N   0  0  0  0  0  0  0  0  0  0  0  0
   -1.4001  -32.7865  -42.2547 C   0  0  0  0  0  0  0  0  0  0  0  0
    0.0221  -32.6091  -42.6119 N   0  0  0  0  0  0  0  0  0  0  0  0
  1  2  1  0  0  0  0
  1  7  1  0  0  0  0
  2  3  1  0  0  0  0
  2  4  2  0  0  0  0
  4  5  1  0  0  0  0
  5  6  2  0  0  0  0
  5 11  1  0  0  0  0
  6  7  1  0  0  0  0
  6  9  1  0  0  0  0
  7  8  2  0  0  0  0
  9 10  2  0  0  0  0
  9 12  1  0  0  0  0
 10 11  1  0  0  0  0
 12 13  1  0  0  0  0
M  END
>  <CHROM.1>
159.78827031,-3.64711449,-33.96685947,-43.67122568,2.93064012,-0.43526935
-1.56665092

>  <Name>
ligand

>  <RI>
0

>  <Rbt.Current_Directory>
/home/itssahil/PROJECTS/Mol_Feturizer/Test_systems_manuscript/rnas/3fu2

>  <Rbt.Executable>
rbdock ($Id: //depot/dev/client3/rdock/2013.1/src/exe/rbdock.cxx#4 $)

>  <Rbt.Library>
libRbt.so (2013.1, Build901 2013/11/27)

>  <Rbt.Parameter_File>
/export/apps/rDock/src/rDock_2013.1_src/data/scripts/dock_solv.prm

>  <Rbt.Receptor>
prm/pocket_docking_3.prm

>  <SCORE>
-16.9173

>  <SCORE.INTER>
-16.7594

>  <SCORE.INTER.CONST>
1

>  <SCORE.INTER.POLAR>
0

>  <SCORE.INTER.ROT>
1

>  <SCORE.INTER.SOLV>
20.0602

>  <SCORE.INTER.VDW>
-22.1263

>  <SCORE.INTER.norm>
-1.28918

>  <SCORE.INTRA>
-0.157936

>  <SCORE.INTRA.DIHEDRAL>
0.0298484

>  <SCORE.INTRA.DIHEDRAL.0>
1.66609

>  <SCORE.INTRA.POLAR>
0

>  <SCORE.INTRA.POLAR.0>
0

>  <SCORE.INTRA.REPUL>
0

>  <SCORE.INTRA.REPUL.0>
0

>  <SCORE.INTRA.SOLV>
-0.980979

>  <SCORE.INTRA.SOLV.lig_0>
-45.868

>  <SCORE.INTRA.VDW>
0.317629

>  <SCORE.INTRA.VDW.0>
-0.397919

>  <SCORE.INTRA.norm>
-0.0121489

>  <SCORE.RESTR>
0

>  <SCORE.RESTR.CAVITY>
0

>  <SCORE.RESTR.norm>
0

>  <SCORE.SYSTEM>
0

>  <SCORE.SYSTEM.CONST>
0

>  <SCORE.SYSTEM.DIHEDRAL>
0

>  <SCORE.SYSTEM.SOLV>
0

>  <SCORE.SYSTEM.norm>
0

>  <SCORE.heavy>
13

>  <SCORE.norm>
-1.30133

>  <RMSD>
2.702

$$$$
ligand
 OpenBabel02271912143D
libRbt.so/2013.1/901 2013/11/27
 13 14  0  0  0  0  0  0  0  0999 V2000
   -5.5568  -34.8715  -42.9631 N   0  0  0  0  0  0  0  0  0  0  0  0
   -5.8268  -35.0214  -44.2971 C   0  0  0  0  0  0  0  0  0  0  0  0
   -6.9999  -35.6183  -44.6710 N   0  0  0  0  0  0  0  0  0  0  0  0
   -4.9734  -34.5977  -45.2298 N   0  0  0  0  0  0  0  0  0  0  0  0
   -3.7970  -34.0003  -44.8926 C   0  0  0  0  0  0  0  0  0  0  0  0
   -3.4740  -33.8276  -43.5288 C   0  0  0  0  0  0  0  0  0  0  0  0
   -4.3991  -34.2834  -42.5509 C   0  0  0  0  0  0  0  0  0  0  0  0
   -4.1666  -34.1534  -41.3745 O   0  0  0  0  0  0  0  0  0  0  0  0
   -2.1699  -33.1735  -43.4904 C   0  0  0  0  0  0  0  0  0  0  0  0
   -1.7925  -32.9877  -44.7677 C   0  0  0  0  0  0  0  0  0  0  0  0
   -2.7640  -33.4814  -45.6129 N   0  0  0  0  0  0  0  0  0  0  0  0
   -1.3951  -32.7899  -42.2557 C   0  0  0  0  0  0  0  0  0  0  0  0
    0.0274  -32.6192  -42.6147 N   0  0  0  0  0  0  0  0  0  0  0  0
  1  2  1  0  0  0  0
  1  7  1  0  0  0  0
  2  3  1  0  0  0  0
  2  4  2  0  0  0  0
  4  5  1  0  0  0  0
  5  6  2  0  0  0  0
  5 11  1  0  0  0  0
  6  7  1  0  0  0  0
  6  9  1  0  0  0  0
  7  8  2  0  0  0  0
  9 10  2  0  0  0  0
  9 12  1  0  0  0  0
 10 11  1  0  0  0  0
 12 13  1  0  0  0  0
M  END
>  <CHROM.1>
159.60663709,-3.64760637,-33.96306624,-43.66965217,2.93287138,-0.43278474
-1.56373505

>  <Name>
ligand

>  <RI>
0

>  <Rbt.Current_Directory>
/home/itssahil/PROJECTS/Mol_Feturizer/Test_systems_manuscript/rnas/3fu2

>  <Rbt.Executable>
rbdock ($Id: //depot/dev/client3/rdock/2013.1/src/exe/rbdock.cxx#4 $)

>  <Rbt.Library>
libRbt.so (2013.1, Build901 2013/11/27)

>  <Rbt.Parameter_File>
/export/apps/rDock/src/rDock_2013.1_src/data/scripts/dock_solv.prm

>  <Rbt.Receptor>
prm/pocket_docking_4.prm

>  <SCORE>
-16.9127

>  <SCORE.INTER>
-16.7541

>  <SCORE.INTER.CONST>
1

>  <SCORE.INTER.POLAR>
0

>  <SCORE.INTER.ROT>
1

>  <SCORE.INTER.SOLV>
20.0801

>  <SCORE.INTER.VDW>
-22.1294

>  <SCORE.INTER.norm>
-1.28878

>  <SCORE.INTRA>
-0.158636

>  <SCORE.INTRA.DIHEDRAL>
0.0299352

>  <SCORE.INTRA.DIHEDRAL.0>
1.66609

>  <SCORE.INTRA.POLAR>
0

>  <SCORE.INTRA.POLAR.0>
0

>  <SCORE.INTRA.REPUL>
0

>  <SCORE.INTRA.REPUL.0>
0

>  <SCORE.INTRA.SOLV>
-0.981021

>  <SCORE.INTRA.SOLV.lig_0>
-45.868

>  <SCORE.INTRA.VDW>
0.316907

>  <SCORE.INTRA.VDW.0>
-0.397919

>  <SCORE.INTRA.norm>
-0.0122027

>  <SCORE.RESTR>
0

>  <SCORE.RESTR.CAVITY>
0

>  <SCORE.RESTR.norm>
0

>  <SCORE.SYSTEM>
0

>  <SCORE.SYSTEM.CONST>
0

>  <SCORE.SYSTEM.DIHEDRAL>
0

>  <SCORE.SYSTEM.SOLV>
0

>  <SCORE.SYSTEM.norm>
0

>  <SCORE.heavy>
13

>  <SCORE.norm>
-1.30098

>  <RMSD>
2.702

$$$$
ligand
 OpenBabel02271912143D
libRbt.so/2013.1/901 2013/11/27
 13 14  0  0  0  0  0  0  0  0999 V2000
   -5.5566  -34.8723  -42.9689 N   0  0  0  0  0  0  0  0  0  0  0  0
   -5.8232  -35.0269  -44.3030 C   0  0  0  0  0  0  0  0  0  0  0  0
   -6.9951  -35.6254  -44.6778 N   0  0  0  0  0  0  0  0  0  0  0  0
   -4.9675  -34.6061  -45.2350 N   0  0  0  0  0  0  0  0  0  0  0  0
   -3.7922  -34.0072  -44.8968 C   0  0  0  0  0  0  0  0  0  0  0  0
   -3.4727  -33.8297  -43.5328 C   0  0  0  0  0  0  0  0  0  0  0  0
   -4.4002  -34.2824  -42.5557 C   0  0  0  0  0  0  0  0  0  0  0  0
   -4.1707  -34.1483  -41.3792 O   0  0  0  0  0  0  0  0  0  0  0  0
   -2.1689  -33.1751  -43.4933 C   0  0  0  0  0  0  0  0  0  0  0  0
   -1.7883  -32.9936  -44.7703 C   0  0  0  0  0  0  0  0  0  0  0  0
   -2.7574  -33.4905  -45.6162 N   0  0  0  0  0  0  0  0  0  0  0  0
   -1.3974  -32.7870  -42.2580 C   0  0  0  0  0  0  0  0  0  0  0  0
    0.0246  -32.6090  -42.6156 N   0  0  0  0  0  0  0  0  0  0  0  0
  1  2  1  0  0  0  0
  1  7  1  0  0  0  0
  2  3  1  0  0  0  0
  2  4  2  0  0  0  0
  4  5  1  0  0  0  0
  5  6  2  0  0  0  0
  5 11  1  0  0  0  0
  6  7  1  0  0  0  0
  6  9  1  0  0  0  0
  7  8  2  0  0  0  0
  9 10  2  0  0  0  0
  9 12  1  0  0  0  0
 10 11  1  0  0  0  0
 12 13  1  0  0  0  0
M  END
>  <CHROM.1>
159.95345319,-3.64603630,-33.96504869,-43.67377321,2.93015698,-0.43361445
-1.56861314

>  <Name>
ligand

>  <RI>
0

>  <Rbt.Current_Directory>
/home/itssahil/PROJECTS/Mol_Feturizer/Test_systems_manuscript/rnas/3fu2

>  <Rbt.Executable>
rbdock ($Id: //depot/dev/client3/rdock/2013.1/src/exe/rbdock.cxx#4 $)

>  <Rbt.Library>
libRbt.so (2013.1, Build901 2013/11/27)

>  <Rbt.Parameter_File>
/export/apps/rDock/src/rDock_2013.1_src/data/scripts/dock_solv.prm

>  <Rbt.Receptor>
prm/pocket_docking_5.prm

>  <SCORE>
-16.9133

>  <SCORE.INTER>
-16.756

>  <SCORE.INTER.CONST>
1

>  <SCORE.INTER.POLAR>
0

>  <SCORE.INTER.ROT>
1

>  <SCORE.INTER.SOLV>
20.0713

>  <SCORE.INTER.VDW>
-22.1278

>  <SCORE.INTER.norm>
-1.28892

>  <SCORE.INTRA>
-0.157304

>  <SCORE.INTRA.DIHEDRAL>
0.0297682

>  <SCORE.INTRA.DIHEDRAL.0>
1.66609

>  <SCORE.INTRA.POLAR>
0

>  <SCORE.INTRA.POLAR.0>
0

>  <SCORE.INTRA.REPUL>
0

>  <SCORE.INTRA.REPUL.0>
0

>  <SCORE.INTRA.SOLV>
-0.98094

>  <SCORE.INTRA.SOLV.lig_0>
-45.868

>  <SCORE.INTRA.VDW>
0.318282

>  <SCORE.INTRA.VDW.0>
-0.397919

>  <SCORE.INTRA.norm>
-0.0121003

>  <SCORE.RESTR>
0

>  <SCORE.RESTR.CAVITY>
0

>  <SCORE.RESTR.norm>
0

>  <SCORE.SYSTEM>
0

>  <SCORE.SYSTEM.CONST>
0

>  <SCORE.SYSTEM.DIHEDRAL>
0

>  <SCORE.SYSTEM.SOLV>
0

>  <SCORE.SYSTEM.norm>
0

>  <SCORE.heavy>
13

>  <SCORE.norm>
-1.30102

>  <RMSD>
2.702

$$$$
ligand
 OpenBabel02271912143D
libRbt.so/2013.1/901 2013/11/27
 13 14  0  0  0  0  0  0  0  0999 V2000
   -5.5569  -34.8816  -42.9629 N   0  0  0  0  0  0  0  0  0  0  0  0
   -5.8258  -35.0316  -44.2970 C   0  0  0  0  0  0  0  0  0  0  0  0
   -6.9976  -35.6306  -44.6718 N   0  0  0  0  0  0  0  0  0  0  0  0
   -4.9727  -34.6058  -45.2291 N   0  0  0  0  0  0  0  0  0  0  0  0
   -3.7977  -34.0062  -44.8910 C   0  0  0  0  0  0  0  0  0  0  0  0
   -3.4758  -33.8334  -43.5270 C   0  0  0  0  0  0  0  0  0  0  0  0
   -4.4006  -34.2914  -42.5498 C   0  0  0  0  0  0  0  0  0  0  0  0
   -4.1689  -34.1614  -41.3732 O   0  0  0  0  0  0  0  0  0  0  0  0
   -2.1730  -33.1768  -43.4876 C   0  0  0  0  0  0  0  0  0  0  0  0
   -1.7953  -32.9898  -44.7647 C   0  0  0  0  0  0  0  0  0  0  0  0
   -2.7653  -33.4851  -45.6105 N   0  0  0  0  0  0  0  0  0  0  0  0
   -1.3997  -32.7921  -42.2524 C   0  0  0  0  0  0  0  0  0  0  0  0
    0.0212  -32.6101  -42.6122 N   0  0  0  0  0  0  0  0  0  0  0  0
  1  2  1  0  0  0  0
  1  7  1  0  0  0  0
  2  3  1  0  0  0  0
  2  4  2  0  0  0  0
  4  5  1  0  0  0  0
  5  6  2  0  0  0  0
  5 11  1  0  0  0  0
  6  7  1  0  0  0  0
  6  9  1  0  0  0  0
  7  8  2  0  0  0  0
  9 10  2  0  0  0  0
  9 12  1  0  0  0  0
 10 11  1  0  0  0  0
 12 13  1  0  0  0  0
M  END
>  <CHROM.1>
159.96441238,-3.64920207,-33.96847885,-43.66812716,2.93237881,-0.43528306
-1.56388751

>  <Name>
ligand

>  <RI>
0

>  <Rbt.Current_Directory>
/home/itssahil/PROJECTS/Mol_Feturizer/Test_systems_manuscript/rnas/3fu2

>  <Rbt.Executable>
rbdock ($Id: //depot/dev/client3/rdock/2013.1/src/exe/rbdock.cxx#4 $)

>  <Rbt.Library>
libRbt.so (2013.1, Build901 2013/11/27)

>  <Rbt.Parameter_File>
/export/apps/rDock/src/rDock_2013.1_src/data/scripts/dock_solv.prm

>  <Rbt.Receptor>
prm/pocket_docking_5.prm

>  <SCORE>
-16.9197

>  <SCORE.INTER>
-16.7624

>  <SCORE.INTER.CONST>
1

>  <SCORE.INTER.POLAR>
0

>  <SCORE.INTER.ROT>
1

>  <SCORE.INTER.SOLV>
20.0605

>  <SCORE.INTER.VDW>
-22.1285

>  <SCORE.INTER.norm>
-1.28942

>  <SCORE.INTRA>
-0.157263

>  <SCORE.INTRA.DIHEDRAL>
0.0297629

>  <SCORE.INTRA.DIHEDRAL.0>
1.66609

>  <SCORE.INTRA.POLAR>
0

>  <SCORE.INTRA.POLAR.0>
0

>  <SCORE.INTRA.REPUL>
0

>  <SCORE.INTRA.REPUL.0>
0

>  <SCORE.INTRA.SOLV>
-0.980938

>  <SCORE.INTRA.SOLV.lig_0>
-45.868

>  <SCORE.INTRA.VDW>
0.318325

>  <SCORE.INTRA.VDW.0>
-0.397919

>  <SCORE.INTRA.norm>
-0.0120971

>  <SCORE.RESTR>
0

>  <SCORE.RESTR.CAVITY>
0

>  <SCORE.RESTR.norm>
0

>  <SCORE.SYSTEM>
0

>  <SCORE.SYSTEM.CONST>
0

>  <SCORE.SYSTEM.DIHEDRAL>
0

>  <SCORE.SYSTEM.SOLV>
0

>  <SCORE.SYSTEM.norm>
0

>  <SCORE.heavy>
13

>  <SCORE.norm>
-1.30151

>  <RMSD>
2.702

$$$$
ligand
 OpenBabel02271912143D
libRbt.so/2013.1/901 2013/11/27
 13 14  0  0  0  0  0  0  0  0999 V2000
   -5.5538  -34.8775  -42.9671 N   0  0  0  0  0  0  0  0  0  0  0  0
   -5.8213  -35.0293  -44.3014 C   0  0  0  0  0  0  0  0  0  0  0  0
   -6.9921  -35.6298  -44.6766 N   0  0  0  0  0  0  0  0  0  0  0  0
   -4.9676  -34.6039  -45.2332 N   0  0  0  0  0  0  0  0  0  0  0  0
   -3.7935  -34.0028  -44.8946 C   0  0  0  0  0  0  0  0  0  0  0  0
   -3.4730  -33.8281  -43.5305 C   0  0  0  0  0  0  0  0  0  0  0  0
   -4.3984  -34.2857  -42.5536 C   0  0  0  0  0  0  0  0  0  0  0  0
   -4.1680  -34.1542  -41.3770 O   0  0  0  0  0  0  0  0  0  0  0  0
   -2.1709  -33.1703  -43.4906 C   0  0  0  0  0  0  0  0  0  0  0  0
   -1.7920  -32.9845  -44.7675 C   0  0  0  0  0  0  0  0  0  0  0  0
   -2.7608  -33.4816  -45.6137 N   0  0  0  0  0  0  0  0  0  0  0  0
   -1.3991  -32.7834  -42.2551 C   0  0  0  0  0  0  0  0  0  0  0  0
    0.0238  -32.6109  -42.6116 N   0  0  0  0  0  0  0  0  0  0  0  0
  1  2  1  0  0  0  0
  1  7  1  0  0  0  0
  2  3  1  0  0  0  0
  2  4  2  0  0  0  0
  4  5  1  0  0  0  0
  5  6  2  0  0  0  0
  5 11  1  0  0  0  0
  6  7  1  0  0  0  0
  6  9  1  0  0  0  0
  7  8  2  0  0  0  0
  9 10  2  0  0  0  0
  9 12  1  0  0  0  0
 10 11  1  0  0  0  0
 12 13  1  0  0  0  0
M  END
>  <CHROM.1>
159.52639672,-3.64604309,-33.96434000,-43.67145516,2.93117006,-0.43551959
-1.56519251

>  <Name>
ligand

>  <RI>
0

>  <Rbt.Current_Directory>
/home/itssahil/PROJECTS/Mol_Feturizer/Test_systems_manuscript/rnas/3fu2

>  <Rbt.Executable>
rbdock ($Id: //depot/dev/client3/rdock/2013.1/src/exe/rbdock.cxx#4 $)

>  <Rbt.Library>
libRbt.so (2013.1, Build901 2013/11/27)

>  <Rbt.Parameter_File>
/export/apps/rDock/src/rDock_2013.1_src/data/scripts/dock_solv.prm

>  <Rbt.Receptor>
prm/pocket_docking_7.prm

>  <SCORE>
-16.9168

>  <SCORE.INTER>
-16.7579

>  <SCORE.INTER.CONST>
1

>  <SCORE.INTER.POLAR>
0

>  <SCORE.INTER.ROT>
1

>  <SCORE.INTER.SOLV>
20.0573

>  <SCORE.INTER.VDW>
-22.1244

>  <SCORE.INTER.norm>
-1.28907

>  <SCORE.INTRA>
-0.158946

>  <SCORE.INTRA.DIHEDRAL>
0.029973

>  <SCORE.INTRA.DIHEDRAL.0>
1.66609

>  <SCORE.INTRA.POLAR>
0

>  <SCORE.INTRA.POLAR.0>
0

>  <SCORE.INTRA.REPUL>
0

>  <SCORE.INTRA.REPUL.0>
0

>  <SCORE.INTRA.SOLV>
-0.98104

>  <SCORE.INTRA.SOLV.lig_0>
-45.868

>  <SCORE.INTRA.VDW>
0.316588

>  <SCORE.INTRA.VDW.0>
-0.397919

>  <SCORE.INTRA.norm>
-0.0122266

>  <SCORE.RESTR>
0

>  <SCORE.RESTR.CAVITY>
0

>  <SCORE.RESTR.norm>
0

>  <SCORE.SYSTEM>
0

>  <SCORE.SYSTEM.CONST>
0

>  <SCORE.SYSTEM.DIHEDRAL>
0

>  <SCORE.SYSTEM.SOLV>
0

>  <SCORE.SYSTEM.norm>
0

>  <SCORE.heavy>
13

>  <SCORE.norm>
-1.30129

>  <RMSD>
2.702

$$$$
ligand
 OpenBabel02271912143D
libRbt.so/2013.1/901 2013/11/27
 13 14  0  0  0  0  0  0  0  0999 V2000
   -5.5244  -34.8768  -42.9226 N   0  0  0  0  0  0  0  0  0  0  0  0
   -5.8269  -35.0380  -44.2483 C   0  0  0  0  0  0  0  0  0  0  0  0
   -7.0021  -35.6509  -44.5882 N   0  0  0  0  0  0  0  0  0  0  0  0
   -5.0030  -34.6100  -45.2052 N   0  0  0  0  0  0  0  0  0  0  0  0
   -3.8254  -33.9968  -44.9020 C   0  0  0  0  0  0  0  0  0  0  0  0
   -3.4694  -33.8120  -43.5480 C   0  0  0  0  0  0  0  0  0  0  0  0
   -4.3636  -34.2726  -42.5439 C   0  0  0  0  0  0  0  0  0  0  0  0
   -4.1023  -34.1328  -41.3747 O   0  0  0  0  0  0  0  0  0  0  0  0
   -2.1726  -33.1424  -43.5472 C   0  0  0  0  0  0  0  0  0  0  0  0
   -1.8306  -32.9600  -44.8349 C   0  0  0  0  0  0  0  0  0  0  0  0
   -2.8176  -33.4702  -45.6518 N   0  0  0  0  0  0  0  0  0  0  0  0
   -1.3709  -32.7422  -42.3353 C   0  0  0  0  0  0  0  0  0  0  0  0
    0.0415  -32.5664  -42.7300 N   0  0  0  0  0  0  0  0  0  0  0  0
  1  2  1  0  0  0  0
  1  7  1  0  0  0  0
  2  3  1  0  0  0  0
  2  4  2  0  0  0  0
  4  5  1  0  0  0  0
  5  6  2  0  0  0  0
  5 11  1  0  0  0  0
  6  7  1  0  0  0  0
  6  9  1  0  0  0  0
  7  8  2  0  0  0  0
  9 10  2  0  0  0  0
  9 12  1  0  0  0  0
 10 11  1  0  0  0  0
 12 13  1  0  0  0  0
M  END
>  <CHROM.1>
159.20896570,-3.64487541,-33.95110861,-43.68343619,2.96141938,-0.44373040
-1.55721572

>  <Name>
ligand

>  <RI>
0

>  <Rbt.Current_Directory>
/home/itssahil/PROJECTS/Mol_Feturizer/Test_systems_manuscript/rnas/3fu2

>  <Rbt.Executable>
rbdock ($Id: //depot/dev/client3/rdock/2013.1/src/exe/rbdock.cxx#4 $)

>  <Rbt.Library>
libRbt.so (2013.1, Build901 2013/11/27)

>  <Rbt.Parameter_File>
/export/apps/rDock/src/rDock_2013.1_src/data/scripts/dock_solv.prm

>  <Rbt.Receptor>
prm/pocket_docking_8.prm

>  <SCORE>
-16.8686

>  <SCORE.INTER>
-16.7084

>  <SCORE.INTER.CONST>
1

>  <SCORE.INTER.POLAR>
0

>  <SCORE.INTER.ROT>
1

>  <SCORE.INTER.SOLV>
20.2766

>  <SCORE.INTER.VDW>
-22.1645

>  <SCORE.INTER.norm>
-1.28526

>  <SCORE.INTRA>
-0.160183

>  <SCORE.INTRA.DIHEDRAL>
0.0301201

>  <SCORE.INTRA.DIHEDRAL.0>
1.66609

>  <SCORE.INTRA.POLAR>
0

>  <SCORE.INTRA.POLAR.0>
0

>  <SCORE.INTRA.REPUL>
0

>  <SCORE.INTRA.REPUL.0>
0

>  <SCORE.INTRA.SOLV>
-0.981115

>  <SCORE.INTRA.SOLV.lig_0>
-45.868

>  <SCORE.INTRA.VDW>
0.315315

>  <SCORE.INTRA.VDW.0>
-0.397919

>  <SCORE.INTRA.norm>
-0.0123218

>  <SCORE.RESTR>
0

>  <SCORE.RESTR.CAVITY>
0

>  <SCORE.RESTR.norm>
0

>  <SCORE.SYSTEM>
0

>  <SCORE.SYSTEM.CONST>
0

>  <SCORE.SYSTEM.DIHEDRAL>
0

>  <SCORE.SYSTEM.SOLV>
0

>  <SCORE.SYSTEM.norm>
0

>  <SCORE.heavy>
13

>  <SCORE.norm>
-1.29758

>  <RMSD>
2.702

$$$$
ligand
 OpenBabel02271912143D
libRbt.so/2013.1/901 2013/11/27
 13 14  0  0  0  0  0  0  0  0999 V2000
   -5.5571  -34.8838  -42.9637 N   0  0  0  0  0  0  0  0  0  0  0  0
   -5.8272  -35.0310  -44.2979 C   0  0  0  0  0  0  0  0  0  0  0  0
   -6.9994  -35.6287  -44.6730 N   0  0  0  0  0  0  0  0  0  0  0  0
   -4.9746  -34.6037  -45.2298 N   0  0  0  0  0  0  0  0  0  0  0  0
   -3.7990  -34.0053  -44.8914 C   0  0  0  0  0  0  0  0  0  0  0  0
   -3.4760  -33.8354  -43.5273 C   0  0  0  0  0  0  0  0  0  0  0  0
   -4.4003  -34.2949  -42.5503 C   0  0  0  0  0  0  0  0  0  0  0  0
   -4.1677  -34.1674  -41.3736 O   0  0  0  0  0  0  0  0  0  0  0  0
   -2.1729  -33.1794  -43.4875 C   0  0  0  0  0  0  0  0  0  0  0  0
   -1.7960  -32.9901  -44.7645 C   0  0  0  0  0  0  0  0  0  0  0  0
   -2.7669  -33.4832  -45.6106 N   0  0  0  0  0  0  0  0  0  0  0  0
   -1.3985  -32.7976  -42.2522 C   0  0  0  0  0  0  0  0  0  0  0  0
    0.0208  -32.6077  -42.6142 N   0  0  0  0  0  0  0  0  0  0  0  0
  1  2  1  0  0  0  0
  1  7  1  0  0  0  0
  2  3  1  0  0  0  0
  2  4  2  0  0  0  0
  4  5  1  0  0  0  0
  5  6  2  0  0  0  0
  5 11  1  0  0  0  0
  6  7  1  0  0  0  0
  6  9  1  0  0  0  0
  7  8  2  0  0  0  0
  9 10  2  0  0  0  0
  9 12  1  0  0  0  0
 10 11  1  0  0  0  0
 12 13  1  0  0  0  0
M  END
>  <CHROM.1>
160.29606271,-3.64970456,-33.96948463,-43.66868012,2.93330002,-0.43532737
-1.56177079

>  <Name>
ligand

>  <RI>
0

>  <Rbt.Current_Directory>
/home/itssahil/PROJECTS/Mol_Feturizer/Test_systems_manuscript/rnas/3fu2

>  <Rbt.Executable>
rbdock ($Id: //depot/dev/client3/rdock/2013.1/src/exe/rbdock.cxx#4 $)

>  <Rbt.Library>
libRbt.so (2013.1, Build901 2013/11/27)

>  <Rbt.Parameter_File>
/export/apps/rDock/src/rDock_2013.1_src/data/scripts/dock_solv.prm

>  <Rbt.Receptor>
prm/blind_docking_100.prm

>  <SCORE>
-16.9194

>  <SCORE.INTER>
-16.7634

>  <SCORE.INTER.CONST>
1

>  <SCORE.INTER.POLAR>
0

>  <SCORE.INTER.ROT>
1

>  <SCORE.INTER.SOLV>
20.0579

>  <SCORE.INTER.VDW>
-22.1282

>  <SCORE.INTER.norm>
-1.28949

>  <SCORE.INTRA>
-0.156007

>  <SCORE.INTRA.DIHEDRAL>
0.0295982

>  <SCORE.INTRA.DIHEDRAL.0>
1.66609

>  <SCORE.INTRA.POLAR>
0

>  <SCORE.INTRA.POLAR.0>
0

>  <SCORE.INTRA.REPUL>
0

>  <SCORE.INTRA.REPUL.0>
0

>  <SCORE.INTRA.SOLV>
-0.980862

>  <SCORE.INTRA.SOLV.lig_0>
-45.868

>  <SCORE.INTRA.VDW>
0.319625

>  <SCORE.INTRA.VDW.0>
-0.397919

>  <SCORE.INTRA.norm>
-0.0120005

>  <SCORE.RESTR>
0

>  <SCORE.RESTR.CAVITY>
0

>  <SCORE.RESTR.norm>
0

>  <SCORE.SYSTEM>
0

>  <SCORE.SYSTEM.CONST>
0

>  <SCORE.SYSTEM.DIHEDRAL>
0

>  <SCORE.SYSTEM.SOLV>
0

>  <SCORE.SYSTEM.norm>
0

>  <SCORE.heavy>
13

>  <SCORE.norm>
-1.30149

>  <RMSD>
2.703

$$$$
ligand
 OpenBabel02271912143D
libRbt.so/2013.1/901 2013/11/27
 13 14  0  0  0  0  0  0  0  0999 V2000
   -5.5439  -34.8560  -42.9216 N   0  0  0  0  0  0  0  0  0  0  0  0
   -5.8477  -35.0261  -44.2458 C   0  0  0  0  0  0  0  0  0  0  0  0
   -7.0331  -35.6217  -44.5808 N   0  0  0  0  0  0  0  0  0  0  0  0
   -5.0151  -34.6230  -45.2062 N   0  0  0  0  0  0  0  0  0  0  0  0
   -3.8273  -34.0275  -44.9080 C   0  0  0  0  0  0  0  0  0  0  0  0
   -3.4697  -33.8344  -43.5555 C   0  0  0  0  0  0  0  0  0  0  0  0
   -4.3731  -34.2683  -42.5478 C   0  0  0  0  0  0  0  0  0  0  0  0
   -4.1108  -34.1205  -41.3798 O   0  0  0  0  0  0  0  0  0  0  0  0
   -2.1613  -33.1879  -43.5600 C   0  0  0  0  0  0  0  0  0  0  0  0
   -1.8145  -33.0254  -44.8492 C   0  0  0  0  0  0  0  0  0  0  0  0
   -2.8094  -33.5269  -45.6619 N   0  0  0  0  0  0  0  0  0  0  0  0
   -1.3541  -32.7888  -42.3514 C   0  0  0  0  0  0  0  0  0  0  0  0
    0.0378  -32.5242  -42.7690 N   0  0  0  0  0  0  0  0  0  0  0  0
  1  2  1  0  0  0  0
  1  7  1  0  0  0  0
  2  3  1  0  0  0  0
  2  4  2  0  0  0  0
  4  5  1  0  0  0  0
  5  6  2  0  0  0  0
  5 11  1  0  0  0  0
  6  7  1  0  0  0  0
  6  9  1  0  0  0  0
  7  8  2  0  0  0  0
  9 10  2  0  0  0  0
  9 12  1  0  0  0  0
 10 11  1  0  0  0  0
 12 13  1  0  0  0  0
M  END
>  <CHROM.1>
164.23962342,-3.64937289,-33.96224056,-43.69153096,2.96116653,-0.43382447
-1.57214003

>  <Name>
ligand

>  <RI>
0

>  <Rbt.Current_Directory>
/home/itssahil/PROJECTS/Mol_Feturizer/Test_systems_manuscript/rnas/3fu2

>  <Rbt.Executable>
rbdock ($Id: //depot/dev/client3/rdock/2013.1/src/exe/rbdock.cxx#4 $)

>  <Rbt.Library>
libRbt.so (2013.1, Build901 2013/11/27)

>  <Rbt.Parameter_File>
/export/apps/rDock/src/rDock_2013.1_src/data/scripts/dock_solv.prm

>  <Rbt.Receptor>
prm/blind_docking_60.prm

>  <SCORE>
-16.8224

>  <SCORE.INTER>
-16.68

>  <SCORE.INTER.CONST>
1

>  <SCORE.INTER.POLAR>
0

>  <SCORE.INTER.ROT>
1

>  <SCORE.INTER.SOLV>
20.3774

>  <SCORE.INTER.VDW>
-22.1791

>  <SCORE.INTER.norm>
-1.28308

>  <SCORE.INTRA>
-0.14243

>  <SCORE.INTRA.DIHEDRAL>
0.0272928

>  <SCORE.INTRA.DIHEDRAL.0>
1.66609

>  <SCORE.INTRA.POLAR>
0

>  <SCORE.INTRA.POLAR.0>
0

>  <SCORE.INTRA.REPUL>
0

>  <SCORE.INTRA.REPUL.0>
0

>  <SCORE.INTRA.SOLV>
-0.980055

>  <SCORE.INTRA.SOLV.lig_0>
-45.868

>  <SCORE.INTRA.VDW>
0.333951

>  <SCORE.INTRA.VDW.0>
-0.397919

>  <SCORE.INTRA.norm>
-0.0109561

>  <SCORE.RESTR>
0

>  <SCORE.RESTR.CAVITY>
0

>  <SCORE.RESTR.norm>
0

>  <SCORE.SYSTEM>
0

>  <SCORE.SYSTEM.CONST>
0

>  <SCORE.SYSTEM.DIHEDRAL>
0

>  <SCORE.SYSTEM.SOLV>
0

>  <SCORE.SYSTEM.norm>
0

>  <SCORE.heavy>
13

>  <SCORE.norm>
-1.29403

>  <RMSD>
2.703

$$$$
ligand
 OpenBabel02271912143D
libRbt.so/2013.1/901 2013/11/27
 13 14  0  0  0  0  0  0  0  0999 V2000
   -5.5668  -34.8756  -42.9633 N   0  0  0  0  0  0  0  0  0  0  0  0
   -5.8346  -35.0277  -44.2974 C   0  0  0  0  0  0  0  0  0  0  0  0
   -7.0095  -35.6205  -44.6723 N   0  0  0  0  0  0  0  0  0  0  0  0
   -4.9774  -34.6101  -45.2294 N   0  0  0  0  0  0  0  0  0  0  0  0
   -3.7991  -34.0170  -44.8913 C   0  0  0  0  0  0  0  0  0  0  0  0
   -3.4783  -33.8422  -43.5272 C   0  0  0  0  0  0  0  0  0  0  0  0
   -4.4075  -34.2914  -42.5501 C   0  0  0  0  0  0  0  0  0  0  0  0
   -4.1768  -34.1594  -41.3736 O   0  0  0  0  0  0  0  0  0  0  0  0
   -2.1714  -33.1936  -43.4877 C   0  0  0  0  0  0  0  0  0  0  0  0
   -1.7905  -33.0128  -44.7647 C   0  0  0  0  0  0  0  0  0  0  0  0
   -2.7623  -33.5045  -45.6106 N   0  0  0  0  0  0  0  0  0  0  0  0
   -1.3976  -32.8102  -42.2524 C   0  0  0  0  0  0  0  0  0  0  0  0
    0.0187  -32.6038  -42.6173 N   0  0  0  0  0  0  0  0  0  0  0  0
  1  2  1  0  0  0  0
  1  7  1  0  0  0  0
  2  3  1  0  0  0  0
  2  4  2  0  0  0  0
  4  5  1  0  0  0  0
  5  6  2  0  0  0  0
  5 11  1  0  0  0  0
  6  7  1  0  0  0  0
  6  9  1  0  0  0  0
  7  8  2  0  0  0  0
  9 10  2  0  0  0  0
  9 12  1  0  0  0  0
 10 11  1  0  0  0  0
 12 13  1  0  0  0  0
M  END
>  <CHROM.1>
161.42568768,-3.65279897,-33.97375112,-43.66878055,2.93100960,-0.43118945
-1.56867535

>  <Name>
ligand

>  <RI>
0

>  <Rbt.Current_Directory>
/home/itssahil/PROJECTS/Mol_Feturizer/Test_systems_manuscript/rnas/3fu2

>  <Rbt.Executable>
rbdock ($Id: //depot/dev/client3/rdock/2013.1/src/exe/rbdock.cxx#4 $)

>  <Rbt.Library>
libRbt.so (2013.1, Build901 2013/11/27)

>  <Rbt.Parameter_File>
/export/apps/rDock/src/rDock_2013.1_src/data/scripts/dock_solv.prm

>  <Rbt.Receptor>
prm/blind_docking_60.prm

>  <SCORE>
-16.9123

>  <SCORE.INTER>
-16.7604

>  <SCORE.INTER.CONST>
1

>  <SCORE.INTER.POLAR>
0

>  <SCORE.INTER.ROT>
1

>  <SCORE.INTER.SOLV>
20.0828

>  <SCORE.INTER.VDW>
-22.1346

>  <SCORE.INTER.norm>
-1.28927

>  <SCORE.INTRA>
-0.151854

>  <SCORE.INTRA.DIHEDRAL>
0.0290022

>  <SCORE.INTRA.DIHEDRAL.0>
1.66609

>  <SCORE.INTRA.POLAR>
0

>  <SCORE.INTRA.POLAR.0>
0

>  <SCORE.INTRA.REPUL>
0

>  <SCORE.INTRA.REPUL.0>
0

>  <SCORE.INTRA.SOLV>
-0.980612

>  <SCORE.INTRA.SOLV.lig_0>
-45.868

>  <SCORE.INTRA.VDW>
0.323951

>  <SCORE.INTRA.VDW.0>
-0.397919

>  <SCORE.INTRA.norm>
-0.0116811

>  <SCORE.RESTR>
0

>  <SCORE.RESTR.CAVITY>
0

>  <SCORE.RESTR.norm>
0

>  <SCORE.SYSTEM>
0

>  <SCORE.SYSTEM.CONST>
0

>  <SCORE.SYSTEM.DIHEDRAL>
0

>  <SCORE.SYSTEM.SOLV>
0

>  <SCORE.SYSTEM.norm>
0

>  <SCORE.heavy>
13

>  <SCORE.norm>
-1.30095

>  <RMSD>
2.703

$$$$
ligand
 OpenBabel02271912143D
libRbt.so/2013.1/901 2013/11/27
 13 14  0  0  0  0  0  0  0  0999 V2000
   -5.5509  -34.8940  -42.9574 N   0  0  0  0  0  0  0  0  0  0  0  0
   -5.8222  -35.0436  -44.2911 C   0  0  0  0  0  0  0  0  0  0  0  0
   -6.9916  -35.6483  -44.6639 N   0  0  0  0  0  0  0  0  0  0  0  0
   -4.9735  -34.6121  -45.2246 N   0  0  0  0  0  0  0  0  0  0  0  0
   -3.8009  -34.0068  -44.8885 C   0  0  0  0  0  0  0  0  0  0  0  0
   -3.4767  -33.8341  -43.5250 C   0  0  0  0  0  0  0  0  0  0  0  0
   -4.3968  -34.2982  -42.5462 C   0  0  0  0  0  0  0  0  0  0  0  0
   -4.1630  -34.1686  -41.3700 O   0  0  0  0  0  0  0  0  0  0  0  0
   -2.1773  -33.1706  -43.4878 C   0  0  0  0  0  0  0  0  0  0  0  0
   -1.8036  -32.9799  -44.7655 C   0  0  0  0  0  0  0  0  0  0  0  0
   -2.7730  -33.4792  -45.6097 N   0  0  0  0  0  0  0  0  0  0  0  0
   -1.4031  -32.7835  -42.2539 C   0  0  0  0  0  0  0  0  0  0  0  0
    0.0191  -32.6108  -42.6133 N   0  0  0  0  0  0  0  0  0  0  0  0
  1  2  1  0  0  0  0
  1  7  1  0  0  0  0
  2  3  1  0  0  0  0
  2  4  2  0  0  0  0
  4  5  1  0  0  0  0
  5  6  2  0  0  0  0
  5 11  1  0  0  0  0
  6  7  1  0  0  0  0
  6  9  1  0  0  0  0
  7  8  2  0  0  0  0
  9 10  2  0  0  0  0
  9 12  1  0  0  0  0
 10 11  1  0  0  0  0
 12 13  1  0  0  0  0
M  END
>  <CHROM.1>
159.22936613,-3.64946291,-33.97126962,-43.66563259,2.93480481,-0.43945444
-1.56086709

>  <Name>
ligand

>  <RI>
0

>  <Rbt.Current_Directory>
/home/itssahil/PROJECTS/Mol_Feturizer/Test_systems_manuscript/rnas/3fu2

>  <Rbt.Executable>
rbdock ($Id: //depot/dev/client3/rdock/2013.1/src/exe/rbdock.cxx#4 $)

>  <Rbt.Library>
libRbt.so (2013.1, Build901 2013/11/27)

>  <Rbt.Parameter_File>
/export/apps/rDock/src/rDock_2013.1_src/data/scripts/dock_solv.prm

>  <Rbt.Receptor>
prm/blind_docking_60.prm

>  <SCORE>
-16.8843

>  <SCORE.INTER>
-16.7242

>  <SCORE.INTER.CONST>
1

>  <SCORE.INTER.POLAR>
0

>  <SCORE.INTER.ROT>
1

>  <SCORE.INTER.SOLV>
20.0532

>  <SCORE.INTER.VDW>
-22.1005

>  <SCORE.INTER.norm>
-1.28648

>  <SCORE.INTRA>
-0.160103

>  <SCORE.INTRA.DIHEDRAL>
0.0301107

>  <SCORE.INTRA.DIHEDRAL.0>
1.66609

>  <SCORE.INTRA.POLAR>
0

>  <SCORE.INTRA.POLAR.0>
0

>  <SCORE.INTRA.REPUL>
0

>  <SCORE.INTRA.REPUL.0>
0

>  <SCORE.INTRA.SOLV>
-0.981111

>  <SCORE.INTRA.SOLV.lig_0>
-45.868

>  <SCORE.INTRA.VDW>
0.315397

>  <SCORE.INTRA.VDW.0>
-0.397919

>  <SCORE.INTRA.norm>
-0.0123156

>  <SCORE.RESTR>
0

>  <SCORE.RESTR.CAVITY>
0

>  <SCORE.RESTR.norm>
0

>  <SCORE.SYSTEM>
0

>  <SCORE.SYSTEM.CONST>
0

>  <SCORE.SYSTEM.DIHEDRAL>
0

>  <SCORE.SYSTEM.SOLV>
0

>  <SCORE.SYSTEM.norm>
0

>  <SCORE.heavy>
13

>  <SCORE.norm>
-1.29879

>  <RMSD>
2.703

$$$$
ligand
 OpenBabel02271912143D
libRbt.so/2013.1/901 2013/11/27
 13 14  0  0  0  0  0  0  0  0999 V2000
   -5.5580  -34.8799  -42.9659 N   0  0  0  0  0  0  0  0  0  0  0  0
   -5.8252  -35.0322  -44.3001 C   0  0  0  0  0  0  0  0  0  0  0  0
   -6.9968  -35.6312  -44.6753 N   0  0  0  0  0  0  0  0  0  0  0  0
   -4.9705  -34.6088  -45.2318 N   0  0  0  0  0  0  0  0  0  0  0  0
   -3.7956  -34.0094  -44.8933 C   0  0  0  0  0  0  0  0  0  0  0  0
   -3.4755  -33.8341  -43.5291 C   0  0  0  0  0  0  0  0  0  0  0  0
   -4.4019  -34.2896  -42.5523 C   0  0  0  0  0  0  0  0  0  0  0  0
   -4.1718  -34.1575  -41.3757 O   0  0  0  0  0  0  0  0  0  0  0  0
   -2.1723  -33.1783  -43.4891 C   0  0  0  0  0  0  0  0  0  0  0  0
   -1.7926  -32.9940  -44.7660 C   0  0  0  0  0  0  0  0  0  0  0  0
   -2.7618  -33.4903  -45.6123 N   0  0  0  0  0  0  0  0  0  0  0  0
   -1.4004  -32.7917  -42.2536 C   0  0  0  0  0  0  0  0  0  0  0  0
    0.0209  -32.6103  -42.6120 N   0  0  0  0  0  0  0  0  0  0  0  0
  1  2  1  0  0  0  0
  1  7  1  0  0  0  0
  2  3  1  0  0  0  0
  2  4  2  0  0  0  0
  4  5  1  0  0  0  0
  5  6  2  0  0  0  0
  5 11  1  0  0  0  0
  6  7  1  0  0  0  0
  6  9  1  0  0  0  0
  7  8  2  0  0  0  0
  9 10  2  0  0  0  0
  9 12  1  0  0  0  0
 10 11  1  0  0  0  0
 12 13  1  0  0  0  0
M  END
>  <CHROM.1>
160.00440633,-3.64877159,-33.96927617,-43.67022519,2.93083961,-0.43470689
-1.56649843

>  <Name>
ligand

>  <RI>
0

>  <Rbt.Current_Directory>
/home/itssahil/PROJECTS/Mol_Feturizer/Test_systems_manuscript/rnas/3fu2

>  <Rbt.Executable>
rbdock ($Id: //depot/dev/client3/rdock/2013.1/src/exe/rbdock.cxx#4 $)

>  <Rbt.Library>
libRbt.so (2013.1, Build901 2013/11/27)

>  <Rbt.Parameter_File>
/export/apps/rDock/src/rDock_2013.1_src/data/scripts/dock_solv.prm

>  <Rbt.Receptor>
prm/blind_docking_80.prm

>  <SCORE>
-16.9183

>  <SCORE.INTER>
-16.7612

>  <SCORE.INTER.CONST>
1

>  <SCORE.INTER.POLAR>
0

>  <SCORE.INTER.ROT>
1

>  <SCORE.INTER.SOLV>
20.063

>  <SCORE.INTER.VDW>
-22.1285

>  <SCORE.INTER.norm>
-1.28932

>  <SCORE.INTRA>
-0.15711

>  <SCORE.INTRA.DIHEDRAL>
0.0297433

>  <SCORE.INTRA.DIHEDRAL.0>
1.66609

>  <SCORE.INTRA.POLAR>
0

>  <SCORE.INTRA.POLAR.0>
0

>  <SCORE.INTRA.REPUL>
0

>  <SCORE.INTRA.REPUL.0>
0

>  <SCORE.INTRA.SOLV>
-0.980929

>  <SCORE.INTRA.SOLV.lig_0>
-45.868

>  <SCORE.INTRA.VDW>
0.318482

>  <SCORE.INTRA.VDW.0>
-0.397919

>  <SCORE.INTRA.norm>
-0.0120854

>  <SCORE.RESTR>
0

>  <SCORE.RESTR.CAVITY>
0

>  <SCORE.RESTR.norm>
0

>  <SCORE.SYSTEM>
0

>  <SCORE.SYSTEM.CONST>
0

>  <SCORE.SYSTEM.DIHEDRAL>
0

>  <SCORE.SYSTEM.SOLV>
0

>  <SCORE.SYSTEM.norm>
0

>  <SCORE.heavy>
13

>  <SCORE.norm>
-1.30141

>  <RMSD>
2.703

$$$$
ligand
 OpenBabel02271912143D
libRbt.so/2013.1/901 2013/11/27
 13 14  0  0  0  0  0  0  0  0999 V2000
   -5.5585  -34.8780  -42.9611 N   0  0  0  0  0  0  0  0  0  0  0  0
   -5.8294  -35.0251  -44.2952 C   0  0  0  0  0  0  0  0  0  0  0  0
   -7.0028  -35.6211  -44.6696 N   0  0  0  0  0  0  0  0  0  0  0  0
   -4.9765  -34.5995  -45.2276 N   0  0  0  0  0  0  0  0  0  0  0  0
   -3.7998  -34.0030  -44.8899 C   0  0  0  0  0  0  0  0  0  0  0  0
   -3.4759  -33.8332  -43.5259 C   0  0  0  0  0  0  0  0  0  0  0  0
   -4.4005  -34.2909  -42.5484 C   0  0  0  0  0  0  0  0  0  0  0  0
   -4.1672  -34.1634  -41.3719 O   0  0  0  0  0  0  0  0  0  0  0  0
   -2.1717  -33.1793  -43.4869 C   0  0  0  0  0  0  0  0  0  0  0  0
   -1.7951  -32.9909  -44.7641 C   0  0  0  0  0  0  0  0  0  0  0  0
   -2.7672  -33.4827  -45.6097 N   0  0  0  0  0  0  0  0  0  0  0  0
   -1.3961  -32.7983  -42.2520 C   0  0  0  0  0  0  0  0  0  0  0  0
    0.0234  -32.6115  -42.6146 N   0  0  0  0  0  0  0  0  0  0  0  0
  1  2  1  0  0  0  0
  1  7  1  0  0  0  0
  2  3  1  0  0  0  0
  2  4  2  0  0  0  0
  4  5  1  0  0  0  0
  5  6  2  0  0  0  0
  5 11  1  0  0  0  0
  6  7  1  0  0  0  0
  6  9  1  0  0  0  0
  7  8  2  0  0  0  0
  9 10  2  0  0  0  0
  9 12  1  0  0  0  0
 10 11  1  0  0  0  0
 12 13  1  0  0  0  0
M  END
>  <CHROM.1>
160.26976589,-3.64987551,-33.96704646,-43.66719943,2.93375217,-0.43365745
-1.56186569

>  <Name>
ligand

>  <RI>
0

>  <Rbt.Current_Directory>
/home/itssahil/PROJECTS/Mol_Feturizer/Test_systems_manuscript/rnas/3fu2

>  <Rbt.Executable>
rbdock ($Id: //depot/dev/client3/rdock/2013.1/src/exe/rbdock.cxx#4 $)

>  <Rbt.Library>
libRbt.so (2013.1, Build901 2013/11/27)

>  <Rbt.Parameter_File>
/export/apps/rDock/src/rDock_2013.1_src/data/scripts/dock_solv.prm

>  <Rbt.Receptor>
prm/pocket_docking_2.prm

>  <SCORE>
-16.9171

>  <SCORE.INTER>
-16.761

>  <SCORE.INTER.CONST>
1

>  <SCORE.INTER.POLAR>
0

>  <SCORE.INTER.ROT>
1

>  <SCORE.INTER.SOLV>
20.0689

>  <SCORE.INTER.VDW>
-22.1303

>  <SCORE.INTER.norm>
-1.28931

>  <SCORE.INTRA>
-0.156106

>  <SCORE.INTRA.DIHEDRAL>
0.0296114

>  <SCORE.INTRA.DIHEDRAL.0>
1.66609

>  <SCORE.INTRA.POLAR>
0

>  <SCORE.INTRA.POLAR.0>
0

>  <SCORE.INTRA.REPUL>
0

>  <SCORE.INTRA.REPUL.0>
0

>  <SCORE.INTRA.SOLV>
-0.980868

>  <SCORE.INTRA.SOLV.lig_0>
-45.868

>  <SCORE.INTRA.VDW>
0.319523

>  <SCORE.INTRA.VDW.0>
-0.397919

>  <SCORE.INTRA.norm>
-0.0120081

>  <SCORE.RESTR>
0

>  <SCORE.RESTR.CAVITY>
0

>  <SCORE.RESTR.norm>
0

>  <SCORE.SYSTEM>
0

>  <SCORE.SYSTEM.CONST>
0

>  <SCORE.SYSTEM.DIHEDRAL>
0

>  <SCORE.SYSTEM.SOLV>
0

>  <SCORE.SYSTEM.norm>
0

>  <SCORE.heavy>
13

>  <SCORE.norm>
-1.30132

>  <RMSD>
2.703

$$$$
ligand
 OpenBabel02271912143D
libRbt.so/2013.1/901 2013/11/27
 13 14  0  0  0  0  0  0  0  0999 V2000
   -5.5551  -34.8863  -42.9582 N   0  0  0  0  0  0  0  0  0  0  0  0
   -5.8257  -35.0366  -44.2920 C   0  0  0  0  0  0  0  0  0  0  0  0
   -6.9969  -35.6377  -44.6651 N   0  0  0  0  0  0  0  0  0  0  0  0
   -4.9747  -34.6093  -45.2253 N   0  0  0  0  0  0  0  0  0  0  0  0
   -3.8002  -34.0076  -44.8888 C   0  0  0  0  0  0  0  0  0  0  0  0
   -3.4767  -33.8344  -43.5252 C   0  0  0  0  0  0  0  0  0  0  0  0
   -4.3993  -34.2940  -42.5467 C   0  0  0  0  0  0  0  0  0  0  0  0
   -4.1662  -34.1637  -41.3705 O   0  0  0  0  0  0  0  0  0  0  0  0
   -2.1750  -33.1754  -43.4876 C   0  0  0  0  0  0  0  0  0  0  0  0
   -1.7994  -32.9876  -44.7652 C   0  0  0  0  0  0  0  0  0  0  0  0
   -2.7698  -33.4846  -45.6097 N   0  0  0  0  0  0  0  0  0  0  0  0
   -1.4006  -32.7894  -42.2535 C   0  0  0  0  0  0  0  0  0  0  0  0
    0.0208  -32.6128  -42.6137 N   0  0  0  0  0  0  0  0  0  0  0  0
  1  2  1  0  0  0  0
  1  7  1  0  0  0  0
  2  3  1  0  0  0  0
  2  4  2  0  0  0  0
  4  5  1  0  0  0  0
  5  6  2  0  0  0  0
  5 11  1  0  0  0  0
  6  7  1  0  0  0  0
  6  9  1  0  0  0  0
  7  8  2  0  0  0  0
  9 10  2  0  0  0  0
  9 12  1  0  0  0  0
 10 11  1  0  0  0  0
 12 13  1  0  0  0  0
M  END
>  <CHROM.1>
159.62648475,-3.64996204,-33.97036546,-43.66598025,2.93385808,-0.43655598
-1.56288295

>  <Name>
ligand

>  <RI>
0

>  <Rbt.Current_Directory>
/home/itssahil/PROJECTS/Mol_Feturizer/Test_systems_manuscript/rnas/3fu2

>  <Rbt.Executable>
rbdock ($Id: //depot/dev/client3/rdock/2013.1/src/exe/rbdock.cxx#4 $)

>  <Rbt.Library>
libRbt.so (2013.1, Build901 2013/11/27)

>  <Rbt.Parameter_File>
/export/apps/rDock/src/rDock_2013.1_src/data/scripts/dock_solv.prm

>  <Rbt.Receptor>
prm/pocket_docking_2.prm

>  <SCORE>
-16.8854

>  <SCORE.INTER>
-16.7268

>  <SCORE.INTER.CONST>
1

>  <SCORE.INTER.POLAR>
0

>  <SCORE.INTER.ROT>
1

>  <SCORE.INTER.SOLV>
20.0654

>  <SCORE.INTER.VDW>
-22.1063

>  <SCORE.INTER.norm>
-1.28668

>  <SCORE.INTRA>
-0.158559

>  <SCORE.INTRA.DIHEDRAL>
0.0299258

>  <SCORE.INTRA.DIHEDRAL.0>
1.66609

>  <SCORE.INTRA.POLAR>
0

>  <SCORE.INTRA.POLAR.0>
0

>  <SCORE.INTRA.REPUL>
0

>  <SCORE.INTRA.REPUL.0>
0

>  <SCORE.INTRA.SOLV>
-0.981017

>  <SCORE.INTRA.SOLV.lig_0>
-45.868

>  <SCORE.INTRA.VDW>
0.316986

>  <SCORE.INTRA.VDW.0>
-0.397919

>  <SCORE.INTRA.norm>
-0.0121968

>  <SCORE.RESTR>
0

>  <SCORE.RESTR.CAVITY>
0

>  <SCORE.RESTR.norm>
0

>  <SCORE.SYSTEM>
0

>  <SCORE.SYSTEM.CONST>
0

>  <SCORE.SYSTEM.DIHEDRAL>
0

>  <SCORE.SYSTEM.SOLV>
0

>  <SCORE.SYSTEM.norm>
0

>  <SCORE.heavy>
13

>  <SCORE.norm>
-1.29888

>  <RMSD>
2.703

$$$$
ligand
 OpenBabel02271912143D
libRbt.so/2013.1/901 2013/11/27
 13 14  0  0  0  0  0  0  0  0999 V2000
   -5.5211  -34.8705  -42.9690 N   0  0  0  0  0  0  0  0  0  0  0  0
   -5.8171  -35.0331  -44.2959 C   0  0  0  0  0  0  0  0  0  0  0  0
   -6.9947  -35.6383  -44.6411 N   0  0  0  0  0  0  0  0  0  0  0  0
   -4.9845  -34.6138  -45.2492 N   0  0  0  0  0  0  0  0  0  0  0  0
   -3.8042  -34.0084  -44.9408 C   0  0  0  0  0  0  0  0  0  0  0  0
   -3.4548  -33.8225  -43.5853 C   0  0  0  0  0  0  0  0  0  0  0  0
   -4.3581  -34.2738  -42.5851 C   0  0  0  0  0  0  0  0  0  0  0  0
   -4.1025  -34.1327  -41.4148 O   0  0  0  0  0  0  0  0  0  0  0  0
   -2.1531  -33.1625  -43.5787 C   0  0  0  0  0  0  0  0  0  0  0  0
   -1.8022  -32.9861  -44.8649 C   0  0  0  0  0  0  0  0  0  0  0  0
   -2.7882  -33.4913  -45.6861 N   0  0  0  0  0  0  0  0  0  0  0  0
   -1.3555  -32.7648  -42.3632 C   0  0  0  0  0  0  0  0  0  0  0  0
    0.0422  -32.5107  -42.7676 N   0  0  0  0  0  0  0  0  0  0  0  0
  1  2  1  0  0  0  0
  1  7  1  0  0  0  0
  2  3  1  0  0  0  0
  2  4  2  0  0  0  0
  4  5  1  0  0  0  0
  5  6  2  0  0  0  0
  5 11  1  0  0  0  0
  6  7  1  0  0  0  0
  6  9  1  0  0  0  0
  7  8  2  0  0  0  0
  9 10  2  0  0  0  0
  9 12  1  0  0  0  0
 10 11  1  0  0  0  0
 12 13  1  0  0  0  0
M  END
>  <CHROM.1>
163.03407122,-3.63190659,-33.95339169,-43.72273554,2.95594406,-0.44230766
-1.56542620

>  <Name>
ligand

>  <RI>
0

>  <Rbt.Current_Directory>
/home/itssahil/PROJECTS/Mol_Feturizer/Test_systems_manuscript/rnas/3fu2

>  <Rbt.Executable>
rbdock ($Id: //depot/dev/client3/rdock/2013.1/src/exe/rbdock.cxx#4 $)

>  <Rbt.Library>
libRbt.so (2013.1, Build901 2013/11/27)

>  <Rbt.Parameter_File>
/export/apps/rDock/src/rDock_2013.1_src/data/scripts/dock_solv.prm

>  <Rbt.Receptor>
prm/pocket_docking_3.prm

>  <SCORE>
-16.8225

>  <SCORE.INTER>
-16.6762

>  <SCORE.INTER.CONST>
1

>  <SCORE.INTER.POLAR>
0

>  <SCORE.INTER.ROT>
1

>  <SCORE.INTER.SOLV>
20.2667

>  <SCORE.INTER.VDW>
-22.1397

>  <SCORE.INTER.norm>
-1.28279

>  <SCORE.INTRA>
-0.146298

>  <SCORE.INTRA.DIHEDRAL>
0.0280629

>  <SCORE.INTRA.DIHEDRAL.0>
1.66609

>  <SCORE.INTRA.POLAR>
0

>  <SCORE.INTRA.POLAR.0>
0

>  <SCORE.INTRA.REPUL>
0

>  <SCORE.INTRA.REPUL.0>
0

>  <SCORE.INTRA.SOLV>
-0.980282

>  <SCORE.INTRA.SOLV.lig_0>
-45.868

>  <SCORE.INTRA.VDW>
0.329811

>  <SCORE.INTRA.VDW.0>
-0.397919

>  <SCORE.INTRA.norm>
-0.0112537

>  <SCORE.RESTR>
0

>  <SCORE.RESTR.CAVITY>
0

>  <SCORE.RESTR.norm>
0

>  <SCORE.SYSTEM>
0

>  <SCORE.SYSTEM.CONST>
0

>  <SCORE.SYSTEM.DIHEDRAL>
0

>  <SCORE.SYSTEM.SOLV>
0

>  <SCORE.SYSTEM.norm>
0

>  <SCORE.heavy>
13

>  <SCORE.norm>
-1.29404

>  <RMSD>
2.703

$$$$
ligand
 OpenBabel02271912143D
libRbt.so/2013.1/901 2013/11/27
 13 14  0  0  0  0  0  0  0  0999 V2000
   -5.5577  -34.8776  -42.9685 N   0  0  0  0  0  0  0  0  0  0  0  0
   -5.8244  -35.0302  -44.3028 C   0  0  0  0  0  0  0  0  0  0  0  0
   -6.9962  -35.6286  -44.6784 N   0  0  0  0  0  0  0  0  0  0  0  0
   -4.9692  -34.6074  -45.2343 N   0  0  0  0  0  0  0  0  0  0  0  0
   -3.7941  -34.0085  -44.8955 C   0  0  0  0  0  0  0  0  0  0  0  0
   -3.4744  -33.8331  -43.5312 C   0  0  0  0  0  0  0  0  0  0  0  0
   -4.4014  -34.2878  -42.5546 C   0  0  0  0  0  0  0  0  0  0  0  0
   -4.1717  -34.1556  -41.3780 O   0  0  0  0  0  0  0  0  0  0  0  0
   -2.1709  -33.1779  -43.4909 C   0  0  0  0  0  0  0  0  0  0  0  0
   -1.7907  -32.9941  -44.7678 C   0  0  0  0  0  0  0  0  0  0  0  0
   -2.7598  -33.4901  -45.6143 N   0  0  0  0  0  0  0  0  0  0  0  0
   -1.3993  -32.7914  -42.2552 C   0  0  0  0  0  0  0  0  0  0  0  0
    0.0221  -32.6095  -42.6134 N   0  0  0  0  0  0  0  0  0  0  0  0
  1  2  1  0  0  0  0
  1  7  1  0  0  0  0
  2  3  1  0  0  0  0
  2  4  2  0  0  0  0
  4  5  1  0  0  0  0
  5  6  2  0  0  0  0
  5 11  1  0  0  0  0
  6  7  1  0  0  0  0
  6  9  1  0  0  0  0
  7  8  2  0  0  0  0
  9 10  2  0  0  0  0
  9 12  1  0  0  0  0
 10 11  1  0  0  0  0
 12 13  1  0  0  0  0
M  END
>  <CHROM.1>
160.06267714,-3.64771030,-33.96805034,-43.67242185,2.93045149,-0.43427765
-1.56694976

>  <Name>
ligand

>  <RI>
0

>  <Rbt.Current_Directory>
/home/itssahil/PROJECTS/Mol_Feturizer/Test_systems_manuscript/rnas/3fu2

>  <Rbt.Executable>
rbdock ($Id: //depot/dev/client3/rdock/2013.1/src/exe/rbdock.cxx#4 $)

>  <Rbt.Library>
libRbt.so (2013.1, Build901 2013/11/27)

>  <Rbt.Parameter_File>
/export/apps/rDock/src/rDock_2013.1_src/data/scripts/dock_solv.prm

>  <Rbt.Receptor>
prm/pocket_docking_3.prm

>  <SCORE>
-16.9162

>  <SCORE.INTER>
-16.7593

>  <SCORE.INTER.CONST>
1

>  <SCORE.INTER.POLAR>
0

>  <SCORE.INTER.ROT>
1

>  <SCORE.INTER.SOLV>
20.0637

>  <SCORE.INTER.VDW>
-22.1274

>  <SCORE.INTER.norm>
-1.28918

>  <SCORE.INTRA>
-0.156889

>  <SCORE.INTRA.DIHEDRAL>
0.0297146

>  <SCORE.INTRA.DIHEDRAL.0>
1.66609

>  <SCORE.INTRA.POLAR>
0

>  <SCORE.INTRA.POLAR.0>
0

>  <SCORE.INTRA.REPUL>
0

>  <SCORE.INTRA.REPUL.0>
0

>  <SCORE.INTRA.SOLV>
-0.980915

>  <SCORE.INTRA.SOLV.lig_0>
-45.868

>  <SCORE.INTRA.VDW>
0.318711

>  <SCORE.INTRA.VDW.0>
-0.397919

>  <SCORE.INTRA.norm>
-0.0120684

>  <SCORE.RESTR>
0

>  <SCORE.RESTR.CAVITY>
0

>  <SCORE.RESTR.norm>
0

>  <SCORE.SYSTEM>
0

>  <SCORE.SYSTEM.CONST>
0

>  <SCORE.SYSTEM.DIHEDRAL>
0

>  <SCORE.SYSTEM.SOLV>
0

>  <SCORE.SYSTEM.norm>
0

>  <SCORE.heavy>
13

>  <SCORE.norm>
-1.30124

>  <RMSD>
2.703

$$$$
ligand
 OpenBabel02271912143D
libRbt.so/2013.1/901 2013/11/27
 13 14  0  0  0  0  0  0  0  0999 V2000
   -5.5600  -34.8792  -42.9636 N   0  0  0  0  0  0  0  0  0  0  0  0
   -5.8323  -35.0216  -44.2980 C   0  0  0  0  0  0  0  0  0  0  0  0
   -7.0066  -35.6151  -44.6733 N   0  0  0  0  0  0  0  0  0  0  0  0
   -4.9798  -34.5938  -45.2297 N   0  0  0  0  0  0  0  0  0  0  0  0
   -3.8022  -33.9996  -44.8911 C   0  0  0  0  0  0  0  0  0  0  0  0
   -3.4769  -33.8347  -43.5269 C   0  0  0  0  0  0  0  0  0  0  0  0
   -4.4010  -34.2947  -42.5500 C   0  0  0  0  0  0  0  0  0  0  0  0
   -4.1665  -34.1714  -41.3733 O   0  0  0  0  0  0  0  0  0  0  0  0
   -2.1720  -33.1823  -43.4869 C   0  0  0  0  0  0  0  0  0  0  0  0
   -1.7963  -32.9900  -44.7638 C   0  0  0  0  0  0  0  0  0  0  0  0
   -2.7697  -33.4780  -45.6101 N   0  0  0  0  0  0  0  0  0  0  0  0
   -1.3948  -32.8062  -42.2514 C   0  0  0  0  0  0  0  0  0  0  0  0
    0.0224  -32.6077  -42.6170 N   0  0  0  0  0  0  0  0  0  0  0  0
  1  2  1  0  0  0  0
  1  7  1  0  0  0  0
  2  3  1  0  0  0  0
  2  4  2  0  0  0  0
  4  5  1  0  0  0  0
  5  6  2  0  0  0  0
  5 11  1  0  0  0  0
  6  7  1  0  0  0  0
  6  9  1  0  0  0  0
  7  8  2  0  0  0  0
  9 10  2  0  0  0  0
  9 12  1  0  0  0  0
 10 11  1  0  0  0  0
 12 13  1  0  0  0  0
M  END
>  <CHROM.1>
160.77560416,-3.65128055,-33.96692517,-43.66862265,2.93489844,-0.43337289
-1.55848145

>  <Name>
ligand

>  <RI>
0

>  <Rbt.Current_Directory>
/home/itssahil/PROJECTS/Mol_Feturizer/Test_systems_manuscript/rnas/3fu2

>  <Rbt.Executable>
rbdock ($Id: //depot/dev/client3/rdock/2013.1/src/exe/rbdock.cxx#4 $)

>  <Rbt.Library>
libRbt.so (2013.1, Build901 2013/11/27)

>  <Rbt.Parameter_File>
/export/apps/rDock/src/rDock_2013.1_src/data/scripts/dock_solv.prm

>  <Rbt.Receptor>
prm/pocket_docking_3.prm

>  <SCORE>
-16.9138

>  <SCORE.INTER>
-16.7596

>  <SCORE.INTER.CONST>
1

>  <SCORE.INTER.POLAR>
0

>  <SCORE.INTER.ROT>
1

>  <SCORE.INTER.SOLV>
20.0633

>  <SCORE.INTER.VDW>
-22.1275

>  <SCORE.INTER.norm>
-1.2892

>  <SCORE.INTRA>
-0.15422

>  <SCORE.INTRA.DIHEDRAL>
0.0293518

>  <SCORE.INTRA.DIHEDRAL.0>
1.66609

>  <SCORE.INTRA.POLAR>
0

>  <SCORE.INTRA.POLAR.0>
0

>  <SCORE.INTRA.REPUL>
0

>  <SCORE.INTRA.REPUL.0>
0

>  <SCORE.INTRA.SOLV>
-0.980754

>  <SCORE.INTRA.SOLV.lig_0>
-45.868

>  <SCORE.INTRA.VDW>
0.321481

>  <SCORE.INTRA.VDW.0>
-0.397919

>  <SCORE.INTRA.norm>
-0.0118631

>  <SCORE.RESTR>
0

>  <SCORE.RESTR.CAVITY>
0

>  <SCORE.RESTR.norm>
0

>  <SCORE.SYSTEM>
0

>  <SCORE.SYSTEM.CONST>
0

>  <SCORE.SYSTEM.DIHEDRAL>
0

>  <SCORE.SYSTEM.SOLV>
0

>  <SCORE.SYSTEM.norm>
0

>  <SCORE.heavy>
13

>  <SCORE.norm>
-1.30106

>  <RMSD>
2.703

$$$$
ligand
 OpenBabel02271912143D
libRbt.so/2013.1/901 2013/11/27
 13 14  0  0  0  0  0  0  0  0999 V2000
   -5.5280  -34.8604  -42.9310 N   0  0  0  0  0  0  0  0  0  0  0  0
   -5.8374  -35.0148  -44.2558 C   0  0  0  0  0  0  0  0  0  0  0  0
   -7.0211  -35.6128  -44.5928 N   0  0  0  0  0  0  0  0  0  0  0  0
   -5.0120  -34.5943  -45.2149 N   0  0  0  0  0  0  0  0  0  0  0  0
   -3.8261  -33.9959  -44.9147 C   0  0  0  0  0  0  0  0  0  0  0  0
   -3.4628  -33.8187  -43.5616 C   0  0  0  0  0  0  0  0  0  0  0  0
   -4.3586  -34.2711  -42.5552 C   0  0  0  0  0  0  0  0  0  0  0  0
   -4.0913  -34.1372  -41.3867 O   0  0  0  0  0  0  0  0  0  0  0  0
   -2.1581  -33.1647  -43.5640 C   0  0  0  0  0  0  0  0  0  0  0  0
   -1.8187  -32.9832  -44.8526 C   0  0  0  0  0  0  0  0  0  0  0  0
   -2.8148  -33.4796  -45.6670 N   0  0  0  0  0  0  0  0  0  0  0  0
   -1.3471  -32.7770  -42.3542 C   0  0  0  0  0  0  0  0  0  0  0  0
    0.0502  -32.5377  -42.7688 N   0  0  0  0  0  0  0  0  0  0  0  0
  1  2  1  0  0  0  0
  1  7  1  0  0  0  0
  2  3  1  0  0  0  0
  2  4  2  0  0  0  0
  4  5  1  0  0  0  0
  5  6  2  0  0  0  0
  5 11  1  0  0  0  0
  6  7  1  0  0  0  0
  6  9  1  0  0  0  0
  7  8  2  0  0  0  0
  9 10  2  0  0  0  0
  9 12  1  0  0  0  0
 10 11  1  0  0  0  0
 12 13  1  0  0  0  0
M  END
>  <CHROM.1>
162.58342419,-3.64167742,-33.94892916,-43.69787963,2.96634594,-0.43690979
-1.55546627

>  <Name>
ligand

>  <RI>
0

>  <Rbt.Current_Directory>
/home/itssahil/PROJECTS/Mol_Feturizer/Test_systems_manuscript/rnas/3fu2

>  <Rbt.Executable>
rbdock ($Id: //depot/dev/client3/rdock/2013.1/src/exe/rbdock.cxx#4 $)

>  <Rbt.Library>
libRbt.so (2013.1, Build901 2013/11/27)

>  <Rbt.Parameter_File>
/export/apps/rDock/src/rDock_2013.1_src/data/scripts/dock_solv.prm

>  <Rbt.Receptor>
prm/pocket_docking_3.prm

>  <SCORE>
-16.8564

>  <SCORE.INTER>
-16.7086

>  <SCORE.INTER.CONST>
1

>  <SCORE.INTER.POLAR>
0

>  <SCORE.INTER.ROT>
1

>  <SCORE.INTER.SOLV>
20.3461

>  <SCORE.INTER.VDW>
-22.1878

>  <SCORE.INTER.norm>
-1.28527

>  <SCORE.INTRA>
-0.147811

>  <SCORE.INTRA.DIHEDRAL>
0.0283365

>  <SCORE.INTRA.DIHEDRAL.0>
1.66609

>  <SCORE.INTRA.POLAR>
0

>  <SCORE.INTRA.POLAR.0>
0

>  <SCORE.INTRA.REPUL>
0

>  <SCORE.INTRA.REPUL.0>
0

>  <SCORE.INTRA.SOLV>
-0.980371

>  <SCORE.INTRA.SOLV.lig_0>
-45.868

>  <SCORE.INTRA.VDW>
0.328207

>  <SCORE.INTRA.VDW.0>
-0.397919

>  <SCORE.INTRA.norm>
-0.0113701

>  <SCORE.RESTR>
0

>  <SCORE.RESTR.CAVITY>
0

>  <SCORE.RESTR.norm>
0

>  <SCORE.SYSTEM>
0

>  <SCORE.SYSTEM.CONST>
0

>  <SCORE.SYSTEM.DIHEDRAL>
0

>  <SCORE.SYSTEM.SOLV>
0

>  <SCORE.SYSTEM.norm>
0

>  <SCORE.heavy>
13

>  <SCORE.norm>
-1.29665

>  <RMSD>
2.703

$$$$
ligand
 OpenBabel02271912143D
libRbt.so/2013.1/901 2013/11/27
 13 14  0  0  0  0  0  0  0  0999 V2000
   -5.5528  -34.8893  -42.9603 N   0  0  0  0  0  0  0  0  0  0  0  0
   -5.8252  -35.0348  -44.2942 C   0  0  0  0  0  0  0  0  0  0  0  0
   -6.9964  -35.6354  -44.6680 N   0  0  0  0  0  0  0  0  0  0  0  0
   -4.9759  -34.6032  -45.2271 N   0  0  0  0  0  0  0  0  0  0  0  0
   -3.8014  -34.0019  -44.8901 C   0  0  0  0  0  0  0  0  0  0  0  0
   -3.4761  -33.8335  -43.5262 C   0  0  0  0  0  0  0  0  0  0  0  0
   -4.3969  -34.2977  -42.5482 C   0  0  0  0  0  0  0  0  0  0  0  0
   -4.1622  -34.1717  -41.3718 O   0  0  0  0  0  0  0  0  0  0  0  0
   -2.1749  -33.1737  -43.4880 C   0  0  0  0  0  0  0  0  0  0  0  0
   -1.8013  -32.9807  -44.7654 C   0  0  0  0  0  0  0  0  0  0  0  0
   -2.7725  -33.4753  -45.6105 N   0  0  0  0  0  0  0  0  0  0  0  0
   -1.3990  -32.7917  -42.2536 C   0  0  0  0  0  0  0  0  0  0  0  0
    0.0215  -32.6106  -42.6156 N   0  0  0  0  0  0  0  0  0  0  0  0
  1  2  1  0  0  0  0
  1  7  1  0  0  0  0
  2  3  1  0  0  0  0
  2  4  2  0  0  0  0
  4  5  1  0  0  0  0
  5  6  2  0  0  0  0
  5 11  1  0  0  0  0
  6  7  1  0  0  0  0
  6  9  1  0  0  0  0
  7  8  2  0  0  0  0
  9 10  2  0  0  0  0
  9 12  1  0  0  0  0
 10 11  1  0  0  0  0
 12 13  1  0  0  0  0
M  END
>  <CHROM.1>
159.71305964,-3.64944811,-33.96897677,-43.66733696,2.93549031,-0.43747627
-1.55846369

>  <Name>
ligand

>  <RI>
0

>  <Rbt.Current_Directory>
/home/itssahil/PROJECTS/Mol_Feturizer/Test_systems_manuscript/rnas/3fu2

>  <Rbt.Executable>
rbdock ($Id: //depot/dev/client3/rdock/2013.1/src/exe/rbdock.cxx#4 $)

>  <Rbt.Library>
libRbt.so (2013.1, Build901 2013/11/27)

>  <Rbt.Parameter_File>
/export/apps/rDock/src/rDock_2013.1_src/data/scripts/dock_solv.prm

>  <Rbt.Receptor>
prm/pocket_docking_4.prm

>  <SCORE>
-16.8841

>  <SCORE.INTER>
-16.7259

>  <SCORE.INTER.CONST>
1

>  <SCORE.INTER.POLAR>
0

>  <SCORE.INTER.ROT>
1

>  <SCORE.INTER.SOLV>
20.0555

>  <SCORE.INTER.VDW>
-22.1024

>  <SCORE.INTER.norm>
-1.2866

>  <SCORE.INTRA>
-0.158225

>  <SCORE.INTRA.DIHEDRAL>
0.0298845

>  <SCORE.INTRA.DIHEDRAL.0>
1.66609

>  <SCORE.INTRA.POLAR>
0

>  <SCORE.INTRA.POLAR.0>
0

>  <SCORE.INTRA.REPUL>
0

>  <SCORE.INTRA.REPUL.0>
0

>  <SCORE.INTRA.SOLV>
-0.980996

>  <SCORE.INTRA.SOLV.lig_0>
-45.868

>  <SCORE.INTRA.VDW>
0.317331

>  <SCORE.INTRA.VDW.0>
-0.397919

>  <SCORE.INTRA.norm>
-0.0121712

>  <SCORE.RESTR>
0

>  <SCORE.RESTR.CAVITY>
0

>  <SCORE.RESTR.norm>
0

>  <SCORE.SYSTEM>
0

>  <SCORE.SYSTEM.CONST>
0

>  <SCORE.SYSTEM.DIHEDRAL>
0

>  <SCORE.SYSTEM.SOLV>
0

>  <SCORE.SYSTEM.norm>
0

>  <SCORE.heavy>
13

>  <SCORE.norm>
-1.29878

>  <RMSD>
2.703

$$$$
ligand
 OpenBabel02271912143D
libRbt.so/2013.1/901 2013/11/27
 13 14  0  0  0  0  0  0  0  0999 V2000
   -5.5555  -34.8816  -42.9649 N   0  0  0  0  0  0  0  0  0  0  0  0
   -5.8249  -35.0299  -44.2991 C   0  0  0  0  0  0  0  0  0  0  0  0
   -6.9953  -35.6312  -44.6742 N   0  0  0  0  0  0  0  0  0  0  0  0
   -4.9734  -34.6004  -45.2310 N   0  0  0  0  0  0  0  0  0  0  0  0
   -3.7997  -33.9984  -44.8926 C   0  0  0  0  0  0  0  0  0  0  0  0
   -3.4774  -33.8272  -43.5285 C   0  0  0  0  0  0  0  0  0  0  0  0
   -4.4004  -34.2891  -42.5515 C   0  0  0  0  0  0  0  0  0  0  0  0
   -4.1683  -34.1606  -41.3749 O   0  0  0  0  0  0  0  0  0  0  0  0
   -2.1762  -33.1673  -43.4888 C   0  0  0  0  0  0  0  0  0  0  0  0
   -1.7997  -32.9772  -44.7658 C   0  0  0  0  0  0  0  0  0  0  0  0
   -2.7691  -33.4734  -45.6119 N   0  0  0  0  0  0  0  0  0  0  0  0
   -1.4030  -32.7828  -42.2534 C   0  0  0  0  0  0  0  0  0  0  0  0
    0.0195  -32.6098  -42.6112 N   0  0  0  0  0  0  0  0  0  0  0  0
  1  2  1  0  0  0  0
  1  7  1  0  0  0  0
  2  3  1  0  0  0  0
  2  4  2  0  0  0  0
  4  5  1  0  0  0  0
  5  6  2  0  0  0  0
  5 11  1  0  0  0  0
  6  7  1  0  0  0  0
  6  9  1  0  0  0  0
  7  8  2  0  0  0  0
  9 10  2  0  0  0  0
  9 12  1  0  0  0  0
 10 11  1  0  0  0  0
 12 13  1  0  0  0  0
M  END
>  <CHROM.1>
159.40789656,-3.65032946,-33.96348591,-43.66954507,2.93292875,-0.43695165
-1.56142780

>  <Name>
ligand

>  <RI>
0

>  <Rbt.Current_Directory>
/home/itssahil/PROJECTS/Mol_Feturizer/Test_systems_manuscript/rnas/3fu2

>  <Rbt.Executable>
rbdock ($Id: //depot/dev/client3/rdock/2013.1/src/exe/rbdock.cxx#4 $)

>  <Rbt.Library>
libRbt.so (2013.1, Build901 2013/11/27)

>  <Rbt.Parameter_File>
/export/apps/rDock/src/rDock_2013.1_src/data/scripts/dock_solv.prm

>  <Rbt.Receptor>
prm/pocket_docking_4.prm

>  <SCORE>
-16.9146

>  <SCORE.INTER>
-16.7552

>  <SCORE.INTER.CONST>
1

>  <SCORE.INTER.POLAR>
0

>  <SCORE.INTER.ROT>
1

>  <SCORE.INTER.SOLV>
20.0506

>  <SCORE.INTER.VDW>
-22.1203

>  <SCORE.INTER.norm>
-1.28886

>  <SCORE.INTRA>
-0.159406

>  <SCORE.INTRA.DIHEDRAL>
0.0300284

>  <SCORE.INTRA.DIHEDRAL.0>
1.66609

>  <SCORE.INTRA.POLAR>
0

>  <SCORE.INTRA.POLAR.0>
0

>  <SCORE.INTRA.REPUL>
0

>  <SCORE.INTRA.REPUL.0>
0

>  <SCORE.INTRA.SOLV>
-0.981068

>  <SCORE.INTRA.SOLV.lig_0>
-45.868

>  <SCORE.INTRA.VDW>
0.316114

>  <SCORE.INTRA.VDW.0>
-0.397919

>  <SCORE.INTRA.norm>
-0.012262

>  <SCORE.RESTR>
0

>  <SCORE.RESTR.CAVITY>
0

>  <SCORE.RESTR.norm>
0

>  <SCORE.SYSTEM>
0

>  <SCORE.SYSTEM.CONST>
0

>  <SCORE.SYSTEM.DIHEDRAL>
0

>  <SCORE.SYSTEM.SOLV>
0

>  <SCORE.SYSTEM.norm>
0

>  <SCORE.heavy>
13

>  <SCORE.norm>
-1.30112

>  <RMSD>
2.703

$$$$
ligand
 OpenBabel02271912143D
libRbt.so/2013.1/901 2013/11/27
 13 14  0  0  0  0  0  0  0  0999 V2000
   -5.5561  -34.8868  -42.9631 N   0  0  0  0  0  0  0  0  0  0  0  0
   -5.8274  -35.0307  -44.2975 C   0  0  0  0  0  0  0  0  0  0  0  0
   -6.9994  -35.6286  -44.6729 N   0  0  0  0  0  0  0  0  0  0  0  0
   -4.9761  -34.6002  -45.2291 N   0  0  0  0  0  0  0  0  0  0  0  0
   -3.8008  -34.0016  -44.8904 C   0  0  0  0  0  0  0  0  0  0  0  0
   -3.4766  -33.8349  -43.5261 C   0  0  0  0  0  0  0  0  0  0  0  0
   -4.3994  -34.2978  -42.5494 C   0  0  0  0  0  0  0  0  0  0  0  0
   -4.1658  -34.1732  -41.3726 O   0  0  0  0  0  0  0  0  0  0  0  0
   -2.1741  -33.1778  -43.4860 C   0  0  0  0  0  0  0  0  0  0  0  0
   -1.7987  -32.9847  -44.7628 C   0  0  0  0  0  0  0  0  0  0  0  0
   -2.7699  -33.4766  -45.6093 N   0  0  0  0  0  0  0  0  0  0  0  0
   -1.3987  -32.7984  -42.2504 C   0  0  0  0  0  0  0  0  0  0  0  0
    0.0204  -32.6084  -42.6130 N   0  0  0  0  0  0  0  0  0  0  0  0
  1  2  1  0  0  0  0
  1  7  1  0  0  0  0
  2  3  1  0  0  0  0
  2  4  2  0  0  0  0
  4  5  1  0  0  0  0
  5  6  2  0  0  0  0
  5 11  1  0  0  0  0
  6  7  1  0  0  0  0
  6  9  1  0  0  0  0
  7  8  2  0  0  0  0
  9 10  2  0  0  0  0
  9 12  1  0  0  0  0
 10 11  1  0  0  0  0
 12 13  1  0  0  0  0
M  END
>  <CHROM.1>
160.20350332,-3.65025396,-33.96895048,-43.66763497,2.93439591,-0.43613540
-1.55863460

>  <Name>
ligand

>  <RI>
0

>  <Rbt.Current_Directory>
/home/itssahil/PROJECTS/Mol_Feturizer/Test_systems_manuscript/rnas/3fu2

>  <Rbt.Executable>
rbdock ($Id: //depot/dev/client3/rdock/2013.1/src/exe/rbdock.cxx#4 $)

>  <Rbt.Library>
libRbt.so (2013.1, Build901 2013/11/27)

>  <Rbt.Parameter_File>
/export/apps/rDock/src/rDock_2013.1_src/data/scripts/dock_solv.prm

>  <Rbt.Receptor>
prm/pocket_docking_6.prm

>  <SCORE>
-16.9192

>  <SCORE.INTER>
-16.7628

>  <SCORE.INTER.CONST>
1

>  <SCORE.INTER.POLAR>
0

>  <SCORE.INTER.ROT>
1

>  <SCORE.INTER.SOLV>
20.0502

>  <SCORE.INTER.VDW>
-22.1253

>  <SCORE.INTER.norm>
-1.28945

>  <SCORE.INTRA>
-0.156356

>  <SCORE.INTRA.DIHEDRAL>
0.0296447

>  <SCORE.INTRA.DIHEDRAL.0>
1.66609

>  <SCORE.INTRA.POLAR>
0

>  <SCORE.INTRA.POLAR.0>
0

>  <SCORE.INTRA.REPUL>
0

>  <SCORE.INTRA.REPUL.0>
0

>  <SCORE.INTRA.SOLV>
-0.980883

>  <SCORE.INTRA.SOLV.lig_0>
-45.868

>  <SCORE.INTRA.VDW>
0.319264

>  <SCORE.INTRA.VDW.0>
-0.397919

>  <SCORE.INTRA.norm>
-0.0120274

>  <SCORE.RESTR>
0

>  <SCORE.RESTR.CAVITY>
0

>  <SCORE.RESTR.norm>
0

>  <SCORE.SYSTEM>
0

>  <SCORE.SYSTEM.CONST>
0

>  <SCORE.SYSTEM.DIHEDRAL>
0

>  <SCORE.SYSTEM.SOLV>
0

>  <SCORE.SYSTEM.norm>
0

>  <SCORE.heavy>
13

>  <SCORE.norm>
-1.30148

>  <RMSD>
2.703

$$$$
ligand
 OpenBabel02271912143D
libRbt.so/2013.1/901 2013/11/27
 13 14  0  0  0  0  0  0  0  0999 V2000
   -5.5585  -34.8775  -42.9619 N   0  0  0  0  0  0  0  0  0  0  0  0
   -5.8282  -35.0273  -44.2960 C   0  0  0  0  0  0  0  0  0  0  0  0
   -7.0011  -35.6243  -44.6701 N   0  0  0  0  0  0  0  0  0  0  0  0
   -4.9746  -34.6034  -45.2285 N   0  0  0  0  0  0  0  0  0  0  0  0
   -3.7984  -34.0059  -44.8910 C   0  0  0  0  0  0  0  0  0  0  0  0
   -3.4757  -33.8333  -43.5271 C   0  0  0  0  0  0  0  0  0  0  0  0
   -4.4009  -34.2893  -42.5494 C   0  0  0  0  0  0  0  0  0  0  0  0
   -4.1686  -34.1594  -41.3730 O   0  0  0  0  0  0  0  0  0  0  0  0
   -2.1717  -33.1790  -43.4883 C   0  0  0  0  0  0  0  0  0  0  0  0
   -1.7940  -32.9931  -44.7656 C   0  0  0  0  0  0  0  0  0  0  0  0
   -2.7653  -33.4868  -45.6110 N   0  0  0  0  0  0  0  0  0  0  0  0
   -1.3972  -32.7954  -42.2535 C   0  0  0  0  0  0  0  0  0  0  0  0
    0.0240  -32.6163  -42.6139 N   0  0  0  0  0  0  0  0  0  0  0  0
  1  2  1  0  0  0  0
  1  7  1  0  0  0  0
  2  3  1  0  0  0  0
  2  4  2  0  0  0  0
  4  5  1  0  0  0  0
  5  6  2  0  0  0  0
  5 11  1  0  0  0  0
  6  7  1  0  0  0  0
  6  9  1  0  0  0  0
  7  8  2  0  0  0  0
  9 10  2  0  0  0  0
  9 12  1  0  0  0  0
 10 11  1  0  0  0  0
 12 13  1  0  0  0  0
M  END
>  <CHROM.1>
159.95632784,-3.64935621,-33.96806432,-43.66813461,2.93276099,-0.43343759
-1.56398673

>  <Name>
ligand

>  <RI>
0

>  <Rbt.Current_Directory>
/home/itssahil/PROJECTS/Mol_Feturizer/Test_systems_manuscript/rnas/3fu2

>  <Rbt.Executable>
rbdock ($Id: //depot/dev/client3/rdock/2013.1/src/exe/rbdock.cxx#4 $)

>  <Rbt.Library>
libRbt.so (2013.1, Build901 2013/11/27)

>  <Rbt.Parameter_File>
/export/apps/rDock/src/rDock_2013.1_src/data/scripts/dock_solv.prm

>  <Rbt.Receptor>
prm/pocket_docking_6.prm

>  <SCORE>
-16.9172

>  <SCORE.INTER>
-16.7599

>  <SCORE.INTER.CONST>
1

>  <SCORE.INTER.POLAR>
0

>  <SCORE.INTER.ROT>
1

>  <SCORE.INTER.SOLV>
20.0748

>  <SCORE.INTER.VDW>
-22.1315

>  <SCORE.INTER.norm>
-1.28922

>  <SCORE.INTRA>
-0.157293

>  <SCORE.INTRA.DIHEDRAL>
0.0297668

>  <SCORE.INTRA.DIHEDRAL.0>
1.66609

>  <SCORE.INTRA.POLAR>
0

>  <SCORE.INTRA.POLAR.0>
0

>  <SCORE.INTRA.REPUL>
0

>  <SCORE.INTRA.REPUL.0>
0

>  <SCORE.INTRA.SOLV>
-0.98094

>  <SCORE.INTRA.SOLV.lig_0>
-45.868

>  <SCORE.INTRA.VDW>
0.318293

>  <SCORE.INTRA.VDW.0>
-0.397919

>  <SCORE.INTRA.norm>
-0.0120995

>  <SCORE.RESTR>
0

>  <SCORE.RESTR.CAVITY>
0

>  <SCORE.RESTR.norm>
0

>  <SCORE.SYSTEM>
0

>  <SCORE.SYSTEM.CONST>
0

>  <SCORE.SYSTEM.DIHEDRAL>
0

>  <SCORE.SYSTEM.SOLV>
0

>  <SCORE.SYSTEM.norm>
0

>  <SCORE.heavy>
13

>  <SCORE.norm>
-1.30132

>  <RMSD>
2.703

$$$$
ligand
 OpenBabel02271912143D
libRbt.so/2013.1/901 2013/11/27
 13 14  0  0  0  0  0  0  0  0999 V2000
   -5.5584  -34.8785  -42.9669 N   0  0  0  0  0  0  0  0  0  0  0  0
   -5.8242  -35.0346  -44.3010 C   0  0  0  0  0  0  0  0  0  0  0  0
   -6.9955  -35.6343  -44.6759 N   0  0  0  0  0  0  0  0  0  0  0  0
   -4.9683  -34.6141  -45.2329 N   0  0  0  0  0  0  0  0  0  0  0  0
   -3.7935  -34.0140  -44.8947 C   0  0  0  0  0  0  0  0  0  0  0  0
   -3.4749  -33.8350  -43.5307 C   0  0  0  0  0  0  0  0  0  0  0  0
   -4.4026  -34.2874  -42.5537 C   0  0  0  0  0  0  0  0  0  0  0  0
   -4.1738  -34.1520  -41.3772 O   0  0  0  0  0  0  0  0  0  0  0  0
   -2.1716  -33.1794  -43.4911 C   0  0  0  0  0  0  0  0  0  0  0  0
   -1.7904  -32.9989  -44.7681 C   0  0  0  0  0  0  0  0  0  0  0  0
   -2.7588  -33.4973  -45.6141 N   0  0  0  0  0  0  0  0  0  0  0  0
   -1.4010  -32.7896  -42.2558 C   0  0  0  0  0  0  0  0  0  0  0  0
    0.0214  -32.6129  -42.6124 N   0  0  0  0  0  0  0  0  0  0  0  0
  1  2  1  0  0  0  0
  1  7  1  0  0  0  0
  2  3  1  0  0  0  0
  2  4  2  0  0  0  0
  4  5  1  0  0  0  0
  5  6  2  0  0  0  0
  5 11  1  0  0  0  0
  6  7  1  0  0  0  0
  6  9  1  0  0  0  0
  7  8  2  0  0  0  0
  9 10  2  0  0  0  0
  9 12  1  0  0  0  0
 10 11  1  0  0  0  0
 12 13  1  0  0  0  0
M  END
>  <CHROM.1>
159.86705470,-3.64805552,-33.97075959,-43.67160634,2.92953796,-0.43418536
-1.56976641

>  <Name>
ligand

>  <RI>
0

>  <Rbt.Current_Directory>
/home/itssahil/PROJECTS/Mol_Feturizer/Test_systems_manuscript/rnas/3fu2

>  <Rbt.Executable>
rbdock ($Id: //depot/dev/client3/rdock/2013.1/src/exe/rbdock.cxx#4 $)

>  <Rbt.Library>
libRbt.so (2013.1, Build901 2013/11/27)

>  <Rbt.Parameter_File>
/export/apps/rDock/src/rDock_2013.1_src/data/scripts/dock_solv.prm

>  <Rbt.Receptor>
prm/pocket_docking_6.prm

>  <SCORE>
-16.9164

>  <SCORE.INTER>
-16.7588

>  <SCORE.INTER.CONST>
1

>  <SCORE.INTER.POLAR>
0

>  <SCORE.INTER.ROT>
1

>  <SCORE.INTER.SOLV>
20.0712

>  <SCORE.INTER.VDW>
-22.1296

>  <SCORE.INTER.norm>
-1.28914

>  <SCORE.INTRA>
-0.157634

>  <SCORE.INTRA.DIHEDRAL>
0.0298103

>  <SCORE.INTRA.DIHEDRAL.0>
1.66609

>  <SCORE.INTRA.POLAR>
0

>  <SCORE.INTRA.POLAR.0>
0

>  <SCORE.INTRA.REPUL>
0

>  <SCORE.INTRA.REPUL.0>
0

>  <SCORE.INTRA.SOLV>
-0.98096

>  <SCORE.INTRA.SOLV.lig_0>
-45.868

>  <SCORE.INTRA.VDW>
0.317941

>  <SCORE.INTRA.VDW.0>
-0.397919

>  <SCORE.INTRA.norm>
-0.0121257

>  <SCORE.RESTR>
0

>  <SCORE.RESTR.CAVITY>
0

>  <SCORE.RESTR.norm>
0

>  <SCORE.SYSTEM>
0

>  <SCORE.SYSTEM.CONST>
0

>  <SCORE.SYSTEM.DIHEDRAL>
0

>  <SCORE.SYSTEM.SOLV>
0

>  <SCORE.SYSTEM.norm>
0

>  <SCORE.heavy>
13

>  <SCORE.norm>
-1.30126

>  <RMSD>
2.703

$$$$
ligand
 OpenBabel02271912143D
libRbt.so/2013.1/901 2013/11/27
 13 14  0  0  0  0  0  0  0  0999 V2000
   -5.5373  -34.8673  -42.9281 N   0  0  0  0  0  0  0  0  0  0  0  0
   -5.8394  -35.0316  -44.2534 C   0  0  0  0  0  0  0  0  0  0  0  0
   -7.0178  -35.6387  -44.5923 N   0  0  0  0  0  0  0  0  0  0  0  0
   -5.0119  -34.6121  -45.2111 N   0  0  0  0  0  0  0  0  0  0  0  0
   -3.8310  -34.0048  -44.9089 C   0  0  0  0  0  0  0  0  0  0  0  0
   -3.4753  -33.8171  -43.5552 C   0  0  0  0  0  0  0  0  0  0  0  0
   -4.3733  -34.2686  -42.5504 C   0  0  0  0  0  0  0  0  0  0  0  0
   -4.1124  -34.1259  -41.3814 O   0  0  0  0  0  0  0  0  0  0  0  0
   -2.1746  -33.1552  -43.5555 C   0  0  0  0  0  0  0  0  0  0  0  0
   -1.8301  -32.9797  -44.8435 C   0  0  0  0  0  0  0  0  0  0  0  0
   -2.8193  -33.4870  -45.6595 N   0  0  0  0  0  0  0  0  0  0  0  0
   -1.3717  -32.7553  -42.3442 C   0  0  0  0  0  0  0  0  0  0  0  0
    0.0308  -32.5312  -42.7498 N   0  0  0  0  0  0  0  0  0  0  0  0
  1  2  1  0  0  0  0
  1  7  1  0  0  0  0
  2  3  1  0  0  0  0
  2  4  2  0  0  0  0
  4  5  1  0  0  0  0
  5  6  2  0  0  0  0
  5 11  1  0  0  0  0
  6  7  1  0  0  0  0
  6  9  1  0  0  0  0
  7  8  2  0  0  0  0
  9 10  2  0  0  0  0
  9 12  1  0  0  0  0
 10 11  1  0  0  0  0
 12 13  1  0  0  0  0
M  END
>  <CHROM.1>
161.68741586,-3.65239484,-33.95087902,-43.69125518,2.96090026,-0.44155749
-1.56322949

>  <Name>
ligand

>  <RI>
0

>  <Rbt.Current_Directory>
/home/itssahil/PROJECTS/Mol_Feturizer/Test_systems_manuscript/rnas/3fu2

>  <Rbt.Executable>
rbdock ($Id: //depot/dev/client3/rdock/2013.1/src/exe/rbdock.cxx#4 $)

>  <Rbt.Library>
libRbt.so (2013.1, Build901 2013/11/27)

>  <Rbt.Parameter_File>
/export/apps/rDock/src/rDock_2013.1_src/data/scripts/dock_solv.prm

>  <Rbt.Receptor>
prm/pocket_docking_6.prm

>  <SCORE>
-16.8636

>  <SCORE.INTER>
-16.7127

>  <SCORE.INTER.CONST>
1

>  <SCORE.INTER.POLAR>
0

>  <SCORE.INTER.ROT>
1

>  <SCORE.INTER.SOLV>
20.3003

>  <SCORE.INTER.VDW>
-22.1752

>  <SCORE.INTER.norm>
-1.28559

>  <SCORE.INTRA>
-0.150921

>  <SCORE.INTRA.DIHEDRAL>
0.0288564

>  <SCORE.INTRA.DIHEDRAL.0>
1.66609

>  <SCORE.INTRA.POLAR>
0

>  <SCORE.INTRA.POLAR.0>
0

>  <SCORE.INTRA.REPUL>
0

>  <SCORE.INTRA.REPUL.0>
0

>  <SCORE.INTRA.SOLV>
-0.980556

>  <SCORE.INTRA.SOLV.lig_0>
-45.868

>  <SCORE.INTRA.VDW>
0.324929

>  <SCORE.INTRA.VDW.0>
-0.397919

>  <SCORE.INTRA.norm>
-0.0116093

>  <SCORE.RESTR>
0

>  <SCORE.RESTR.CAVITY>
0

>  <SCORE.RESTR.norm>
0

>  <SCORE.SYSTEM>
0

>  <SCORE.SYSTEM.CONST>
0

>  <SCORE.SYSTEM.DIHEDRAL>
0

>  <SCORE.SYSTEM.SOLV>
0

>  <SCORE.SYSTEM.norm>
0

>  <SCORE.heavy>
13

>  <SCORE.norm>
-1.2972

>  <RMSD>
2.703

$$$$
ligand
 OpenBabel02271912143D
libRbt.so/2013.1/901 2013/11/27
 13 14  0  0  0  0  0  0  0  0999 V2000
   -5.5584  -34.8831  -42.9627 N   0  0  0  0  0  0  0  0  0  0  0  0
   -5.8300  -35.0259  -44.2971 C   0  0  0  0  0  0  0  0  0  0  0  0
   -7.0034  -35.6212  -44.6728 N   0  0  0  0  0  0  0  0  0  0  0  0
   -4.9779  -34.5969  -45.2286 N   0  0  0  0  0  0  0  0  0  0  0  0
   -3.8013  -34.0009  -44.8896 C   0  0  0  0  0  0  0  0  0  0  0  0
   -3.4767  -33.8355  -43.5253 C   0  0  0  0  0  0  0  0  0  0  0  0
   -4.4005  -34.2968  -42.5487 C   0  0  0  0  0  0  0  0  0  0  0  0
   -4.1665  -34.1731  -41.3720 O   0  0  0  0  0  0  0  0  0  0  0  0
   -2.1728  -33.1811  -43.4849 C   0  0  0  0  0  0  0  0  0  0  0  0
   -1.7970  -32.9883  -44.7617 C   0  0  0  0  0  0  0  0  0  0  0  0
   -2.7693  -33.4778  -45.6083 N   0  0  0  0  0  0  0  0  0  0  0  0
   -1.3966  -32.8039  -42.2492 C   0  0  0  0  0  0  0  0  0  0  0  0
    0.0217  -32.6100  -42.6131 N   0  0  0  0  0  0  0  0  0  0  0  0
  1  2  1  0  0  0  0
  1  7  1  0  0  0  0
  2  3  1  0  0  0  0
  2  4  2  0  0  0  0
  4  5  1  0  0  0  0
  5  6  2  0  0  0  0
  5 11  1  0  0  0  0
  6  7  1  0  0  0  0
  6  9  1  0  0  0  0
  7  8  2  0  0  0  0
  9 10  2  0  0  0  0
  9 12  1  0  0  0  0
 10 11  1  0  0  0  0
 12 13  1  0  0  0  0
M  END
>  <CHROM.1>
160.48594910,-3.65073051,-33.96851968,-43.66700313,2.93448177,-0.43443574
-1.55844101

>  <Name>
ligand

>  <RI>
0

>  <Rbt.Current_Directory>
/home/itssahil/PROJECTS/Mol_Feturizer/Test_systems_manuscript/rnas/3fu2

>  <Rbt.Executable>
rbdock ($Id: //depot/dev/client3/rdock/2013.1/src/exe/rbdock.cxx#4 $)

>  <Rbt.Library>
libRbt.so (2013.1, Build901 2013/11/27)

>  <Rbt.Parameter_File>
/export/apps/rDock/src/rDock_2013.1_src/data/scripts/dock_solv.prm

>  <Rbt.Receptor>
prm/pocket_docking_6.prm

>  <SCORE>
-16.9181

>  <SCORE.INTER>
-16.7628

>  <SCORE.INTER.CONST>
1

>  <SCORE.INTER.POLAR>
0

>  <SCORE.INTER.ROT>
1

>  <SCORE.INTER.SOLV>
20.0557

>  <SCORE.INTER.VDW>
-22.1271

>  <SCORE.INTER.norm>
-1.28945

>  <SCORE.INTRA>
-0.155295

>  <SCORE.INTRA.DIHEDRAL>
0.0295018

>  <SCORE.INTRA.DIHEDRAL.0>
1.66609

>  <SCORE.INTRA.POLAR>
0

>  <SCORE.INTRA.POLAR.0>
0

>  <SCORE.INTRA.REPUL>
0

>  <SCORE.INTRA.REPUL.0>
0

>  <SCORE.INTRA.SOLV>
-0.980819

>  <SCORE.INTRA.SOLV.lig_0>
-45.868

>  <SCORE.INTRA.VDW>
0.320364

>  <SCORE.INTRA.VDW.0>
-0.397919

>  <SCORE.INTRA.norm>
-0.0119458

>  <SCORE.RESTR>
0

>  <SCORE.RESTR.CAVITY>
0

>  <SCORE.RESTR.norm>
0

>  <SCORE.SYSTEM>
0

>  <SCORE.SYSTEM.CONST>
0

>  <SCORE.SYSTEM.DIHEDRAL>
0

>  <SCORE.SYSTEM.SOLV>
0

>  <SCORE.SYSTEM.norm>
0

>  <SCORE.heavy>
13

>  <SCORE.norm>
-1.30139

>  <RMSD>
2.703

$$$$
ligand
 OpenBabel02271912143D
libRbt.so/2013.1/901 2013/11/27
 13 14  0  0  0  0  0  0  0  0999 V2000
   -5.5573  -34.8857  -42.9639 N   0  0  0  0  0  0  0  0  0  0  0  0
   -5.8278  -35.0310  -44.2982 C   0  0  0  0  0  0  0  0  0  0  0  0
   -6.9999  -35.6288  -44.6737 N   0  0  0  0  0  0  0  0  0  0  0  0
   -4.9758  -34.6020  -45.2298 N   0  0  0  0  0  0  0  0  0  0  0  0
   -3.8004  -34.0035  -44.8911 C   0  0  0  0  0  0  0  0  0  0  0  0
   -3.4769  -33.8355  -43.5268 C   0  0  0  0  0  0  0  0  0  0  0  0
   -4.4005  -34.2968  -42.5501 C   0  0  0  0  0  0  0  0  0  0  0  0
   -4.1675  -34.1709  -41.3734 O   0  0  0  0  0  0  0  0  0  0  0  0
   -2.1741  -33.1789  -43.4866 C   0  0  0  0  0  0  0  0  0  0  0  0
   -1.7978  -32.9874  -44.7635 C   0  0  0  0  0  0  0  0  0  0  0  0
   -2.7688  -33.4798  -45.6099 N   0  0  0  0  0  0  0  0  0  0  0  0
   -1.3993  -32.7984  -42.2510 C   0  0  0  0  0  0  0  0  0  0  0  0
    0.0198  -32.6073  -42.6134 N   0  0  0  0  0  0  0  0  0  0  0  0
  1  2  1  0  0  0  0
  1  7  1  0  0  0  0
  2  3  1  0  0  0  0
  2  4  2  0  0  0  0
  4  5  1  0  0  0  0
  5  6  2  0  0  0  0
  5 11  1  0  0  0  0
  6  7  1  0  0  0  0
  6  9  1  0  0  0  0
  7  8  2  0  0  0  0
  9 10  2  0  0  0  0
  9 12  1  0  0  0  0
 10 11  1  0  0  0  0
 12 13  1  0  0  0  0
M  END
>  <CHROM.1>
160.29495345,-3.65056481,-33.96938731,-43.66832336,2.93376904,-0.43581603
-1.56011122

>  <Name>
ligand

>  <RI>
0

>  <Rbt.Current_Directory>
/home/itssahil/PROJECTS/Mol_Feturizer/Test_systems_manuscript/rnas/3fu2

>  <Rbt.Executable>
rbdock ($Id: //depot/dev/client3/rdock/2013.1/src/exe/rbdock.cxx#4 $)

>  <Rbt.Library>
libRbt.so (2013.1, Build901 2013/11/27)

>  <Rbt.Parameter_File>
/export/apps/rDock/src/rDock_2013.1_src/data/scripts/dock_solv.prm

>  <Rbt.Receptor>
prm/pocket_docking_8.prm

>  <SCORE>
-16.9191

>  <SCORE.INTER>
-16.763

>  <SCORE.INTER.CONST>
1

>  <SCORE.INTER.POLAR>
0

>  <SCORE.INTER.ROT>
1

>  <SCORE.INTER.SOLV>
20.0528

>  <SCORE.INTER.VDW>
-22.1263

>  <SCORE.INTER.norm>
-1.28947

>  <SCORE.INTRA>
-0.156011

>  <SCORE.INTRA.DIHEDRAL>
0.0295988

>  <SCORE.INTRA.DIHEDRAL.0>
1.66609

>  <SCORE.INTRA.POLAR>
0

>  <SCORE.INTRA.POLAR.0>
0

>  <SCORE.INTRA.REPUL>
0

>  <SCORE.INTRA.REPUL.0>
0

>  <SCORE.INTRA.SOLV>
-0.980862

>  <SCORE.INTRA.SOLV.lig_0>
-45.868

>  <SCORE.INTRA.VDW>
0.319621

>  <SCORE.INTRA.VDW.0>
-0.397919

>  <SCORE.INTRA.norm>
-0.0120008

>  <SCORE.RESTR>
0

>  <SCORE.RESTR.CAVITY>
0

>  <SCORE.RESTR.norm>
0

>  <SCORE.SYSTEM>
0

>  <SCORE.SYSTEM.CONST>
0

>  <SCORE.SYSTEM.DIHEDRAL>
0

>  <SCORE.SYSTEM.SOLV>
0

>  <SCORE.SYSTEM.norm>
0

>  <SCORE.heavy>
13

>  <SCORE.norm>
-1.30147

>  <RMSD>
2.703

$$$$
ligand
 OpenBabel02271912143D
libRbt.so/2013.1/901 2013/11/27
 13 14  0  0  0  0  0  0  0  0999 V2000
   -5.5579  -34.8732  -42.9725 N   0  0  0  0  0  0  0  0  0  0  0  0
   -5.8245  -35.0271  -44.3067 C   0  0  0  0  0  0  0  0  0  0  0  0
   -6.9970  -35.6244  -44.6818 N   0  0  0  0  0  0  0  0  0  0  0  0
   -4.9684  -34.6067  -45.2385 N   0  0  0  0  0  0  0  0  0  0  0  0
   -3.7925  -34.0090  -44.9001 C   0  0  0  0  0  0  0  0  0  0  0  0
   -3.4730  -33.8323  -43.5359 C   0  0  0  0  0  0  0  0  0  0  0  0
   -4.4010  -34.2845  -42.5591 C   0  0  0  0  0  0  0  0  0  0  0  0
   -4.1714  -34.1510  -41.3825 O   0  0  0  0  0  0  0  0  0  0  0  0
   -2.1686  -33.1788  -43.4961 C   0  0  0  0  0  0  0  0  0  0  0  0
   -1.7877  -32.9972  -44.7731 C   0  0  0  0  0  0  0  0  0  0  0  0
   -2.7573  -33.4930  -45.6192 N   0  0  0  0  0  0  0  0  0  0  0  0
   -1.3968  -32.7918  -42.2607 C   0  0  0  0  0  0  0  0  0  0  0  0
    0.0238  -32.6065  -42.6199 N   0  0  0  0  0  0  0  0  0  0  0  0
  1  2  1  0  0  0  0
  1  7  1  0  0  0  0
  2  3  1  0  0  0  0
  2  4  2  0  0  0  0
  4  5  1  0  0  0  0
  5  6  2  0  0  0  0
  5 11  1  0  0  0  0
  6  7  1  0  0  0  0
  6  9  1  0  0  0  0
  7  8  2  0  0  0  0
  9 10  2  0  0  0  0
  9 12  1  0  0  0  0
 10 11  1  0  0  0  0
 12 13  1  0  0  0  0
M  END
>  <CHROM.1>
160.31276458,-3.64654524,-33.96671988,-43.67712833,2.93019109,-0.43325657
-1.56857027

>  <Name>
ligand

>  <RI>
0

>  <Rbt.Current_Directory>
/home/itssahil/PROJECTS/Mol_Feturizer/Test_systems_manuscript/rnas/3fu2

>  <Rbt.Executable>
rbdock ($Id: //depot/dev/client3/rdock/2013.1/src/exe/rbdock.cxx#4 $)

>  <Rbt.Library>
libRbt.so (2013.1, Build901 2013/11/27)

>  <Rbt.Parameter_File>
/export/apps/rDock/src/rDock_2013.1_src/data/scripts/dock_solv.prm

>  <Rbt.Receptor>
prm/pocket_docking_8.prm

>  <SCORE>
-16.9094

>  <SCORE.INTER>
-16.7534

>  <SCORE.INTER.CONST>
1

>  <SCORE.INTER.POLAR>
0

>  <SCORE.INTER.ROT>
1

>  <SCORE.INTER.SOLV>
20.0748

>  <SCORE.INTER.VDW>
-22.1272

>  <SCORE.INTER.norm>
-1.28872

>  <SCORE.INTRA>
-0.155944

>  <SCORE.INTRA.DIHEDRAL>
0.0295898

>  <SCORE.INTRA.DIHEDRAL.0>
1.66609

>  <SCORE.INTRA.POLAR>
0

>  <SCORE.INTRA.POLAR.0>
0

>  <SCORE.INTRA.REPUL>
0

>  <SCORE.INTRA.REPUL.0>
0

>  <SCORE.INTRA.SOLV>
-0.980858

>  <SCORE.INTRA.SOLV.lig_0>
-45.868

>  <SCORE.INTRA.VDW>
0.31969

>  <SCORE.INTRA.VDW.0>
-0.397919

>  <SCORE.INTRA.norm>
-0.0119957

>  <SCORE.RESTR>
0

>  <SCORE.RESTR.CAVITY>
0

>  <SCORE.RESTR.norm>
0

>  <SCORE.SYSTEM>
0

>  <SCORE.SYSTEM.CONST>
0

>  <SCORE.SYSTEM.DIHEDRAL>
0

>  <SCORE.SYSTEM.SOLV>
0

>  <SCORE.SYSTEM.norm>
0

>  <SCORE.heavy>
13

>  <SCORE.norm>
-1.30072

>  <RMSD>
2.703

$$$$
ligand
 OpenBabel02271912143D
libRbt.so/2013.1/901 2013/11/27
 13 14  0  0  0  0  0  0  0  0999 V2000
   -5.5538  -34.8866  -42.9611 N   0  0  0  0  0  0  0  0  0  0  0  0
   -5.8228  -35.0400  -44.2949 C   0  0  0  0  0  0  0  0  0  0  0  0
   -6.9923  -35.6442  -44.6681 N   0  0  0  0  0  0  0  0  0  0  0  0
   -4.9717  -34.6126  -45.2281 N   0  0  0  0  0  0  0  0  0  0  0  0
   -3.7989  -34.0078  -44.8916 C   0  0  0  0  0  0  0  0  0  0  0  0
   -3.4771  -33.8313  -43.5280 C   0  0  0  0  0  0  0  0  0  0  0  0
   -4.3997  -34.2911  -42.5496 C   0  0  0  0  0  0  0  0  0  0  0  0
   -4.1680  -34.1581  -41.3734 O   0  0  0  0  0  0  0  0  0  0  0  0
   -2.1768  -33.1696  -43.4903 C   0  0  0  0  0  0  0  0  0  0  0  0
   -1.8003  -32.9834  -44.7679 C   0  0  0  0  0  0  0  0  0  0  0  0
   -2.7688  -33.4839  -45.6124 N   0  0  0  0  0  0  0  0  0  0  0  0
   -1.4045  -32.7796  -42.2561 C   0  0  0  0  0  0  0  0  0  0  0  0
    0.0189  -32.6118  -42.6130 N   0  0  0  0  0  0  0  0  0  0  0  0
  1  2  1  0  0  0  0
  1  7  1  0  0  0  0
  2  3  1  0  0  0  0
  2  4  2  0  0  0  0
  4  5  1  0  0  0  0
  5  6  2  0  0  0  0
  5 11  1  0  0  0  0
  6  7  1  0  0  0  0
  6  9  1  0  0  0  0
  7  8  2  0  0  0  0
  9 10  2  0  0  0  0
  9 12  1  0  0  0  0
 10 11  1  0  0  0  0
 12 13  1  0  0  0  0
M  END
>  <CHROM.1>
159.15492545,-3.64972629,-33.96885015,-43.66850404,2.93262196,-0.43795830
-1.56484235

>  <Name>
ligand

>  <RI>
0

>  <Rbt.Current_Directory>
/home/itssahil/PROJECTS/Mol_Feturizer/Test_systems_manuscript/rnas/3fu2

>  <Rbt.Executable>
rbdock ($Id: //depot/dev/client3/rdock/2013.1/src/exe/rbdock.cxx#4 $)

>  <Rbt.Library>
libRbt.so (2013.1, Build901 2013/11/27)

>  <Rbt.Parameter_File>
/export/apps/rDock/src/rDock_2013.1_src/data/scripts/dock_solv.prm

>  <Rbt.Receptor>
prm/pocket_docking_8.prm

>  <SCORE>
-16.883

>  <SCORE.INTER>
-16.7226

>  <SCORE.INTER.CONST>
1

>  <SCORE.INTER.POLAR>
0

>  <SCORE.INTER.ROT>
1

>  <SCORE.INTER.SOLV>
20.061

>  <SCORE.INTER.VDW>
-22.102

>  <SCORE.INTER.norm>
-1.28635

>  <SCORE.INTRA>
-0.160395

>  <SCORE.INTRA.DIHEDRAL>
0.0301446

>  <SCORE.INTRA.DIHEDRAL.0>
1.66609

>  <SCORE.INTRA.POLAR>
0

>  <SCORE.INTRA.POLAR.0>
0

>  <SCORE.INTRA.REPUL>
0

>  <SCORE.INTRA.REPUL.0>
0

>  <SCORE.INTRA.SOLV>
-0.981128

>  <SCORE.INTRA.SOLV.lig_0>
-45.868

>  <SCORE.INTRA.VDW>
0.315097

>  <SCORE.INTRA.VDW.0>
-0.397919

>  <SCORE.INTRA.norm>
-0.0123381

>  <SCORE.RESTR>
0

>  <SCORE.RESTR.CAVITY>
0

>  <SCORE.RESTR.norm>
0

>  <SCORE.SYSTEM>
0

>  <SCORE.SYSTEM.CONST>
0

>  <SCORE.SYSTEM.DIHEDRAL>
0

>  <SCORE.SYSTEM.SOLV>
0

>  <SCORE.SYSTEM.norm>
0

>  <SCORE.heavy>
13

>  <SCORE.norm>
-1.29869

>  <RMSD>
2.703

$$$$
ligand
 OpenBabel02271912143D
libRbt.so/2013.1/901 2013/11/27
 13 14  0  0  0  0  0  0  0  0999 V2000
   -5.5462  -34.8910  -42.9549 N   0  0  0  0  0  0  0  0  0  0  0  0
   -5.8284  -35.0397  -44.2864 C   0  0  0  0  0  0  0  0  0  0  0  0
   -7.0022  -35.6414  -44.6501 N   0  0  0  0  0  0  0  0  0  0  0  0
   -4.9860  -34.6103  -45.2266 N   0  0  0  0  0  0  0  0  0  0  0  0
   -3.8092  -34.0080  -44.8996 C   0  0  0  0  0  0  0  0  0  0  0  0
   -3.4739  -33.8363  -43.5386 C   0  0  0  0  0  0  0  0  0  0  0  0
   -4.3874  -34.2982  -42.5527 C   0  0  0  0  0  0  0  0  0  0  0  0
   -4.1440  -34.1694  -41.3784 O   0  0  0  0  0  0  0  0  0  0  0  0
   -2.1725  -33.1761  -43.5116 C   0  0  0  0  0  0  0  0  0  0  0  0
   -1.8084  -32.9862  -44.7922 C   0  0  0  0  0  0  0  0  0  0  0  0
   -2.7856  -33.4829  -45.6288 N   0  0  0  0  0  0  0  0  0  0  0  0
   -1.3877  -32.7911  -42.2838 C   0  0  0  0  0  0  0  0  0  0  0  0
    0.0211  -32.5644  -42.6654 N   0  0  0  0  0  0  0  0  0  0  0  0
  1  2  1  0  0  0  0
  1  7  1  0  0  0  0
  2  3  1  0  0  0  0
  2  4  2  0  0  0  0
  4  5  1  0  0  0  0
  5  6  2  0  0  0  0
  5 11  1  0  0  0  0
  6  7  1  0  0  0  0
  6  9  1  0  0  0  0
  7  8  2  0  0  0  0
  9 10  2  0  0  0  0
  9 12  1  0  0  0  0
 10 11  1  0  0  0  0
 12 13  1  0  0  0  0
M  END
>  <CHROM.1>
161.67926641,-3.64896533,-33.96834140,-43.67884150,2.94415042,-0.44052179
-1.55886333

>  <Name>
ligand

>  <RI>
0

>  <Rbt.Current_Directory>
/home/itssahil/PROJECTS/Mol_Feturizer/Test_systems_manuscript/rnas/3fu2

>  <Rbt.Executable>
rbdock ($Id: //depot/dev/client3/rdock/2013.1/src/exe/rbdock.cxx#4 $)

>  <Rbt.Library>
libRbt.so (2013.1, Build901 2013/11/27)

>  <Rbt.Parameter_File>
/export/apps/rDock/src/rDock_2013.1_src/data/scripts/dock_solv.prm

>  <Rbt.Receptor>
prm/pocket_docking_8.prm

>  <SCORE>
-16.8646

>  <SCORE.INTER>
-16.7137

>  <SCORE.INTER.CONST>
1

>  <SCORE.INTER.POLAR>
0

>  <SCORE.INTER.ROT>
1

>  <SCORE.INTER.SOLV>
20.1123

>  <SCORE.INTER.VDW>
-22.1132

>  <SCORE.INTER.norm>
-1.28567

>  <SCORE.INTRA>
-0.15095

>  <SCORE.INTRA.DIHEDRAL>
0.028861

>  <SCORE.INTRA.DIHEDRAL.0>
1.66609

>  <SCORE.INTRA.POLAR>
0

>  <SCORE.INTRA.POLAR.0>
0

>  <SCORE.INTRA.REPUL>
0

>  <SCORE.INTRA.REPUL.0>
0

>  <SCORE.INTRA.SOLV>
-0.980558

>  <SCORE.INTRA.SOLV.lig_0>
-45.868

>  <SCORE.INTRA.VDW>
0.324899

>  <SCORE.INTRA.VDW.0>
-0.397919

>  <SCORE.INTRA.norm>
-0.0116115

>  <SCORE.RESTR>
0

>  <SCORE.RESTR.CAVITY>
0

>  <SCORE.RESTR.norm>
0

>  <SCORE.SYSTEM>
0

>  <SCORE.SYSTEM.CONST>
0

>  <SCORE.SYSTEM.DIHEDRAL>
0

>  <SCORE.SYSTEM.SOLV>
0

>  <SCORE.SYSTEM.norm>
0

>  <SCORE.heavy>
13

>  <SCORE.norm>
-1.29728

>  <RMSD>
2.703

$$$$
ligand
 OpenBabel02271912143D
libRbt.so/2013.1/901 2013/11/27
 13 14  0  0  0  0  0  0  0  0999 V2000
   -5.5579  -34.8771  -42.9624 N   0  0  0  0  0  0  0  0  0  0  0  0
   -5.8313  -35.0207  -44.2963 C   0  0  0  0  0  0  0  0  0  0  0  0
   -7.0060  -35.6145  -44.6700 N   0  0  0  0  0  0  0  0  0  0  0  0
   -4.9797  -34.5937  -45.2292 N   0  0  0  0  0  0  0  0  0  0  0  0
   -3.8018  -33.9991  -44.8922 C   0  0  0  0  0  0  0  0  0  0  0  0
   -3.4753  -33.8330  -43.5284 C   0  0  0  0  0  0  0  0  0  0  0  0
   -4.3985  -34.2922  -42.5503 C   0  0  0  0  0  0  0  0  0  0  0  0
   -4.1629  -34.1678  -41.3739 O   0  0  0  0  0  0  0  0  0  0  0  0
   -2.1703  -33.1806  -43.4902 C   0  0  0  0  0  0  0  0  0  0  0  0
   -1.7959  -32.9894  -44.7676 C   0  0  0  0  0  0  0  0  0  0  0  0
   -2.7700  -33.4782  -45.6126 N   0  0  0  0  0  0  0  0  0  0  0  0
   -1.3921  -32.8034  -42.2558 C   0  0  0  0  0  0  0  0  0  0  0  0
    0.0249  -32.6058  -42.6227 N   0  0  0  0  0  0  0  0  0  0  0  0
  1  2  1  0  0  0  0
  1  7  1  0  0  0  0
  2  3  1  0  0  0  0
  2  4  2  0  0  0  0
  4  5  1  0  0  0  0
  5  6  2  0  0  0  0
  5 11  1  0  0  0  0
  6  7  1  0  0  0  0
  6  9  1  0  0  0  0
  7  8  2  0  0  0  0
  9 10  2  0  0  0  0
  9 12  1  0  0  0  0
 10 11  1  0  0  0  0
 12 13  1  0  0  0  0
M  END
>  <CHROM.1>
160.74696383,-3.64979562,-33.96544674,-43.66988362,2.93589004,-0.43334332
-1.55891680

>  <Name>
ligand

>  <RI>
0

>  <Rbt.Current_Directory>
/home/itssahil/PROJECTS/Mol_Feturizer/Test_systems_manuscript/rnas/3fu2

>  <Rbt.Executable>
rbdock ($Id: //depot/dev/client3/rdock/2013.1/src/exe/rbdock.cxx#4 $)

>  <Rbt.Library>
libRbt.so (2013.1, Build901 2013/11/27)

>  <Rbt.Parameter_File>
/export/apps/rDock/src/rDock_2013.1_src/data/scripts/dock_solv.prm

>  <Rbt.Receptor>
prm/pocket_docking_8.prm

>  <SCORE>
-16.9115

>  <SCORE.INTER>
-16.7572

>  <SCORE.INTER.CONST>
1

>  <SCORE.INTER.POLAR>
0

>  <SCORE.INTER.ROT>
1

>  <SCORE.INTER.SOLV>
20.0751

>  <SCORE.INTER.VDW>
-22.1298

>  <SCORE.INTER.norm>
-1.28901

>  <SCORE.INTRA>
-0.154326

>  <SCORE.INTRA.DIHEDRAL>
0.0293668

>  <SCORE.INTRA.DIHEDRAL.0>
1.66609

>  <SCORE.INTRA.POLAR>
0

>  <SCORE.INTRA.POLAR.0>
0

>  <SCORE.INTRA.REPUL>
0

>  <SCORE.INTRA.REPUL.0>
0

>  <SCORE.INTRA.SOLV>
-0.98076

>  <SCORE.INTRA.SOLV.lig_0>
-45.868

>  <SCORE.INTRA.VDW>
0.321371

>  <SCORE.INTRA.VDW.0>
-0.397919

>  <SCORE.INTRA.norm>
-0.0118712

>  <SCORE.RESTR>
0

>  <SCORE.RESTR.CAVITY>
0

>  <SCORE.RESTR.norm>
0

>  <SCORE.SYSTEM>
0

>  <SCORE.SYSTEM.CONST>
0

>  <SCORE.SYSTEM.DIHEDRAL>
0

>  <SCORE.SYSTEM.SOLV>
0

>  <SCORE.SYSTEM.norm>
0

>  <SCORE.heavy>
13

>  <SCORE.norm>
-1.30088

>  <RMSD>
2.703

$$$$
ligand
 OpenBabel02271912143D
libRbt.so/2013.1/901 2013/11/27
 13 14  0  0  0  0  0  0  0  0999 V2000
   -5.5582  -34.8846  -42.9661 N   0  0  0  0  0  0  0  0  0  0  0  0
   -5.8278  -35.0342  -44.3001 C   0  0  0  0  0  0  0  0  0  0  0  0
   -6.9983  -35.6360  -44.6744 N   0  0  0  0  0  0  0  0  0  0  0  0
   -4.9766  -34.6056  -45.2326 N   0  0  0  0  0  0  0  0  0  0  0  0
   -3.8028  -34.0033  -44.8950 C   0  0  0  0  0  0  0  0  0  0  0  0
   -3.4802  -33.8307  -43.5311 C   0  0  0  0  0  0  0  0  0  0  0  0
   -4.4031  -34.2917  -42.5535 C   0  0  0  0  0  0  0  0  0  0  0  0
   -4.1708  -34.1620  -41.3770 O   0  0  0  0  0  0  0  0  0  0  0  0
   -2.1791  -33.1707  -43.4923 C   0  0  0  0  0  0  0  0  0  0  0  0
   -1.8028  -32.9819  -44.7695 C   0  0  0  0  0  0  0  0  0  0  0  0
   -2.7723  -33.4790  -45.6150 N   0  0  0  0  0  0  0  0  0  0  0  0
   -1.4057  -32.7850  -42.2574 C   0  0  0  0  0  0  0  0  0  0  0  0
    0.0155  -32.6051  -42.6171 N   0  0  0  0  0  0  0  0  0  0  0  0
  1  2  1  0  0  0  0
  1  7  1  0  0  0  0
  2  3  1  0  0  0  0
  2  4  2  0  0  0  0
  4  5  1  0  0  0  0
  5  6  2  0  0  0  0
  5 11  1  0  0  0  0
  6  7  1  0  0  0  0
  6  9  1  0  0  0  0
  7  8  2  0  0  0  0
  9 10  2  0  0  0  0
  9 12  1  0  0  0  0
 10 11  1  0  0  0  0
 12 13  1  0  0  0  0
M  END
>  <CHROM.1>
159.70804136,-3.65331139,-33.96655182,-43.67211953,2.93321623,-0.43743673
-1.56257103

>  <Name>
ligand

>  <RI>
0

>  <Rbt.Current_Directory>
/home/itssahil/PROJECTS/Mol_Feturizer/Test_systems_manuscript/rnas/3fu2

>  <Rbt.Executable>
rbdock ($Id: //depot/dev/client3/rdock/2013.1/src/exe/rbdock.cxx#4 $)

>  <Rbt.Library>
libRbt.so (2013.1, Build901 2013/11/27)

>  <Rbt.Parameter_File>
/export/apps/rDock/src/rDock_2013.1_src/data/scripts/dock_solv.prm

>  <Rbt.Receptor>
prm/blind_docking_100.prm

>  <SCORE>
-16.913

>  <SCORE.INTER>
-16.7547

>  <SCORE.INTER.CONST>
1

>  <SCORE.INTER.POLAR>
0

>  <SCORE.INTER.ROT>
1

>  <SCORE.INTER.SOLV>
20.0577

>  <SCORE.INTER.VDW>
-22.1224

>  <SCORE.INTER.norm>
-1.28882

>  <SCORE.INTRA>
-0.158245

>  <SCORE.INTRA.DIHEDRAL>
0.0298869

>  <SCORE.INTRA.DIHEDRAL.0>
1.66609

>  <SCORE.INTRA.POLAR>
0

>  <SCORE.INTRA.POLAR.0>
0

>  <SCORE.INTRA.REPUL>
0

>  <SCORE.INTRA.REPUL.0>
0

>  <SCORE.INTRA.SOLV>
-0.980997

>  <SCORE.INTRA.SOLV.lig_0>
-45.868

>  <SCORE.INTRA.VDW>
0.317311

>  <SCORE.INTRA.VDW.0>
-0.397919

>  <SCORE.INTRA.norm>
-0.0121727

>  <SCORE.RESTR>
0

>  <SCORE.RESTR.CAVITY>
0

>  <SCORE.RESTR.norm>
0

>  <SCORE.SYSTEM>
0

>  <SCORE.SYSTEM.CONST>
0

>  <SCORE.SYSTEM.DIHEDRAL>
0

>  <SCORE.SYSTEM.SOLV>
0

>  <SCORE.SYSTEM.norm>
0

>  <SCORE.heavy>
13

>  <SCORE.norm>
-1.301

>  <RMSD>
2.704

$$$$
ligand
 OpenBabel02271912143D
libRbt.so/2013.1/901 2013/11/27
 13 14  0  0  0  0  0  0  0  0999 V2000
   -5.5589  -34.8821  -42.9676 N   0  0  0  0  0  0  0  0  0  0  0  0
   -5.8296  -35.0309  -44.3015 C   0  0  0  0  0  0  0  0  0  0  0  0
   -6.9974  -35.6380  -44.6753 N   0  0  0  0  0  0  0  0  0  0  0  0
   -4.9818  -34.5963  -45.2344 N   0  0  0  0  0  0  0  0  0  0  0  0
   -3.8107  -33.9885  -44.8974 C   0  0  0  0  0  0  0  0  0  0  0  0
   -3.4872  -33.8165  -43.5336 C   0  0  0  0  0  0  0  0  0  0  0  0
   -4.4063  -34.2840  -42.5555 C   0  0  0  0  0  0  0  0  0  0  0  0
   -4.1731  -34.1551  -41.3791 O   0  0  0  0  0  0  0  0  0  0  0  0
   -2.1894  -33.1499  -43.4953 C   0  0  0  0  0  0  0  0  0  0  0  0
   -1.8159  -32.9569  -44.7728 C   0  0  0  0  0  0  0  0  0  0  0  0
   -2.7839  -33.4576  -45.6178 N   0  0  0  0  0  0  0  0  0  0  0  0
   -1.4164  -32.7623  -42.2609 C   0  0  0  0  0  0  0  0  0  0  0  0
    0.0079  -32.6003  -42.6168 N   0  0  0  0  0  0  0  0  0  0  0  0
  1  2  1  0  0  0  0
  1  7  1  0  0  0  0
  2  3  1  0  0  0  0
  2  4  2  0  0  0  0
  4  5  1  0  0  0  0
  5  6  2  0  0  0  0
  5 11  1  0  0  0  0
  6  7  1  0  0  0  0
  6  9  1  0  0  0  0
  7  8  2  0  0  0  0
  9 10  2  0  0  0  0
  9 12  1  0  0  0  0
 10 11  1  0  0  0  0
 12 13  1  0  0  0  0
M  END
>  <CHROM.1>
158.60902893,-3.65939985,-33.95513735,-43.67415324,2.93440833,-0.44096798
-1.55936069

>  <Name>
ligand

>  <RI>
0

>  <Rbt.Current_Directory>
/home/itssahil/PROJECTS/Mol_Feturizer/Test_systems_manuscript/rnas/3fu2

>  <Rbt.Executable>
rbdock ($Id: //depot/dev/client3/rdock/2013.1/src/exe/rbdock.cxx#4 $)

>  <Rbt.Library>
libRbt.so (2013.1, Build901 2013/11/27)

>  <Rbt.Parameter_File>
/export/apps/rDock/src/rDock_2013.1_src/data/scripts/dock_solv.prm

>  <Rbt.Receptor>
prm/blind_docking_60.prm

>  <SCORE>
-16.889

>  <SCORE.INTER>
-16.7264

>  <SCORE.INTER.CONST>
1

>  <SCORE.INTER.POLAR>
0

>  <SCORE.INTER.ROT>
1

>  <SCORE.INTER.SOLV>
20.0474

>  <SCORE.INTER.VDW>
-22.1001

>  <SCORE.INTER.norm>
-1.28665

>  <SCORE.INTRA>
-0.162558

>  <SCORE.INTRA.DIHEDRAL>
0.0303857

>  <SCORE.INTRA.DIHEDRAL.0>
1.66609

>  <SCORE.INTRA.POLAR>
0

>  <SCORE.INTRA.POLAR.0>
0

>  <SCORE.INTRA.REPUL>
0

>  <SCORE.INTRA.REPUL.0>
0

>  <SCORE.INTRA.SOLV>
-0.981261

>  <SCORE.INTRA.SOLV.lig_0>
-45.868

>  <SCORE.INTRA.VDW>
0.312879

>  <SCORE.INTRA.VDW.0>
-0.397919

>  <SCORE.INTRA.norm>
-0.0125045

>  <SCORE.RESTR>
0

>  <SCORE.RESTR.CAVITY>
0

>  <SCORE.RESTR.norm>
0

>  <SCORE.SYSTEM>
0

>  <SCORE.SYSTEM.CONST>
0

>  <SCORE.SYSTEM.DIHEDRAL>
0

>  <SCORE.SYSTEM.SOLV>
0

>  <SCORE.SYSTEM.norm>
0

>  <SCORE.heavy>
13

>  <SCORE.norm>
-1.29915

>  <RMSD>
2.704

$$$$
ligand
 OpenBabel02271912143D
libRbt.so/2013.1/901 2013/11/27
 13 14  0  0  0  0  0  0  0  0999 V2000
   -5.5575  -34.8866  -42.9642 N   0  0  0  0  0  0  0  0  0  0  0  0
   -5.8273  -35.0335  -44.2986 C   0  0  0  0  0  0  0  0  0  0  0  0
   -6.9993  -35.6316  -44.6740 N   0  0  0  0  0  0  0  0  0  0  0  0
   -4.9747  -34.6058  -45.2302 N   0  0  0  0  0  0  0  0  0  0  0  0
   -3.7994  -34.0072  -44.8915 C   0  0  0  0  0  0  0  0  0  0  0  0
   -3.4766  -33.8374  -43.5273 C   0  0  0  0  0  0  0  0  0  0  0  0
   -4.4009  -34.2974  -42.5505 C   0  0  0  0  0  0  0  0  0  0  0  0
   -4.1686  -34.1701  -41.3738 O   0  0  0  0  0  0  0  0  0  0  0  0
   -2.1737  -33.1810  -43.4872 C   0  0  0  0  0  0  0  0  0  0  0  0
   -1.7967  -32.9912  -44.7641 C   0  0  0  0  0  0  0  0  0  0  0  0
   -2.7673  -33.4845  -45.6104 N   0  0  0  0  0  0  0  0  0  0  0  0
   -1.3996  -32.7991  -42.2516 C   0  0  0  0  0  0  0  0  0  0  0  0
    0.0200  -32.6104  -42.6131 N   0  0  0  0  0  0  0  0  0  0  0  0
  1  2  1  0  0  0  0
  1  7  1  0  0  0  0
  2  3  1  0  0  0  0
  2  4  2  0  0  0  0
  4  5  1  0  0  0  0
  5  6  2  0  0  0  0
  5 11  1  0  0  0  0
  6  7  1  0  0  0  0
  6  9  1  0  0  0  0
  7  8  2  0  0  0  0
  9 10  2  0  0  0  0
  9 12  1  0  0  0  0
 10 11  1  0  0  0  0
 12 13  1  0  0  0  0
M  END
>  <CHROM.1>
160.22505621,-3.65022775,-33.97162987,-43.66870663,2.93309323,-0.43554572
-1.56160115

>  <Name>
ligand

>  <RI>
0

>  <Rbt.Current_Directory>
/home/itssahil/PROJECTS/Mol_Feturizer/Test_systems_manuscript/rnas/3fu2

>  <Rbt.Executable>
rbdock ($Id: //depot/dev/client3/rdock/2013.1/src/exe/rbdock.cxx#4 $)

>  <Rbt.Library>
libRbt.so (2013.1, Build901 2013/11/27)

>  <Rbt.Parameter_File>
/export/apps/rDock/src/rDock_2013.1_src/data/scripts/dock_solv.prm

>  <Rbt.Receptor>
prm/blind_docking_80.prm

>  <SCORE>
-16.9205

>  <SCORE.INTER>
-16.7642

>  <SCORE.INTER.CONST>
1

>  <SCORE.INTER.POLAR>
0

>  <SCORE.INTER.ROT>
1

>  <SCORE.INTER.SOLV>
20.0559

>  <SCORE.INTER.VDW>
-22.1281

>  <SCORE.INTER.norm>
-1.28956

>  <SCORE.INTRA>
-0.156274

>  <SCORE.INTRA.DIHEDRAL>
0.0296339

>  <SCORE.INTRA.DIHEDRAL.0>
1.66609

>  <SCORE.INTRA.POLAR>
0

>  <SCORE.INTRA.POLAR.0>
0

>  <SCORE.INTRA.REPUL>
0

>  <SCORE.INTRA.REPUL.0>
0

>  <SCORE.INTRA.SOLV>
-0.980878

>  <SCORE.INTRA.SOLV.lig_0>
-45.868

>  <SCORE.INTRA.VDW>
0.319348

>  <SCORE.INTRA.VDW.0>
-0.397919

>  <SCORE.INTRA.norm>
-0.0120211

>  <SCORE.RESTR>
0

>  <SCORE.RESTR.CAVITY>
0

>  <SCORE.RESTR.norm>
0

>  <SCORE.SYSTEM>
0

>  <SCORE.SYSTEM.CONST>
0

>  <SCORE.SYSTEM.DIHEDRAL>
0

>  <SCORE.SYSTEM.SOLV>
0

>  <SCORE.SYSTEM.norm>
0

>  <SCORE.heavy>
13

>  <SCORE.norm>
-1.30158

>  <RMSD>
2.704

$$$$
ligand
 OpenBabel02271912143D
libRbt.so/2013.1/901 2013/11/27
 13 14  0  0  0  0  0  0  0  0999 V2000
   -5.5132  -34.8543  -42.9436 N   0  0  0  0  0  0  0  0  0  0  0  0
   -5.8296  -35.0294  -44.2642 C   0  0  0  0  0  0  0  0  0  0  0  0
   -7.0124  -35.6379  -44.5853 N   0  0  0  0  0  0  0  0  0  0  0  0
   -5.0119  -34.6192  -45.2342 N   0  0  0  0  0  0  0  0  0  0  0  0
   -3.8272  -34.0109  -44.9499 C   0  0  0  0  0  0  0  0  0  0  0  0
   -3.4568  -33.8122  -43.6017 C   0  0  0  0  0  0  0  0  0  0  0  0
   -4.3444  -34.2540  -42.5835 C   0  0  0  0  0  0  0  0  0  0  0  0
   -4.0709  -34.1017  -41.4186 O   0  0  0  0  0  0  0  0  0  0  0  0
   -2.1553  -33.1521  -43.6215 C   0  0  0  0  0  0  0  0  0  0  0  0
   -1.8244  -32.9879  -44.9146 C   0  0  0  0  0  0  0  0  0  0  0  0
   -2.8229  -33.5009  -45.7156 N   0  0  0  0  0  0  0  0  0  0  0  0
   -1.3390  -32.7429  -42.4223 C   0  0  0  0  0  0  0  0  0  0  0  0
    0.0432  -32.4560  -42.8570 N   0  0  0  0  0  0  0  0  0  0  0  0
  1  2  1  0  0  0  0
  1  7  1  0  0  0  0
  2  3  1  0  0  0  0
  2  4  2  0  0  0  0
  4  5  1  0  0  0  0
  5  6  2  0  0  0  0
  5 11  1  0  0  0  0
  6  7  1  0  0  0  0
  6  9  1  0  0  0  0
  7  8  2  0  0  0  0
  9 10  2  0  0  0  0
  9 12  1  0  0  0  0
 10 11  1  0  0  0  0
 12 13  1  0  0  0  0
M  END
>  <CHROM.1>
164.60329349,-3.63675599,-33.94134366,-43.73565778,2.97338941,-0.44478778
-1.56860418

>  <Name>
ligand

>  <RI>
0

>  <Rbt.Current_Directory>
/home/itssahil/PROJECTS/Mol_Feturizer/Test_systems_manuscript/rnas/3fu2

>  <Rbt.Executable>
rbdock ($Id: //depot/dev/client3/rdock/2013.1/src/exe/rbdock.cxx#4 $)

>  <Rbt.Library>
libRbt.so (2013.1, Build901 2013/11/27)

>  <Rbt.Parameter_File>
/export/apps/rDock/src/rDock_2013.1_src/data/scripts/dock_solv.prm

>  <Rbt.Receptor>
prm/pocket_docking_2.prm

>  <SCORE>
-16.8193

>  <SCORE.INTER>
-16.678

>  <SCORE.INTER.CONST>
1

>  <SCORE.INTER.POLAR>
0

>  <SCORE.INTER.ROT>
1

>  <SCORE.INTER.SOLV>
20.4345

>  <SCORE.INTER.VDW>
-22.1968

>  <SCORE.INTER.norm>
-1.28292

>  <SCORE.INTRA>
-0.141315

>  <SCORE.INTRA.DIHEDRAL>
0.0270499

>  <SCORE.INTRA.DIHEDRAL.0>
1.66609

>  <SCORE.INTRA.POLAR>
0

>  <SCORE.INTRA.POLAR.0>
0

>  <SCORE.INTRA.REPUL>
0

>  <SCORE.INTRA.REPUL.0>
0

>  <SCORE.INTRA.SOLV>
-0.97999

>  <SCORE.INTRA.SOLV.lig_0>
-45.868

>  <SCORE.INTRA.VDW>
0.335155

>  <SCORE.INTRA.VDW.0>
-0.397919

>  <SCORE.INTRA.norm>
-0.0108704

>  <SCORE.RESTR>
0

>  <SCORE.RESTR.CAVITY>
0

>  <SCORE.RESTR.norm>
0

>  <SCORE.SYSTEM>
0

>  <SCORE.SYSTEM.CONST>
0

>  <SCORE.SYSTEM.DIHEDRAL>
0

>  <SCORE.SYSTEM.SOLV>
0

>  <SCORE.SYSTEM.norm>
0

>  <SCORE.heavy>
13

>  <SCORE.norm>
-1.29379

>  <RMSD>
2.704

$$$$
ligand
 OpenBabel02271912143D
libRbt.so/2013.1/901 2013/11/27
 13 14  0  0  0  0  0  0  0  0999 V2000
   -5.5566  -34.8893  -42.9629 N   0  0  0  0  0  0  0  0  0  0  0  0
   -5.8294  -35.0322  -44.2970 C   0  0  0  0  0  0  0  0  0  0  0  0
   -7.0024  -35.6290  -44.6715 N   0  0  0  0  0  0  0  0  0  0  0  0
   -4.9789  -34.6017  -45.2293 N   0  0  0  0  0  0  0  0  0  0  0  0
   -3.8028  -34.0041  -44.8915 C   0  0  0  0  0  0  0  0  0  0  0  0
   -3.4769  -33.8386  -43.5275 C   0  0  0  0  0  0  0  0  0  0  0  0
   -4.3990  -34.3015  -42.5500 C   0  0  0  0  0  0  0  0  0  0  0  0
   -4.1639  -34.1778  -41.3735 O   0  0  0  0  0  0  0  0  0  0  0  0
   -2.1739  -33.1825  -43.4884 C   0  0  0  0  0  0  0  0  0  0  0  0
   -1.7997  -32.9888  -44.7655 C   0  0  0  0  0  0  0  0  0  0  0  0
   -2.7723  -33.4794  -45.6112 N   0  0  0  0  0  0  0  0  0  0  0  0
   -1.3969  -32.8045  -42.2534 C   0  0  0  0  0  0  0  0  0  0  0  0
    0.0201  -32.6049  -42.6194 N   0  0  0  0  0  0  0  0  0  0  0  0
  1  2  1  0  0  0  0
  1  7  1  0  0  0  0
  2  3  1  0  0  0  0
  2  4  2  0  0  0  0
  4  5  1  0  0  0  0
  5  6  2  0  0  0  0
  5 11  1  0  0  0  0
  6  7  1  0  0  0  0
  6  9  1  0  0  0  0
  7  8  2  0  0  0  0
  9 10  2  0  0  0  0
  9 12  1  0  0  0  0
 10 11  1  0  0  0  0
 12 13  1  0  0  0  0
M  END
>  <CHROM.1>
160.64291047,-3.65097880,-33.97158261,-43.66906709,2.93575869,-0.43605713
-1.55776168

>  <Name>
ligand

>  <RI>
0

>  <Rbt.Current_Directory>
/home/itssahil/PROJECTS/Mol_Feturizer/Test_systems_manuscript/rnas/3fu2

>  <Rbt.Executable>
rbdock ($Id: //depot/dev/client3/rdock/2013.1/src/exe/rbdock.cxx#4 $)

>  <Rbt.Library>
libRbt.so (2013.1, Build901 2013/11/27)

>  <Rbt.Parameter_File>
/export/apps/rDock/src/rDock_2013.1_src/data/scripts/dock_solv.prm

>  <Rbt.Receptor>
prm/pocket_docking_2.prm

>  <SCORE>
-16.9184

>  <SCORE.INTER>
-16.7637

>  <SCORE.INTER.CONST>
1

>  <SCORE.INTER.POLAR>
0

>  <SCORE.INTER.ROT>
1

>  <SCORE.INTER.SOLV>
20.0576

>  <SCORE.INTER.VDW>
-22.1283

>  <SCORE.INTER.norm>
-1.28952

>  <SCORE.INTRA>
-0.154711

>  <SCORE.INTRA.DIHEDRAL>
0.0294209

>  <SCORE.INTRA.DIHEDRAL.0>
1.66609

>  <SCORE.INTRA.POLAR>
0

>  <SCORE.INTRA.POLAR.0>
0

>  <SCORE.INTRA.REPUL>
0

>  <SCORE.INTRA.REPUL.0>
0

>  <SCORE.INTRA.SOLV>
-0.980784

>  <SCORE.INTRA.SOLV.lig_0>
-45.868

>  <SCORE.INTRA.VDW>
0.320971

>  <SCORE.INTRA.VDW.0>
-0.397919

>  <SCORE.INTRA.norm>
-0.0119008

>  <SCORE.RESTR>
0

>  <SCORE.RESTR.CAVITY>
0

>  <SCORE.RESTR.norm>
0

>  <SCORE.SYSTEM>
0

>  <SCORE.SYSTEM.CONST>
0

>  <SCORE.SYSTEM.DIHEDRAL>
0

>  <SCORE.SYSTEM.SOLV>
0

>  <SCORE.SYSTEM.norm>
0

>  <SCORE.heavy>
13

>  <SCORE.norm>
-1.30142

>  <RMSD>
2.704

$$$$
ligand
 OpenBabel02271912143D
libRbt.so/2013.1/901 2013/11/27
 13 14  0  0  0  0  0  0  0  0999 V2000
   -5.5591  -34.8875  -42.9639 N   0  0  0  0  0  0  0  0  0  0  0  0
   -5.8315  -35.0297  -44.2982 C   0  0  0  0  0  0  0  0  0  0  0  0
   -7.0048  -35.6253  -44.6734 N   0  0  0  0  0  0  0  0  0  0  0  0
   -4.9801  -34.5999  -45.2300 N   0  0  0  0  0  0  0  0  0  0  0  0
   -3.8035  -34.0036  -44.8915 C   0  0  0  0  0  0  0  0  0  0  0  0
   -3.4781  -33.8387  -43.5272 C   0  0  0  0  0  0  0  0  0  0  0  0
   -4.4011  -34.3009  -42.5503 C   0  0  0  0  0  0  0  0  0  0  0  0
   -4.1664  -34.1777  -41.3737 O   0  0  0  0  0  0  0  0  0  0  0  0
   -2.1745  -33.1838  -43.4874 C   0  0  0  0  0  0  0  0  0  0  0  0
   -1.7996  -32.9902  -44.7644 C   0  0  0  0  0  0  0  0  0  0  0  0
   -2.7723  -33.4797  -45.6106 N   0  0  0  0  0  0  0  0  0  0  0  0
   -1.3977  -32.8068  -42.2520 C   0  0  0  0  0  0  0  0  0  0  0  0
    0.0189  -32.6043  -42.6181 N   0  0  0  0  0  0  0  0  0  0  0  0
  1  2  1  0  0  0  0
  1  7  1  0  0  0  0
  2  3  1  0  0  0  0
  2  4  2  0  0  0  0
  4  5  1  0  0  0  0
  5  6  2  0  0  0  0
  5 11  1  0  0  0  0
  6  7  1  0  0  0  0
  6  9  1  0  0  0  0
  7  8  2  0  0  0  0
  9 10  2  0  0  0  0
  9 12  1  0  0  0  0
 10 11  1  0  0  0  0
 12 13  1  0  0  0  0
M  END
>  <CHROM.1>
160.82203106,-3.65234288,-33.97107982,-43.66903917,2.93527979,-0.43535231
-1.55789763

>  <Name>
ligand

>  <RI>
0

>  <Rbt.Current_Directory>
/home/itssahil/PROJECTS/Mol_Feturizer/Test_systems_manuscript/rnas/3fu2

>  <Rbt.Executable>
rbdock ($Id: //depot/dev/client3/rdock/2013.1/src/exe/rbdock.cxx#4 $)

>  <Rbt.Library>
libRbt.so (2013.1, Build901 2013/11/27)

>  <Rbt.Parameter_File>
/export/apps/rDock/src/rDock_2013.1_src/data/scripts/dock_solv.prm

>  <Rbt.Receptor>
prm/pocket_docking_4.prm

>  <SCORE>
-16.9173

>  <SCORE.INTER>
-16.7632

>  <SCORE.INTER.CONST>
1

>  <SCORE.INTER.POLAR>
0

>  <SCORE.INTER.ROT>
1

>  <SCORE.INTER.SOLV>
20.0565

>  <SCORE.INTER.VDW>
-22.1276

>  <SCORE.INTER.norm>
-1.28948

>  <SCORE.INTRA>
-0.154049

>  <SCORE.INTRA.DIHEDRAL>
0.0293274

>  <SCORE.INTRA.DIHEDRAL.0>
1.66609

>  <SCORE.INTRA.POLAR>
0

>  <SCORE.INTRA.POLAR.0>
0

>  <SCORE.INTRA.REPUL>
0

>  <SCORE.INTRA.REPUL.0>
0

>  <SCORE.INTRA.SOLV>
-0.980744

>  <SCORE.INTRA.SOLV.lig_0>
-45.868

>  <SCORE.INTRA.VDW>
0.32166

>  <SCORE.INTRA.VDW.0>
-0.397919

>  <SCORE.INTRA.norm>
-0.0118499

>  <SCORE.RESTR>
0

>  <SCORE.RESTR.CAVITY>
0

>  <SCORE.RESTR.norm>
0

>  <SCORE.SYSTEM>
0

>  <SCORE.SYSTEM.CONST>
0

>  <SCORE.SYSTEM.DIHEDRAL>
0

>  <SCORE.SYSTEM.SOLV>
0

>  <SCORE.SYSTEM.norm>
0

>  <SCORE.heavy>
13

>  <SCORE.norm>
-1.30133

>  <RMSD>
2.704

$$$$
ligand
 OpenBabel02271912143D
libRbt.so/2013.1/901 2013/11/27
 13 14  0  0  0  0  0  0  0  0999 V2000
   -5.5593  -34.8861  -42.9654 N   0  0  0  0  0  0  0  0  0  0  0  0
   -5.8300  -35.0285  -44.3000 C   0  0  0  0  0  0  0  0  0  0  0  0
   -7.0030  -35.6237  -44.6767 N   0  0  0  0  0  0  0  0  0  0  0  0
   -4.9772  -34.5991  -45.2308 N   0  0  0  0  0  0  0  0  0  0  0  0
   -3.8009  -34.0032  -44.8909 C   0  0  0  0  0  0  0  0  0  0  0  0
   -3.4772  -33.8381  -43.5263 C   0  0  0  0  0  0  0  0  0  0  0  0
   -4.4016  -34.2998  -42.5505 C   0  0  0  0  0  0  0  0  0  0  0  0
   -4.1685  -34.1765  -41.3735 O   0  0  0  0  0  0  0  0  0  0  0  0
   -2.1734  -33.1837  -43.4848 C   0  0  0  0  0  0  0  0  0  0  0  0
   -1.7967  -32.9905  -44.7613 C   0  0  0  0  0  0  0  0  0  0  0  0
   -2.7685  -33.4798  -45.6087 N   0  0  0  0  0  0  0  0  0  0  0  0
   -1.3981  -32.8068  -42.2485 C   0  0  0  0  0  0  0  0  0  0  0  0
    0.0202  -32.6111  -42.6116 N   0  0  0  0  0  0  0  0  0  0  0  0
  1  2  1  0  0  0  0
  1  7  1  0  0  0  0
  2  3  1  0  0  0  0
  2  4  2  0  0  0  0
  4  5  1  0  0  0  0
  5  6  2  0  0  0  0
  5 11  1  0  0  0  0
  6  7  1  0  0  0  0
  6  9  1  0  0  0  0
  7  8  2  0  0  0  0
  9 10  2  0  0  0  0
  9 12  1  0  0  0  0
 10 11  1  0  0  0  0
 12 13  1  0  0  0  0
M  END
>  <CHROM.1>
160.55834936,-3.65118402,-33.97102491,-43.66815111,2.93375356,-0.43461499
-1.55850219

>  <Name>
ligand

>  <RI>
0

>  <Rbt.Current_Directory>
/home/itssahil/PROJECTS/Mol_Feturizer/Test_systems_manuscript/rnas/3fu2

>  <Rbt.Executable>
rbdock ($Id: //depot/dev/client3/rdock/2013.1/src/exe/rbdock.cxx#4 $)

>  <Rbt.Library>
libRbt.so (2013.1, Build901 2013/11/27)

>  <Rbt.Parameter_File>
/export/apps/rDock/src/rDock_2013.1_src/data/scripts/dock_solv.prm

>  <Rbt.Receptor>
prm/pocket_docking_4.prm

>  <SCORE>
-16.9192

>  <SCORE.INTER>
-16.7641

>  <SCORE.INTER.CONST>
1

>  <SCORE.INTER.POLAR>
0

>  <SCORE.INTER.ROT>
1

>  <SCORE.INTER.SOLV>
20.0502

>  <SCORE.INTER.VDW>
-22.1262

>  <SCORE.INTER.norm>
-1.28955

>  <SCORE.INTRA>
-0.155025

>  <SCORE.INTRA.DIHEDRAL>
0.0294646

>  <SCORE.INTRA.DIHEDRAL.0>
1.66609

>  <SCORE.INTRA.POLAR>
0

>  <SCORE.INTRA.POLAR.0>
0

>  <SCORE.INTRA.REPUL>
0

>  <SCORE.INTRA.REPUL.0>
0

>  <SCORE.INTRA.SOLV>
-0.980803

>  <SCORE.INTRA.SOLV.lig_0>
-45.868

>  <SCORE.INTRA.VDW>
0.320644

>  <SCORE.INTRA.VDW.0>
-0.397919

>  <SCORE.INTRA.norm>
-0.011925

>  <SCORE.RESTR>
0

>  <SCORE.RESTR.CAVITY>
0

>  <SCORE.RESTR.norm>
0

>  <SCORE.SYSTEM>
0

>  <SCORE.SYSTEM.CONST>
0

>  <SCORE.SYSTEM.DIHEDRAL>
0

>  <SCORE.SYSTEM.SOLV>
0

>  <SCORE.SYSTEM.norm>
0

>  <SCORE.heavy>
13

>  <SCORE.norm>
-1.30147

>  <RMSD>
2.704

$$$$
ligand
 OpenBabel02271912143D
libRbt.so/2013.1/901 2013/11/27
 13 14  0  0  0  0  0  0  0  0999 V2000
   -5.5612  -34.8848  -42.9641 N   0  0  0  0  0  0  0  0  0  0  0  0
   -5.8317  -35.0331  -44.2982 C   0  0  0  0  0  0  0  0  0  0  0  0
   -7.0052  -35.6290  -44.6723 N   0  0  0  0  0  0  0  0  0  0  0  0
   -4.9783  -34.6088  -45.2307 N   0  0  0  0  0  0  0  0  0  0  0  0
   -3.8015  -34.0124  -44.8933 C   0  0  0  0  0  0  0  0  0  0  0  0
   -3.4780  -33.8413  -43.5294 C   0  0  0  0  0  0  0  0  0  0  0  0
   -4.4031  -34.2976  -42.5516 C   0  0  0  0  0  0  0  0  0  0  0  0
   -4.1701  -34.1690  -41.3752 O   0  0  0  0  0  0  0  0  0  0  0  0
   -2.1736  -33.1878  -43.4907 C   0  0  0  0  0  0  0  0  0  0  0  0
   -1.7965  -33.0009  -44.7679 C   0  0  0  0  0  0  0  0  0  0  0  0
   -2.7685  -33.4932  -45.6133 N   0  0  0  0  0  0  0  0  0  0  0  0
   -1.3983  -32.8058  -42.2559 C   0  0  0  0  0  0  0  0  0  0  0  0
    0.0177  -32.5997  -42.6221 N   0  0  0  0  0  0  0  0  0  0  0  0
  1  2  1  0  0  0  0
  1  7  1  0  0  0  0
  2  3  1  0  0  0  0
  2  4  2  0  0  0  0
  4  5  1  0  0  0  0
  5  6  2  0  0  0  0
  5 11  1  0  0  0  0
  6  7  1  0  0  0  0
  6  9  1  0  0  0  0
  7  8  2  0  0  0  0
  9 10  2  0  0  0  0
  9 12  1  0  0  0  0
 10 11  1  0  0  0  0
 12 13  1  0  0  0  0
M  END
>  <CHROM.1>
161.12642142,-3.65230373,-33.97356500,-43.67088513,2.93363971,-0.43458793
-1.56368298

>  <Name>
ligand

>  <RI>
0

>  <Rbt.Current_Directory>
/home/itssahil/PROJECTS/Mol_Feturizer/Test_systems_manuscript/rnas/3fu2

>  <Rbt.Executable>
rbdock ($Id: //depot/dev/client3/rdock/2013.1/src/exe/rbdock.cxx#4 $)

>  <Rbt.Library>
libRbt.so (2013.1, Build901 2013/11/27)

>  <Rbt.Parameter_File>
/export/apps/rDock/src/rDock_2013.1_src/data/scripts/dock_solv.prm

>  <Rbt.Receptor>
prm/pocket_docking_4.prm

>  <SCORE>
-16.9165

>  <SCORE.INTER>
-16.7636

>  <SCORE.INTER.CONST>
1

>  <SCORE.INTER.POLAR>
0

>  <SCORE.INTER.ROT>
1

>  <SCORE.INTER.SOLV>
20.0709

>  <SCORE.INTER.VDW>
-22.1327

>  <SCORE.INTER.norm>
-1.28951

>  <SCORE.INTRA>
-0.152935

>  <SCORE.INTRA.DIHEDRAL>
0.0291653

>  <SCORE.INTRA.DIHEDRAL.0>
1.66609

>  <SCORE.INTRA.POLAR>
0

>  <SCORE.INTRA.POLAR.0>
0

>  <SCORE.INTRA.REPUL>
0

>  <SCORE.INTRA.REPUL.0>
0

>  <SCORE.INTRA.SOLV>
-0.980677

>  <SCORE.INTRA.SOLV.lig_0>
-45.868

>  <SCORE.INTRA.VDW>
0.322821

>  <SCORE.INTRA.VDW.0>
-0.397919

>  <SCORE.INTRA.norm>
-0.0117642

>  <SCORE.RESTR>
0

>  <SCORE.RESTR.CAVITY>
0

>  <SCORE.RESTR.norm>
0

>  <SCORE.SYSTEM>
0

>  <SCORE.SYSTEM.CONST>
0

>  <SCORE.SYSTEM.DIHEDRAL>
0

>  <SCORE.SYSTEM.SOLV>
0

>  <SCORE.SYSTEM.norm>
0

>  <SCORE.heavy>
13

>  <SCORE.norm>
-1.30127

>  <RMSD>
2.704

$$$$
ligand
 OpenBabel02271912143D
libRbt.so/2013.1/901 2013/11/27
 13 14  0  0  0  0  0  0  0  0999 V2000
   -5.5472  -34.8949  -42.9575 N   0  0  0  0  0  0  0  0  0  0  0  0
   -5.8226  -35.0402  -44.2909 C   0  0  0  0  0  0  0  0  0  0  0  0
   -6.9929  -35.6442  -44.6621 N   0  0  0  0  0  0  0  0  0  0  0  0
   -4.9770  -34.6052  -45.2256 N   0  0  0  0  0  0  0  0  0  0  0  0
   -3.8036  -34.0005  -44.8912 C   0  0  0  0  0  0  0  0  0  0  0  0
   -3.4752  -33.8322  -43.5281 C   0  0  0  0  0  0  0  0  0  0  0  0
   -4.3920  -34.3000  -42.5480 C   0  0  0  0  0  0  0  0  0  0  0  0
   -4.1546  -34.1741  -41.3722 O   0  0  0  0  0  0  0  0  0  0  0  0
   -2.1760  -33.1683  -43.4928 C   0  0  0  0  0  0  0  0  0  0  0  0
   -1.8063  -32.9732  -44.7710 C   0  0  0  0  0  0  0  0  0  0  0  0
   -2.7781  -33.4701  -45.6139 N   0  0  0  0  0  0  0  0  0  0  0  0
   -1.3981  -32.7849  -42.2600 C   0  0  0  0  0  0  0  0  0  0  0  0
    0.0242  -32.6182  -42.6218 N   0  0  0  0  0  0  0  0  0  0  0  0
  1  2  1  0  0  0  0
  1  7  1  0  0  0  0
  2  3  1  0  0  0  0
  2  4  2  0  0  0  0
  4  5  1  0  0  0  0
  5  6  2  0  0  0  0
  5 11  1  0  0  0  0
  6  7  1  0  0  0  0
  6  9  1  0  0  0  0
  7  8  2  0  0  0  0
  9 10  2  0  0  0  0
  9 12  1  0  0  0  0
 10 11  1  0  0  0  0
 12 13  1  0  0  0  0
M  END
>  <CHROM.1>
158.89753152,-3.64824588,-33.96963223,-43.66854644,2.93816534,-0.43934432
-1.55583390

>  <Name>
ligand

>  <RI>
0

>  <Rbt.Current_Directory>
/home/itssahil/PROJECTS/Mol_Feturizer/Test_systems_manuscript/rnas/3fu2

>  <Rbt.Executable>
rbdock ($Id: //depot/dev/client3/rdock/2013.1/src/exe/rbdock.cxx#4 $)

>  <Rbt.Library>
libRbt.so (2013.1, Build901 2013/11/27)

>  <Rbt.Parameter_File>
/export/apps/rDock/src/rDock_2013.1_src/data/scripts/dock_solv.prm

>  <Rbt.Receptor>
prm/pocket_docking_6.prm

>  <SCORE>
-16.878

>  <SCORE.INTER>
-16.7166

>  <SCORE.INTER.CONST>
1

>  <SCORE.INTER.POLAR>
0

>  <SCORE.INTER.ROT>
1

>  <SCORE.INTER.SOLV>
20.0692

>  <SCORE.INTER.VDW>
-22.1008

>  <SCORE.INTER.norm>
-1.2859

>  <SCORE.INTRA>
-0.16141

>  <SCORE.INTRA.DIHEDRAL>
0.0302599

>  <SCORE.INTRA.DIHEDRAL.0>
1.66609

>  <SCORE.INTRA.POLAR>
0

>  <SCORE.INTRA.POLAR.0>
0

>  <SCORE.INTRA.REPUL>
0

>  <SCORE.INTRA.REPUL.0>
0

>  <SCORE.INTRA.SOLV>
-0.98119

>  <SCORE.INTRA.SOLV.lig_0>
-45.868

>  <SCORE.INTRA.VDW>
0.314055

>  <SCORE.INTRA.VDW.0>
-0.397919

>  <SCORE.INTRA.norm>
-0.0124162

>  <SCORE.RESTR>
0

>  <SCORE.RESTR.CAVITY>
0

>  <SCORE.RESTR.norm>
0

>  <SCORE.SYSTEM>
0

>  <SCORE.SYSTEM.CONST>
0

>  <SCORE.SYSTEM.DIHEDRAL>
0

>  <SCORE.SYSTEM.SOLV>
0

>  <SCORE.SYSTEM.norm>
0

>  <SCORE.heavy>
13

>  <SCORE.norm>
-1.29831

>  <RMSD>
2.704

$$$$
ligand
 OpenBabel02271912143D
libRbt.so/2013.1/901 2013/11/27
 13 14  0  0  0  0  0  0  0  0999 V2000
   -5.5318  -34.8879  -42.9088 N   0  0  0  0  0  0  0  0  0  0  0  0
   -5.8437  -35.0320  -44.2342 C   0  0  0  0  0  0  0  0  0  0  0  0
   -7.0244  -35.6344  -44.5736 N   0  0  0  0  0  0  0  0  0  0  0  0
   -5.0236  -34.5974  -45.1915 N   0  0  0  0  0  0  0  0  0  0  0  0
   -3.8407  -33.9942  -44.8889 C   0  0  0  0  0  0  0  0  0  0  0  0
   -3.4750  -33.8271  -43.5352 C   0  0  0  0  0  0  0  0  0  0  0  0
   -4.3652  -34.2945  -42.5307 C   0  0  0  0  0  0  0  0  0  0  0  0
   -4.0956  -34.1697  -41.3617 O   0  0  0  0  0  0  0  0  0  0  0  0
   -2.1745  -33.1647  -43.5350 C   0  0  0  0  0  0  0  0  0  0  0  0
   -1.8397  -32.9692  -44.8227 C   0  0  0  0  0  0  0  0  0  0  0  0
   -2.8348  -33.4645  -45.6390 N   0  0  0  0  0  0  0  0  0  0  0  0
   -1.3628  -32.7830  -42.3237 C   0  0  0  0  0  0  0  0  0  0  0  0
    0.0372  -32.5551  -42.7357 N   0  0  0  0  0  0  0  0  0  0  0  0
  1  2  1  0  0  0  0
  1  7  1  0  0  0  0
  2  3  1  0  0  0  0
  2  4  2  0  0  0  0
  4  5  1  0  0  0  0
  5  6  2  0  0  0  0
  5 11  1  0  0  0  0
  6  7  1  0  0  0  0
  6  9  1  0  0  0  0
  7  8  2  0  0  0  0
  9 10  2  0  0  0  0
  9 12  1  0  0  0  0
 10 11  1  0  0  0  0
 12 13  1  0  0  0  0
M  END
>  <CHROM.1>
161.55592679,-3.65294314,-33.95919578,-43.67185482,2.96915415,-0.44167897
-1.54421380

>  <Name>
ligand

>  <RI>
0

>  <Rbt.Current_Directory>
/home/itssahil/PROJECTS/Mol_Feturizer/Test_systems_manuscript/rnas/3fu2

>  <Rbt.Executable>
rbdock ($Id: //depot/dev/client3/rdock/2013.1/src/exe/rbdock.cxx#4 $)

>  <Rbt.Library>
libRbt.so (2013.1, Build901 2013/11/27)

>  <Rbt.Parameter_File>
/export/apps/rDock/src/rDock_2013.1_src/data/scripts/dock_solv.prm

>  <Rbt.Receptor>
prm/pocket_docking_7.prm

>  <SCORE>
-16.868

>  <SCORE.INTER>
-16.7166

>  <SCORE.INTER.CONST>
1

>  <SCORE.INTER.POLAR>
0

>  <SCORE.INTER.ROT>
1

>  <SCORE.INTER.SOLV>
20.2817

>  <SCORE.INTER.VDW>
-22.1716

>  <SCORE.INTER.norm>
-1.2859

>  <SCORE.INTRA>
-0.151388

>  <SCORE.INTRA.DIHEDRAL>
0.02893

>  <SCORE.INTRA.DIHEDRAL.0>
1.66609

>  <SCORE.INTRA.POLAR>
0

>  <SCORE.INTRA.POLAR.0>
0

>  <SCORE.INTRA.REPUL>
0

>  <SCORE.INTRA.REPUL.0>
0

>  <SCORE.INTRA.SOLV>
-0.980584

>  <SCORE.INTRA.SOLV.lig_0>
-45.868

>  <SCORE.INTRA.VDW>
0.324439

>  <SCORE.INTRA.VDW.0>
-0.397919

>  <SCORE.INTRA.norm>
-0.0116452

>  <SCORE.RESTR>
0

>  <SCORE.RESTR.CAVITY>
0

>  <SCORE.RESTR.norm>
0

>  <SCORE.SYSTEM>
0

>  <SCORE.SYSTEM.CONST>
0

>  <SCORE.SYSTEM.DIHEDRAL>
0

>  <SCORE.SYSTEM.SOLV>
0

>  <SCORE.SYSTEM.norm>
0

>  <SCORE.heavy>
13

>  <SCORE.norm>
-1.29754

>  <RMSD>
2.704

$$$$
ligand
 OpenBabel02271912143D
libRbt.so/2013.1/901 2013/11/27
 13 14  0  0  0  0  0  0  0  0999 V2000
   -5.5479  -34.8907  -42.9603 N   0  0  0  0  0  0  0  0  0  0  0  0
   -5.8237  -35.0347  -44.2937 C   0  0  0  0  0  0  0  0  0  0  0  0
   -6.9952  -35.6362  -44.6651 N   0  0  0  0  0  0  0  0  0  0  0  0
   -4.9774  -34.6007  -45.2282 N   0  0  0  0  0  0  0  0  0  0  0  0
   -3.8028  -33.9984  -44.8935 C   0  0  0  0  0  0  0  0  0  0  0  0
   -3.4740  -33.8316  -43.5303 C   0  0  0  0  0  0  0  0  0  0  0  0
   -4.3916  -34.2983  -42.5504 C   0  0  0  0  0  0  0  0  0  0  0  0
   -4.1539  -34.1736  -41.3745 O   0  0  0  0  0  0  0  0  0  0  0  0
   -2.1735  -33.1702  -43.4946 C   0  0  0  0  0  0  0  0  0  0  0  0
   -1.8035  -32.9750  -44.7728 C   0  0  0  0  0  0  0  0  0  0  0  0
   -2.7764  -33.4695  -45.6159 N   0  0  0  0  0  0  0  0  0  0  0  0
   -1.3948  -32.7890  -42.2617 C   0  0  0  0  0  0  0  0  0  0  0  0
    0.0276  -32.6235  -42.6237 N   0  0  0  0  0  0  0  0  0  0  0  0
  1  2  1  0  0  0  0
  1  7  1  0  0  0  0
  2  3  1  0  0  0  0
  2  4  2  0  0  0  0
  4  5  1  0  0  0  0
  5  6  2  0  0  0  0
  5 11  1  0  0  0  0
  6  7  1  0  0  0  0
  6  9  1  0  0  0  0
  7  8  2  0  0  0  0
  9 10  2  0  0  0  0
  9 12  1  0  0  0  0
 10 11  1  0  0  0  0
 12 13  1  0  0  0  0
M  END
>  <CHROM.1>
158.95127861,-3.64730049,-33.96850143,-43.67082913,2.93823148,-0.43753357
-1.55521234

>  <Name>
ligand

>  <RI>
0

>  <Rbt.Current_Directory>
/home/itssahil/PROJECTS/Mol_Feturizer/Test_systems_manuscript/rnas/3fu2

>  <Rbt.Executable>
rbdock ($Id: //depot/dev/client3/rdock/2013.1/src/exe/rbdock.cxx#4 $)

>  <Rbt.Library>
libRbt.so (2013.1, Build901 2013/11/27)

>  <Rbt.Parameter_File>
/export/apps/rDock/src/rDock_2013.1_src/data/scripts/dock_solv.prm

>  <Rbt.Receptor>
prm/pocket_docking_8.prm

>  <SCORE>
-16.8769

>  <SCORE.INTER>
-16.7157

>  <SCORE.INTER.CONST>
1

>  <SCORE.INTER.POLAR>
0

>  <SCORE.INTER.ROT>
1

>  <SCORE.INTER.SOLV>
20.0789

>  <SCORE.INTER.VDW>
-22.1034

>  <SCORE.INTER.norm>
-1.28582

>  <SCORE.INTRA>
-0.161197

>  <SCORE.INTRA.DIHEDRAL>
0.0302361

>  <SCORE.INTRA.DIHEDRAL.0>
1.66609

>  <SCORE.INTRA.POLAR>
0

>  <SCORE.INTRA.POLAR.0>
0

>  <SCORE.INTRA.REPUL>
0

>  <SCORE.INTRA.REPUL.0>
0

>  <SCORE.INTRA.SOLV>
-0.981177

>  <SCORE.INTRA.SOLV.lig_0>
-45.868

>  <SCORE.INTRA.VDW>
0.314273

>  <SCORE.INTRA.VDW.0>
-0.397919

>  <SCORE.INTRA.norm>
-0.0123998

>  <SCORE.RESTR>
0

>  <SCORE.RESTR.CAVITY>
0

>  <SCORE.RESTR.norm>
0

>  <SCORE.SYSTEM>
0

>  <SCORE.SYSTEM.CONST>
0

>  <SCORE.SYSTEM.DIHEDRAL>
0

>  <SCORE.SYSTEM.SOLV>
0

>  <SCORE.SYSTEM.norm>
0

>  <SCORE.heavy>
13

>  <SCORE.norm>
-1.29822

>  <RMSD>
2.704

$$$$
ligand
 OpenBabel02271912143D
libRbt.so/2013.1/901 2013/11/27
 13 14  0  0  0  0  0  0  0  0999 V2000
   -5.5305  -34.8738  -42.9243 N   0  0  0  0  0  0  0  0  0  0  0  0
   -5.8315  -35.0363  -44.2501 C   0  0  0  0  0  0  0  0  0  0  0  0
   -7.0071  -35.6480  -44.5907 N   0  0  0  0  0  0  0  0  0  0  0  0
   -5.0058  -34.6105  -45.2065 N   0  0  0  0  0  0  0  0  0  0  0  0
   -3.8279  -33.9985  -44.9026 C   0  0  0  0  0  0  0  0  0  0  0  0
   -3.4733  -33.8125  -43.5484 C   0  0  0  0  0  0  0  0  0  0  0  0
   -4.3693  -34.2707  -42.5448 C   0  0  0  0  0  0  0  0  0  0  0  0
   -4.1094  -34.1297  -41.3755 O   0  0  0  0  0  0  0  0  0  0  0  0
   -2.1757  -33.1446  -43.5467 C   0  0  0  0  0  0  0  0  0  0  0  0
   -1.8317  -32.9643  -44.8342 C   0  0  0  0  0  0  0  0  0  0  0  0
   -2.8184  -33.4742  -45.6517 N   0  0  0  0  0  0  0  0  0  0  0  0
   -1.3749  -32.7439  -42.3343 C   0  0  0  0  0  0  0  0  0  0  0  0
    0.0423  -32.5940  -42.7223 N   0  0  0  0  0  0  0  0  0  0  0  0
  1  2  1  0  0  0  0
  1  7  1  0  0  0  0
  2  3  1  0  0  0  0
  2  4  2  0  0  0  0
  4  5  1  0  0  0  0
  5  6  2  0  0  0  0
  5 11  1  0  0  0  0
  6  7  1  0  0  0  0
  6  9  1  0  0  0  0
  7  8  2  0  0  0  0
  9 10  2  0  0  0  0
  9 12  1  0  0  0  0
 10 11  1  0  0  0  0
 12 13  1  0  0  0  0
M  END
>  <CHROM.1>
158.20541640,-3.64845363,-33.95344425,-43.68340453,2.95965490,-0.44093576
-1.55835453

>  <Name>
ligand

>  <RI>
0

>  <Rbt.Current_Directory>
/home/itssahil/PROJECTS/Mol_Feturizer/Test_systems_manuscript/rnas/3fu2

>  <Rbt.Executable>
rbdock ($Id: //depot/dev/client3/rdock/2013.1/src/exe/rbdock.cxx#4 $)

>  <Rbt.Library>
libRbt.so (2013.1, Build901 2013/11/27)

>  <Rbt.Parameter_File>
/export/apps/rDock/src/rDock_2013.1_src/data/scripts/dock_solv.prm

>  <Rbt.Receptor>
prm/blind_docking_100.prm

>  <SCORE>
-16.8669

>  <SCORE.INTER>
-16.7027

>  <SCORE.INTER.CONST>
1

>  <SCORE.INTER.POLAR>
0

>  <SCORE.INTER.ROT>
1

>  <SCORE.INTER.SOLV>
20.3007

>  <SCORE.INTER.VDW>
-22.1687

>  <SCORE.INTER.norm>
-1.28482

>  <SCORE.INTRA>
-0.164183

>  <SCORE.INTRA.DIHEDRAL>
0.0305552

>  <SCORE.INTRA.DIHEDRAL.0>
1.66609

>  <SCORE.INTRA.POLAR>
0

>  <SCORE.INTRA.POLAR.0>
0

>  <SCORE.INTRA.REPUL>
0

>  <SCORE.INTRA.REPUL.0>
0

>  <SCORE.INTRA.SOLV>
-0.981361

>  <SCORE.INTRA.SOLV.lig_0>
-45.868

>  <SCORE.INTRA.VDW>
0.311219

>  <SCORE.INTRA.VDW.0>
-0.397919

>  <SCORE.INTRA.norm>
-0.0126295

>  <SCORE.RESTR>
0

>  <SCORE.RESTR.CAVITY>
0

>  <SCORE.RESTR.norm>
0

>  <SCORE.SYSTEM>
0

>  <SCORE.SYSTEM.CONST>
0

>  <SCORE.SYSTEM.DIHEDRAL>
0

>  <SCORE.SYSTEM.SOLV>
0

>  <SCORE.SYSTEM.norm>
0

>  <SCORE.heavy>
13

>  <SCORE.norm>
-1.29745

>  <RMSD>
2.705

$$$$
ligand
 OpenBabel02271912143D
libRbt.so/2013.1/901 2013/11/27
 13 14  0  0  0  0  0  0  0  0999 V2000
   -5.5336  -34.8753  -42.9586 N   0  0  0  0  0  0  0  0  0  0  0  0
   -5.8246  -35.0331  -44.2872 C   0  0  0  0  0  0  0  0  0  0  0  0
   -6.9973  -35.6440  -44.6390 N   0  0  0  0  0  0  0  0  0  0  0  0
   -4.9917  -34.6037  -45.2358 N   0  0  0  0  0  0  0  0  0  0  0  0
   -3.8163  -33.9924  -44.9208 C   0  0  0  0  0  0  0  0  0  0  0  0
   -3.4721  -33.8111  -43.5632 C   0  0  0  0  0  0  0  0  0  0  0  0
   -4.3756  -34.2732  -42.5682 C   0  0  0  0  0  0  0  0  0  0  0  0
   -4.1246  -34.1363  -41.3964 O   0  0  0  0  0  0  0  0  0  0  0  0
   -2.1748  -33.1429  -43.5493 C   0  0  0  0  0  0  0  0  0  0  0  0
   -1.8211  -32.9578  -44.8336 C   0  0  0  0  0  0  0  0  0  0  0  0
   -2.8013  -33.4652  -45.6603 N   0  0  0  0  0  0  0  0  0  0  0  0
   -1.3834  -32.7463  -42.3294 C   0  0  0  0  0  0  0  0  0  0  0  0
    0.0327  -32.5711  -42.7111 N   0  0  0  0  0  0  0  0  0  0  0  0
  1  2  1  0  0  0  0
  1  7  1  0  0  0  0
  2  3  1  0  0  0  0
  2  4  2  0  0  0  0
  4  5  1  0  0  0  0
  5  6  2  0  0  0  0
  5 11  1  0  0  0  0
  6  7  1  0  0  0  0
  6  9  1  0  0  0  0
  7  8  2  0  0  0  0
  9 10  2  0  0  0  0
  9 12  1  0  0  0  0
 10 11  1  0  0  0  0
 12 13  1  0  0  0  0
M  END
>  <CHROM.1>
159.20171457,-3.64651113,-33.94974598,-43.70050964,2.95157823,-0.44282600
-1.55911731

>  <Name>
ligand

>  <RI>
0

>  <Rbt.Current_Directory>
/home/itssahil/PROJECTS/Mol_Feturizer/Test_systems_manuscript/rnas/3fu2

>  <Rbt.Executable>
rbdock ($Id: //depot/dev/client3/rdock/2013.1/src/exe/rbdock.cxx#4 $)

>  <Rbt.Library>
libRbt.so (2013.1, Build901 2013/11/27)

>  <Rbt.Parameter_File>
/export/apps/rDock/src/rDock_2013.1_src/data/scripts/dock_solv.prm

>  <Rbt.Receptor>
prm/blind_docking_100.prm

>  <SCORE>
-16.8409

>  <SCORE.INTER>
-16.6807

>  <SCORE.INTER.CONST>
1

>  <SCORE.INTER.POLAR>
0

>  <SCORE.INTER.ROT>
1

>  <SCORE.INTER.SOLV>
20.2204

>  <SCORE.INTER.VDW>
-22.1273

>  <SCORE.INTER.norm>
-1.28313

>  <SCORE.INTRA>
-0.160211

>  <SCORE.INTRA.DIHEDRAL>
0.0301234

>  <SCORE.INTRA.DIHEDRAL.0>
1.66609

>  <SCORE.INTRA.POLAR>
0

>  <SCORE.INTRA.POLAR.0>
0

>  <SCORE.INTRA.REPUL>
0

>  <SCORE.INTRA.REPUL.0>
0

>  <SCORE.INTRA.SOLV>
-0.981117

>  <SCORE.INTRA.SOLV.lig_0>
-45.868

>  <SCORE.INTRA.VDW>
0.315286

>  <SCORE.INTRA.VDW.0>
-0.397919

>  <SCORE.INTRA.norm>
-0.0123239

>  <SCORE.RESTR>
0

>  <SCORE.RESTR.CAVITY>
0

>  <SCORE.RESTR.norm>
0

>  <SCORE.SYSTEM>
0

>  <SCORE.SYSTEM.CONST>
0

>  <SCORE.SYSTEM.DIHEDRAL>
0

>  <SCORE.SYSTEM.SOLV>
0

>  <SCORE.SYSTEM.norm>
0

>  <SCORE.heavy>
13

>  <SCORE.norm>
-1.29546

>  <RMSD>
2.705

$$$$
ligand
 OpenBabel02271912143D
libRbt.so/2013.1/901 2013/11/27
 13 14  0  0  0  0  0  0  0  0999 V2000
   -5.5383  -34.8814  -42.9111 N   0  0  0  0  0  0  0  0  0  0  0  0
   -5.8483  -35.0267  -44.2369 C   0  0  0  0  0  0  0  0  0  0  0  0
   -7.0299  -35.6267  -44.5774 N   0  0  0  0  0  0  0  0  0  0  0  0
   -5.0253  -34.5957  -45.1933 N   0  0  0  0  0  0  0  0  0  0  0  0
   -3.8415  -33.9951  -44.8896 C   0  0  0  0  0  0  0  0  0  0  0  0
   -3.4777  -33.8269  -43.5355 C   0  0  0  0  0  0  0  0  0  0  0  0
   -4.3708  -34.2904  -42.5318 C   0  0  0  0  0  0  0  0  0  0  0  0
   -4.1030  -34.1645  -41.3625 O   0  0  0  0  0  0  0  0  0  0  0  0
   -2.1756  -33.1678  -43.5340 C   0  0  0  0  0  0  0  0  0  0  0  0
   -1.8380  -32.9751  -44.8215 C   0  0  0  0  0  0  0  0  0  0  0  0
   -2.8329  -33.4691  -45.6387 N   0  0  0  0  0  0  0  0  0  0  0  0
   -1.3649  -32.7863  -42.3219 C   0  0  0  0  0  0  0  0  0  0  0  0
    0.0390  -32.5754  -42.7296 N   0  0  0  0  0  0  0  0  0  0  0  0
  1  2  1  0  0  0  0
  1  7  1  0  0  0  0
  2  3  1  0  0  0  0
  2  4  2  0  0  0  0
  4  5  1  0  0  0  0
  5  6  2  0  0  0  0
  5 11  1  0  0  0  0
  6  7  1  0  0  0  0
  6  9  1  0  0  0  0
  7  8  2  0  0  0  0
  9 10  2  0  0  0  0
  9 12  1  0  0  0  0
 10 11  1  0  0  0  0
 12 13  1  0  0  0  0
M  END
>  <CHROM.1>
161.01095989,-3.65553532,-33.95970430,-43.67208065,2.96699037,-0.43832880
-1.54624454

>  <Name>
ligand

>  <RI>
0

>  <Rbt.Current_Directory>
/home/itssahil/PROJECTS/Mol_Feturizer/Test_systems_manuscript/rnas/3fu2

>  <Rbt.Executable>
rbdock ($Id: //depot/dev/client3/rdock/2013.1/src/exe/rbdock.cxx#4 $)

>  <Rbt.Library>
libRbt.so (2013.1, Build901 2013/11/27)

>  <Rbt.Parameter_File>
/export/apps/rDock/src/rDock_2013.1_src/data/scripts/dock_solv.prm

>  <Rbt.Receptor>
prm/pocket_docking_2.prm

>  <SCORE>
-16.8698

>  <SCORE.INTER>
-16.7165

>  <SCORE.INTER.CONST>
1

>  <SCORE.INTER.POLAR>
0

>  <SCORE.INTER.ROT>
1

>  <SCORE.INTER.SOLV>
20.3055

>  <SCORE.INTER.VDW>
-22.1795

>  <SCORE.INTER.norm>
-1.28588

>  <SCORE.INTRA>
-0.153356

>  <SCORE.INTRA.DIHEDRAL>
0.0292272

>  <SCORE.INTRA.DIHEDRAL.0>
1.66609

>  <SCORE.INTRA.POLAR>
0

>  <SCORE.INTRA.POLAR.0>
0

>  <SCORE.INTRA.REPUL>
0

>  <SCORE.INTRA.REPUL.0>
0

>  <SCORE.INTRA.SOLV>
-0.980702

>  <SCORE.INTRA.SOLV.lig_0>
-45.868

>  <SCORE.INTRA.VDW>
0.322382

>  <SCORE.INTRA.VDW.0>
-0.397919

>  <SCORE.INTRA.norm>
-0.0117966

>  <SCORE.RESTR>
0

>  <SCORE.RESTR.CAVITY>
0

>  <SCORE.RESTR.norm>
0

>  <SCORE.SYSTEM>
0

>  <SCORE.SYSTEM.CONST>
0

>  <SCORE.SYSTEM.DIHEDRAL>
0

>  <SCORE.SYSTEM.SOLV>
0

>  <SCORE.SYSTEM.norm>
0

>  <SCORE.heavy>
13

>  <SCORE.norm>
-1.29768

>  <RMSD>
2.705

$$$$
ligand
 OpenBabel02271912143D
libRbt.so/2013.1/901 2013/11/27
 13 14  0  0  0  0  0  0  0  0999 V2000
   -5.5079  -34.8803  -42.9570 N   0  0  0  0  0  0  0  0  0  0  0  0
   -5.8126  -35.0630  -44.2793 C   0  0  0  0  0  0  0  0  0  0  0  0
   -6.9871  -35.6835  -44.6073 N   0  0  0  0  0  0  0  0  0  0  0  0
   -4.9912  -34.6486  -45.2444 N   0  0  0  0  0  0  0  0  0  0  0  0
   -3.8143  -34.0284  -44.9532 C   0  0  0  0  0  0  0  0  0  0  0  0
   -3.4562  -33.8215  -43.6029 C   0  0  0  0  0  0  0  0  0  0  0  0
   -4.3476  -34.2679  -42.5900 C   0  0  0  0  0  0  0  0  0  0  0  0
   -4.0845  -34.1091  -41.4236 O   0  0  0  0  0  0  0  0  0  0  0  0
   -2.1608  -33.1495  -43.6150 C   0  0  0  0  0  0  0  0  0  0  0  0
   -1.8214  -32.9868  -44.9061 C   0  0  0  0  0  0  0  0  0  0  0  0
   -2.8089  -33.5118  -45.7130 N   0  0  0  0  0  0  0  0  0  0  0  0
   -1.3576  -32.7285  -42.4111 C   0  0  0  0  0  0  0  0  0  0  0  0
    0.0357  -32.4718  -42.8286 N   0  0  0  0  0  0  0  0  0  0  0  0
  1  2  1  0  0  0  0
  1  7  1  0  0  0  0
  2  3  1  0  0  0  0
  2  4  2  0  0  0  0
  4  5  1  0  0  0  0
  5  6  2  0  0  0  0
  5 11  1  0  0  0  0
  6  7  1  0  0  0  0
  6  9  1  0  0  0  0
  7  8  2  0  0  0  0
  9 10  2  0  0  0  0
  9 12  1  0  0  0  0
 10 11  1  0  0  0  0
 12 13  1  0  0  0  0
M  END
>  <CHROM.1>
162.82285014,-3.63310035,-33.95619861,-43.73718394,2.96444815,-0.45123372
-1.57468868

>  <Name>
ligand

>  <RI>
0

>  <Rbt.Current_Directory>
/home/itssahil/PROJECTS/Mol_Feturizer/Test_systems_manuscript/rnas/3fu2

>  <Rbt.Executable>
rbdock ($Id: //depot/dev/client3/rdock/2013.1/src/exe/rbdock.cxx#4 $)

>  <Rbt.Library>
libRbt.so (2013.1, Build901 2013/11/27)

>  <Rbt.Parameter_File>
/export/apps/rDock/src/rDock_2013.1_src/data/scripts/dock_solv.prm

>  <Rbt.Receptor>
prm/pocket_docking_2.prm

>  <SCORE>
-16.8165

>  <SCORE.INTER>
-16.6695

>  <SCORE.INTER.CONST>
1

>  <SCORE.INTER.POLAR>
0

>  <SCORE.INTER.ROT>
1

>  <SCORE.INTER.SOLV>
20.3699

>  <SCORE.INTER.VDW>
-22.1697

>  <SCORE.INTER.norm>
-1.28227

>  <SCORE.INTRA>
-0.147003

>  <SCORE.INTRA.DIHEDRAL>
0.0281922

>  <SCORE.INTRA.DIHEDRAL.0>
1.66609

>  <SCORE.INTRA.POLAR>
0

>  <SCORE.INTRA.POLAR.0>
0

>  <SCORE.INTRA.REPUL>
0

>  <SCORE.INTRA.REPUL.0>
0

>  <SCORE.INTRA.SOLV>
-0.980324

>  <SCORE.INTRA.SOLV.lig_0>
-45.868

>  <SCORE.INTRA.VDW>
0.329063

>  <SCORE.INTRA.VDW.0>
-0.397919

>  <SCORE.INTRA.norm>
-0.0113079

>  <SCORE.RESTR>
0

>  <SCORE.RESTR.CAVITY>
0

>  <SCORE.RESTR.norm>
0

>  <SCORE.SYSTEM>
0

>  <SCORE.SYSTEM.CONST>
0

>  <SCORE.SYSTEM.DIHEDRAL>
0

>  <SCORE.SYSTEM.SOLV>
0

>  <SCORE.SYSTEM.norm>
0

>  <SCORE.heavy>
13

>  <SCORE.norm>
-1.29358

>  <RMSD>
2.705

$$$$
ligand
 OpenBabel02271912143D
libRbt.so/2013.1/901 2013/11/27
 13 14  0  0  0  0  0  0  0  0999 V2000
   -5.5535  -34.8862  -42.9645 N   0  0  0  0  0  0  0  0  0  0  0  0
   -5.8289  -35.0275  -44.2983 C   0  0  0  0  0  0  0  0  0  0  0  0
   -7.0025  -35.6240  -44.6713 N   0  0  0  0  0  0  0  0  0  0  0  0
   -4.9803  -34.5957  -45.2317 N   0  0  0  0  0  0  0  0  0  0  0  0
   -3.8036  -33.9984  -44.8955 C   0  0  0  0  0  0  0  0  0  0  0  0
   -3.4751  -33.8344  -43.5319 C   0  0  0  0  0  0  0  0  0  0  0  0
   -4.3952  -34.2987  -42.5532 C   0  0  0  0  0  0  0  0  0  0  0  0
   -4.1578  -34.1764  -41.3770 O   0  0  0  0  0  0  0  0  0  0  0  0
   -2.1721  -33.1781  -43.4945 C   0  0  0  0  0  0  0  0  0  0  0  0
   -1.8005  -32.9829  -44.7722 C   0  0  0  0  0  0  0  0  0  0  0  0
   -2.7747  -33.4726  -45.6165 N   0  0  0  0  0  0  0  0  0  0  0  0
   -1.3928  -32.8015  -42.2606 C   0  0  0  0  0  0  0  0  0  0  0  0
    0.0281  -32.6267  -42.6243 N   0  0  0  0  0  0  0  0  0  0  0  0
  1  2  1  0  0  0  0
  1  7  1  0  0  0  0
  2  3  1  0  0  0  0
  2  4  2  0  0  0  0
  4  5  1  0  0  0  0
  5  6  2  0  0  0  0
  5 11  1  0  0  0  0
  6  7  1  0  0  0  0
  6  9  1  0  0  0  0
  7  8  2  0  0  0  0
  9 10  2  0  0  0  0
  9 12  1  0  0  0  0
 10 11  1  0  0  0  0
 12 13  1  0  0  0  0
M  END
>  <CHROM.1>
159.56014388,-3.64907179,-33.96935214,-43.67292187,2.93759237,-0.43456548
-1.55484129

>  <Name>
ligand

>  <RI>
0

>  <Rbt.Current_Directory>
/home/itssahil/PROJECTS/Mol_Feturizer/Test_systems_manuscript/rnas/3fu2

>  <Rbt.Executable>
rbdock ($Id: //depot/dev/client3/rdock/2013.1/src/exe/rbdock.cxx#4 $)

>  <Rbt.Library>
libRbt.so (2013.1, Build901 2013/11/27)

>  <Rbt.Parameter_File>
/export/apps/rDock/src/rDock_2013.1_src/data/scripts/dock_solv.prm

>  <Rbt.Receptor>
prm/pocket_docking_2.prm

>  <SCORE>
-16.909

>  <SCORE.INTER>
-16.7502

>  <SCORE.INTER.CONST>
1

>  <SCORE.INTER.POLAR>
0

>  <SCORE.INTER.ROT>
1

>  <SCORE.INTER.SOLV>
20.0864

>  <SCORE.INTER.VDW>
-22.1289

>  <SCORE.INTER.norm>
-1.28847

>  <SCORE.INTRA>
-0.158815

>  <SCORE.INTRA.DIHEDRAL>
0.0299571

>  <SCORE.INTRA.DIHEDRAL.0>
1.66609

>  <SCORE.INTRA.POLAR>
0

>  <SCORE.INTRA.POLAR.0>
0

>  <SCORE.INTRA.REPUL>
0

>  <SCORE.INTRA.REPUL.0>
0

>  <SCORE.INTRA.SOLV>
-0.981032

>  <SCORE.INTRA.SOLV.lig_0>
-45.868

>  <SCORE.INTRA.VDW>
0.316722

>  <SCORE.INTRA.VDW.0>
-0.397919

>  <SCORE.INTRA.norm>
-0.0122166

>  <SCORE.RESTR>
0

>  <SCORE.RESTR.CAVITY>
0

>  <SCORE.RESTR.norm>
0

>  <SCORE.SYSTEM>
0

>  <SCORE.SYSTEM.CONST>
0

>  <SCORE.SYSTEM.DIHEDRAL>
0

>  <SCORE.SYSTEM.SOLV>
0

>  <SCORE.SYSTEM.norm>
0

>  <SCORE.heavy>
13

>  <SCORE.norm>
-1.30069

>  <RMSD>
2.705

$$$$
ligand
 OpenBabel02271912143D
libRbt.so/2013.1/901 2013/11/27
 13 14  0  0  0  0  0  0  0  0999 V2000
   -5.5381  -34.8715  -42.9225 N   0  0  0  0  0  0  0  0  0  0  0  0
   -5.8374  -35.0457  -44.2472 C   0  0  0  0  0  0  0  0  0  0  0  0
   -7.0125  -35.6606  -44.5840 N   0  0  0  0  0  0  0  0  0  0  0  0
   -5.0105  -34.6283  -45.2063 N   0  0  0  0  0  0  0  0  0  0  0  0
   -3.8331  -34.0134  -44.9064 C   0  0  0  0  0  0  0  0  0  0  0  0
   -3.4803  -33.8154  -43.5534 C   0  0  0  0  0  0  0  0  0  0  0  0
   -4.3775  -34.2648  -42.5469 C   0  0  0  0  0  0  0  0  0  0  0  0
   -4.1190  -34.1135  -41.3786 O   0  0  0  0  0  0  0  0  0  0  0  0
   -2.1827  -33.1473  -43.5560 C   0  0  0  0  0  0  0  0  0  0  0  0
   -1.8371  -32.9783  -44.8446 C   0  0  0  0  0  0  0  0  0  0  0  0
   -2.8227  -33.4956  -45.6588 N   0  0  0  0  0  0  0  0  0  0  0  0
   -1.3835  -32.7358  -42.3461 C   0  0  0  0  0  0  0  0  0  0  0  0
    0.0289  -32.5591  -42.7404 N   0  0  0  0  0  0  0  0  0  0  0  0
  1  2  1  0  0  0  0
  1  7  1  0  0  0  0
  2  3  1  0  0  0  0
  2  4  2  0  0  0  0
  4  5  1  0  0  0  0
  5  6  2  0  0  0  0
  5 11  1  0  0  0  0
  6  7  1  0  0  0  0
  6  9  1  0  0  0  0
  7  8  2  0  0  0  0
  9 10  2  0  0  0  0
  9 12  1  0  0  0  0
 10 11  1  0  0  0  0
 12 13  1  0  0  0  0
M  END
>  <CHROM.1>
159.48484358,-3.65562983,-33.95510448,-43.68792575,2.95868388,-0.44300728
-1.56870263

>  <Name>
ligand

>  <RI>
0

>  <Rbt.Current_Directory>
/home/itssahil/PROJECTS/Mol_Feturizer/Test_systems_manuscript/rnas/3fu2

>  <Rbt.Executable>
rbdock ($Id: //depot/dev/client3/rdock/2013.1/src/exe/rbdock.cxx#4 $)

>  <Rbt.Library>
libRbt.so (2013.1, Build901 2013/11/27)

>  <Rbt.Parameter_File>
/export/apps/rDock/src/rDock_2013.1_src/data/scripts/dock_solv.prm

>  <Rbt.Receptor>
prm/pocket_docking_7.prm

>  <SCORE>
-16.8783

>  <SCORE.INTER>
-16.7192

>  <SCORE.INTER.CONST>
1

>  <SCORE.INTER.POLAR>
0

>  <SCORE.INTER.ROT>
1

>  <SCORE.INTER.SOLV>
20.3183

>  <SCORE.INTER.VDW>
-22.1856

>  <SCORE.INTER.norm>
-1.2861

>  <SCORE.INTRA>
-0.159107

>  <SCORE.INTRA.DIHEDRAL>
0.0299925

>  <SCORE.INTRA.DIHEDRAL.0>
1.66609

>  <SCORE.INTRA.POLAR>
0

>  <SCORE.INTRA.POLAR.0>
0

>  <SCORE.INTRA.REPUL>
0

>  <SCORE.INTRA.REPUL.0>
0

>  <SCORE.INTRA.SOLV>
-0.98105

>  <SCORE.INTRA.SOLV.lig_0>
-45.868

>  <SCORE.INTRA.VDW>
0.316422

>  <SCORE.INTRA.VDW.0>
-0.397919

>  <SCORE.INTRA.norm>
-0.012239

>  <SCORE.RESTR>
0

>  <SCORE.RESTR.CAVITY>
0

>  <SCORE.RESTR.norm>
0

>  <SCORE.SYSTEM>
0

>  <SCORE.SYSTEM.CONST>
0

>  <SCORE.SYSTEM.DIHEDRAL>
0

>  <SCORE.SYSTEM.SOLV>
0

>  <SCORE.SYSTEM.norm>
0

>  <SCORE.heavy>
13

>  <SCORE.norm>
-1.29833

>  <RMSD>
2.705

$$$$
ligand
 OpenBabel02271912143D
libRbt.so/2013.1/901 2013/11/27
 13 14  0  0  0  0  0  0  0  0999 V2000
   -5.5608  -34.8864  -42.9637 N   0  0  0  0  0  0  0  0  0  0  0  0
   -5.8318  -35.0317  -44.2979 C   0  0  0  0  0  0  0  0  0  0  0  0
   -7.0053  -35.6270  -44.6730 N   0  0  0  0  0  0  0  0  0  0  0  0
   -4.9789  -34.6051  -45.2298 N   0  0  0  0  0  0  0  0  0  0  0  0
   -3.8021  -34.0092  -44.8914 C   0  0  0  0  0  0  0  0  0  0  0  0
   -3.4781  -33.8411  -43.5273 C   0  0  0  0  0  0  0  0  0  0  0  0
   -4.4027  -34.3000  -42.5503 C   0  0  0  0  0  0  0  0  0  0  0  0
   -4.1693  -34.1740  -41.3736 O   0  0  0  0  0  0  0  0  0  0  0  0
   -2.1738  -33.1875  -43.4876 C   0  0  0  0  0  0  0  0  0  0  0  0
   -1.7972  -32.9976  -44.7645 C   0  0  0  0  0  0  0  0  0  0  0  0
   -2.7694  -33.4882  -45.6107 N   0  0  0  0  0  0  0  0  0  0  0  0
   -1.3981  -32.8082  -42.2522 C   0  0  0  0  0  0  0  0  0  0  0  0
    0.0196  -32.6109  -42.6166 N   0  0  0  0  0  0  0  0  0  0  0  0
  1  2  1  0  0  0  0
  1  7  1  0  0  0  0
  2  3  1  0  0  0  0
  2  4  2  0  0  0  0
  4  5  1  0  0  0  0
  5  6  2  0  0  0  0
  5 11  1  0  0  0  0
  6  7  1  0  0  0  0
  6  9  1  0  0  0  0
  7  8  2  0  0  0  0
  9 10  2  0  0  0  0
  9 12  1  0  0  0  0
 10 11  1  0  0  0  0
 12 13  1  0  0  0  0
M  END
>  <CHROM.1>
160.70447123,-3.65224190,-33.97397223,-43.66888225,2.93395052,-0.43416001
-1.56088013

>  <Name>
ligand

>  <RI>
0

>  <Rbt.Current_Directory>
/home/itssahil/PROJECTS/Mol_Feturizer/Test_systems_manuscript/rnas/3fu2

>  <Rbt.Executable>
rbdock ($Id: //depot/dev/client3/rdock/2013.1/src/exe/rbdock.cxx#4 $)

>  <Rbt.Library>
libRbt.so (2013.1, Build901 2013/11/27)

>  <Rbt.Parameter_File>
/export/apps/rDock/src/rDock_2013.1_src/data/scripts/dock_solv.prm

>  <Rbt.Receptor>
prm/pocket_docking_8.prm

>  <SCORE>
-16.9184

>  <SCORE.INTER>
-16.7639

>  <SCORE.INTER.CONST>
1

>  <SCORE.INTER.POLAR>
0

>  <SCORE.INTER.ROT>
1

>  <SCORE.INTER.SOLV>
20.0665

>  <SCORE.INTER.VDW>
-22.1314

>  <SCORE.INTER.norm>
-1.28953

>  <SCORE.INTRA>
-0.154483

>  <SCORE.INTRA.DIHEDRAL>
0.0293889

>  <SCORE.INTRA.DIHEDRAL.0>
1.66609

>  <SCORE.INTRA.POLAR>
0

>  <SCORE.INTRA.POLAR.0>
0

>  <SCORE.INTRA.REPUL>
0

>  <SCORE.INTRA.REPUL.0>
0

>  <SCORE.INTRA.SOLV>
-0.98077

>  <SCORE.INTRA.SOLV.lig_0>
-45.868

>  <SCORE.INTRA.VDW>
0.321208

>  <SCORE.INTRA.VDW.0>
-0.397919

>  <SCORE.INTRA.norm>
-0.0118833

>  <SCORE.RESTR>
0

>  <SCORE.RESTR.CAVITY>
0

>  <SCORE.RESTR.norm>
0

>  <SCORE.SYSTEM>
0

>  <SCORE.SYSTEM.CONST>
0

>  <SCORE.SYSTEM.DIHEDRAL>
0

>  <SCORE.SYSTEM.SOLV>
0

>  <SCORE.SYSTEM.norm>
0

>  <SCORE.heavy>
13

>  <SCORE.norm>
-1.30141

>  <RMSD>
2.705

$$$$
ligand
 OpenBabel02271912143D
libRbt.so/2013.1/901 2013/11/27
 13 14  0  0  0  0  0  0  0  0999 V2000
   -5.5361  -34.8568  -42.9361 N   0  0  0  0  0  0  0  0  0  0  0  0
   -5.8214  -35.0299  -44.2641 C   0  0  0  0  0  0  0  0  0  0  0  0
   -6.9960  -35.6383  -44.6139 N   0  0  0  0  0  0  0  0  0  0  0  0
   -4.9813  -34.6177  -45.2139 N   0  0  0  0  0  0  0  0  0  0  0  0
   -3.8038  -34.0094  -44.9008 C   0  0  0  0  0  0  0  0  0  0  0  0
   -3.4653  -33.8128  -43.5440 C   0  0  0  0  0  0  0  0  0  0  0  0
   -4.3764  -34.2566  -42.5476 C   0  0  0  0  0  0  0  0  0  0  0  0
   -4.1304  -34.1062  -41.3765 O   0  0  0  0  0  0  0  0  0  0  0  0
   -2.1640  -33.1521  -43.5321 C   0  0  0  0  0  0  0  0  0  0  0  0
   -1.8028  -32.9857  -44.8168 C   0  0  0  0  0  0  0  0  0  0  0  0
   -2.7820  -33.4977  -45.6419 N   0  0  0  0  0  0  0  0  0  0  0  0
   -1.3763  -32.7446  -42.3134 C   0  0  0  0  0  0  0  0  0  0  0  0
    0.0573  -32.6886  -42.6644 N   0  0  0  0  0  0  0  0  0  0  0  0
  1  2  1  0  0  0  0
  1  7  1  0  0  0  0
  2  3  1  0  0  0  0
  2  4  2  0  0  0  0
  4  5  1  0  0  0  0
  5  6  2  0  0  0  0
  5 11  1  0  0  0  0
  6  7  1  0  0  0  0
  6  9  1  0  0  0  0
  7  8  2  0  0  0  0
  9 10  2  0  0  0  0
  9 12  1  0  0  0  0
 10 11  1  0  0  0  0
 12 13  1  0  0  0  0
M  END
>  <CHROM.1>
154.69421688,-3.63861987,-33.96072080,-43.67825927,2.94435335,-0.43027009
-1.57080498

>  <Name>
ligand

>  <RI>
0

>  <Rbt.Current_Directory>
/home/itssahil/PROJECTS/Mol_Feturizer/Test_systems_manuscript/rnas/3fu2

>  <Rbt.Executable>
rbdock ($Id: //depot/dev/client3/rdock/2013.1/src/exe/rbdock.cxx#4 $)

>  <Rbt.Library>
libRbt.so (2013.1, Build901 2013/11/27)

>  <Rbt.Parameter_File>
/export/apps/rDock/src/rDock_2013.1_src/data/scripts/dock_solv.prm

>  <Rbt.Receptor>
prm/pocket_docking_3.prm

>  <SCORE>
-16.8539

>  <SCORE.INTER>
-16.6572

>  <SCORE.INTER.CONST>
1

>  <SCORE.INTER.POLAR>
0

>  <SCORE.INTER.ROT>
1

>  <SCORE.INTER.SOLV>
20.33

>  <SCORE.INTER.VDW>
-22.1481

>  <SCORE.INTER.norm>
-1.28132

>  <SCORE.INTRA>
-0.196751

>  <SCORE.INTRA.DIHEDRAL>
0.0317094

>  <SCORE.INTRA.DIHEDRAL.0>
1.66609

>  <SCORE.INTRA.POLAR>
0

>  <SCORE.INTRA.POLAR.0>
0

>  <SCORE.INTRA.REPUL>
0

>  <SCORE.INTRA.REPUL.0>
0

>  <SCORE.INTRA.SOLV>
-0.982295

>  <SCORE.INTRA.SOLV.lig_0>
-45.868

>  <SCORE.INTRA.VDW>
0.278542

>  <SCORE.INTRA.VDW.0>
-0.397919

>  <SCORE.INTRA.norm>
-0.0151347

>  <SCORE.RESTR>
0

>  <SCORE.RESTR.CAVITY>
0

>  <SCORE.RESTR.norm>
0

>  <SCORE.SYSTEM>
0

>  <SCORE.SYSTEM.CONST>
0

>  <SCORE.SYSTEM.DIHEDRAL>
0

>  <SCORE.SYSTEM.SOLV>
0

>  <SCORE.SYSTEM.norm>
0

>  <SCORE.heavy>
13

>  <SCORE.norm>
-1.29646

>  <RMSD>
2.706

$$$$
ligand
 OpenBabel02271912143D
libRbt.so/2013.1/901 2013/11/27
 13 14  0  0  0  0  0  0  0  0999 V2000
   -5.5264  -34.8699  -42.9611 N   0  0  0  0  0  0  0  0  0  0  0  0
   -5.8177  -35.0339  -44.2889 C   0  0  0  0  0  0  0  0  0  0  0  0
   -6.9908  -35.6458  -44.6376 N   0  0  0  0  0  0  0  0  0  0  0  0
   -4.9848  -34.6094  -45.2396 N   0  0  0  0  0  0  0  0  0  0  0  0
   -3.8090  -33.9972  -44.9277 C   0  0  0  0  0  0  0  0  0  0  0  0
   -3.4645  -33.8097  -43.5711 C   0  0  0  0  0  0  0  0  0  0  0  0
   -4.3680  -34.2666  -42.5737 C   0  0  0  0  0  0  0  0  0  0  0  0
   -4.1167  -34.1243  -41.4026 O   0  0  0  0  0  0  0  0  0  0  0  0
   -2.1668  -33.1420  -43.5605 C   0  0  0  0  0  0  0  0  0  0  0  0
   -1.8132  -32.9633  -44.8457 C   0  0  0  0  0  0  0  0  0  0  0  0
   -2.7939  -33.4740  -45.6699 N   0  0  0  0  0  0  0  0  0  0  0  0
   -1.3750  -32.7401  -42.3426 C   0  0  0  0  0  0  0  0  0  0  0  0
    0.0465  -32.5994  -42.7184 N   0  0  0  0  0  0  0  0  0  0  0  0
  1  2  1  0  0  0  0
  1  7  1  0  0  0  0
  2  3  1  0  0  0  0
  2  4  2  0  0  0  0
  4  5  1  0  0  0  0
  5  6  2  0  0  0  0
  5 11  1  0  0  0  0
  6  7  1  0  0  0  0
  6  9  1  0  0  0  0
  7  8  2  0  0  0  0
  9 10  2  0  0  0  0
  9 12  1  0  0  0  0
 10 11  1  0  0  0  0
 12 13  1  0  0  0  0
M  END
>  <CHROM.1>
157.84460817,-3.63852804,-33.95146921,-43.70709041,2.95130747,-0.44028944
-1.56274902

>  <Name>
ligand

>  <RI>
0

>  <Rbt.Current_Directory>
/home/itssahil/PROJECTS/Mol_Feturizer/Test_systems_manuscript/rnas/3fu2

>  <Rbt.Executable>
rbdock ($Id: //depot/dev/client3/rdock/2013.1/src/exe/rbdock.cxx#4 $)

>  <Rbt.Library>
libRbt.so (2013.1, Build901 2013/11/27)

>  <Rbt.Parameter_File>
/export/apps/rDock/src/rDock_2013.1_src/data/scripts/dock_solv.prm

>  <Rbt.Receptor>
prm/pocket_docking_3.prm

>  <SCORE>
-16.8303

>  <SCORE.INTER>
-16.6646

>  <SCORE.INTER.CONST>
1

>  <SCORE.INTER.POLAR>
0

>  <SCORE.INTER.ROT>
1

>  <SCORE.INTER.SOLV>
20.2786

>  <SCORE.INTER.VDW>
-22.1359

>  <SCORE.INTER.norm>
-1.28189

>  <SCORE.INTRA>
-0.165654

>  <SCORE.INTRA.DIHEDRAL>
0.0307005

>  <SCORE.INTRA.DIHEDRAL.0>
1.66609

>  <SCORE.INTRA.POLAR>
0

>  <SCORE.INTRA.POLAR.0>
0

>  <SCORE.INTRA.REPUL>
0

>  <SCORE.INTRA.REPUL.0>
0

>  <SCORE.INTRA.SOLV>
-0.981451

>  <SCORE.INTRA.SOLV.lig_0>
-45.868

>  <SCORE.INTRA.VDW>
0.309722

>  <SCORE.INTRA.VDW.0>
-0.397919

>  <SCORE.INTRA.norm>
-0.0127426

>  <SCORE.RESTR>
0

>  <SCORE.RESTR.CAVITY>
0

>  <SCORE.RESTR.norm>
0

>  <SCORE.SYSTEM>
0

>  <SCORE.SYSTEM.CONST>
0

>  <SCORE.SYSTEM.DIHEDRAL>
0

>  <SCORE.SYSTEM.SOLV>
0

>  <SCORE.SYSTEM.norm>
0

>  <SCORE.heavy>
13

>  <SCORE.norm>
-1.29463

>  <RMSD>
2.706

$$$$
ligand
 OpenBabel02271912143D
libRbt.so/2013.1/901 2013/11/27
 13 14  0  0  0  0  0  0  0  0999 V2000
   -5.5459  -34.8743  -42.9204 N   0  0  0  0  0  0  0  0  0  0  0  0
   -5.8486  -35.0340  -44.2461 C   0  0  0  0  0  0  0  0  0  0  0  0
   -7.0269  -35.6405  -44.5866 N   0  0  0  0  0  0  0  0  0  0  0  0
   -5.0218  -34.6107  -45.2027 N   0  0  0  0  0  0  0  0  0  0  0  0
   -3.8411  -34.0039  -44.8990 C   0  0  0  0  0  0  0  0  0  0  0  0
   -3.4848  -33.8209  -43.5448 C   0  0  0  0  0  0  0  0  0  0  0  0
   -4.3820  -34.2764  -42.5411 C   0  0  0  0  0  0  0  0  0  0  0  0
   -4.1206  -34.1378  -41.3718 O   0  0  0  0  0  0  0  0  0  0  0  0
   -2.1843  -33.1584  -43.5433 C   0  0  0  0  0  0  0  0  0  0  0  0
   -1.8405  -32.9781  -44.8309 C   0  0  0  0  0  0  0  0  0  0  0  0
   -2.8299  -33.4830  -45.6482 N   0  0  0  0  0  0  0  0  0  0  0  0
   -1.3811  -32.7624  -42.3310 C   0  0  0  0  0  0  0  0  0  0  0  0
    0.0282  -32.5712  -42.7297 N   0  0  0  0  0  0  0  0  0  0  0  0
  1  2  1  0  0  0  0
  1  7  1  0  0  0  0
  2  3  1  0  0  0  0
  2  4  2  0  0  0  0
  4  5  1  0  0  0  0
  5  6  2  0  0  0  0
  5 11  1  0  0  0  0
  6  7  1  0  0  0  0
  6  9  1  0  0  0  0
  7  8  2  0  0  0  0
  9 10  2  0  0  0  0
  9 12  1  0  0  0  0
 10 11  1  0  0  0  0
 12 13  1  0  0  0  0
M  END
>  <CHROM.1>
160.19563418,-3.66125267,-33.95711812,-43.68065201,2.96103904,-0.43974919
-1.55837098

>  <Name>
ligand

>  <RI>
0

>  <Rbt.Current_Directory>
/home/itssahil/PROJECTS/Mol_Feturizer/Test_systems_manuscript/rnas/3fu2

>  <Rbt.Executable>
rbdock ($Id: //depot/dev/client3/rdock/2013.1/src/exe/rbdock.cxx#4 $)

>  <Rbt.Library>
libRbt.so (2013.1, Build901 2013/11/27)

>  <Rbt.Parameter_File>
/export/apps/rDock/src/rDock_2013.1_src/data/scripts/dock_solv.prm

>  <Rbt.Receptor>
prm/blind_docking_60.prm

>  <SCORE>
-16.8832

>  <SCORE.INTER>
-16.7268

>  <SCORE.INTER.CONST>
1

>  <SCORE.INTER.POLAR>
0

>  <SCORE.INTER.ROT>
1

>  <SCORE.INTER.SOLV>
20.3086

>  <SCORE.INTER.VDW>
-22.1874

>  <SCORE.INTER.norm>
-1.28668

>  <SCORE.INTRA>
-0.156385

>  <SCORE.INTRA.DIHEDRAL>
0.0296486

>  <SCORE.INTRA.DIHEDRAL.0>
1.66609

>  <SCORE.INTRA.POLAR>
0

>  <SCORE.INTRA.POLAR.0>
0

>  <SCORE.INTRA.REPUL>
0

>  <SCORE.INTRA.REPUL.0>
0

>  <SCORE.INTRA.SOLV>
-0.980885

>  <SCORE.INTRA.SOLV.lig_0>
-45.868

>  <SCORE.INTRA.VDW>
0.319233

>  <SCORE.INTRA.VDW.0>
-0.397919

>  <SCORE.INTRA.norm>
-0.0120296

>  <SCORE.RESTR>
0

>  <SCORE.RESTR.CAVITY>
0

>  <SCORE.RESTR.norm>
0

>  <SCORE.SYSTEM>
0

>  <SCORE.SYSTEM.CONST>
0

>  <SCORE.SYSTEM.DIHEDRAL>
0

>  <SCORE.SYSTEM.SOLV>
0

>  <SCORE.SYSTEM.norm>
0

>  <SCORE.heavy>
13

>  <SCORE.norm>
-1.29871

>  <RMSD>
2.707

$$$$
ligand
 OpenBabel02271912143D
libRbt.so/2013.1/901 2013/11/27
 13 14  0  0  0  0  0  0  0  0999 V2000
   -5.5383  -34.8738  -42.9233 N   0  0  0  0  0  0  0  0  0  0  0  0
   -5.8515  -35.0312  -44.2469 C   0  0  0  0  0  0  0  0  0  0  0  0
   -7.0343  -35.6335  -44.5792 N   0  0  0  0  0  0  0  0  0  0  0  0
   -5.0306  -34.6095  -45.2093 N   0  0  0  0  0  0  0  0  0  0  0  0
   -3.8457  -34.0068  -44.9138 C   0  0  0  0  0  0  0  0  0  0  0  0
   -3.4786  -33.8263  -43.5622 C   0  0  0  0  0  0  0  0  0  0  0  0
   -4.3697  -34.2801  -42.5522 C   0  0  0  0  0  0  0  0  0  0  0  0
   -4.0990  -34.1436  -41.3848 O   0  0  0  0  0  0  0  0  0  0  0  0
   -2.1761  -33.1680  -43.5699 C   0  0  0  0  0  0  0  0  0  0  0  0
   -1.8415  -32.9874  -44.8598 C   0  0  0  0  0  0  0  0  0  0  0  0
   -2.8386  -33.4883  -45.6702 N   0  0  0  0  0  0  0  0  0  0  0  0
   -1.3624  -32.7759  -42.3633 C   0  0  0  0  0  0  0  0  0  0  0  0
    0.0306  -32.5231  -42.7844 N   0  0  0  0  0  0  0  0  0  0  0  0
  1  2  1  0  0  0  0
  1  7  1  0  0  0  0
  2  3  1  0  0  0  0
  2  4  2  0  0  0  0
  4  5  1  0  0  0  0
  5  6  2  0  0  0  0
  5 11  1  0  0  0  0
  6  7  1  0  0  0  0
  6  9  1  0  0  0  0
  7  8  2  0  0  0  0
  9 10  2  0  0  0  0
  9 12  1  0  0  0  0
 10 11  1  0  0  0  0
 12 13  1  0  0  0  0
M  END
>  <CHROM.1>
162.99076256,-3.65768308,-33.95655176,-43.69784770,2.97009127,-0.44076370
-1.55569060

>  <Name>
ligand

>  <RI>
0

>  <Rbt.Current_Directory>
/home/itssahil/PROJECTS/Mol_Feturizer/Test_systems_manuscript/rnas/3fu2

>  <Rbt.Executable>
rbdock ($Id: //depot/dev/client3/rdock/2013.1/src/exe/rbdock.cxx#4 $)

>  <Rbt.Library>
libRbt.so (2013.1, Build901 2013/11/27)

>  <Rbt.Parameter_File>
/export/apps/rDock/src/rDock_2013.1_src/data/scripts/dock_solv.prm

>  <Rbt.Receptor>
prm/blind_docking_80.prm

>  <SCORE>
-16.8472

>  <SCORE.INTER>
-16.7007

>  <SCORE.INTER.CONST>
1

>  <SCORE.INTER.POLAR>
0

>  <SCORE.INTER.ROT>
1

>  <SCORE.INTER.SOLV>
20.3641

>  <SCORE.INTER.VDW>
-22.1885

>  <SCORE.INTER.norm>
-1.28467

>  <SCORE.INTRA>
-0.146442

>  <SCORE.INTRA.DIHEDRAL>
0.0280896

>  <SCORE.INTRA.DIHEDRAL.0>
1.66609

>  <SCORE.INTRA.POLAR>
0

>  <SCORE.INTRA.POLAR.0>
0

>  <SCORE.INTRA.REPUL>
0

>  <SCORE.INTRA.REPUL.0>
0

>  <SCORE.INTRA.SOLV>
-0.98029

>  <SCORE.INTRA.SOLV.lig_0>
-45.868

>  <SCORE.INTRA.VDW>
0.329658

>  <SCORE.INTRA.VDW.0>
-0.397919

>  <SCORE.INTRA.norm>
-0.0112648

>  <SCORE.RESTR>
0

>  <SCORE.RESTR.CAVITY>
0

>  <SCORE.RESTR.norm>
0

>  <SCORE.SYSTEM>
0

>  <SCORE.SYSTEM.CONST>
0

>  <SCORE.SYSTEM.DIHEDRAL>
0

>  <SCORE.SYSTEM.SOLV>
0

>  <SCORE.SYSTEM.norm>
0

>  <SCORE.heavy>
13

>  <SCORE.norm>
-1.29594

>  <RMSD>
2.707

$$$$
ligand
 OpenBabel02271912143D
libRbt.so/2013.1/901 2013/11/27
 13 14  0  0  0  0  0  0  0  0999 V2000
   -5.5299  -34.8862  -42.9600 N   0  0  0  0  0  0  0  0  0  0  0  0
   -5.8100  -35.0432  -44.2911 C   0  0  0  0  0  0  0  0  0  0  0  0
   -6.9775  -35.6581  -44.6527 N   0  0  0  0  0  0  0  0  0  0  0  0
   -4.9716  -34.6091  -45.2327 N   0  0  0  0  0  0  0  0  0  0  0  0
   -3.8011  -33.9936  -44.9078 C   0  0  0  0  0  0  0  0  0  0  0  0
   -3.4680  -33.8130  -43.5474 C   0  0  0  0  0  0  0  0  0  0  0  0
   -4.3772  -34.2801  -42.5599 C   0  0  0  0  0  0  0  0  0  0  0  0
   -4.1357  -34.1440  -41.3860 O   0  0  0  0  0  0  0  0  0  0  0  0
   -2.1734  -33.1397  -43.5225 C   0  0  0  0  0  0  0  0  0  0  0  0
   -1.8106  -32.9514  -44.8038 C   0  0  0  0  0  0  0  0  0  0  0  0
   -2.7825  -33.4613  -45.6387 N   0  0  0  0  0  0  0  0  0  0  0  0
   -1.3929  -32.7418  -42.2960 C   0  0  0  0  0  0  0  0  0  0  0  0
    0.0409  -32.6664  -42.6423 N   0  0  0  0  0  0  0  0  0  0  0  0
  1  2  1  0  0  0  0
  1  7  1  0  0  0  0
  2  3  1  0  0  0  0
  2  4  2  0  0  0  0
  4  5  1  0  0  0  0
  5  6  2  0  0  0  0
  5 11  1  0  0  0  0
  6  7  1  0  0  0  0
  6  9  1  0  0  0  0
  7  8  2  0  0  0  0
  9 10  2  0  0  0  0
  9 12  1  0  0  0  0
 10 11  1  0  0  0  0
 12 13  1  0  0  0  0
M  END
>  <CHROM.1>
154.69896500,-3.63949414,-33.96074987,-43.68417671,2.94150936,-0.44027387
-1.55775334

>  <Name>
ligand

>  <RI>
0

>  <Rbt.Current_Directory>
/home/itssahil/PROJECTS/Mol_Feturizer/Test_systems_manuscript/rnas/3fu2

>  <Rbt.Executable>
rbdock ($Id: //depot/dev/client3/rdock/2013.1/src/exe/rbdock.cxx#4 $)

>  <Rbt.Library>
libRbt.so (2013.1, Build901 2013/11/27)

>  <Rbt.Parameter_File>
/export/apps/rDock/src/rDock_2013.1_src/data/scripts/dock_solv.prm

>  <Rbt.Receptor>
prm/pocket_docking_2.prm

>  <SCORE>
-16.8567

>  <SCORE.INTER>
-16.6599

>  <SCORE.INTER.CONST>
1

>  <SCORE.INTER.POLAR>
0

>  <SCORE.INTER.ROT>
1

>  <SCORE.INTER.SOLV>
20.1692

>  <SCORE.INTER.VDW>
-22.0963

>  <SCORE.INTER.norm>
-1.28153

>  <SCORE.INTRA>
-0.196729

>  <SCORE.INTRA.DIHEDRAL>
0.0317083

>  <SCORE.INTRA.DIHEDRAL.0>
1.66609

>  <SCORE.INTRA.POLAR>
0

>  <SCORE.INTRA.POLAR.0>
0

>  <SCORE.INTRA.REPUL>
0

>  <SCORE.INTRA.REPUL.0>
0

>  <SCORE.INTRA.SOLV>
-0.982294

>  <SCORE.INTRA.SOLV.lig_0>
-45.868

>  <SCORE.INTRA.VDW>
0.278564

>  <SCORE.INTRA.VDW.0>
-0.397919

>  <SCORE.INTRA.norm>
-0.015133

>  <SCORE.RESTR>
0

>  <SCORE.RESTR.CAVITY>
0

>  <SCORE.RESTR.norm>
0

>  <SCORE.SYSTEM>
0

>  <SCORE.SYSTEM.CONST>
0

>  <SCORE.SYSTEM.DIHEDRAL>
0

>  <SCORE.SYSTEM.SOLV>
0

>  <SCORE.SYSTEM.norm>
0

>  <SCORE.heavy>
13

>  <SCORE.norm>
-1.29667

>  <RMSD>
2.707

$$$$
ligand
 OpenBabel02271912143D
libRbt.so/2013.1/901 2013/11/27
 13 14  0  0  0  0  0  0  0  0999 V2000
   -5.5294  -34.8843  -42.9547 N   0  0  0  0  0  0  0  0  0  0  0  0
   -5.8251  -35.0333  -44.2833 C   0  0  0  0  0  0  0  0  0  0  0  0
   -7.0000  -35.6401  -44.6349 N   0  0  0  0  0  0  0  0  0  0  0  0
   -4.9948  -34.5992  -45.2320 N   0  0  0  0  0  0  0  0  0  0  0  0
   -3.8174  -33.9917  -44.9171 C   0  0  0  0  0  0  0  0  0  0  0  0
   -3.4683  -33.8195  -43.5597 C   0  0  0  0  0  0  0  0  0  0  0  0
   -4.3691  -34.2865  -42.5644 C   0  0  0  0  0  0  0  0  0  0  0  0
   -4.1138  -34.1574  -41.3927 O   0  0  0  0  0  0  0  0  0  0  0  0
   -2.1698  -33.1534  -43.5460 C   0  0  0  0  0  0  0  0  0  0  0  0
   -1.8203  -32.9608  -44.8302 C   0  0  0  0  0  0  0  0  0  0  0  0
   -2.8041  -33.4613  -45.6568 N   0  0  0  0  0  0  0  0  0  0  0  0
   -1.3737  -32.7657  -42.3263 C   0  0  0  0  0  0  0  0  0  0  0  0
    0.0433  -32.6016  -42.7095 N   0  0  0  0  0  0  0  0  0  0  0  0
  1  2  1  0  0  0  0
  1  7  1  0  0  0  0
  2  3  1  0  0  0  0
  2  4  2  0  0  0  0
  4  5  1  0  0  0  0
  5  6  2  0  0  0  0
  5 11  1  0  0  0  0
  6  7  1  0  0  0  0
  6  9  1  0  0  0  0
  7  8  2  0  0  0  0
  9 10  2  0  0  0  0
  9 12  1  0  0  0  0
 10 11  1  0  0  0  0
 12 13  1  0  0  0  0
M  END
>  <CHROM.1>
158.72405151,-3.64319380,-33.95792466,-43.69703202,2.95519879,-0.44051022
-1.55082218

>  <Name>
ligand

>  <RI>
0

>  <Rbt.Current_Directory>
/home/itssahil/PROJECTS/Mol_Feturizer/Test_systems_manuscript/rnas/3fu2

>  <Rbt.Executable>
rbdock ($Id: //depot/dev/client3/rdock/2013.1/src/exe/rbdock.cxx#4 $)

>  <Rbt.Library>
libRbt.so (2013.1, Build901 2013/11/27)

>  <Rbt.Parameter_File>
/export/apps/rDock/src/rDock_2013.1_src/data/scripts/dock_solv.prm

>  <Rbt.Receptor>
prm/pocket_docking_2.prm

>  <SCORE>
-16.8774

>  <SCORE.INTER>
-16.7153

>  <SCORE.INTER.CONST>
1

>  <SCORE.INTER.POLAR>
0

>  <SCORE.INTER.ROT>
1

>  <SCORE.INTER.SOLV>
20.2386

>  <SCORE.INTER.VDW>
-22.1564

>  <SCORE.INTER.norm>
-1.28579

>  <SCORE.INTRA>
-0.162099

>  <SCORE.INTRA.DIHEDRAL>
0.030336

>  <SCORE.INTRA.DIHEDRAL.0>
1.66609

>  <SCORE.INTRA.POLAR>
0

>  <SCORE.INTRA.POLAR.0>
0

>  <SCORE.INTRA.REPUL>
0

>  <SCORE.INTRA.REPUL.0>
0

>  <SCORE.INTRA.SOLV>
-0.981233

>  <SCORE.INTRA.SOLV.lig_0>
-45.868

>  <SCORE.INTRA.VDW>
0.313349

>  <SCORE.INTRA.VDW.0>
-0.397919

>  <SCORE.INTRA.norm>
-0.0124692

>  <SCORE.RESTR>
0

>  <SCORE.RESTR.CAVITY>
0

>  <SCORE.RESTR.norm>
0

>  <SCORE.SYSTEM>
0

>  <SCORE.SYSTEM.CONST>
0

>  <SCORE.SYSTEM.DIHEDRAL>
0

>  <SCORE.SYSTEM.SOLV>
0

>  <SCORE.SYSTEM.norm>
0

>  <SCORE.heavy>
13

>  <SCORE.norm>
-1.29826

>  <RMSD>
2.707

$$$$
ligand
 OpenBabel02271912143D
libRbt.so/2013.1/901 2013/11/27
 13 14  0  0  0  0  0  0  0  0999 V2000
   -5.5480  -34.8691  -42.9242 N   0  0  0  0  0  0  0  0  0  0  0  0
   -5.8460  -35.0398  -44.2497 C   0  0  0  0  0  0  0  0  0  0  0  0
   -7.0207  -35.6536  -44.5893 N   0  0  0  0  0  0  0  0  0  0  0  0
   -5.0180  -34.6200  -45.2069 N   0  0  0  0  0  0  0  0  0  0  0  0
   -3.8408  -34.0061  -44.9040 C   0  0  0  0  0  0  0  0  0  0  0  0
   -3.4894  -33.8116  -43.5502 C   0  0  0  0  0  0  0  0  0  0  0  0
   -4.3877  -34.2636  -42.5459 C   0  0  0  0  0  0  0  0  0  0  0  0
   -4.1304  -34.1153  -41.3768 O   0  0  0  0  0  0  0  0  0  0  0  0
   -2.1917  -33.1437  -43.5497 C   0  0  0  0  0  0  0  0  0  0  0  0
   -1.8448  -32.9714  -44.8375 C   0  0  0  0  0  0  0  0  0  0  0  0
   -2.8295  -33.4864  -45.6541 N   0  0  0  0  0  0  0  0  0  0  0  0
   -1.3938  -32.7355  -42.3379 C   0  0  0  0  0  0  0  0  0  0  0  0
    0.0223  -32.5761  -42.7263 N   0  0  0  0  0  0  0  0  0  0  0  0
  1  2  1  0  0  0  0
  1  7  1  0  0  0  0
  2  3  1  0  0  0  0
  2  4  2  0  0  0  0
  4  5  1  0  0  0  0
  5  6  2  0  0  0  0
  5 11  1  0  0  0  0
  6  7  1  0  0  0  0
  6  9  1  0  0  0  0
  7  8  2  0  0  0  0
  9 10  2  0  0  0  0
  9 12  1  0  0  0  0
 10 11  1  0  0  0  0
 12 13  1  0  0  0  0
M  END
>  <CHROM.1>
158.71466483,-3.66433460,-33.95245440,-43.68496109,2.95727437,-0.44171135
-1.56603447

>  <Name>
ligand

>  <RI>
0

>  <Rbt.Current_Directory>
/home/itssahil/PROJECTS/Mol_Feturizer/Test_systems_manuscript/rnas/3fu2

>  <Rbt.Executable>
rbdock ($Id: //depot/dev/client3/rdock/2013.1/src/exe/rbdock.cxx#4 $)

>  <Rbt.Library>
libRbt.so (2013.1, Build901 2013/11/27)

>  <Rbt.Parameter_File>
/export/apps/rDock/src/rDock_2013.1_src/data/scripts/dock_solv.prm

>  <Rbt.Receptor>
prm/pocket_docking_2.prm

>  <SCORE>
-16.8759

>  <SCORE.INTER>
-16.7137

>  <SCORE.INTER.CONST>
1

>  <SCORE.INTER.POLAR>
0

>  <SCORE.INTER.ROT>
1

>  <SCORE.INTER.SOLV>
20.3135

>  <SCORE.INTER.VDW>
-22.1803

>  <SCORE.INTER.norm>
-1.28567

>  <SCORE.INTRA>
-0.162137

>  <SCORE.INTRA.DIHEDRAL>
0.0303401

>  <SCORE.INTRA.DIHEDRAL.0>
1.66609

>  <SCORE.INTRA.POLAR>
0

>  <SCORE.INTRA.POLAR.0>
0

>  <SCORE.INTRA.REPUL>
0

>  <SCORE.INTRA.REPUL.0>
0

>  <SCORE.INTRA.SOLV>
-0.981235

>  <SCORE.INTRA.SOLV.lig_0>
-45.868

>  <SCORE.INTRA.VDW>
0.313311

>  <SCORE.INTRA.VDW.0>
-0.397919

>  <SCORE.INTRA.norm>
-0.012472

>  <SCORE.RESTR>
0

>  <SCORE.RESTR.CAVITY>
0

>  <SCORE.RESTR.norm>
0

>  <SCORE.SYSTEM>
0

>  <SCORE.SYSTEM.CONST>
0

>  <SCORE.SYSTEM.DIHEDRAL>
0

>  <SCORE.SYSTEM.SOLV>
0

>  <SCORE.SYSTEM.norm>
0

>  <SCORE.heavy>
13

>  <SCORE.norm>
-1.29814

>  <RMSD>
2.707

$$$$
ligand
 OpenBabel02271912143D
libRbt.so/2013.1/901 2013/11/27
 13 14  0  0  0  0  0  0  0  0999 V2000
   -5.5273  -34.8767  -42.9623 N   0  0  0  0  0  0  0  0  0  0  0  0
   -5.8191  -35.0334  -44.2909 C   0  0  0  0  0  0  0  0  0  0  0  0
   -6.9922  -35.6436  -44.6424 N   0  0  0  0  0  0  0  0  0  0  0  0
   -4.9867  -34.6035  -45.2396 N   0  0  0  0  0  0  0  0  0  0  0  0
   -3.8109  -33.9929  -44.9249 C   0  0  0  0  0  0  0  0  0  0  0  0
   -3.4658  -33.8128  -43.5674 C   0  0  0  0  0  0  0  0  0  0  0  0
   -4.3688  -34.2753  -42.5721 C   0  0  0  0  0  0  0  0  0  0  0  0
   -4.1169  -34.1395  -41.4004 O   0  0  0  0  0  0  0  0  0  0  0  0
   -2.1681  -33.1450  -43.5538 C   0  0  0  0  0  0  0  0  0  0  0  0
   -1.8152  -32.9591  -44.8381 C   0  0  0  0  0  0  0  0  0  0  0  0
   -2.7961  -33.4654  -45.6646 N   0  0  0  0  0  0  0  0  0  0  0  0
   -1.3758  -32.7497  -42.3341 C   0  0  0  0  0  0  0  0  0  0  0  0
    0.0441  -32.5984  -42.7115 N   0  0  0  0  0  0  0  0  0  0  0  0
  1  2  1  0  0  0  0
  1  7  1  0  0  0  0
  2  3  1  0  0  0  0
  2  4  2  0  0  0  0
  4  5  1  0  0  0  0
  5  6  2  0  0  0  0
  5 11  1  0  0  0  0
  6  7  1  0  0  0  0
  6  9  1  0  0  0  0
  7  8  2  0  0  0  0
  9 10  2  0  0  0  0
  9 12  1  0  0  0  0
 10 11  1  0  0  0  0
 12 13  1  0  0  0  0
M  END
>  <CHROM.1>
158.19407676,-3.63993723,-33.95318020,-43.70427180,2.95194745,-0.44096223
-1.55726587

>  <Name>
ligand

>  <RI>
0

>  <Rbt.Current_Directory>
/home/itssahil/PROJECTS/Mol_Feturizer/Test_systems_manuscript/rnas/3fu2

>  <Rbt.Executable>
rbdock ($Id: //depot/dev/client3/rdock/2013.1/src/exe/rbdock.cxx#4 $)

>  <Rbt.Library>
libRbt.so (2013.1, Build901 2013/11/27)

>  <Rbt.Parameter_File>
/export/apps/rDock/src/rDock_2013.1_src/data/scripts/dock_solv.prm

>  <Rbt.Receptor>
prm/pocket_docking_4.prm

>  <SCORE>
-16.8396

>  <SCORE.INTER>
-16.6754

>  <SCORE.INTER.CONST>
1

>  <SCORE.INTER.POLAR>
0

>  <SCORE.INTER.ROT>
1

>  <SCORE.INTER.SOLV>
20.2444

>  <SCORE.INTER.VDW>
-22.1317

>  <SCORE.INTER.norm>
-1.28272

>  <SCORE.INTRA>
-0.164229

>  <SCORE.INTRA.DIHEDRAL>
0.0305599

>  <SCORE.INTRA.DIHEDRAL.0>
1.66609

>  <SCORE.INTRA.POLAR>
0

>  <SCORE.INTRA.POLAR.0>
0

>  <SCORE.INTRA.REPUL>
0

>  <SCORE.INTRA.REPUL.0>
0

>  <SCORE.INTRA.SOLV>
-0.981363

>  <SCORE.INTRA.SOLV.lig_0>
-45.868

>  <SCORE.INTRA.VDW>
0.311172

>  <SCORE.INTRA.VDW.0>
-0.397919

>  <SCORE.INTRA.norm>
-0.012633

>  <SCORE.RESTR>
0

>  <SCORE.RESTR.CAVITY>
0

>  <SCORE.RESTR.norm>
0

>  <SCORE.SYSTEM>
0

>  <SCORE.SYSTEM.CONST>
0

>  <SCORE.SYSTEM.DIHEDRAL>
0

>  <SCORE.SYSTEM.SOLV>
0

>  <SCORE.SYSTEM.norm>
0

>  <SCORE.heavy>
13

>  <SCORE.norm>
-1.29535

>  <RMSD>
2.707

$$$$
ligand
 OpenBabel02271912143D
libRbt.so/2013.1/901 2013/11/27
 13 14  0  0  0  0  0  0  0  0999 V2000
   -5.5119  -34.8967  -42.9914 N   0  0  0  0  0  0  0  0  0  0  0  0
   -5.8044  -35.0567  -44.3194 C   0  0  0  0  0  0  0  0  0  0  0  0
   -6.9767  -35.6697  -44.6688 N   0  0  0  0  0  0  0  0  0  0  0  0
   -4.9735  -34.6273  -45.2697 N   0  0  0  0  0  0  0  0  0  0  0  0
   -3.7986  -34.0138  -44.9570 C   0  0  0  0  0  0  0  0  0  0  0  0
   -3.4528  -33.8303  -43.6002 C   0  0  0  0  0  0  0  0  0  0  0  0
   -4.3542  -34.2924  -42.6033 C   0  0  0  0  0  0  0  0  0  0  0  0
   -4.1018  -34.1536  -41.4320 O   0  0  0  0  0  0  0  0  0  0  0  0
   -2.1564  -33.1601  -43.5889 C   0  0  0  0  0  0  0  0  0  0  0  0
   -1.8047  -32.9762  -44.8738 C   0  0  0  0  0  0  0  0  0  0  0  0
   -2.7854  -33.4860  -45.6986 N   0  0  0  0  0  0  0  0  0  0  0  0
   -1.3639  -32.7608  -42.3706 C   0  0  0  0  0  0  0  0  0  0  0  0
    0.0364  -32.5112  -42.7686 N   0  0  0  0  0  0  0  0  0  0  0  0
  1  2  1  0  0  0  0
  1  7  1  0  0  0  0
  2  3  1  0  0  0  0
  2  4  2  0  0  0  0
  4  5  1  0  0  0  0
  5  6  2  0  0  0  0
  5 11  1  0  0  0  0
  6  7  1  0  0  0  0
  6  9  1  0  0  0  0
  7  8  2  0  0  0  0
  9 10  2  0  0  0  0
  9 12  1  0  0  0  0
 10 11  1  0  0  0  0
 12 13  1  0  0  0  0
M  END
>  <CHROM.1>
162.30946561,-3.62838511,-33.96342260,-43.73819395,2.95395803,-0.44902344
-1.56198055

>  <Name>
ligand

>  <RI>
0

>  <Rbt.Current_Directory>
/home/itssahil/PROJECTS/Mol_Feturizer/Test_systems_manuscript/rnas/3fu2

>  <Rbt.Executable>
rbdock ($Id: //depot/dev/client3/rdock/2013.1/src/exe/rbdock.cxx#4 $)

>  <Rbt.Library>
libRbt.so (2013.1, Build901 2013/11/27)

>  <Rbt.Parameter_File>
/export/apps/rDock/src/rDock_2013.1_src/data/scripts/dock_solv.prm

>  <Rbt.Receptor>
prm/pocket_docking_7.prm

>  <SCORE>
-16.8083

>  <SCORE.INTER>
-16.6596

>  <SCORE.INTER.CONST>
1

>  <SCORE.INTER.POLAR>
0

>  <SCORE.INTER.ROT>
1

>  <SCORE.INTER.SOLV>
20.2294

>  <SCORE.INTER.VDW>
-22.1162

>  <SCORE.INTER.norm>
-1.28151

>  <SCORE.INTRA>
-0.148747

>  <SCORE.INTRA.DIHEDRAL>
0.0284989

>  <SCORE.INTRA.DIHEDRAL.0>
1.66609

>  <SCORE.INTRA.POLAR>
0

>  <SCORE.INTRA.POLAR.0>
0

>  <SCORE.INTRA.REPUL>
0

>  <SCORE.INTRA.REPUL.0>
0

>  <SCORE.INTRA.SOLV>
-0.980427

>  <SCORE.INTRA.SOLV.lig_0>
-45.868

>  <SCORE.INTRA.VDW>
0.327217

>  <SCORE.INTRA.VDW.0>
-0.397919

>  <SCORE.INTRA.norm>
-0.0114421

>  <SCORE.RESTR>
0

>  <SCORE.RESTR.CAVITY>
0

>  <SCORE.RESTR.norm>
0

>  <SCORE.SYSTEM>
0

>  <SCORE.SYSTEM.CONST>
0

>  <SCORE.SYSTEM.DIHEDRAL>
0

>  <SCORE.SYSTEM.SOLV>
0

>  <SCORE.SYSTEM.norm>
0

>  <SCORE.heavy>
13

>  <SCORE.norm>
-1.29295

>  <RMSD>
2.707

$$$$
ligand
 OpenBabel02271912143D
libRbt.so/2013.1/901 2013/11/27
 13 14  0  0  0  0  0  0  0  0999 V2000
   -5.5293  -34.8807  -42.9569 N   0  0  0  0  0  0  0  0  0  0  0  0
   -5.8235  -35.0339  -44.2853 C   0  0  0  0  0  0  0  0  0  0  0  0
   -6.9978  -35.6422  -44.6363 N   0  0  0  0  0  0  0  0  0  0  0  0
   -4.9923  -34.6026  -45.2345 N   0  0  0  0  0  0  0  0  0  0  0  0
   -3.8154  -33.9938  -44.9202 C   0  0  0  0  0  0  0  0  0  0  0  0
   -3.4679  -33.8172  -43.5629 C   0  0  0  0  0  0  0  0  0  0  0  0
   -4.3696  -34.2813  -42.5672 C   0  0  0  0  0  0  0  0  0  0  0  0
   -4.1157  -34.1484  -41.3956 O   0  0  0  0  0  0  0  0  0  0  0  0
   -2.1696  -33.1507  -43.5499 C   0  0  0  0  0  0  0  0  0  0  0  0
   -1.8186  -32.9620  -44.8343 C   0  0  0  0  0  0  0  0  0  0  0  0
   -2.8014  -33.4655  -45.6604 N   0  0  0  0  0  0  0  0  0  0  0  0
   -1.3749  -32.7589  -42.3305 C   0  0  0  0  0  0  0  0  0  0  0  0
    0.0436  -32.6022  -42.7113 N   0  0  0  0  0  0  0  0  0  0  0  0
  1  2  1  0  0  0  0
  1  7  1  0  0  0  0
  2  3  1  0  0  0  0
  2  4  2  0  0  0  0
  4  5  1  0  0  0  0
  5  6  2  0  0  0  0
  5 11  1  0  0  0  0
  6  7  1  0  0  0  0
  6  9  1  0  0  0  0
  7  8  2  0  0  0  0
  9 10  2  0  0  0  0
  9 12  1  0  0  0  0
 10 11  1  0  0  0  0
 12 13  1  0  0  0  0
M  END
>  <CHROM.1>
158.44395662,-3.64247046,-33.95665066,-43.69990849,2.95385609,-0.44038529
-1.55431997

>  <Name>
ligand

>  <RI>
0

>  <Rbt.Current_Directory>
/home/itssahil/PROJECTS/Mol_Feturizer/Test_systems_manuscript/rnas/3fu2

>  <Rbt.Executable>
rbdock ($Id: //depot/dev/client3/rdock/2013.1/src/exe/rbdock.cxx#4 $)

>  <Rbt.Library>
libRbt.so (2013.1, Build901 2013/11/27)

>  <Rbt.Parameter_File>
/export/apps/rDock/src/rDock_2013.1_src/data/scripts/dock_solv.prm

>  <Rbt.Receptor>
prm/pocket_docking_8.prm

>  <SCORE>
-16.8759

>  <SCORE.INTER>
-16.7127

>  <SCORE.INTER.CONST>
1

>  <SCORE.INTER.POLAR>
0

>  <SCORE.INTER.ROT>
1

>  <SCORE.INTER.SOLV>
20.2484

>  <SCORE.INTER.VDW>
-22.1579

>  <SCORE.INTER.norm>
-1.28559

>  <SCORE.INTRA>
-0.16322

>  <SCORE.INTRA.DIHEDRAL>
0.0304559

>  <SCORE.INTRA.DIHEDRAL.0>
1.66609

>  <SCORE.INTRA.POLAR>
0

>  <SCORE.INTRA.POLAR.0>
0

>  <SCORE.INTRA.REPUL>
0

>  <SCORE.INTRA.REPUL.0>
0

>  <SCORE.INTRA.SOLV>
-0.981301

>  <SCORE.INTRA.SOLV.lig_0>
-45.868

>  <SCORE.INTRA.VDW>
0.312202

>  <SCORE.INTRA.VDW.0>
-0.397919

>  <SCORE.INTRA.norm>
-0.0125554

>  <SCORE.RESTR>
0

>  <SCORE.RESTR.CAVITY>
0

>  <SCORE.RESTR.norm>
0

>  <SCORE.SYSTEM>
0

>  <SCORE.SYSTEM.CONST>
0

>  <SCORE.SYSTEM.DIHEDRAL>
0

>  <SCORE.SYSTEM.SOLV>
0

>  <SCORE.SYSTEM.norm>
0

>  <SCORE.heavy>
13

>  <SCORE.norm>
-1.29815

>  <RMSD>
2.707

$$$$
ligand
 OpenBabel02271912143D
libRbt.so/2013.1/901 2013/11/27
 13 14  0  0  0  0  0  0  0  0999 V2000
   -5.5425  -34.8748  -42.9212 N   0  0  0  0  0  0  0  0  0  0  0  0
   -5.8415  -35.0430  -44.2468 C   0  0  0  0  0  0  0  0  0  0  0  0
   -7.0162  -35.6567  -44.5867 N   0  0  0  0  0  0  0  0  0  0  0  0
   -5.0146  -34.6208  -45.2038 N   0  0  0  0  0  0  0  0  0  0  0  0
   -3.8374  -34.0069  -44.9007 C   0  0  0  0  0  0  0  0  0  0  0  0
   -3.4850  -33.8150  -43.5467 C   0  0  0  0  0  0  0  0  0  0  0  0
   -4.3823  -34.2695  -42.5426 C   0  0  0  0  0  0  0  0  0  0  0  0
   -4.1241  -34.1235  -41.3735 O   0  0  0  0  0  0  0  0  0  0  0  0
   -2.1877  -33.1465  -43.5459 C   0  0  0  0  0  0  0  0  0  0  0  0
   -1.8419  -32.9714  -44.8337 C   0  0  0  0  0  0  0  0  0  0  0  0
   -2.8270  -33.4853  -45.6505 N   0  0  0  0  0  0  0  0  0  0  0  0
   -1.3889  -32.7403  -42.3340 C   0  0  0  0  0  0  0  0  0  0  0  0
    0.0272  -32.5821  -42.7226 N   0  0  0  0  0  0  0  0  0  0  0  0
  1  2  1  0  0  0  0
  1  7  1  0  0  0  0
  2  3  1  0  0  0  0
  2  4  2  0  0  0  0
  4  5  1  0  0  0  0
  5  6  2  0  0  0  0
  5 11  1  0  0  0  0
  6  7  1  0  0  0  0
  6  9  1  0  0  0  0
  7  8  2  0  0  0  0
  9 10  2  0  0  0  0
  9 12  1  0  0  0  0
 10 11  1  0  0  0  0
 12 13  1  0  0  0  0
M  END
>  <CHROM.1>
158.59956370,-3.65995200,-33.95590252,-43.68159037,2.95813892,-0.44204333
-1.56354566

>  <Name>
ligand

>  <RI>
0

>  <Rbt.Current_Directory>
/home/itssahil/PROJECTS/Mol_Feturizer/Test_systems_manuscript/rnas/3fu2

>  <Rbt.Executable>
rbdock ($Id: //depot/dev/client3/rdock/2013.1/src/exe/rbdock.cxx#4 $)

>  <Rbt.Library>
libRbt.so (2013.1, Build901 2013/11/27)

>  <Rbt.Parameter_File>
/export/apps/rDock/src/rDock_2013.1_src/data/scripts/dock_solv.prm

>  <Rbt.Receptor>
prm/pocket_docking_8.prm

>  <SCORE>
-16.883

>  <SCORE.INTER>
-16.7204

>  <SCORE.INTER.CONST>
1

>  <SCORE.INTER.POLAR>
0

>  <SCORE.INTER.ROT>
1

>  <SCORE.INTER.SOLV>
20.3025

>  <SCORE.INTER.VDW>
-22.1811

>  <SCORE.INTER.norm>
-1.28619

>  <SCORE.INTRA>
-0.162596

>  <SCORE.INTRA.DIHEDRAL>
0.0303897

>  <SCORE.INTRA.DIHEDRAL.0>
1.66609

>  <SCORE.INTRA.POLAR>
0

>  <SCORE.INTRA.POLAR.0>
0

>  <SCORE.INTRA.REPUL>
0

>  <SCORE.INTRA.REPUL.0>
0

>  <SCORE.INTRA.SOLV>
-0.981263

>  <SCORE.INTRA.SOLV.lig_0>
-45.868

>  <SCORE.INTRA.VDW>
0.31284

>  <SCORE.INTRA.VDW.0>
-0.397919

>  <SCORE.INTRA.norm>
-0.0125074

>  <SCORE.RESTR>
0

>  <SCORE.RESTR.CAVITY>
0

>  <SCORE.RESTR.norm>
0

>  <SCORE.SYSTEM>
0

>  <SCORE.SYSTEM.CONST>
0

>  <SCORE.SYSTEM.DIHEDRAL>
0

>  <SCORE.SYSTEM.SOLV>
0

>  <SCORE.SYSTEM.norm>
0

>  <SCORE.heavy>
13

>  <SCORE.norm>
-1.2987

>  <RMSD>
2.707

$$$$
ligand
 OpenBabel02271912143D
libRbt.so/2013.1/901 2013/11/27
 13 14  0  0  0  0  0  0  0  0999 V2000
   -5.5591  -34.8668  -42.9178 N   0  0  0  0  0  0  0  0  0  0  0  0
   -5.8642  -35.0194  -44.2438 C   0  0  0  0  0  0  0  0  0  0  0  0
   -7.0470  -35.6165  -44.5853 N   0  0  0  0  0  0  0  0  0  0  0  0
   -5.0355  -34.5981  -45.1996 N   0  0  0  0  0  0  0  0  0  0  0  0
   -3.8504  -34.0006  -44.8949 C   0  0  0  0  0  0  0  0  0  0  0  0
   -3.4914  -33.8251  -43.5404 C   0  0  0  0  0  0  0  0  0  0  0  0
   -4.3907  -34.2783  -42.5375 C   0  0  0  0  0  0  0  0  0  0  0  0
   -4.1271  -34.1459  -41.3679 O   0  0  0  0  0  0  0  0  0  0  0  0
   -2.1865  -33.1716  -43.5378 C   0  0  0  0  0  0  0  0  0  0  0  0
   -1.8428  -32.9888  -44.8251 C   0  0  0  0  0  0  0  0  0  0  0  0
   -2.8365  -33.4838  -45.6433 N   0  0  0  0  0  0  0  0  0  0  0  0
   -1.3793  -32.7857  -42.3249 C   0  0  0  0  0  0  0  0  0  0  0  0
    0.0243  -32.5690  -42.7307 N   0  0  0  0  0  0  0  0  0  0  0  0
  1  2  1  0  0  0  0
  1  7  1  0  0  0  0
  2  3  1  0  0  0  0
  2  4  2  0  0  0  0
  4  5  1  0  0  0  0
  5  6  2  0  0  0  0
  5 11  1  0  0  0  0
  6  7  1  0  0  0  0
  6  9  1  0  0  0  0
  7  8  2  0  0  0  0
  9 10  2  0  0  0  0
  9 12  1  0  0  0  0
 10 11  1  0  0  0  0
 12 13  1  0  0  0  0
M  END
>  <CHROM.1>
161.62664320,-3.66951653,-33.95692928,-43.67711648,2.96250254,-0.43508024
-1.55514687

>  <Name>
ligand

>  <RI>
0

>  <Rbt.Current_Directory>
/home/itssahil/PROJECTS/Mol_Feturizer/Test_systems_manuscript/rnas/3fu2

>  <Rbt.Executable>
rbdock ($Id: //depot/dev/client3/rdock/2013.1/src/exe/rbdock.cxx#4 $)

>  <Rbt.Library>
libRbt.so (2013.1, Build901 2013/11/27)

>  <Rbt.Parameter_File>
/export/apps/rDock/src/rDock_2013.1_src/data/scripts/dock_solv.prm

>  <Rbt.Receptor>
prm/blind_docking_100.prm

>  <SCORE>
-16.887

>  <SCORE.INTER>
-16.7359

>  <SCORE.INTER.CONST>
1

>  <SCORE.INTER.POLAR>
0

>  <SCORE.INTER.ROT>
1

>  <SCORE.INTER.SOLV>
20.3318

>  <SCORE.INTER.VDW>
-22.2012

>  <SCORE.INTER.norm>
-1.28737

>  <SCORE.INTRA>
-0.151136

>  <SCORE.INTRA.DIHEDRAL>
0.0288905

>  <SCORE.INTRA.DIHEDRAL.0>
1.66609

>  <SCORE.INTRA.POLAR>
0

>  <SCORE.INTRA.POLAR.0>
0

>  <SCORE.INTRA.REPUL>
0

>  <SCORE.INTRA.REPUL.0>
0

>  <SCORE.INTRA.SOLV>
-0.980569

>  <SCORE.INTRA.SOLV.lig_0>
-45.868

>  <SCORE.INTRA.VDW>
0.324703

>  <SCORE.INTRA.VDW.0>
-0.397919

>  <SCORE.INTRA.norm>
-0.0116259

>  <SCORE.RESTR>
0

>  <SCORE.RESTR.CAVITY>
0

>  <SCORE.RESTR.norm>
0

>  <SCORE.SYSTEM>
0

>  <SCORE.SYSTEM.CONST>
0

>  <SCORE.SYSTEM.DIHEDRAL>
0

>  <SCORE.SYSTEM.SOLV>
0

>  <SCORE.SYSTEM.norm>
0

>  <SCORE.heavy>
13

>  <SCORE.norm>
-1.299

>  <RMSD>
2.708

$$$$
ligand
 OpenBabel02271912143D
libRbt.so/2013.1/901 2013/11/27
 13 14  0  0  0  0  0  0  0  0999 V2000
   -5.5345  -34.8742  -42.9580 N   0  0  0  0  0  0  0  0  0  0  0  0
   -5.8271  -35.0296  -44.2866 C   0  0  0  0  0  0  0  0  0  0  0  0
   -7.0016  -35.6373  -44.6380 N   0  0  0  0  0  0  0  0  0  0  0  0
   -4.9942  -34.6008  -45.2354 N   0  0  0  0  0  0  0  0  0  0  0  0
   -3.8171  -33.9926  -44.9208 C   0  0  0  0  0  0  0  0  0  0  0  0
   -3.4712  -33.8140  -43.5633 C   0  0  0  0  0  0  0  0  0  0  0  0
   -4.3747  -34.2753  -42.5680 C   0  0  0  0  0  0  0  0  0  0  0  0
   -4.1222  -34.1406  -41.3963 O   0  0  0  0  0  0  0  0  0  0  0  0
   -2.1723  -33.1487  -43.5498 C   0  0  0  0  0  0  0  0  0  0  0  0
   -1.8194  -32.9627  -44.8341 C   0  0  0  0  0  0  0  0  0  0  0  0
   -2.8017  -33.4667  -45.6606 N   0  0  0  0  0  0  0  0  0  0  0  0
   -1.3788  -32.7555  -42.3301 C   0  0  0  0  0  0  0  0  0  0  0  0
    0.0427  -32.6151  -42.7062 N   0  0  0  0  0  0  0  0  0  0  0  0
  1  2  1  0  0  0  0
  1  7  1  0  0  0  0
  2  3  1  0  0  0  0
  2  4  2  0  0  0  0
  4  5  1  0  0  0  0
  5  6  2  0  0  0  0
  5 11  1  0  0  0  0
  6  7  1  0  0  0  0
  6  9  1  0  0  0  0
  7  8  2  0  0  0  0
  9 10  2  0  0  0  0
  9 12  1  0  0  0  0
 10 11  1  0  0  0  0
 12 13  1  0  0  0  0
M  END
>  <CHROM.1>
157.84218064,-3.64556304,-33.95459389,-43.70005505,2.95219788,-0.43850635
-1.55628274

>  <Name>
ligand

>  <RI>
0

>  <Rbt.Current_Directory>
/home/itssahil/PROJECTS/Mol_Feturizer/Test_systems_manuscript/rnas/3fu2

>  <Rbt.Executable>
rbdock ($Id: //depot/dev/client3/rdock/2013.1/src/exe/rbdock.cxx#4 $)

>  <Rbt.Library>
libRbt.so (2013.1, Build901 2013/11/27)

>  <Rbt.Parameter_File>
/export/apps/rDock/src/rDock_2013.1_src/data/scripts/dock_solv.prm

>  <Rbt.Receptor>
prm/blind_docking_60.prm

>  <SCORE>
-16.8709

>  <SCORE.INTER>
-16.7052

>  <SCORE.INTER.CONST>
1

>  <SCORE.INTER.POLAR>
0

>  <SCORE.INTER.ROT>
1

>  <SCORE.INTER.SOLV>
20.2632

>  <SCORE.INTER.VDW>
-22.1579

>  <SCORE.INTER.norm>
-1.28502

>  <SCORE.INTRA>
-0.165664

>  <SCORE.INTRA.DIHEDRAL>
0.0307015

>  <SCORE.INTRA.DIHEDRAL.0>
1.66609

>  <SCORE.INTRA.POLAR>
0

>  <SCORE.INTRA.POLAR.0>
0

>  <SCORE.INTRA.REPUL>
0

>  <SCORE.INTRA.REPUL.0>
0

>  <SCORE.INTRA.SOLV>
-0.981452

>  <SCORE.INTRA.SOLV.lig_0>
-45.868

>  <SCORE.INTRA.VDW>
0.309711

>  <SCORE.INTRA.VDW.0>
-0.397919

>  <SCORE.INTRA.norm>
-0.0127434

>  <SCORE.RESTR>
0

>  <SCORE.RESTR.CAVITY>
0

>  <SCORE.RESTR.norm>
0

>  <SCORE.SYSTEM>
0

>  <SCORE.SYSTEM.CONST>
0

>  <SCORE.SYSTEM.DIHEDRAL>
0

>  <SCORE.SYSTEM.SOLV>
0

>  <SCORE.SYSTEM.norm>
0

>  <SCORE.heavy>
13

>  <SCORE.norm>
-1.29776

>  <RMSD>
2.708

$$$$
ligand
 OpenBabel02271912143D
libRbt.so/2013.1/901 2013/11/27
 13 14  0  0  0  0  0  0  0  0999 V2000
   -5.5498  -34.8692  -42.9249 N   0  0  0  0  0  0  0  0  0  0  0  0
   -5.8457  -35.0414  -44.2506 C   0  0  0  0  0  0  0  0  0  0  0  0
   -7.0196  -35.6562  -44.5914 N   0  0  0  0  0  0  0  0  0  0  0  0
   -5.0164  -34.6221  -45.2069 N   0  0  0  0  0  0  0  0  0  0  0  0
   -3.8400  -34.0073  -44.9029 C   0  0  0  0  0  0  0  0  0  0  0  0
   -3.4908  -33.8113  -43.5487 C   0  0  0  0  0  0  0  0  0  0  0  0
   -4.3904  -34.2627  -42.5453 C   0  0  0  0  0  0  0  0  0  0  0  0
   -4.1351  -34.1132  -41.3760 O   0  0  0  0  0  0  0  0  0  0  0  0
   -2.1935  -33.1427  -43.5468 C   0  0  0  0  0  0  0  0  0  0  0  0
   -1.8446  -32.9715  -44.8343 C   0  0  0  0  0  0  0  0  0  0  0  0
   -2.8279  -33.4878  -45.6519 N   0  0  0  0  0  0  0  0  0  0  0  0
   -1.3976  -32.7328  -42.3342 C   0  0  0  0  0  0  0  0  0  0  0  0
    0.0227  -32.5954  -42.7155 N   0  0  0  0  0  0  0  0  0  0  0  0
  1  2  1  0  0  0  0
  1  7  1  0  0  0  0
  2  3  1  0  0  0  0
  2  4  2  0  0  0  0
  4  5  1  0  0  0  0
  5  6  2  0  0  0  0
  5 11  1  0  0  0  0
  6  7  1  0  0  0  0
  6  9  1  0  0  0  0
  7  8  2  0  0  0  0
  9 10  2  0  0  0  0
  9 12  1  0  0  0  0
 10 11  1  0  0  0  0
 12 13  1  0  0  0  0
M  END
>  <CHROM.1>
157.76191992,-3.66518229,-33.95416525,-43.68317712,2.95523047,-0.44083357
-1.56706008

>  <Name>
ligand

>  <RI>
0

>  <Rbt.Current_Directory>
/home/itssahil/PROJECTS/Mol_Feturizer/Test_systems_manuscript/rnas/3fu2

>  <Rbt.Executable>
rbdock ($Id: //depot/dev/client3/rdock/2013.1/src/exe/rbdock.cxx#4 $)

>  <Rbt.Library>
libRbt.so (2013.1, Build901 2013/11/27)

>  <Rbt.Parameter_File>
/export/apps/rDock/src/rDock_2013.1_src/data/scripts/dock_solv.prm

>  <Rbt.Receptor>
prm/blind_docking_80.prm

>  <SCORE>
-16.8798

>  <SCORE.INTER>
-16.7138

>  <SCORE.INTER.CONST>
1

>  <SCORE.INTER.POLAR>
0

>  <SCORE.INTER.ROT>
1

>  <SCORE.INTER.SOLV>
20.313

>  <SCORE.INTER.VDW>
-22.1802

>  <SCORE.INTER.norm>
-1.28568

>  <SCORE.INTRA>
-0.165993

>  <SCORE.INTRA.DIHEDRAL>
0.030733

>  <SCORE.INTRA.DIHEDRAL.0>
1.66609

>  <SCORE.INTRA.POLAR>
0

>  <SCORE.INTRA.POLAR.0>
0

>  <SCORE.INTRA.REPUL>
0

>  <SCORE.INTRA.REPUL.0>
0

>  <SCORE.INTRA.SOLV>
-0.981472

>  <SCORE.INTRA.SOLV.lig_0>
-45.868

>  <SCORE.INTRA.VDW>
0.309377

>  <SCORE.INTRA.VDW.0>
-0.397919

>  <SCORE.INTRA.norm>
-0.0127687

>  <SCORE.RESTR>
0

>  <SCORE.RESTR.CAVITY>
0

>  <SCORE.RESTR.norm>
0

>  <SCORE.SYSTEM>
0

>  <SCORE.SYSTEM.CONST>
0

>  <SCORE.SYSTEM.DIHEDRAL>
0

>  <SCORE.SYSTEM.SOLV>
0

>  <SCORE.SYSTEM.norm>
0

>  <SCORE.heavy>
13

>  <SCORE.norm>
-1.29844

>  <RMSD>
2.708

$$$$
ligand
 OpenBabel02271912143D
libRbt.so/2013.1/901 2013/11/27
 13 14  0  0  0  0  0  0  0  0999 V2000
   -5.5431  -34.8738  -42.9215 N   0  0  0  0  0  0  0  0  0  0  0  0
   -5.8422  -35.0419  -44.2470 C   0  0  0  0  0  0  0  0  0  0  0  0
   -7.0172  -35.6550  -44.5869 N   0  0  0  0  0  0  0  0  0  0  0  0
   -5.0150  -34.6203  -45.2040 N   0  0  0  0  0  0  0  0  0  0  0  0
   -3.8375  -34.0070  -44.9010 C   0  0  0  0  0  0  0  0  0  0  0  0
   -3.4849  -33.8152  -43.5471 C   0  0  0  0  0  0  0  0  0  0  0  0
   -4.3825  -34.2691  -42.5429 C   0  0  0  0  0  0  0  0  0  0  0  0
   -4.1242  -34.1232  -41.3738 O   0  0  0  0  0  0  0  0  0  0  0  0
   -2.1872  -33.1474  -43.5463 C   0  0  0  0  0  0  0  0  0  0  0  0
   -1.8413  -32.9726  -44.8341 C   0  0  0  0  0  0  0  0  0  0  0  0
   -2.8268  -33.4859  -45.6508 N   0  0  0  0  0  0  0  0  0  0  0  0
   -1.3883  -32.7416  -42.3344 C   0  0  0  0  0  0  0  0  0  0  0  0
    0.0305  -32.5994  -42.7196 N   0  0  0  0  0  0  0  0  0  0  0  0
  1  2  1  0  0  0  0
  1  7  1  0  0  0  0
  2  3  1  0  0  0  0
  2  4  2  0  0  0  0
  4  5  1  0  0  0  0
  5  6  2  0  0  0  0
  5 11  1  0  0  0  0
  6  7  1  0  0  0  0
  6  9  1  0  0  0  0
  7  8  2  0  0  0  0
  9 10  2  0  0  0  0
  9 12  1  0  0  0  0
 10 11  1  0  0  0  0
 12 13  1  0  0  0  0
M  END
>  <CHROM.1>
157.95067836,-3.65976933,-33.95724091,-43.68162502,2.95792088,-0.44051117
-1.56312397

>  <Name>
ligand

>  <RI>
0

>  <Rbt.Current_Directory>
/home/itssahil/PROJECTS/Mol_Feturizer/Test_systems_manuscript/rnas/3fu2

>  <Rbt.Executable>
rbdock ($Id: //depot/dev/client3/rdock/2013.1/src/exe/rbdock.cxx#4 $)

>  <Rbt.Library>
libRbt.so (2013.1, Build901 2013/11/27)

>  <Rbt.Parameter_File>
/export/apps/rDock/src/rDock_2013.1_src/data/scripts/dock_solv.prm

>  <Rbt.Receptor>
prm/blind_docking_80.prm

>  <SCORE>
-16.8819

>  <SCORE.INTER>
-16.7167

>  <SCORE.INTER.CONST>
1

>  <SCORE.INTER.POLAR>
0

>  <SCORE.INTER.ROT>
1

>  <SCORE.INTER.SOLV>
20.3181

>  <SCORE.INTER.VDW>
-22.1838

>  <SCORE.INTER.norm>
-1.2859

>  <SCORE.INTRA>
-0.16522

>  <SCORE.INTRA.DIHEDRAL>
0.0306584

>  <SCORE.INTRA.DIHEDRAL.0>
1.66609

>  <SCORE.INTRA.POLAR>
0

>  <SCORE.INTRA.POLAR.0>
0

>  <SCORE.INTRA.REPUL>
0

>  <SCORE.INTRA.REPUL.0>
0

>  <SCORE.INTRA.SOLV>
-0.981425

>  <SCORE.INTRA.SOLV.lig_0>
-45.868

>  <SCORE.INTRA.VDW>
0.310163

>  <SCORE.INTRA.VDW.0>
-0.397919

>  <SCORE.INTRA.norm>
-0.0127092

>  <SCORE.RESTR>
0

>  <SCORE.RESTR.CAVITY>
0

>  <SCORE.RESTR.norm>
0

>  <SCORE.SYSTEM>
0

>  <SCORE.SYSTEM.CONST>
0

>  <SCORE.SYSTEM.DIHEDRAL>
0

>  <SCORE.SYSTEM.SOLV>
0

>  <SCORE.SYSTEM.norm>
0

>  <SCORE.heavy>
13

>  <SCORE.norm>
-1.29861

>  <RMSD>
2.708

$$$$
ligand
 OpenBabel02271912143D
libRbt.so/2013.1/901 2013/11/27
 13 14  0  0  0  0  0  0  0  0999 V2000
   -5.5553  -34.8666  -42.9168 N   0  0  0  0  0  0  0  0  0  0  0  0
   -5.8595  -35.0187  -44.2432 C   0  0  0  0  0  0  0  0  0  0  0  0
   -7.0405  -35.6185  -44.5859 N   0  0  0  0  0  0  0  0  0  0  0  0
   -5.0314  -34.5943  -45.1982 N   0  0  0  0  0  0  0  0  0  0  0  0
   -3.8479  -33.9940  -44.8923 C   0  0  0  0  0  0  0  0  0  0  0  0
   -3.4901  -33.8189  -43.5374 C   0  0  0  0  0  0  0  0  0  0  0  0
   -4.3886  -34.2755  -42.5354 C   0  0  0  0  0  0  0  0  0  0  0  0
   -4.1260  -34.1436  -41.3656 O   0  0  0  0  0  0  0  0  0  0  0  0
   -2.1869  -33.1620  -43.5336 C   0  0  0  0  0  0  0  0  0  0  0  0
   -1.8431  -32.9770  -44.8205 C   0  0  0  0  0  0  0  0  0  0  0  0
   -2.8350  -33.4738  -45.6396 N   0  0  0  0  0  0  0  0  0  0  0  0
   -1.3812  -32.7752  -42.3199 C   0  0  0  0  0  0  0  0  0  0  0  0
    0.0287  -32.5887  -42.7184 N   0  0  0  0  0  0  0  0  0  0  0  0
  1  2  1  0  0  0  0
  1  7  1  0  0  0  0
  2  3  1  0  0  0  0
  2  4  2  0  0  0  0
  4  5  1  0  0  0  0
  5  6  2  0  0  0  0
  5 11  1  0  0  0  0
  6  7  1  0  0  0  0
  6  9  1  0  0  0  0
  7  8  2  0  0  0  0
  9 10  2  0  0  0  0
  9 12  1  0  0  0  0
 10 11  1  0  0  0  0
 12 13  1  0  0  0  0
M  END
>  <CHROM.1>
160.17110684,-3.66723292,-33.95384495,-43.67382585,2.96161291,-0.43545957
-1.55331018

>  <Name>
ligand

>  <RI>
0

>  <Rbt.Current_Directory>
/home/itssahil/PROJECTS/Mol_Feturizer/Test_systems_manuscript/rnas/3fu2

>  <Rbt.Executable>
rbdock ($Id: //depot/dev/client3/rdock/2013.1/src/exe/rbdock.cxx#4 $)

>  <Rbt.Library>
libRbt.so (2013.1, Build901 2013/11/27)

>  <Rbt.Parameter_File>
/export/apps/rDock/src/rDock_2013.1_src/data/scripts/dock_solv.prm

>  <Rbt.Receptor>
prm/pocket_docking_7.prm

>  <SCORE>
-16.8919

>  <SCORE.INTER>
-16.7354

>  <SCORE.INTER.CONST>
1

>  <SCORE.INTER.POLAR>
0

>  <SCORE.INTER.ROT>
1

>  <SCORE.INTER.SOLV>
20.3225

>  <SCORE.INTER.VDW>
-22.1978

>  <SCORE.INTER.norm>
-1.28734

>  <SCORE.INTRA>
-0.156478

>  <SCORE.INTRA.DIHEDRAL>
0.0296608

>  <SCORE.INTRA.DIHEDRAL.0>
1.66609

>  <SCORE.INTRA.POLAR>
0

>  <SCORE.INTRA.POLAR.0>
0

>  <SCORE.INTRA.REPUL>
0

>  <SCORE.INTRA.REPUL.0>
0

>  <SCORE.INTRA.SOLV>
-0.98089

>  <SCORE.INTRA.SOLV.lig_0>
-45.868

>  <SCORE.INTRA.VDW>
0.319137

>  <SCORE.INTRA.VDW.0>
-0.397919

>  <SCORE.INTRA.norm>
-0.0120368

>  <SCORE.RESTR>
0

>  <SCORE.RESTR.CAVITY>
0

>  <SCORE.RESTR.norm>
0

>  <SCORE.SYSTEM>
0

>  <SCORE.SYSTEM.CONST>
0

>  <SCORE.SYSTEM.DIHEDRAL>
0

>  <SCORE.SYSTEM.SOLV>
0

>  <SCORE.SYSTEM.norm>
0

>  <SCORE.heavy>
13

>  <SCORE.norm>
-1.29938

>  <RMSD>
2.708

$$$$
ligand
 OpenBabel02271912143D
libRbt.so/2013.1/901 2013/11/27
 13 14  0  0  0  0  0  0  0  0999 V2000
   -5.5449  -34.8775  -42.9184 N   0  0  0  0  0  0  0  0  0  0  0  0
   -5.8417  -35.0413  -44.2450 C   0  0  0  0  0  0  0  0  0  0  0  0
   -7.0184  -35.6492  -44.5888 N   0  0  0  0  0  0  0  0  0  0  0  0
   -5.0108  -34.6206  -45.1992 N   0  0  0  0  0  0  0  0  0  0  0  0
   -3.8317  -34.0125  -44.8921 C   0  0  0  0  0  0  0  0  0  0  0  0
   -3.4814  -33.8253  -43.5369 C   0  0  0  0  0  0  0  0  0  0  0  0
   -4.3829  -34.2781  -42.5358 C   0  0  0  0  0  0  0  0  0  0  0  0
   -4.1267  -34.1359  -41.3658 O   0  0  0  0  0  0  0  0  0  0  0  0
   -2.1812  -33.1624  -43.5317 C   0  0  0  0  0  0  0  0  0  0  0  0
   -1.8318  -32.9859  -44.8183 C   0  0  0  0  0  0  0  0  0  0  0  0
   -2.8174  -33.4936  -45.6384 N   0  0  0  0  0  0  0  0  0  0  0  0
   -1.3834  -32.7625  -42.3171 C   0  0  0  0  0  0  0  0  0  0  0  0
    0.0374  -32.6287  -42.6980 N   0  0  0  0  0  0  0  0  0  0  0  0
  1  2  1  0  0  0  0
  1  7  1  0  0  0  0
  2  3  1  0  0  0  0
  2  4  2  0  0  0  0
  4  5  1  0  0  0  0
  5  6  2  0  0  0  0
  5 11  1  0  0  0  0
  6  7  1  0  0  0  0
  6  9  1  0  0  0  0
  7  8  2  0  0  0  0
  9 10  2  0  0  0  0
  9 12  1  0  0  0  0
 10 11  1  0  0  0  0
 12 13  1  0  0  0  0
M  END
>  <CHROM.1>
157.78483335,-3.65645183,-33.96664496,-43.67213044,2.95538355,-0.43649370
-1.56169915

>  <Name>
ligand

>  <RI>
0

>  <Rbt.Current_Directory>
/home/itssahil/PROJECTS/Mol_Feturizer/Test_systems_manuscript/rnas/3fu2

>  <Rbt.Executable>
rbdock ($Id: //depot/dev/client3/rdock/2013.1/src/exe/rbdock.cxx#4 $)

>  <Rbt.Library>
libRbt.so (2013.1, Build901 2013/11/27)

>  <Rbt.Parameter_File>
/export/apps/rDock/src/rDock_2013.1_src/data/scripts/dock_solv.prm

>  <Rbt.Receptor>
prm/pocket_docking_8.prm

>  <SCORE>
-16.8676

>  <SCORE.INTER>
-16.7017

>  <SCORE.INTER.CONST>
1

>  <SCORE.INTER.POLAR>
0

>  <SCORE.INTER.ROT>
1

>  <SCORE.INTER.SOLV>
20.3101

>  <SCORE.INTER.VDW>
-22.1712

>  <SCORE.INTER.norm>
-1.28474

>  <SCORE.INTRA>
-0.165899

>  <SCORE.INTRA.DIHEDRAL>
0.030724

>  <SCORE.INTRA.DIHEDRAL.0>
1.66609

>  <SCORE.INTRA.POLAR>
0

>  <SCORE.INTRA.POLAR.0>
0

>  <SCORE.INTRA.REPUL>
0

>  <SCORE.INTRA.REPUL.0>
0

>  <SCORE.INTRA.SOLV>
-0.981466

>  <SCORE.INTRA.SOLV.lig_0>
-45.868

>  <SCORE.INTRA.VDW>
0.309472

>  <SCORE.INTRA.VDW.0>
-0.397919

>  <SCORE.INTRA.norm>
-0.0127615

>  <SCORE.RESTR>
0

>  <SCORE.RESTR.CAVITY>
0

>  <SCORE.RESTR.norm>
0

>  <SCORE.SYSTEM>
0

>  <SCORE.SYSTEM.CONST>
0

>  <SCORE.SYSTEM.DIHEDRAL>
0

>  <SCORE.SYSTEM.SOLV>
0

>  <SCORE.SYSTEM.norm>
0

>  <SCORE.heavy>
13

>  <SCORE.norm>
-1.29751

>  <RMSD>
2.708

$$$$
ligand
 OpenBabel02271912143D
libRbt.so/2013.1/901 2013/11/27
 13 14  0  0  0  0  0  0  0  0999 V2000
   -5.5652  -34.8290  -42.9597 N   0  0  0  0  0  0  0  0  0  0  0  0
   -5.8278  -34.9907  -44.2938 C   0  0  0  0  0  0  0  0  0  0  0  0
   -7.0024  -35.5837  -44.6691 N   0  0  0  0  0  0  0  0  0  0  0  0
   -4.9659  -34.5818  -45.2253 N   0  0  0  0  0  0  0  0  0  0  0  0
   -3.7878  -33.9886  -44.8867 C   0  0  0  0  0  0  0  0  0  0  0  0
   -3.4722  -33.8042  -43.5227 C   0  0  0  0  0  0  0  0  0  0  0  0
   -4.4064  -34.2442  -42.5461 C   0  0  0  0  0  0  0  0  0  0  0  0
   -4.1803  -34.1038  -41.3697 O   0  0  0  0  0  0  0  0  0  0  0  0
   -2.1642  -33.1581  -43.4826 C   0  0  0  0  0  0  0  0  0  0  0  0
   -1.7776  -32.9877  -44.7593 C   0  0  0  0  0  0  0  0  0  0  0  0
   -2.7469  -33.4837  -45.6056 N   0  0  0  0  0  0  0  0  0  0  0  0
   -1.3947  -32.7670  -42.2470 C   0  0  0  0  0  0  0  0  0  0  0  0
    0.0510  -32.8145  -42.5460 N   0  0  0  0  0  0  0  0  0  0  0  0
  1  2  1  0  0  0  0
  1  7  1  0  0  0  0
  2  3  1  0  0  0  0
  2  4  2  0  0  0  0
  4  5  1  0  0  0  0
  5  6  2  0  0  0  0
  5 11  1  0  0  0  0
  6  7  1  0  0  0  0
  6  9  1  0  0  0  0
  7  8  2  0  0  0  0
  9 10  2  0  0  0  0
  9 12  1  0  0  0  0
 10 11  1  0  0  0  0
 12 13  1  0  0  0  0
M  END
>  <CHROM.1>
150.86243791,-3.64418923,-33.95669421,-43.65898416,2.92230664,-0.41396439
-1.56952457

>  <Name>
ligand

>  <RI>
0

>  <Rbt.Current_Directory>
/home/itssahil/PROJECTS/Mol_Feturizer/Test_systems_manuscript/rnas/3fu2

>  <Rbt.Executable>
rbdock ($Id: //depot/dev/client3/rdock/2013.1/src/exe/rbdock.cxx#4 $)

>  <Rbt.Library>
libRbt.so (2013.1, Build901 2013/11/27)

>  <Rbt.Parameter_File>
/export/apps/rDock/src/rDock_2013.1_src/data/scripts/dock_solv.prm

>  <Rbt.Receptor>
prm/blind_docking_60.prm

>  <SCORE>
-16.8476

>  <SCORE.INTER>
-16.6326

>  <SCORE.INTER.CONST>
1

>  <SCORE.INTER.POLAR>
0

>  <SCORE.INTER.ROT>
1

>  <SCORE.INTER.SOLV>
20.2077

>  <SCORE.INTER.VDW>
-22.091

>  <SCORE.INTER.norm>
-1.27943

>  <SCORE.INTRA>
-0.214954

>  <SCORE.INTRA.DIHEDRAL>
0.0322836

>  <SCORE.INTRA.DIHEDRAL.0>
1.66609

>  <SCORE.INTRA.POLAR>
0

>  <SCORE.INTRA.POLAR.0>
0

>  <SCORE.INTRA.REPUL>
0

>  <SCORE.INTRA.REPUL.0>
0

>  <SCORE.INTRA.SOLV>
-0.983432

>  <SCORE.INTRA.SOLV.lig_0>
-45.868

>  <SCORE.INTRA.VDW>
0.260621

>  <SCORE.INTRA.VDW.0>
-0.397919

>  <SCORE.INTRA.norm>
-0.0165349

>  <SCORE.RESTR>
0

>  <SCORE.RESTR.CAVITY>
0

>  <SCORE.RESTR.norm>
0

>  <SCORE.SYSTEM>
0

>  <SCORE.SYSTEM.CONST>
0

>  <SCORE.SYSTEM.DIHEDRAL>
0

>  <SCORE.SYSTEM.SOLV>
0

>  <SCORE.SYSTEM.norm>
0

>  <SCORE.heavy>
13

>  <SCORE.norm>
-1.29597

>  <RMSD>
2.709

$$$$
ligand
 OpenBabel02271912143D
libRbt.so/2013.1/901 2013/11/27
 13 14  0  0  0  0  0  0  0  0999 V2000
   -5.5535  -34.8680  -42.9696 N   0  0  0  0  0  0  0  0  0  0  0  0
   -5.8118  -35.0216  -44.3055 C   0  0  0  0  0  0  0  0  0  0  0  0
   -6.9785  -35.6256  -44.6879 N   0  0  0  0  0  0  0  0  0  0  0  0
   -4.9531  -34.5948  -45.2320 N   0  0  0  0  0  0  0  0  0  0  0  0
   -3.7828  -33.9903  -44.8862 C   0  0  0  0  0  0  0  0  0  0  0  0
   -3.4719  -33.8136  -43.5201 C   0  0  0  0  0  0  0  0  0  0  0  0
   -4.4025  -34.2728  -42.5490 C   0  0  0  0  0  0  0  0  0  0  0  0
   -4.1803  -34.1396  -41.3710 O   0  0  0  0  0  0  0  0  0  0  0  0
   -2.1718  -33.1522  -43.4721 C   0  0  0  0  0  0  0  0  0  0  0  0
   -1.7850  -32.9665  -44.7467 C   0  0  0  0  0  0  0  0  0  0  0  0
   -2.7468  -33.4670  -45.5989 N   0  0  0  0  0  0  0  0  0  0  0  0
   -1.4093  -32.7623  -42.2319 C   0  0  0  0  0  0  0  0  0  0  0  0
    0.0375  -32.7937  -42.5275 N   0  0  0  0  0  0  0  0  0  0  0  0
  1  2  1  0  0  0  0
  1  7  1  0  0  0  0
  2  3  1  0  0  0  0
  2  4  2  0  0  0  0
  4  5  1  0  0  0  0
  5  6  2  0  0  0  0
  5 11  1  0  0  0  0
  6  7  1  0  0  0  0
  6  9  1  0  0  0  0
  7  8  2  0  0  0  0
  9 10  2  0  0  0  0
  9 12  1  0  0  0  0
 10 11  1  0  0  0  0
 12 13  1  0  0  0  0
M  END
>  <CHROM.1>
150.70338259,-3.64181749,-33.96726080,-43.65787781,2.92026911,-0.42573753
-1.56183500

>  <Name>
ligand

>  <RI>
0

>  <Rbt.Current_Directory>
/home/itssahil/PROJECTS/Mol_Feturizer/Test_systems_manuscript/rnas/3fu2

>  <Rbt.Executable>
rbdock ($Id: //depot/dev/client3/rdock/2013.1/src/exe/rbdock.cxx#4 $)

>  <Rbt.Library>
libRbt.so (2013.1, Build901 2013/11/27)

>  <Rbt.Parameter_File>
/export/apps/rDock/src/rDock_2013.1_src/data/scripts/dock_solv.prm

>  <Rbt.Receptor>
prm/pocket_docking_2.prm

>  <SCORE>
-16.8654

>  <SCORE.INTER>
-16.6497

>  <SCORE.INTER.CONST>
1

>  <SCORE.INTER.POLAR>
0

>  <SCORE.INTER.ROT>
1

>  <SCORE.INTER.SOLV>
20.0617

>  <SCORE.INTER.VDW>
-22.0537

>  <SCORE.INTER.norm>
-1.28074

>  <SCORE.INTRA>
-0.215733

>  <SCORE.INTRA.DIHEDRAL>
0.0322916

>  <SCORE.INTRA.DIHEDRAL.0>
1.66609

>  <SCORE.INTRA.POLAR>
0

>  <SCORE.INTRA.POLAR.0>
0

>  <SCORE.INTRA.REPUL>
0

>  <SCORE.INTRA.REPUL.0>
0

>  <SCORE.INTRA.SOLV>
-0.983482

>  <SCORE.INTRA.SOLV.lig_0>
-45.868

>  <SCORE.INTRA.VDW>
0.259863

>  <SCORE.INTRA.VDW.0>
-0.397919

>  <SCORE.INTRA.norm>
-0.0165948

>  <SCORE.RESTR>
0

>  <SCORE.RESTR.CAVITY>
0

>  <SCORE.RESTR.norm>
0

>  <SCORE.SYSTEM>
0

>  <SCORE.SYSTEM.CONST>
0

>  <SCORE.SYSTEM.DIHEDRAL>
0

>  <SCORE.SYSTEM.SOLV>
0

>  <SCORE.SYSTEM.norm>
0

>  <SCORE.heavy>
13

>  <SCORE.norm>
-1.29734

>  <RMSD>
2.709

$$$$
ligand
 OpenBabel02271912143D
libRbt.so/2013.1/901 2013/11/27
 13 14  0  0  0  0  0  0  0  0999 V2000
   -5.5541  -34.8717  -42.9224 N   0  0  0  0  0  0  0  0  0  0  0  0
   -5.8558  -35.0287  -44.2487 C   0  0  0  0  0  0  0  0  0  0  0  0
   -7.0351  -35.6321  -44.5913 N   0  0  0  0  0  0  0  0  0  0  0  0
   -5.0272  -34.6056  -45.2038 N   0  0  0  0  0  0  0  0  0  0  0  0
   -3.8455  -34.0017  -44.8979 C   0  0  0  0  0  0  0  0  0  0  0  0
   -3.4902  -33.8216  -43.5431 C   0  0  0  0  0  0  0  0  0  0  0  0
   -4.3893  -34.2769  -42.5410 C   0  0  0  0  0  0  0  0  0  0  0  0
   -4.1287  -34.1407  -41.3712 O   0  0  0  0  0  0  0  0  0  0  0  0
   -2.1883  -33.1619  -43.5393 C   0  0  0  0  0  0  0  0  0  0  0  0
   -1.8429  -32.9803  -44.8263 C   0  0  0  0  0  0  0  0  0  0  0  0
   -2.8325  -33.4818  -45.6454 N   0  0  0  0  0  0  0  0  0  0  0  0
   -1.3854  -32.7695  -42.3256 C   0  0  0  0  0  0  0  0  0  0  0  0
    0.0266  -32.5908  -42.7206 N   0  0  0  0  0  0  0  0  0  0  0  0
  1  2  1  0  0  0  0
  1  7  1  0  0  0  0
  2  3  1  0  0  0  0
  2  4  2  0  0  0  0
  4  5  1  0  0  0  0
  5  6  2  0  0  0  0
  5 11  1  0  0  0  0
  6  7  1  0  0  0  0
  6  9  1  0  0  0  0
  7  8  2  0  0  0  0
  9 10  2  0  0  0  0
  9 12  1  0  0  0  0
 10 11  1  0  0  0  0
 12 13  1  0  0  0  0
M  END
>  <CHROM.1>
159.76430975,-3.66663471,-33.95813845,-43.67919062,2.95980920,-0.43700246
-1.55692360

>  <Name>
ligand

>  <RI>
0

>  <Rbt.Current_Directory>
/home/itssahil/PROJECTS/Mol_Feturizer/Test_systems_manuscript/rnas/3fu2

>  <Rbt.Executable>
rbdock ($Id: //depot/dev/client3/rdock/2013.1/src/exe/rbdock.cxx#4 $)

>  <Rbt.Library>
libRbt.so (2013.1, Build901 2013/11/27)

>  <Rbt.Parameter_File>
/export/apps/rDock/src/rDock_2013.1_src/data/scripts/dock_solv.prm

>  <Rbt.Receptor>
prm/pocket_docking_3.prm

>  <SCORE>
-16.8808

>  <SCORE.INTER>
-16.7228

>  <SCORE.INTER.CONST>
1

>  <SCORE.INTER.POLAR>
0

>  <SCORE.INTER.ROT>
1

>  <SCORE.INTER.SOLV>
20.3191

>  <SCORE.INTER.VDW>
-22.1882

>  <SCORE.INTER.norm>
-1.28637

>  <SCORE.INTRA>
-0.158028

>  <SCORE.INTRA.DIHEDRAL>
0.0298599

>  <SCORE.INTRA.DIHEDRAL.0>
1.66609

>  <SCORE.INTRA.POLAR>
0

>  <SCORE.INTRA.POLAR.0>
0

>  <SCORE.INTRA.REPUL>
0

>  <SCORE.INTRA.REPUL.0>
0

>  <SCORE.INTRA.SOLV>
-0.980984

>  <SCORE.INTRA.SOLV.lig_0>
-45.868

>  <SCORE.INTRA.VDW>
0.317534

>  <SCORE.INTRA.VDW.0>
-0.397919

>  <SCORE.INTRA.norm>
-0.012156

>  <SCORE.RESTR>
0

>  <SCORE.RESTR.CAVITY>
0

>  <SCORE.RESTR.norm>
0

>  <SCORE.SYSTEM>
0

>  <SCORE.SYSTEM.CONST>
0

>  <SCORE.SYSTEM.DIHEDRAL>
0

>  <SCORE.SYSTEM.SOLV>
0

>  <SCORE.SYSTEM.norm>
0

>  <SCORE.heavy>
13

>  <SCORE.norm>
-1.29852

>  <RMSD>
2.709

$$$$
ligand
 OpenBabel02271912143D
libRbt.so/2013.1/901 2013/11/27
 13 14  0  0  0  0  0  0  0  0999 V2000
   -5.5389  -34.8776  -42.9651 N   0  0  0  0  0  0  0  0  0  0  0  0
   -5.8214  -35.0388  -44.2952 C   0  0  0  0  0  0  0  0  0  0  0  0
   -6.9877  -35.6584  -44.6527 N   0  0  0  0  0  0  0  0  0  0  0  0
   -4.9865  -34.6043  -45.2396 N   0  0  0  0  0  0  0  0  0  0  0  0
   -3.8173  -33.9842  -44.9188 C   0  0  0  0  0  0  0  0  0  0  0  0
   -3.4819  -33.7991  -43.5596 C   0  0  0  0  0  0  0  0  0  0  0  0
   -4.3875  -34.2667  -42.5690 C   0  0  0  0  0  0  0  0  0  0  0  0
   -4.1438  -34.1269  -41.3960 O   0  0  0  0  0  0  0  0  0  0  0  0
   -2.1895  -33.1214  -43.5392 C   0  0  0  0  0  0  0  0  0  0  0  0
   -1.8301  -32.9351  -44.8217 C   0  0  0  0  0  0  0  0  0  0  0  0
   -2.8021  -33.4503  -45.6533 N   0  0  0  0  0  0  0  0  0  0  0  0
   -1.4077  -32.7179  -42.3154 C   0  0  0  0  0  0  0  0  0  0  0  0
    0.0252  -32.6390  -42.6648 N   0  0  0  0  0  0  0  0  0  0  0  0
  1  2  1  0  0  0  0
  1  7  1  0  0  0  0
  2  3  1  0  0  0  0
  2  4  2  0  0  0  0
  4  5  1  0  0  0  0
  5  6  2  0  0  0  0
  5 11  1  0  0  0  0
  6  7  1  0  0  0  0
  6  9  1  0  0  0  0
  7  8  2  0  0  0  0
  9 10  2  0  0  0  0
  9 12  1  0  0  0  0
 10 11  1  0  0  0  0
 12 13  1  0  0  0  0
M  END
>  <CHROM.1>
154.68455519,-3.65320704,-33.94772145,-43.69561730,2.94393710,-0.44351345
-1.55917961

>  <Name>
ligand

>  <RI>
0

>  <Rbt.Current_Directory>
/home/itssahil/PROJECTS/Mol_Feturizer/Test_systems_manuscript/rnas/3fu2

>  <Rbt.Executable>
rbdock ($Id: //depot/dev/client3/rdock/2013.1/src/exe/rbdock.cxx#4 $)

>  <Rbt.Library>
libRbt.so (2013.1, Build901 2013/11/27)

>  <Rbt.Parameter_File>
/export/apps/rDock/src/rDock_2013.1_src/data/scripts/dock_solv.prm

>  <Rbt.Receptor>
prm/pocket_docking_3.prm

>  <SCORE>
-16.8468

>  <SCORE.INTER>
-16.65

>  <SCORE.INTER.CONST>
1

>  <SCORE.INTER.POLAR>
0

>  <SCORE.INTER.ROT>
1

>  <SCORE.INTER.SOLV>
20.1917

>  <SCORE.INTER.VDW>
-22.0972

>  <SCORE.INTER.norm>
-1.28077

>  <SCORE.INTRA>
-0.196795

>  <SCORE.INTRA.DIHEDRAL>
0.0317118

>  <SCORE.INTRA.DIHEDRAL.0>
1.66609

>  <SCORE.INTRA.POLAR>
0

>  <SCORE.INTRA.POLAR.0>
0

>  <SCORE.INTRA.REPUL>
0

>  <SCORE.INTRA.REPUL.0>
0

>  <SCORE.INTRA.SOLV>
-0.982298

>  <SCORE.INTRA.SOLV.lig_0>
-45.868

>  <SCORE.INTRA.VDW>
0.278498

>  <SCORE.INTRA.VDW.0>
-0.397919

>  <SCORE.INTRA.norm>
-0.0151381

>  <SCORE.RESTR>
0

>  <SCORE.RESTR.CAVITY>
0

>  <SCORE.RESTR.norm>
0

>  <SCORE.SYSTEM>
0

>  <SCORE.SYSTEM.CONST>
0

>  <SCORE.SYSTEM.DIHEDRAL>
0

>  <SCORE.SYSTEM.SOLV>
0

>  <SCORE.SYSTEM.norm>
0

>  <SCORE.heavy>
13

>  <SCORE.norm>
-1.29591

>  <RMSD>
2.709

$$$$
ligand
 OpenBabel02271912143D
libRbt.so/2013.1/901 2013/11/27
 13 14  0  0  0  0  0  0  0  0999 V2000
   -5.5465  -34.8750  -42.9205 N   0  0  0  0  0  0  0  0  0  0  0  0
   -5.8494  -35.0336  -44.2464 C   0  0  0  0  0  0  0  0  0  0  0  0
   -7.0280  -35.6392  -44.5872 N   0  0  0  0  0  0  0  0  0  0  0  0
   -5.0224  -34.6099  -45.2026 N   0  0  0  0  0  0  0  0  0  0  0  0
   -3.8414  -34.0040  -44.8985 C   0  0  0  0  0  0  0  0  0  0  0  0
   -3.4849  -33.8222  -43.5443 C   0  0  0  0  0  0  0  0  0  0  0  0
   -4.3822  -34.2781  -42.5408 C   0  0  0  0  0  0  0  0  0  0  0  0
   -4.1207  -34.1405  -41.3714 O   0  0  0  0  0  0  0  0  0  0  0  0
   -2.1841  -33.1604  -43.5424 C   0  0  0  0  0  0  0  0  0  0  0  0
   -1.8403  -32.9792  -44.8298 C   0  0  0  0  0  0  0  0  0  0  0  0
   -2.8300  -33.4830  -45.6475 N   0  0  0  0  0  0  0  0  0  0  0  0
   -1.3805  -32.7657  -42.3298 C   0  0  0  0  0  0  0  0  0  0  0  0
    0.0333  -32.5996  -42.7235 N   0  0  0  0  0  0  0  0  0  0  0  0
  1  2  1  0  0  0  0
  1  7  1  0  0  0  0
  2  3  1  0  0  0  0
  2  4  2  0  0  0  0
  4  5  1  0  0  0  0
  5  6  2  0  0  0  0
  5 11  1  0  0  0  0
  6  7  1  0  0  0  0
  6  9  1  0  0  0  0
  7  8  2  0  0  0  0
  9 10  2  0  0  0  0
  9 12  1  0  0  0  0
 10 11  1  0  0  0  0
 12 13  1  0  0  0  0
M  END
>  <CHROM.1>
159.14896623,-3.66107407,-33.96025518,-43.67978854,2.96079250,-0.43764896
-1.55679942

>  <Name>
ligand

>  <RI>
0

>  <Rbt.Current_Directory>
/home/itssahil/PROJECTS/Mol_Feturizer/Test_systems_manuscript/rnas/3fu2

>  <Rbt.Executable>
rbdock ($Id: //depot/dev/client3/rdock/2013.1/src/exe/rbdock.cxx#4 $)

>  <Rbt.Library>
libRbt.so (2013.1, Build901 2013/11/27)

>  <Rbt.Parameter_File>
/export/apps/rDock/src/rDock_2013.1_src/data/scripts/dock_solv.prm

>  <Rbt.Receptor>
prm/pocket_docking_5.prm

>  <SCORE>
-16.8819

>  <SCORE.INTER>
-16.7214

>  <SCORE.INTER.CONST>
1

>  <SCORE.INTER.POLAR>
0

>  <SCORE.INTER.ROT>
1

>  <SCORE.INTER.SOLV>
20.3279

>  <SCORE.INTER.VDW>
-22.1903

>  <SCORE.INTER.norm>
-1.28626

>  <SCORE.INTRA>
-0.160418

>  <SCORE.INTRA.DIHEDRAL>
0.0301473

>  <SCORE.INTRA.DIHEDRAL.0>
1.66609

>  <SCORE.INTRA.POLAR>
0

>  <SCORE.INTRA.POLAR.0>
0

>  <SCORE.INTRA.REPUL>
0

>  <SCORE.INTRA.REPUL.0>
0

>  <SCORE.INTRA.SOLV>
-0.98113

>  <SCORE.INTRA.SOLV.lig_0>
-45.868

>  <SCORE.INTRA.VDW>
0.315073

>  <SCORE.INTRA.VDW.0>
-0.397919

>  <SCORE.INTRA.norm>
-0.0123399

>  <SCORE.RESTR>
0

>  <SCORE.RESTR.CAVITY>
0

>  <SCORE.RESTR.norm>
0

>  <SCORE.SYSTEM>
0

>  <SCORE.SYSTEM.CONST>
0

>  <SCORE.SYSTEM.DIHEDRAL>
0

>  <SCORE.SYSTEM.SOLV>
0

>  <SCORE.SYSTEM.norm>
0

>  <SCORE.heavy>
13

>  <SCORE.norm>
-1.2986

>  <RMSD>
2.709

$$$$
ligand
 OpenBabel02271912143D
libRbt.so/2013.1/901 2013/11/27
 13 14  0  0  0  0  0  0  0  0999 V2000
   -5.5338  -34.8963  -42.9487 N   0  0  0  0  0  0  0  0  0  0  0  0
   -5.8380  -35.0541  -44.2744 C   0  0  0  0  0  0  0  0  0  0  0  0
   -7.0162  -35.6611  -44.6144 N   0  0  0  0  0  0  0  0  0  0  0  0
   -5.0128  -34.6284  -45.2312 N   0  0  0  0  0  0  0  0  0  0  0  0
   -3.8323  -34.0210  -44.9280 C   0  0  0  0  0  0  0  0  0  0  0  0
   -3.4745  -33.8399  -43.5740 C   0  0  0  0  0  0  0  0  0  0  0  0
   -4.3700  -34.2980  -42.5699 C   0  0  0  0  0  0  0  0  0  0  0  0
   -4.1073  -34.1611  -41.4007 O   0  0  0  0  0  0  0  0  0  0  0  0
   -2.1747  -33.1762  -43.5730 C   0  0  0  0  0  0  0  0  0  0  0  0
   -1.8327  -32.9934  -44.8607 C   0  0  0  0  0  0  0  0  0  0  0  0
   -2.8226  -33.4978  -45.6776 N   0  0  0  0  0  0  0  0  0  0  0  0
   -1.3703  -32.7814  -42.3610 C   0  0  0  0  0  0  0  0  0  0  0  0
    0.0210  -32.5089  -42.7755 N   0  0  0  0  0  0  0  0  0  0  0  0
  1  2  1  0  0  0  0
  1  7  1  0  0  0  0
  2  3  1  0  0  0  0
  2  4  2  0  0  0  0
  4  5  1  0  0  0  0
  5  6  2  0  0  0  0
  5 11  1  0  0  0  0
  6  7  1  0  0  0  0
  6  9  1  0  0  0  0
  7  8  2  0  0  0  0
  9 10  2  0  0  0  0
  9 12  1  0  0  0  0
 10 11  1  0  0  0  0
 12 13  1  0  0  0  0
M  END
>  <CHROM.1>
163.57916458,-3.65242724,-33.96961999,-43.71097647,2.96329645,-0.44590727
-1.55842532

>  <Name>
ligand

>  <RI>
0

>  <Rbt.Current_Directory>
/home/itssahil/PROJECTS/Mol_Feturizer/Test_systems_manuscript/rnas/3fu2

>  <Rbt.Executable>
rbdock ($Id: //depot/dev/client3/rdock/2013.1/src/exe/rbdock.cxx#4 $)

>  <Rbt.Library>
libRbt.so (2013.1, Build901 2013/11/27)

>  <Rbt.Parameter_File>
/export/apps/rDock/src/rDock_2013.1_src/data/scripts/dock_solv.prm

>  <Rbt.Receptor>
prm/pocket_docking_5.prm

>  <SCORE>
-16.8698

>  <SCORE.INTER>
-16.7253

>  <SCORE.INTER.CONST>
1

>  <SCORE.INTER.POLAR>
0

>  <SCORE.INTER.ROT>
1

>  <SCORE.INTER.SOLV>
20.2849

>  <SCORE.INTER.VDW>
-22.1785

>  <SCORE.INTER.norm>
-1.28656

>  <SCORE.INTRA>
-0.144516

>  <SCORE.INTRA.DIHEDRAL>
0.0277215

>  <SCORE.INTRA.DIHEDRAL.0>
1.66609

>  <SCORE.INTRA.POLAR>
0

>  <SCORE.INTRA.POLAR.0>
0

>  <SCORE.INTRA.REPUL>
0

>  <SCORE.INTRA.REPUL.0>
0

>  <SCORE.INTRA.SOLV>
-0.980177

>  <SCORE.INTRA.SOLV.lig_0>
-45.868

>  <SCORE.INTRA.VDW>
0.331711

>  <SCORE.INTRA.VDW.0>
-0.397919

>  <SCORE.INTRA.norm>
-0.0111167

>  <SCORE.RESTR>
0

>  <SCORE.RESTR.CAVITY>
0

>  <SCORE.RESTR.norm>
0

>  <SCORE.SYSTEM>
0

>  <SCORE.SYSTEM.CONST>
0

>  <SCORE.SYSTEM.DIHEDRAL>
0

>  <SCORE.SYSTEM.SOLV>
0

>  <SCORE.SYSTEM.norm>
0

>  <SCORE.heavy>
13

>  <SCORE.norm>
-1.29768

>  <RMSD>
2.709

$$$$
ligand
 OpenBabel02271912143D
libRbt.so/2013.1/901 2013/11/27
 13 14  0  0  0  0  0  0  0  0999 V2000
   -5.5529  -34.8689  -42.9662 N   0  0  0  0  0  0  0  0  0  0  0  0
   -5.8121  -35.0245  -44.3016 C   0  0  0  0  0  0  0  0  0  0  0  0
   -6.9787  -35.6296  -44.6824 N   0  0  0  0  0  0  0  0  0  0  0  0
   -4.9543  -34.5985  -45.2293 N   0  0  0  0  0  0  0  0  0  0  0  0
   -3.7841  -33.9929  -44.8852 C   0  0  0  0  0  0  0  0  0  0  0  0
   -3.4723  -33.8141  -43.5196 C   0  0  0  0  0  0  0  0  0  0  0  0
   -4.4019  -34.2725  -42.5472 C   0  0  0  0  0  0  0  0  0  0  0  0
   -4.1789  -34.1376  -41.3695 O   0  0  0  0  0  0  0  0  0  0  0  0
   -2.1725  -33.1520  -43.4735 C   0  0  0  0  0  0  0  0  0  0  0  0
   -1.7867  -32.9679  -44.7486 C   0  0  0  0  0  0  0  0  0  0  0  0
   -2.7489  -33.4700  -45.5994 N   0  0  0  0  0  0  0  0  0  0  0  0
   -1.4092  -32.7599  -42.2344 C   0  0  0  0  0  0  0  0  0  0  0  0
    0.0375  -32.7958  -42.5295 N   0  0  0  0  0  0  0  0  0  0  0  0
  1  2  1  0  0  0  0
  1  7  1  0  0  0  0
  2  3  1  0  0  0  0
  2  4  2  0  0  0  0
  4  5  1  0  0  0  0
  5  6  2  0  0  0  0
  5 11  1  0  0  0  0
  6  7  1  0  0  0  0
  6  9  1  0  0  0  0
  7  8  2  0  0  0  0
  9 10  2  0  0  0  0
  9 12  1  0  0  0  0
 10 11  1  0  0  0  0
 12 13  1  0  0  0  0
M  END
>  <CHROM.1>
150.49711386,-3.64218893,-33.96847555,-43.65695546,2.92096960,-0.42599131
-1.56269514

>  <Name>
ligand

>  <RI>
0

>  <Rbt.Current_Directory>
/home/itssahil/PROJECTS/Mol_Feturizer/Test_systems_manuscript/rnas/3fu2

>  <Rbt.Executable>
rbdock ($Id: //depot/dev/client3/rdock/2013.1/src/exe/rbdock.cxx#4 $)

>  <Rbt.Library>
libRbt.so (2013.1, Build901 2013/11/27)

>  <Rbt.Parameter_File>
/export/apps/rDock/src/rDock_2013.1_src/data/scripts/dock_solv.prm

>  <Rbt.Receptor>
prm/pocket_docking_6.prm

>  <SCORE>
-16.8669

>  <SCORE.INTER>
-16.6502

>  <SCORE.INTER.CONST>
1

>  <SCORE.INTER.POLAR>
0

>  <SCORE.INTER.ROT>
1

>  <SCORE.INTER.SOLV>
20.0739

>  <SCORE.INTER.VDW>
-22.0581

>  <SCORE.INTER.norm>
-1.28078

>  <SCORE.INTRA>
-0.216745

>  <SCORE.INTRA.DIHEDRAL>
0.0323

>  <SCORE.INTRA.DIHEDRAL.0>
1.66609

>  <SCORE.INTRA.POLAR>
0

>  <SCORE.INTRA.POLAR.0>
0

>  <SCORE.INTRA.REPUL>
0

>  <SCORE.INTRA.REPUL.0>
0

>  <SCORE.INTRA.SOLV>
-0.983546

>  <SCORE.INTRA.SOLV.lig_0>
-45.868

>  <SCORE.INTRA.VDW>
0.258878

>  <SCORE.INTRA.VDW.0>
-0.397919

>  <SCORE.INTRA.norm>
-0.0166727

>  <SCORE.RESTR>
0

>  <SCORE.RESTR.CAVITY>
0

>  <SCORE.RESTR.norm>
0

>  <SCORE.SYSTEM>
0

>  <SCORE.SYSTEM.CONST>
0

>  <SCORE.SYSTEM.DIHEDRAL>
0

>  <SCORE.SYSTEM.SOLV>
0

>  <SCORE.SYSTEM.norm>
0

>  <SCORE.heavy>
13

>  <SCORE.norm>
-1.29746

>  <RMSD>
2.709

$$$$
ligand
 OpenBabel02271912143D
libRbt.so/2013.1/901 2013/11/27
 13 14  0  0  0  0  0  0  0  0999 V2000
   -5.5482  -34.8727  -42.9675 N   0  0  0  0  0  0  0  0  0  0  0  0
   -5.8059  -35.0288  -44.3031 C   0  0  0  0  0  0  0  0  0  0  0  0
   -6.9695  -35.6394  -44.6848 N   0  0  0  0  0  0  0  0  0  0  0  0
   -4.9498  -34.5982  -45.2301 N   0  0  0  0  0  0  0  0  0  0  0  0
   -3.7826  -33.9872  -44.8852 C   0  0  0  0  0  0  0  0  0  0  0  0
   -3.4724  -33.8076  -43.5193 C   0  0  0  0  0  0  0  0  0  0  0  0
   -4.4004  -34.2709  -42.5476 C   0  0  0  0  0  0  0  0  0  0  0  0
   -4.1786  -34.1355  -41.3697 O   0  0  0  0  0  0  0  0  0  0  0  0
   -2.1759  -33.1392  -43.4722 C   0  0  0  0  0  0  0  0  0  0  0  0
   -1.7903  -32.9526  -44.7470 C   0  0  0  0  0  0  0  0  0  0  0  0
   -2.7496  -33.4589  -45.5985 N   0  0  0  0  0  0  0  0  0  0  0  0
   -1.4152  -32.7441  -42.2325 C   0  0  0  0  0  0  0  0  0  0  0  0
    0.0329  -32.8052  -42.5172 N   0  0  0  0  0  0  0  0  0  0  0  0
  1  2  1  0  0  0  0
  1  7  1  0  0  0  0
  2  3  1  0  0  0  0
  2  4  2  0  0  0  0
  4  5  1  0  0  0  0
  5  6  2  0  0  0  0
  5 11  1  0  0  0  0
  6  7  1  0  0  0  0
  6  9  1  0  0  0  0
  7  8  2  0  0  0  0
  9 10  2  0  0  0  0
  9 12  1  0  0  0  0
 10 11  1  0  0  0  0
 12 13  1  0  0  0  0
M  END
>  <CHROM.1>
149.10916308,-3.64144451,-33.96531033,-43.65599833,2.91970940,-0.42899968
-1.56116816

>  <Name>
ligand

>  <RI>
0

>  <Rbt.Current_Directory>
/home/itssahil/PROJECTS/Mol_Feturizer/Test_systems_manuscript/rnas/3fu2

>  <Rbt.Executable>
rbdock ($Id: //depot/dev/client3/rdock/2013.1/src/exe/rbdock.cxx#4 $)

>  <Rbt.Library>
libRbt.so (2013.1, Build901 2013/11/27)

>  <Rbt.Parameter_File>
/export/apps/rDock/src/rDock_2013.1_src/data/scripts/dock_solv.prm

>  <Rbt.Receptor>
prm/pocket_docking_7.prm

>  <SCORE>
-16.8659

>  <SCORE.INTER>
-16.6422

>  <SCORE.INTER.CONST>
1

>  <SCORE.INTER.POLAR>
0

>  <SCORE.INTER.ROT>
1

>  <SCORE.INTER.SOLV>
20.0423

>  <SCORE.INTER.VDW>
-22.0423

>  <SCORE.INTER.norm>
-1.28017

>  <SCORE.INTRA>
-0.223615

>  <SCORE.INTRA.DIHEDRAL>
0.0323009

>  <SCORE.INTRA.DIHEDRAL.0>
1.66609

>  <SCORE.INTRA.POLAR>
0

>  <SCORE.INTRA.POLAR.0>
0

>  <SCORE.INTRA.REPUL>
0

>  <SCORE.INTRA.REPUL.0>
0

>  <SCORE.INTRA.SOLV>
-0.983986

>  <SCORE.INTRA.SOLV.lig_0>
-45.868

>  <SCORE.INTRA.VDW>
0.252227

>  <SCORE.INTRA.VDW.0>
-0.397919

>  <SCORE.INTRA.norm>
-0.0172012

>  <SCORE.RESTR>
0

>  <SCORE.RESTR.CAVITY>
0

>  <SCORE.RESTR.norm>
0

>  <SCORE.SYSTEM>
0

>  <SCORE.SYSTEM.CONST>
0

>  <SCORE.SYSTEM.DIHEDRAL>
0

>  <SCORE.SYSTEM.SOLV>
0

>  <SCORE.SYSTEM.norm>
0

>  <SCORE.heavy>
13

>  <SCORE.norm>
-1.29737

>  <RMSD>
2.709

$$$$
ligand
 OpenBabel02271912143D
libRbt.so/2013.1/901 2013/11/27
 13 14  0  0  0  0  0  0  0  0999 V2000
   -5.5281  -34.8894  -42.9563 N   0  0  0  0  0  0  0  0  0  0  0  0
   -5.8229  -35.0379  -44.2852 C   0  0  0  0  0  0  0  0  0  0  0  0
   -6.9965  -35.6466  -44.6378 N   0  0  0  0  0  0  0  0  0  0  0  0
   -4.9930  -34.6015  -45.2332 N   0  0  0  0  0  0  0  0  0  0  0  0
   -3.8168  -33.9921  -44.9173 C   0  0  0  0  0  0  0  0  0  0  0  0
   -3.4687  -33.8204  -43.5595 C   0  0  0  0  0  0  0  0  0  0  0  0
   -4.3690  -34.2898  -42.5651 C   0  0  0  0  0  0  0  0  0  0  0  0
   -4.1145  -34.1612  -41.3931 O   0  0  0  0  0  0  0  0  0  0  0  0
   -2.1714  -33.1519  -43.5447 C   0  0  0  0  0  0  0  0  0  0  0  0
   -1.8216  -32.9576  -44.8286 C   0  0  0  0  0  0  0  0  0  0  0  0
   -2.8042  -33.4593  -45.6560 N   0  0  0  0  0  0  0  0  0  0  0  0
   -1.3765  -32.7637  -42.3243 C   0  0  0  0  0  0  0  0  0  0  0  0
    0.0437  -32.6166  -42.7026 N   0  0  0  0  0  0  0  0  0  0  0  0
  1  2  1  0  0  0  0
  1  7  1  0  0  0  0
  2  3  1  0  0  0  0
  2  4  2  0  0  0  0
  4  5  1  0  0  0  0
  5  6  2  0  0  0  0
  5 11  1  0  0  0  0
  6  7  1  0  0  0  0
  6  9  1  0  0  0  0
  7  8  2  0  0  0  0
  9 10  2  0  0  0  0
  9 12  1  0  0  0  0
 10 11  1  0  0  0  0
 12 13  1  0  0  0  0
M  END
>  <CHROM.1>
157.87976402,-3.64296073,-33.96061905,-43.69672359,2.95443303,-0.44108259
-1.54959707

>  <Name>
ligand

>  <RI>
0

>  <Rbt.Current_Directory>
/home/itssahil/PROJECTS/Mol_Feturizer/Test_systems_manuscript/rnas/3fu2

>  <Rbt.Executable>
rbdock ($Id: //depot/dev/client3/rdock/2013.1/src/exe/rbdock.cxx#4 $)

>  <Rbt.Library>
libRbt.so (2013.1, Build901 2013/11/27)

>  <Rbt.Parameter_File>
/export/apps/rDock/src/rDock_2013.1_src/data/scripts/dock_solv.prm

>  <Rbt.Receptor>
prm/pocket_docking_7.prm

>  <SCORE>
-16.8773

>  <SCORE.INTER>
-16.7118

>  <SCORE.INTER.CONST>
1

>  <SCORE.INTER.POLAR>
0

>  <SCORE.INTER.ROT>
1

>  <SCORE.INTER.SOLV>
20.2367

>  <SCORE.INTER.VDW>
-22.1534

>  <SCORE.INTER.norm>
-1.28552

>  <SCORE.INTRA>
-0.16551

>  <SCORE.INTRA.DIHEDRAL>
0.0306866

>  <SCORE.INTRA.DIHEDRAL.0>
1.66609

>  <SCORE.INTRA.POLAR>
0

>  <SCORE.INTRA.POLAR.0>
0

>  <SCORE.INTRA.REPUL>
0

>  <SCORE.INTRA.REPUL.0>
0

>  <SCORE.INTRA.SOLV>
-0.981442

>  <SCORE.INTRA.SOLV.lig_0>
-45.868

>  <SCORE.INTRA.VDW>
0.309868

>  <SCORE.INTRA.VDW.0>
-0.397919

>  <SCORE.INTRA.norm>
-0.0127315

>  <SCORE.RESTR>
0

>  <SCORE.RESTR.CAVITY>
0

>  <SCORE.RESTR.norm>
0

>  <SCORE.SYSTEM>
0

>  <SCORE.SYSTEM.CONST>
0

>  <SCORE.SYSTEM.DIHEDRAL>
0

>  <SCORE.SYSTEM.SOLV>
0

>  <SCORE.SYSTEM.norm>
0

>  <SCORE.heavy>
13

>  <SCORE.norm>
-1.29825

>  <RMSD>
2.709

$$$$
ligand
 OpenBabel02271912143D
libRbt.so/2013.1/901 2013/11/27
 13 14  0  0  0  0  0  0  0  0999 V2000
   -5.5534  -34.8628  -42.9690 N   0  0  0  0  0  0  0  0  0  0  0  0
   -5.8097  -35.0190  -44.3049 C   0  0  0  0  0  0  0  0  0  0  0  0
   -6.9757  -35.6239  -44.6879 N   0  0  0  0  0  0  0  0  0  0  0  0
   -4.9498  -34.5936  -45.2309 N   0  0  0  0  0  0  0  0  0  0  0  0
   -3.7801  -33.9882  -44.8846 C   0  0  0  0  0  0  0  0  0  0  0  0
   -3.4713  -33.8089  -43.5184 C   0  0  0  0  0  0  0  0  0  0  0  0
   -4.4032  -34.2665  -42.5478 C   0  0  0  0  0  0  0  0  0  0  0  0
   -4.1827  -34.1311  -41.3697 O   0  0  0  0  0  0  0  0  0  0  0  0
   -2.1714  -33.1471  -43.4698 C   0  0  0  0  0  0  0  0  0  0  0  0
   -1.7828  -32.9637  -44.7441 C   0  0  0  0  0  0  0  0  0  0  0  0
   -2.7432  -33.4659  -45.5968 N   0  0  0  0  0  0  0  0  0  0  0  0
   -1.4107  -32.7547  -42.2292 C   0  0  0  0  0  0  0  0  0  0  0  0
    0.0375  -32.8289  -42.5097 N   0  0  0  0  0  0  0  0  0  0  0  0
  1  2  1  0  0  0  0
  1  7  1  0  0  0  0
  2  3  1  0  0  0  0
  2  4  2  0  0  0  0
  4  5  1  0  0  0  0
  5  6  2  0  0  0  0
  5 11  1  0  0  0  0
  6  7  1  0  0  0  0
  6  9  1  0  0  0  0
  7  8  2  0  0  0  0
  9 10  2  0  0  0  0
  9 12  1  0  0  0  0
 10 11  1  0  0  0  0
 12 13  1  0  0  0  0
M  END
>  <CHROM.1>
148.87166117,-3.64087023,-33.96632057,-43.65509440,2.91770068,-0.42360091
-1.56268607

>  <Name>
ligand

>  <RI>
0

>  <Rbt.Current_Directory>
/home/itssahil/PROJECTS/Mol_Feturizer/Test_systems_manuscript/rnas/3fu2

>  <Rbt.Executable>
rbdock ($Id: //depot/dev/client3/rdock/2013.1/src/exe/rbdock.cxx#4 $)

>  <Rbt.Library>
libRbt.so (2013.1, Build901 2013/11/27)

>  <Rbt.Parameter_File>
/export/apps/rDock/src/rDock_2013.1_src/data/scripts/dock_solv.prm

>  <Rbt.Receptor>
prm/pocket_docking_2.prm

>  <SCORE>
-16.8702

>  <SCORE.INTER>
-16.6454

>  <SCORE.INTER.CONST>
1

>  <SCORE.INTER.POLAR>
0

>  <SCORE.INTER.ROT>
1

>  <SCORE.INTER.SOLV>
20.0625

>  <SCORE.INTER.VDW>
-22.0511

>  <SCORE.INTER.norm>
-1.28042

>  <SCORE.INTRA>
-0.2248

>  <SCORE.INTRA.DIHEDRAL>
0.0322913

>  <SCORE.INTRA.DIHEDRAL.0>
1.66609

>  <SCORE.INTRA.POLAR>
0

>  <SCORE.INTRA.POLAR.0>
0

>  <SCORE.INTRA.REPUL>
0

>  <SCORE.INTRA.REPUL.0>
0

>  <SCORE.INTRA.SOLV>
-0.984062

>  <SCORE.INTRA.SOLV.lig_0>
-45.868

>  <SCORE.INTRA.VDW>
0.251085

>  <SCORE.INTRA.VDW.0>
-0.397919

>  <SCORE.INTRA.norm>
-0.0172923

>  <SCORE.RESTR>
0

>  <SCORE.RESTR.CAVITY>
0

>  <SCORE.RESTR.norm>
0

>  <SCORE.SYSTEM>
0

>  <SCORE.SYSTEM.CONST>
0

>  <SCORE.SYSTEM.DIHEDRAL>
0

>  <SCORE.SYSTEM.SOLV>
0

>  <SCORE.SYSTEM.norm>
0

>  <SCORE.heavy>
13

>  <SCORE.norm>
-1.29771

>  <RMSD>
2.710

$$$$
ligand
 OpenBabel02271912143D
libRbt.so/2013.1/901 2013/11/27
 13 14  0  0  0  0  0  0  0  0999 V2000
   -5.5549  -34.8725  -42.9191 N   0  0  0  0  0  0  0  0  0  0  0  0
   -5.8464  -35.0359  -44.2470 C   0  0  0  0  0  0  0  0  0  0  0  0
   -7.0262  -35.6346  -44.5958 N   0  0  0  0  0  0  0  0  0  0  0  0
   -5.0073  -34.6233  -45.1976 N   0  0  0  0  0  0  0  0  0  0  0  0
   -3.8248  -34.0245  -44.8855 C   0  0  0  0  0  0  0  0  0  0  0  0
   -3.4797  -33.8381  -43.5288 C   0  0  0  0  0  0  0  0  0  0  0  0
   -4.3899  -34.2821  -42.5316 C   0  0  0  0  0  0  0  0  0  0  0  0
   -4.1383  -34.1403  -41.3605 O   0  0  0  0  0  0  0  0  0  0  0  0
   -2.1742  -33.1859  -43.5181 C   0  0  0  0  0  0  0  0  0  0  0  0
   -1.8169  -33.0141  -44.8031 C   0  0  0  0  0  0  0  0  0  0  0  0
   -2.8026  -33.5149  -45.6275 N   0  0  0  0  0  0  0  0  0  0  0  0
   -1.3792  -32.7908  -42.3000 C   0  0  0  0  0  0  0  0  0  0  0  0
    0.0450  -32.6722  -42.6733 N   0  0  0  0  0  0  0  0  0  0  0  0
  1  2  1  0  0  0  0
  1  7  1  0  0  0  0
  2  3  1  0  0  0  0
  2  4  2  0  0  0  0
  4  5  1  0  0  0  0
  5  6  2  0  0  0  0
  5 11  1  0  0  0  0
  6  7  1  0  0  0  0
  6  9  1  0  0  0  0
  7  8  2  0  0  0  0
  9 10  2  0  0  0  0
  9 12  1  0  0  0  0
 10 11  1  0  0  0  0
 12 13  1  0  0  0  0
M  END
>  <CHROM.1>
157.65399011,-3.65521686,-33.97850008,-43.66466663,2.94977154,-0.42814456
-1.56537294

>  <Name>
ligand

>  <RI>
0

>  <Rbt.Current_Directory>
/home/itssahil/PROJECTS/Mol_Feturizer/Test_systems_manuscript/rnas/3fu2

>  <Rbt.Executable>
rbdock ($Id: //depot/dev/client3/rdock/2013.1/src/exe/rbdock.cxx#4 $)

>  <Rbt.Library>
libRbt.so (2013.1, Build901 2013/11/27)

>  <Rbt.Parameter_File>
/export/apps/rDock/src/rDock_2013.1_src/data/scripts/dock_solv.prm

>  <Rbt.Receptor>
prm/pocket_docking_2.prm

>  <SCORE>
-16.8778

>  <SCORE.INTER>
-16.7114

>  <SCORE.INTER.CONST>
1

>  <SCORE.INTER.POLAR>
0

>  <SCORE.INTER.ROT>
1

>  <SCORE.INTER.SOLV>
20.3386

>  <SCORE.INTER.VDW>
-22.1871

>  <SCORE.INTER.norm>
-1.28549

>  <SCORE.INTRA>
-0.166437

>  <SCORE.INTRA.DIHEDRAL>
0.0307748

>  <SCORE.INTRA.DIHEDRAL.0>
1.66609

>  <SCORE.INTRA.POLAR>
0

>  <SCORE.INTRA.POLAR.0>
0

>  <SCORE.INTRA.REPUL>
0

>  <SCORE.INTRA.REPUL.0>
0

>  <SCORE.INTRA.SOLV>
-0.9815

>  <SCORE.INTRA.SOLV.lig_0>
-45.868

>  <SCORE.INTRA.VDW>
0.308925

>  <SCORE.INTRA.VDW.0>
-0.397919

>  <SCORE.INTRA.norm>
-0.0128029

>  <SCORE.RESTR>
0

>  <SCORE.RESTR.CAVITY>
0

>  <SCORE.RESTR.norm>
0

>  <SCORE.SYSTEM>
0

>  <SCORE.SYSTEM.CONST>
0

>  <SCORE.SYSTEM.DIHEDRAL>
0

>  <SCORE.SYSTEM.SOLV>
0

>  <SCORE.SYSTEM.norm>
0

>  <SCORE.heavy>
13

>  <SCORE.norm>
-1.2983

>  <RMSD>
2.710

$$$$
ligand
 OpenBabel02271912143D
libRbt.so/2013.1/901 2013/11/27
 13 14  0  0  0  0  0  0  0  0999 V2000
   -5.5331  -34.8768  -42.9564 N   0  0  0  0  0  0  0  0  0  0  0  0
   -5.8164  -35.0397  -44.2860 C   0  0  0  0  0  0  0  0  0  0  0  0
   -6.9887  -35.6487  -44.6422 N   0  0  0  0  0  0  0  0  0  0  0  0
   -4.9765  -34.6170  -45.2314 N   0  0  0  0  0  0  0  0  0  0  0  0
   -3.8012  -34.0078  -44.9120 C   0  0  0  0  0  0  0  0  0  0  0  0
   -3.4648  -33.8214  -43.5532 C   0  0  0  0  0  0  0  0  0  0  0  0
   -4.3757  -34.2763  -42.5616 C   0  0  0  0  0  0  0  0  0  0  0  0
   -4.1314  -34.1349  -41.3889 O   0  0  0  0  0  0  0  0  0  0  0  0
   -2.1655  -33.1569  -43.5343 C   0  0  0  0  0  0  0  0  0  0  0  0
   -1.8035  -32.9787  -44.8172 C   0  0  0  0  0  0  0  0  0  0  0  0
   -2.7802  -33.4868  -45.6476 N   0  0  0  0  0  0  0  0  0  0  0  0
   -1.3804  -32.7571  -42.3114 C   0  0  0  0  0  0  0  0  0  0  0  0
    0.0535  -32.6952  -42.6599 N   0  0  0  0  0  0  0  0  0  0  0  0
  1  2  1  0  0  0  0
  1  7  1  0  0  0  0
  2  3  1  0  0  0  0
  2  4  2  0  0  0  0
  4  5  1  0  0  0  0
  5  6  2  0  0  0  0
  5 11  1  0  0  0  0
  6  7  1  0  0  0  0
  6  9  1  0  0  0  0
  7  8  2  0  0  0  0
  9 10  2  0  0  0  0
  9 12  1  0  0  0  0
 10 11  1  0  0  0  0
 12 13  1  0  0  0  0
M  END
>  <CHROM.1>
154.63641544,-3.63750910,-33.96884353,-43.68882867,2.94310900,-0.43325387
-1.56295030

>  <Name>
ligand

>  <RI>
0

>  <Rbt.Current_Directory>
/home/itssahil/PROJECTS/Mol_Feturizer/Test_systems_manuscript/rnas/3fu2

>  <Rbt.Executable>
rbdock ($Id: //depot/dev/client3/rdock/2013.1/src/exe/rbdock.cxx#4 $)

>  <Rbt.Library>
libRbt.so (2013.1, Build901 2013/11/27)

>  <Rbt.Parameter_File>
/export/apps/rDock/src/rDock_2013.1_src/data/scripts/dock_solv.prm

>  <Rbt.Receptor>
prm/pocket_docking_2.prm

>  <SCORE>
-16.8763

>  <SCORE.INTER>
-16.6793

>  <SCORE.INTER.CONST>
1

>  <SCORE.INTER.POLAR>
0

>  <SCORE.INTER.ROT>
1

>  <SCORE.INTER.SOLV>
20.2801

>  <SCORE.INTER.VDW>
-22.1462

>  <SCORE.INTER.norm>
-1.28302

>  <SCORE.INTRA>
-0.197016

>  <SCORE.INTRA.DIHEDRAL>
0.0317235

>  <SCORE.INTRA.DIHEDRAL.0>
1.66609

>  <SCORE.INTRA.POLAR>
0

>  <SCORE.INTRA.POLAR.0>
0

>  <SCORE.INTRA.REPUL>
0

>  <SCORE.INTRA.REPUL.0>
0

>  <SCORE.INTRA.SOLV>
-0.982312

>  <SCORE.INTRA.SOLV.lig_0>
-45.868

>  <SCORE.INTRA.VDW>
0.278278

>  <SCORE.INTRA.VDW.0>
-0.397919

>  <SCORE.INTRA.norm>
-0.0151551

>  <SCORE.RESTR>
0

>  <SCORE.RESTR.CAVITY>
0

>  <SCORE.RESTR.norm>
0

>  <SCORE.SYSTEM>
0

>  <SCORE.SYSTEM.CONST>
0

>  <SCORE.SYSTEM.DIHEDRAL>
0

>  <SCORE.SYSTEM.SOLV>
0

>  <SCORE.SYSTEM.norm>
0

>  <SCORE.heavy>
13

>  <SCORE.norm>
-1.29817

>  <RMSD>
2.710

$$$$
ligand
 OpenBabel02271912143D
libRbt.so/2013.1/901 2013/11/27
 13 14  0  0  0  0  0  0  0  0999 V2000
   -5.5378  -34.8845  -42.9601 N   0  0  0  0  0  0  0  0  0  0  0  0
   -5.8332  -35.0390  -44.2882 C   0  0  0  0  0  0  0  0  0  0  0  0
   -7.0102  -35.6430  -44.6376 N   0  0  0  0  0  0  0  0  0  0  0  0
   -5.0005  -34.6130  -45.2385 N   0  0  0  0  0  0  0  0  0  0  0  0
   -3.8210  -34.0085  -44.9259 C   0  0  0  0  0  0  0  0  0  0  0  0
   -3.4722  -33.8309  -43.5690 C   0  0  0  0  0  0  0  0  0  0  0  0
   -4.3754  -34.2892  -42.5721 C   0  0  0  0  0  0  0  0  0  0  0  0
   -4.1205  -34.1552  -41.4008 O   0  0  0  0  0  0  0  0  0  0  0  0
   -2.1711  -33.1698  -43.5578 C   0  0  0  0  0  0  0  0  0  0  0  0
   -1.8198  -32.9850  -44.8427 C   0  0  0  0  0  0  0  0  0  0  0  0
   -2.8051  -33.4859  -45.6675 N   0  0  0  0  0  0  0  0  0  0  0  0
   -1.3743  -32.7790  -42.3395 C   0  0  0  0  0  0  0  0  0  0  0  0
    0.0350  -32.5752  -42.7320 N   0  0  0  0  0  0  0  0  0  0  0  0
  1  2  1  0  0  0  0
  1  7  1  0  0  0  0
  2  3  1  0  0  0  0
  2  4  2  0  0  0  0
  4  5  1  0  0  0  0
  5  6  2  0  0  0  0
  5 11  1  0  0  0  0
  6  7  1  0  0  0  0
  6  9  1  0  0  0  0
  7  8  2  0  0  0  0
  9 10  2  0  0  0  0
  9 12  1  0  0  0  0
 10 11  1  0  0  0  0
 12 13  1  0  0  0  0
M  END
>  <CHROM.1>
160.73324143,-3.64819139,-33.96543692,-43.70658682,2.95494805,-0.43962962
-1.55771727

>  <Name>
ligand

>  <RI>
0

>  <Rbt.Current_Directory>
/home/itssahil/PROJECTS/Mol_Feturizer/Test_systems_manuscript/rnas/3fu2

>  <Rbt.Executable>
rbdock ($Id: //depot/dev/client3/rdock/2013.1/src/exe/rbdock.cxx#4 $)

>  <Rbt.Library>
libRbt.so (2013.1, Build901 2013/11/27)

>  <Rbt.Parameter_File>
/export/apps/rDock/src/rDock_2013.1_src/data/scripts/dock_solv.prm

>  <Rbt.Receptor>
prm/pocket_docking_3.prm

>  <SCORE>
-16.8308

>  <SCORE.INTER>
-16.6765

>  <SCORE.INTER.CONST>
1

>  <SCORE.INTER.POLAR>
0

>  <SCORE.INTER.ROT>
1

>  <SCORE.INTER.SOLV>
20.2645

>  <SCORE.INTER.VDW>
-22.1391

>  <SCORE.INTER.norm>
-1.2828

>  <SCORE.INTRA>
-0.154376

>  <SCORE.INTRA.DIHEDRAL>
0.0293739

>  <SCORE.INTRA.DIHEDRAL.0>
1.66609

>  <SCORE.INTRA.POLAR>
0

>  <SCORE.INTRA.POLAR.0>
0

>  <SCORE.INTRA.REPUL>
0

>  <SCORE.INTRA.REPUL.0>
0

>  <SCORE.INTRA.SOLV>
-0.980764

>  <SCORE.INTRA.SOLV.lig_0>
-45.868

>  <SCORE.INTRA.VDW>
0.321319

>  <SCORE.INTRA.VDW.0>
-0.397919

>  <SCORE.INTRA.norm>
-0.0118751

>  <SCORE.RESTR>
0

>  <SCORE.RESTR.CAVITY>
0

>  <SCORE.RESTR.norm>
0

>  <SCORE.SYSTEM>
0

>  <SCORE.SYSTEM.CONST>
0

>  <SCORE.SYSTEM.DIHEDRAL>
0

>  <SCORE.SYSTEM.SOLV>
0

>  <SCORE.SYSTEM.norm>
0

>  <SCORE.heavy>
13

>  <SCORE.norm>
-1.29468

>  <RMSD>
2.710

$$$$
ligand
 OpenBabel02271912143D
libRbt.so/2013.1/901 2013/11/27
 13 14  0  0  0  0  0  0  0  0999 V2000
   -5.5536  -34.8780  -42.9661 N   0  0  0  0  0  0  0  0  0  0  0  0
   -5.8215  -35.0195  -44.3014 C   0  0  0  0  0  0  0  0  0  0  0  0
   -6.9918  -35.6183  -44.6809 N   0  0  0  0  0  0  0  0  0  0  0  0
   -4.9688  -34.5857  -45.2301 N   0  0  0  0  0  0  0  0  0  0  0  0
   -3.7951  -33.9861  -44.8873 C   0  0  0  0  0  0  0  0  0  0  0  0
   -3.4743  -33.8219  -43.5219 C   0  0  0  0  0  0  0  0  0  0  0  0
   -4.3987  -34.2883  -42.5484 C   0  0  0  0  0  0  0  0  0  0  0  0
   -4.1680  -34.1658  -41.3708 O   0  0  0  0  0  0  0  0  0  0  0  0
   -2.1729  -33.1629  -43.4773 C   0  0  0  0  0  0  0  0  0  0  0  0
   -1.7948  -32.9665  -44.7529 C   0  0  0  0  0  0  0  0  0  0  0  0
   -2.7634  -33.4580  -45.6027 N   0  0  0  0  0  0  0  0  0  0  0  0
   -1.4010  -32.7851  -42.2391 C   0  0  0  0  0  0  0  0  0  0  0  0
    0.0405  -32.7601  -42.5603 N   0  0  0  0  0  0  0  0  0  0  0  0
  1  2  1  0  0  0  0
  1  7  1  0  0  0  0
  2  3  1  0  0  0  0
  2  4  2  0  0  0  0
  4  5  1  0  0  0  0
  5  6  2  0  0  0  0
  5 11  1  0  0  0  0
  6  7  1  0  0  0  0
  6  9  1  0  0  0  0
  7  8  2  0  0  0  0
  9 10  2  0  0  0  0
  9 12  1  0  0  0  0
 10 11  1  0  0  0  0
 12 13  1  0  0  0  0
M  END
>  <CHROM.1>
153.08141488,-3.64566888,-33.96952879,-43.66110539,2.92918974,-0.42735247
-1.55184567

>  <Name>
ligand

>  <RI>
0

>  <Rbt.Current_Directory>
/home/itssahil/PROJECTS/Mol_Feturizer/Test_systems_manuscript/rnas/3fu2

>  <Rbt.Executable>
rbdock ($Id: //depot/dev/client3/rdock/2013.1/src/exe/rbdock.cxx#4 $)

>  <Rbt.Library>
libRbt.so (2013.1, Build901 2013/11/27)

>  <Rbt.Parameter_File>
/export/apps/rDock/src/rDock_2013.1_src/data/scripts/dock_solv.prm

>  <Rbt.Receptor>
prm/pocket_docking_3.prm

>  <SCORE>
-16.8492

>  <SCORE.INTER>
-16.6449

>  <SCORE.INTER.CONST>
1

>  <SCORE.INTER.POLAR>
0

>  <SCORE.INTER.ROT>
1

>  <SCORE.INTER.SOLV>
20.0913

>  <SCORE.INTER.VDW>
-22.0604

>  <SCORE.INTER.norm>
-1.28038

>  <SCORE.INTRA>
-0.204268

>  <SCORE.INTRA.DIHEDRAL>
0.0320401

>  <SCORE.INTRA.DIHEDRAL.0>
1.66609

>  <SCORE.INTRA.POLAR>
0

>  <SCORE.INTRA.POLAR.0>
0

>  <SCORE.INTRA.REPUL>
0

>  <SCORE.INTRA.REPUL.0>
0

>  <SCORE.INTRA.SOLV>
-0.982761

>  <SCORE.INTRA.SOLV.lig_0>
-45.868

>  <SCORE.INTRA.VDW>
0.271092

>  <SCORE.INTRA.VDW.0>
-0.397919

>  <SCORE.INTRA.norm>
-0.0157129

>  <SCORE.RESTR>
0

>  <SCORE.RESTR.CAVITY>
0

>  <SCORE.RESTR.norm>
0

>  <SCORE.SYSTEM>
0

>  <SCORE.SYSTEM.CONST>
0

>  <SCORE.SYSTEM.DIHEDRAL>
0

>  <SCORE.SYSTEM.SOLV>
0

>  <SCORE.SYSTEM.norm>
0

>  <SCORE.heavy>
13

>  <SCORE.norm>
-1.29609

>  <RMSD>
2.710

$$$$
ligand
 OpenBabel02271912143D
libRbt.so/2013.1/901 2013/11/27
 13 14  0  0  0  0  0  0  0  0999 V2000
   -5.5564  -34.8729  -42.9202 N   0  0  0  0  0  0  0  0  0  0  0  0
   -5.8616  -35.0226  -44.2466 C   0  0  0  0  0  0  0  0  0  0  0  0
   -7.0407  -35.6262  -44.5894 N   0  0  0  0  0  0  0  0  0  0  0  0
   -5.0364  -34.5924  -45.2015 N   0  0  0  0  0  0  0  0  0  0  0  0
   -3.8549  -33.9883  -44.8954 C   0  0  0  0  0  0  0  0  0  0  0  0
   -3.4961  -33.8155  -43.5406 C   0  0  0  0  0  0  0  0  0  0  0  0
   -4.3915  -34.2783  -42.5386 C   0  0  0  0  0  0  0  0  0  0  0  0
   -4.1279  -34.1485  -41.3688 O   0  0  0  0  0  0  0  0  0  0  0  0
   -2.1954  -33.1535  -43.5366 C   0  0  0  0  0  0  0  0  0  0  0  0
   -1.8540  -32.9637  -44.8234 C   0  0  0  0  0  0  0  0  0  0  0  0
   -2.8450  -33.4622  -45.6427 N   0  0  0  0  0  0  0  0  0  0  0  0
   -1.3897  -32.7668  -42.3229 C   0  0  0  0  0  0  0  0  0  0  0  0
    0.0231  -32.5961  -42.7183 N   0  0  0  0  0  0  0  0  0  0  0  0
  1  2  1  0  0  0  0
  1  7  1  0  0  0  0
  2  3  1  0  0  0  0
  2  4  2  0  0  0  0
  4  5  1  0  0  0  0
  5  6  2  0  0  0  0
  5 11  1  0  0  0  0
  6  7  1  0  0  0  0
  6  9  1  0  0  0  0
  7  8  2  0  0  0  0
  9 10  2  0  0  0  0
  9 12  1  0  0  0  0
 10 11  1  0  0  0  0
 12 13  1  0  0  0  0
M  END
>  <CHROM.1>
159.21888840,-3.67249960,-33.95258038,-43.67676447,2.96278706,-0.43791109
-1.54933377

>  <Name>
ligand

>  <RI>
0

>  <Rbt.Current_Directory>
/home/itssahil/PROJECTS/Mol_Feturizer/Test_systems_manuscript/rnas/3fu2

>  <Rbt.Executable>
rbdock ($Id: //depot/dev/client3/rdock/2013.1/src/exe/rbdock.cxx#4 $)

>  <Rbt.Library>
libRbt.so (2013.1, Build901 2013/11/27)

>  <Rbt.Parameter_File>
/export/apps/rDock/src/rDock_2013.1_src/data/scripts/dock_solv.prm

>  <Rbt.Receptor>
prm/pocket_docking_5.prm

>  <SCORE>
-16.8808

>  <SCORE.INTER>
-16.7206

>  <SCORE.INTER.CONST>
1

>  <SCORE.INTER.POLAR>
0

>  <SCORE.INTER.ROT>
1

>  <SCORE.INTER.SOLV>
20.3153

>  <SCORE.INTER.VDW>
-22.1855

>  <SCORE.INTER.norm>
-1.2862

>  <SCORE.INTRA>
-0.160144

>  <SCORE.INTRA.DIHEDRAL>
0.0301155

>  <SCORE.INTRA.DIHEDRAL.0>
1.66609

>  <SCORE.INTRA.POLAR>
0

>  <SCORE.INTRA.POLAR.0>
0

>  <SCORE.INTRA.REPUL>
0

>  <SCORE.INTRA.REPUL.0>
0

>  <SCORE.INTRA.SOLV>
-0.981113

>  <SCORE.INTRA.SOLV.lig_0>
-45.868

>  <SCORE.INTRA.VDW>
0.315355

>  <SCORE.INTRA.VDW.0>
-0.397919

>  <SCORE.INTRA.norm>
-0.0123188

>  <SCORE.RESTR>
0

>  <SCORE.RESTR.CAVITY>
0

>  <SCORE.RESTR.norm>
0

>  <SCORE.SYSTEM>
0

>  <SCORE.SYSTEM.CONST>
0

>  <SCORE.SYSTEM.DIHEDRAL>
0

>  <SCORE.SYSTEM.SOLV>
0

>  <SCORE.SYSTEM.norm>
0

>  <SCORE.heavy>
13

>  <SCORE.norm>
-1.29852

>  <RMSD>
2.710

$$$$
ligand
 OpenBabel02271912143D
libRbt.so/2013.1/901 2013/11/27
 13 14  0  0  0  0  0  0  0  0999 V2000
   -5.5446  -34.8679  -42.9580 N   0  0  0  0  0  0  0  0  0  0  0  0
   -5.8340  -35.0272  -44.2868 C   0  0  0  0  0  0  0  0  0  0  0  0
   -7.0076  -35.6362  -44.6392 N   0  0  0  0  0  0  0  0  0  0  0  0
   -4.9990  -34.6010  -45.2350 N   0  0  0  0  0  0  0  0  0  0  0  0
   -3.8228  -33.9917  -44.9193 C   0  0  0  0  0  0  0  0  0  0  0  0
   -3.4800  -33.8090  -43.5616 C   0  0  0  0  0  0  0  0  0  0  0  0
   -4.3858  -34.2676  -42.5670 C   0  0  0  0  0  0  0  0  0  0  0  0
   -4.1360  -34.1294  -41.3951 O   0  0  0  0  0  0  0  0  0  0  0  0
   -2.1813  -33.1435  -43.5470 C   0  0  0  0  0  0  0  0  0  0  0  0
   -1.8255  -32.9612  -44.8310 C   0  0  0  0  0  0  0  0  0  0  0  0
   -2.8057  -33.4677  -45.6583 N   0  0  0  0  0  0  0  0  0  0  0  0
   -1.3907  -32.7466  -42.3266 C   0  0  0  0  0  0  0  0  0  0  0  0
    0.0355  -32.6336  -42.6937 N   0  0  0  0  0  0  0  0  0  0  0  0
  1  2  1  0  0  0  0
  1  7  1  0  0  0  0
  2  3  1  0  0  0  0
  2  4  2  0  0  0  0
  4  5  1  0  0  0  0
  5  6  2  0  0  0  0
  5 11  1  0  0  0  0
  6  7  1  0  0  0  0
  6  9  1  0  0  0  0
  7  8  2  0  0  0  0
  9 10  2  0  0  0  0
  9 12  1  0  0  0  0
 10 11  1  0  0  0  0
 12 13  1  0  0  0  0
M  END
>  <CHROM.1>
156.71223050,-3.65374860,-33.95226589,-43.69782160,2.94920349,-0.43705077
-1.55943590

>  <Name>
ligand

>  <RI>
0

>  <Rbt.Current_Directory>
/home/itssahil/PROJECTS/Mol_Feturizer/Test_systems_manuscript/rnas/3fu2

>  <Rbt.Executable>
rbdock ($Id: //depot/dev/client3/rdock/2013.1/src/exe/rbdock.cxx#4 $)

>  <Rbt.Library>
libRbt.so (2013.1, Build901 2013/11/27)

>  <Rbt.Parameter_File>
/export/apps/rDock/src/rDock_2013.1_src/data/scripts/dock_solv.prm

>  <Rbt.Receptor>
prm/pocket_docking_8.prm

>  <SCORE>
-16.8637

>  <SCORE.INTER>
-16.6933

>  <SCORE.INTER.CONST>
1

>  <SCORE.INTER.POLAR>
0

>  <SCORE.INTER.ROT>
1

>  <SCORE.INTER.SOLV>
20.2695

>  <SCORE.INTER.VDW>
-22.1521

>  <SCORE.INTER.norm>
-1.2841

>  <SCORE.INTRA>
-0.170371

>  <SCORE.INTRA.DIHEDRAL>
0.0311173

>  <SCORE.INTRA.DIHEDRAL.0>
1.66609

>  <SCORE.INTRA.POLAR>
0

>  <SCORE.INTRA.POLAR.0>
0

>  <SCORE.INTRA.REPUL>
0

>  <SCORE.INTRA.REPUL.0>
0

>  <SCORE.INTRA.SOLV>
-0.981744

>  <SCORE.INTRA.SOLV.lig_0>
-45.868

>  <SCORE.INTRA.VDW>
0.304942

>  <SCORE.INTRA.VDW.0>
-0.397919

>  <SCORE.INTRA.norm>
-0.0131055

>  <SCORE.RESTR>
0

>  <SCORE.RESTR.CAVITY>
0

>  <SCORE.RESTR.norm>
0

>  <SCORE.SYSTEM>
0

>  <SCORE.SYSTEM.CONST>
0

>  <SCORE.SYSTEM.DIHEDRAL>
0

>  <SCORE.SYSTEM.SOLV>
0

>  <SCORE.SYSTEM.norm>
0

>  <SCORE.heavy>
13

>  <SCORE.norm>
-1.29721

>  <RMSD>
2.710

$$$$
ligand
 OpenBabel02271912143D
libRbt.so/2013.1/901 2013/11/27
 13 14  0  0  0  0  0  0  0  0999 V2000
   -5.5850  -34.8777  -42.9099 N   0  0  0  0  0  0  0  0  0  0  0  0
   -5.8493  -35.0334  -44.2443 C   0  0  0  0  0  0  0  0  0  0  0  0
   -7.0216  -35.6304  -44.6206 N   0  0  0  0  0  0  0  0  0  0  0  0
   -4.9912  -34.6152  -45.1752 N   0  0  0  0  0  0  0  0  0  0  0  0
   -3.8154  -34.0179  -44.8355 C   0  0  0  0  0  0  0  0  0  0  0  0
   -3.4982  -33.8394  -43.4711 C   0  0  0  0  0  0  0  0  0  0  0  0
   -4.4283  -34.2893  -42.4952 C   0  0  0  0  0  0  0  0  0  0  0  0
   -4.2008  -34.1543  -41.3184 O   0  0  0  0  0  0  0  0  0  0  0  0
   -2.1934  -33.1869  -43.4299 C   0  0  0  0  0  0  0  0  0  0  0  0
   -1.8100  -33.0076  -44.7064 C   0  0  0  0  0  0  0  0  0  0  0  0
   -2.7785  -33.5038  -45.5536 N   0  0  0  0  0  0  0  0  0  0  0  0
   -1.4235  -32.7987  -42.1936 C   0  0  0  0  0  0  0  0  0  0  0  0
    0.0201  -32.8013  -42.5059 N   0  0  0  0  0  0  0  0  0  0  0  0
  1  2  1  0  0  0  0
  1  7  1  0  0  0  0
  2  3  1  0  0  0  0
  2  4  2  0  0  0  0
  4  5  1  0  0  0  0
  5  6  2  0  0  0  0
  5 11  1  0  0  0  0
  6  7  1  0  0  0  0
  6  9  1  0  0  0  0
  7  8  2  0  0  0  0
  9 10  2  0  0  0  0
  9 12  1  0  0  0  0
 10 11  1  0  0  0  0
 12 13  1  0  0  0  0
M  END
>  <CHROM.1>
152.39791573,-3.66982113,-33.98903586,-43.60875195,2.92515074,-0.42106384
-1.56454865

>  <Name>
ligand

>  <RI>
0

>  <Rbt.Current_Directory>
/home/itssahil/PROJECTS/Mol_Feturizer/Test_systems_manuscript/rnas/3fu2

>  <Rbt.Executable>
rbdock ($Id: //depot/dev/client3/rdock/2013.1/src/exe/rbdock.cxx#4 $)

>  <Rbt.Library>
libRbt.so (2013.1, Build901 2013/11/27)

>  <Rbt.Parameter_File>
/export/apps/rDock/src/rDock_2013.1_src/data/scripts/dock_solv.prm

>  <Rbt.Receptor>
prm/blind_docking_100.prm

>  <SCORE>
-16.7961

>  <SCORE.INTER>
-16.5885

>  <SCORE.INTER.CONST>
1

>  <SCORE.INTER.POLAR>
0

>  <SCORE.INTER.ROT>
1

>  <SCORE.INTER.SOLV>
20.1036

>  <SCORE.INTER.VDW>
-22.0269

>  <SCORE.INTER.norm>
-1.27604

>  <SCORE.INTRA>
-0.207521

>  <SCORE.INTRA.DIHEDRAL>
0.0321414

>  <SCORE.INTRA.DIHEDRAL.0>
1.66609

>  <SCORE.INTRA.POLAR>
0

>  <SCORE.INTRA.POLAR.0>
0

>  <SCORE.INTRA.REPUL>
0

>  <SCORE.INTRA.REPUL.0>
0

>  <SCORE.INTRA.SOLV>
-0.982964

>  <SCORE.INTRA.SOLV.lig_0>
-45.868

>  <SCORE.INTRA.VDW>
0.26789

>  <SCORE.INTRA.VDW.0>
-0.397919

>  <SCORE.INTRA.norm>
-0.0159632

>  <SCORE.RESTR>
0

>  <SCORE.RESTR.CAVITY>
0

>  <SCORE.RESTR.norm>
0

>  <SCORE.SYSTEM>
0

>  <SCORE.SYSTEM.CONST>
0

>  <SCORE.SYSTEM.DIHEDRAL>
0

>  <SCORE.SYSTEM.SOLV>
0

>  <SCORE.SYSTEM.norm>
0

>  <SCORE.heavy>
13

>  <SCORE.norm>
-1.292

>  <RMSD>
2.711

$$$$
ligand
 OpenBabel02271912143D
libRbt.so/2013.1/901 2013/11/27
 13 14  0  0  0  0  0  0  0  0999 V2000
   -5.5716  -34.8857  -42.9626 N   0  0  0  0  0  0  0  0  0  0  0  0
   -5.8253  -35.0361  -44.2997 C   0  0  0  0  0  0  0  0  0  0  0  0
   -6.9924  -35.6357  -44.6877 N   0  0  0  0  0  0  0  0  0  0  0  0
   -4.9617  -34.6104  -45.2221 N   0  0  0  0  0  0  0  0  0  0  0  0
   -3.7908  -34.0103  -44.8708 C   0  0  0  0  0  0  0  0  0  0  0  0
   -3.4846  -33.8370  -43.5032 C   0  0  0  0  0  0  0  0  0  0  0  0
   -4.4204  -34.2949  -42.5365 C   0  0  0  0  0  0  0  0  0  0  0  0
   -4.2022  -34.1645  -41.3574 O   0  0  0  0  0  0  0  0  0  0  0  0
   -2.1825  -33.1799  -43.4491 C   0  0  0  0  0  0  0  0  0  0  0  0
   -1.7902  -32.9931  -44.7218 C   0  0  0  0  0  0  0  0  0  0  0  0
   -2.7504  -33.4890  -45.5786 N   0  0  0  0  0  0  0  0  0  0  0  0
   -1.4235  -32.7945  -42.2052 C   0  0  0  0  0  0  0  0  0  0  0  0
    0.0219  -32.7819  -42.5088 N   0  0  0  0  0  0  0  0  0  0  0  0
  1  2  1  0  0  0  0
  1  7  1  0  0  0  0
  2  3  1  0  0  0  0
  2  4  2  0  0  0  0
  4  5  1  0  0  0  0
  5  6  2  0  0  0  0
  5 11  1  0  0  0  0
  6  7  1  0  0  0  0
  6  9  1  0  0  0  0
  7  8  2  0  0  0  0
  9 10  2  0  0  0  0
  9 12  1  0  0  0  0
 10 11  1  0  0  0  0
 12 13  1  0  0  0  0
M  END
>  <CHROM.1>
152.75728736,-3.65464062,-33.98593730,-43.64301228,2.91703732,-0.42534209
-1.56360834

>  <Name>
ligand

>  <RI>
0

>  <Rbt.Current_Directory>
/home/itssahil/PROJECTS/Mol_Feturizer/Test_systems_manuscript/rnas/3fu2

>  <Rbt.Executable>
rbdock ($Id: //depot/dev/client3/rdock/2013.1/src/exe/rbdock.cxx#4 $)

>  <Rbt.Library>
libRbt.so (2013.1, Build901 2013/11/27)

>  <Rbt.Parameter_File>
/export/apps/rDock/src/rDock_2013.1_src/data/scripts/dock_solv.prm

>  <Rbt.Receptor>
prm/pocket_docking_6.prm

>  <SCORE>
-16.8501

>  <SCORE.INTER>
-16.6442

>  <SCORE.INTER.CONST>
1

>  <SCORE.INTER.POLAR>
0

>  <SCORE.INTER.ROT>
1

>  <SCORE.INTER.SOLV>
20.0144

>  <SCORE.INTER.VDW>
-22.0343

>  <SCORE.INTER.norm>
-1.28033

>  <SCORE.INTRA>
-0.205806

>  <SCORE.INTRA.DIHEDRAL>
0.0320911

>  <SCORE.INTRA.DIHEDRAL.0>
1.66609

>  <SCORE.INTRA.POLAR>
0

>  <SCORE.INTRA.POLAR.0>
0

>  <SCORE.INTRA.REPUL>
0

>  <SCORE.INTRA.REPUL.0>
0

>  <SCORE.INTRA.SOLV>
-0.982857

>  <SCORE.INTRA.SOLV.lig_0>
-45.868

>  <SCORE.INTRA.VDW>
0.269577

>  <SCORE.INTRA.VDW.0>
-0.397919

>  <SCORE.INTRA.norm>
-0.0158312

>  <SCORE.RESTR>
0

>  <SCORE.RESTR.CAVITY>
0

>  <SCORE.RESTR.norm>
0

>  <SCORE.SYSTEM>
0

>  <SCORE.SYSTEM.CONST>
0

>  <SCORE.SYSTEM.DIHEDRAL>
0

>  <SCORE.SYSTEM.SOLV>
0

>  <SCORE.SYSTEM.norm>
0

>  <SCORE.heavy>
13

>  <SCORE.norm>
-1.29616

>  <RMSD>
2.711

$$$$
ligand
 OpenBabel02271912143D
libRbt.so/2013.1/901 2013/11/27
 13 14  0  0  0  0  0  0  0  0999 V2000
   -5.5685  -34.8545  -42.9344 N   0  0  0  0  0  0  0  0  0  0  0  0
   -5.8494  -35.0433  -44.2612 C   0  0  0  0  0  0  0  0  0  0  0  0
   -7.0238  -35.6539  -44.6077 N   0  0  0  0  0  0  0  0  0  0  0  0
   -5.0054  -34.6440  -45.2130 N   0  0  0  0  0  0  0  0  0  0  0  0
   -3.8280  -34.0338  -44.9032 C   0  0  0  0  0  0  0  0  0  0  0  0
   -3.4939  -33.8213  -43.5476 C   0  0  0  0  0  0  0  0  0  0  0  0
   -4.4092  -34.2515  -42.5492 C   0  0  0  0  0  0  0  0  0  0  0  0
   -4.1670  -34.0873  -41.3791 O   0  0  0  0  0  0  0  0  0  0  0  0
   -2.1915  -33.1626  -43.5392 C   0  0  0  0  0  0  0  0  0  0  0  0
   -1.8256  -33.0124  -44.8245 C   0  0  0  0  0  0  0  0  0  0  0  0
   -2.8027  -33.5328  -45.6468 N   0  0  0  0  0  0  0  0  0  0  0  0
   -1.4074  -32.7416  -42.3228 C   0  0  0  0  0  0  0  0  0  0  0  0
    0.0251  -32.6700  -42.6755 N   0  0  0  0  0  0  0  0  0  0  0  0
  1  2  1  0  0  0  0
  1  7  1  0  0  0  0
  2  3  1  0  0  0  0
  2  4  2  0  0  0  0
  4  5  1  0  0  0  0
  5  6  2  0  0  0  0
  5 11  1  0  0  0  0
  6  7  1  0  0  0  0
  6  9  1  0  0  0  0
  7  8  2  0  0  0  0
  9 10  2  0  0  0  0
  9 12  1  0  0  0  0
 10 11  1  0  0  0  0
 12 13  1  0  0  0  0
M  END
>  <CHROM.1>
155.64460319,-3.66714613,-33.96875460,-43.68119255,2.94090669,-0.42997331
-1.58530047

>  <Name>
ligand

>  <RI>
0

>  <Rbt.Current_Directory>
/home/itssahil/PROJECTS/Mol_Feturizer/Test_systems_manuscript/rnas/3fu2

>  <Rbt.Executable>
rbdock ($Id: //depot/dev/client3/rdock/2013.1/src/exe/rbdock.cxx#4 $)

>  <Rbt.Library>
libRbt.so (2013.1, Build901 2013/11/27)

>  <Rbt.Parameter_File>
/export/apps/rDock/src/rDock_2013.1_src/data/scripts/dock_solv.prm

>  <Rbt.Receptor>
prm/blind_docking_60.prm

>  <SCORE>
-16.8613

>  <SCORE.INTER>
-16.6863

>  <SCORE.INTER.CONST>
1

>  <SCORE.INTER.POLAR>
0

>  <SCORE.INTER.ROT>
1

>  <SCORE.INTER.SOLV>
20.355

>  <SCORE.INTER.VDW>
-22.1759

>  <SCORE.INTER.norm>
-1.28356

>  <SCORE.INTRA>
-0.174951

>  <SCORE.INTRA.DIHEDRAL>
0.031455

>  <SCORE.INTRA.DIHEDRAL.0>
1.66609

>  <SCORE.INTRA.POLAR>
0

>  <SCORE.INTRA.POLAR.0>
0

>  <SCORE.INTRA.REPUL>
0

>  <SCORE.INTRA.REPUL.0>
0

>  <SCORE.INTRA.SOLV>
-0.982031

>  <SCORE.INTRA.SOLV.lig_0>
-45.868

>  <SCORE.INTRA.VDW>
0.300337

>  <SCORE.INTRA.VDW.0>
-0.397919

>  <SCORE.INTRA.norm>
-0.0134578

>  <SCORE.RESTR>
0

>  <SCORE.RESTR.CAVITY>
0

>  <SCORE.RESTR.norm>
0

>  <SCORE.SYSTEM>
0

>  <SCORE.SYSTEM.CONST>
0

>  <SCORE.SYSTEM.DIHEDRAL>
0

>  <SCORE.SYSTEM.SOLV>
0

>  <SCORE.SYSTEM.norm>
0

>  <SCORE.heavy>
13

>  <SCORE.norm>
-1.29702

>  <RMSD>
2.712

$$$$
ligand
 OpenBabel02271912143D
libRbt.so/2013.1/901 2013/11/27
 13 14  0  0  0  0  0  0  0  0999 V2000
   -5.5524  -34.8694  -42.9214 N   0  0  0  0  0  0  0  0  0  0  0  0
   -5.8483  -35.0373  -44.2477 C   0  0  0  0  0  0  0  0  0  0  0  0
   -7.0218  -35.6518  -44.5903 N   0  0  0  0  0  0  0  0  0  0  0  0
   -5.0196  -34.6141  -45.2026 N   0  0  0  0  0  0  0  0  0  0  0  0
   -3.8436  -33.9994  -44.8967 C   0  0  0  0  0  0  0  0  0  0  0  0
   -3.4943  -33.8078  -43.5419 C   0  0  0  0  0  0  0  0  0  0  0  0
   -4.3934  -34.2634  -42.5399 C   0  0  0  0  0  0  0  0  0  0  0  0
   -4.1379  -34.1176  -41.3702 O   0  0  0  0  0  0  0  0  0  0  0  0
   -2.1975  -33.1383  -43.5380 C   0  0  0  0  0  0  0  0  0  0  0  0
   -1.8490  -32.9624  -44.8249 C   0  0  0  0  0  0  0  0  0  0  0  0
   -2.8320  -33.4767  -45.6441 N   0  0  0  0  0  0  0  0  0  0  0  0
   -1.4017  -32.7320  -42.3242 C   0  0  0  0  0  0  0  0  0  0  0  0
    0.0284  -32.6651  -42.6873 N   0  0  0  0  0  0  0  0  0  0  0  0
  1  2  1  0  0  0  0
  1  7  1  0  0  0  0
  2  3  1  0  0  0  0
  2  4  2  0  0  0  0
  4  5  1  0  0  0  0
  5  6  2  0  0  0  0
  5 11  1  0  0  0  0
  6  7  1  0  0  0  0
  6  9  1  0  0  0  0
  7  8  2  0  0  0  0
  9 10  2  0  0  0  0
  9 12  1  0  0  0  0
 10 11  1  0  0  0  0
 12 13  1  0  0  0  0
M  END
>  <CHROM.1>
154.65252277,-3.66775187,-33.95628934,-43.67541541,2.95421297,-0.43704991
-1.56115349

>  <Name>
ligand

>  <RI>
0

>  <Rbt.Current_Directory>
/home/itssahil/PROJECTS/Mol_Feturizer/Test_systems_manuscript/rnas/3fu2

>  <Rbt.Executable>
rbdock ($Id: //depot/dev/client3/rdock/2013.1/src/exe/rbdock.cxx#4 $)

>  <Rbt.Library>
libRbt.so (2013.1, Build901 2013/11/27)

>  <Rbt.Parameter_File>
/export/apps/rDock/src/rDock_2013.1_src/data/scripts/dock_solv.prm

>  <Rbt.Receptor>
prm/blind_docking_80.prm

>  <SCORE>
-16.8882

>  <SCORE.INTER>
-16.6912

>  <SCORE.INTER.CONST>
1

>  <SCORE.INTER.POLAR>
0

>  <SCORE.INTER.ROT>
1

>  <SCORE.INTER.SOLV>
20.3362

>  <SCORE.INTER.VDW>
-22.1729

>  <SCORE.INTER.norm>
-1.28394

>  <SCORE.INTRA>
-0.196942

>  <SCORE.INTRA.DIHEDRAL>
0.0317196

>  <SCORE.INTRA.DIHEDRAL.0>
1.66609

>  <SCORE.INTRA.POLAR>
0

>  <SCORE.INTRA.POLAR.0>
0

>  <SCORE.INTRA.REPUL>
0

>  <SCORE.INTRA.REPUL.0>
0

>  <SCORE.INTRA.SOLV>
-0.982307

>  <SCORE.INTRA.SOLV.lig_0>
-45.868

>  <SCORE.INTRA.VDW>
0.278351

>  <SCORE.INTRA.VDW.0>
-0.397919

>  <SCORE.INTRA.norm>
-0.0151494

>  <SCORE.RESTR>
0

>  <SCORE.RESTR.CAVITY>
0

>  <SCORE.RESTR.norm>
0

>  <SCORE.SYSTEM>
0

>  <SCORE.SYSTEM.CONST>
0

>  <SCORE.SYSTEM.DIHEDRAL>
0

>  <SCORE.SYSTEM.SOLV>
0

>  <SCORE.SYSTEM.norm>
0

>  <SCORE.heavy>
13

>  <SCORE.norm>
-1.29909

>  <RMSD>
2.712

$$$$
ligand
 OpenBabel02271912143D
libRbt.so/2013.1/901 2013/11/27
 13 14  0  0  0  0  0  0  0  0999 V2000
   -5.5491  -34.8678  -42.9643 N   0  0  0  0  0  0  0  0  0  0  0  0
   -5.8337  -35.0367  -44.2929 C   0  0  0  0  0  0  0  0  0  0  0  0
   -7.0046  -35.6508  -44.6451 N   0  0  0  0  0  0  0  0  0  0  0  0
   -4.9965  -34.6150  -45.2411 N   0  0  0  0  0  0  0  0  0  0  0  0
   -3.8227  -34.0008  -44.9256 C   0  0  0  0  0  0  0  0  0  0  0  0
   -3.4850  -33.8082  -43.5680 C   0  0  0  0  0  0  0  0  0  0  0  0
   -4.3931  -34.2622  -42.5734 C   0  0  0  0  0  0  0  0  0  0  0  0
   -4.1476  -34.1155  -41.4016 O   0  0  0  0  0  0  0  0  0  0  0  0
   -2.1879  -33.1395  -43.5535 C   0  0  0  0  0  0  0  0  0  0  0  0
   -1.8282  -32.9650  -44.8375 C   0  0  0  0  0  0  0  0  0  0  0  0
   -2.8044  -33.4794  -45.6646 N   0  0  0  0  0  0  0  0  0  0  0  0
   -1.4023  -32.7326  -42.3332 C   0  0  0  0  0  0  0  0  0  0  0  0
    0.0277  -32.6397  -42.6910 N   0  0  0  0  0  0  0  0  0  0  0  0
  1  2  1  0  0  0  0
  1  7  1  0  0  0  0
  2  3  1  0  0  0  0
  2  4  2  0  0  0  0
  4  5  1  0  0  0  0
  5  6  2  0  0  0  0
  5 11  1  0  0  0  0
  6  7  1  0  0  0  0
  6  9  1  0  0  0  0
  7  8  2  0  0  0  0
  9 10  2  0  0  0  0
  9 12  1  0  0  0  0
 10 11  1  0  0  0  0
 12 13  1  0  0  0  0
M  END
>  <CHROM.1>
155.81489692,-3.65770938,-33.95444030,-43.70339224,2.94514819,-0.43812391
-1.56704512

>  <Name>
ligand

>  <RI>
0

>  <Rbt.Current_Directory>
/home/itssahil/PROJECTS/Mol_Feturizer/Test_systems_manuscript/rnas/3fu2

>  <Rbt.Executable>
rbdock ($Id: //depot/dev/client3/rdock/2013.1/src/exe/rbdock.cxx#4 $)

>  <Rbt.Library>
libRbt.so (2013.1, Build901 2013/11/27)

>  <Rbt.Parameter_File>
/export/apps/rDock/src/rDock_2013.1_src/data/scripts/dock_solv.prm

>  <Rbt.Receptor>
prm/pocket_docking_2.prm

>  <SCORE>
-16.8584

>  <SCORE.INTER>
-16.6841

>  <SCORE.INTER.CONST>
1

>  <SCORE.INTER.POLAR>
0

>  <SCORE.INTER.ROT>
1

>  <SCORE.INTER.SOLV>
20.2761

>  <SCORE.INTER.VDW>
-22.1481

>  <SCORE.INTER.norm>
-1.2834

>  <SCORE.INTRA>
-0.174213

>  <SCORE.INTRA.DIHEDRAL>
0.0314047

>  <SCORE.INTRA.DIHEDRAL.0>
1.66609

>  <SCORE.INTRA.POLAR>
0

>  <SCORE.INTRA.POLAR.0>
0

>  <SCORE.INTRA.REPUL>
0

>  <SCORE.INTRA.REPUL.0>
0

>  <SCORE.INTRA.SOLV>
-0.981985

>  <SCORE.INTRA.SOLV.lig_0>
-45.868

>  <SCORE.INTRA.VDW>
0.301077

>  <SCORE.INTRA.VDW.0>
-0.397919

>  <SCORE.INTRA.norm>
-0.013401

>  <SCORE.RESTR>
0

>  <SCORE.RESTR.CAVITY>
0

>  <SCORE.RESTR.norm>
0

>  <SCORE.SYSTEM>
0

>  <SCORE.SYSTEM.CONST>
0

>  <SCORE.SYSTEM.DIHEDRAL>
0

>  <SCORE.SYSTEM.SOLV>
0

>  <SCORE.SYSTEM.norm>
0

>  <SCORE.heavy>
13

>  <SCORE.norm>
-1.2968

>  <RMSD>
2.712

$$$$
ligand
 OpenBabel02271912143D
libRbt.so/2013.1/901 2013/11/27
 13 14  0  0  0  0  0  0  0  0999 V2000
   -5.5464  -34.9089  -42.9303 N   0  0  0  0  0  0  0  0  0  0  0  0
   -5.8541  -35.0475  -44.2573 C   0  0  0  0  0  0  0  0  0  0  0  0
   -7.0341  -35.6479  -44.6029 N   0  0  0  0  0  0  0  0  0  0  0  0
   -5.0307  -34.6094  -45.2101 N   0  0  0  0  0  0  0  0  0  0  0  0
   -3.8485  -34.0081  -44.9013 C   0  0  0  0  0  0  0  0  0  0  0  0
   -3.4870  -33.8468  -43.5457 C   0  0  0  0  0  0  0  0  0  0  0  0
   -4.3807  -34.3177  -42.5460 C   0  0  0  0  0  0  0  0  0  0  0  0
   -4.1148  -34.1978  -41.3756 O   0  0  0  0  0  0  0  0  0  0  0  0
   -2.1862  -33.1851  -43.5387 C   0  0  0  0  0  0  0  0  0  0  0  0
   -1.8472  -32.9845  -44.8245 C   0  0  0  0  0  0  0  0  0  0  0  0
   -2.8399  -33.4759  -45.6460 N   0  0  0  0  0  0  0  0  0  0  0  0
   -1.3781  -32.8087  -42.3233 C   0  0  0  0  0  0  0  0  0  0  0  0
    0.0201  -32.5652  -42.7323 N   0  0  0  0  0  0  0  0  0  0  0  0
  1  2  1  0  0  0  0
  1  7  1  0  0  0  0
  2  3  1  0  0  0  0
  2  4  2  0  0  0  0
  4  5  1  0  0  0  0
  5  6  2  0  0  0  0
  5 11  1  0  0  0  0
  6  7  1  0  0  0  0
  6  9  1  0  0  0  0
  7  8  2  0  0  0  0
  9 10  2  0  0  0  0
  9 12  1  0  0  0  0
 10 11  1  0  0  0  0
 12 13  1  0  0  0  0
M  END
>  <CHROM.1>
162.18421068,-3.66487048,-33.97698070,-43.68371523,2.96574077,-0.44219176
-1.54212380

>  <Name>
ligand

>  <RI>
0

>  <Rbt.Current_Directory>
/home/itssahil/PROJECTS/Mol_Feturizer/Test_systems_manuscript/rnas/3fu2

>  <Rbt.Executable>
rbdock ($Id: //depot/dev/client3/rdock/2013.1/src/exe/rbdock.cxx#4 $)

>  <Rbt.Library>
libRbt.so (2013.1, Build901 2013/11/27)

>  <Rbt.Parameter_File>
/export/apps/rDock/src/rDock_2013.1_src/data/scripts/dock_solv.prm

>  <Rbt.Receptor>
prm/pocket_docking_3.prm

>  <SCORE>
-16.7981

>  <SCORE.INTER>
-16.6489

>  <SCORE.INTER.CONST>
1

>  <SCORE.INTER.POLAR>
0

>  <SCORE.INTER.ROT>
1

>  <SCORE.INTER.SOLV>
20.2544

>  <SCORE.INTER.VDW>
-22.1174

>  <SCORE.INTER.norm>
-1.28069

>  <SCORE.INTRA>
-0.14918

>  <SCORE.INTRA.DIHEDRAL>
0.0285722

>  <SCORE.INTRA.DIHEDRAL.0>
1.66609

>  <SCORE.INTRA.POLAR>
0

>  <SCORE.INTRA.POLAR.0>
0

>  <SCORE.INTRA.REPUL>
0

>  <SCORE.INTRA.REPUL.0>
0

>  <SCORE.INTRA.SOLV>
-0.980453

>  <SCORE.INTRA.SOLV.lig_0>
-45.868

>  <SCORE.INTRA.VDW>
0.326761

>  <SCORE.INTRA.VDW.0>
-0.397919

>  <SCORE.INTRA.norm>
-0.0114754

>  <SCORE.RESTR>
0

>  <SCORE.RESTR.CAVITY>
0

>  <SCORE.RESTR.norm>
0

>  <SCORE.SYSTEM>
0

>  <SCORE.SYSTEM.CONST>
0

>  <SCORE.SYSTEM.DIHEDRAL>
0

>  <SCORE.SYSTEM.SOLV>
0

>  <SCORE.SYSTEM.norm>
0

>  <SCORE.heavy>
13

>  <SCORE.norm>
-1.29216

>  <RMSD>
2.712

$$$$
ligand
 OpenBabel02271912143D
libRbt.so/2013.1/901 2013/11/27
 13 14  0  0  0  0  0  0  0  0999 V2000
   -5.5538  -34.8727  -42.9671 N   0  0  0  0  0  0  0  0  0  0  0  0
   -5.8132  -35.0280  -44.3026 C   0  0  0  0  0  0  0  0  0  0  0  0
   -6.9800  -35.6330  -44.6832 N   0  0  0  0  0  0  0  0  0  0  0  0
   -4.9557  -34.6018  -45.2303 N   0  0  0  0  0  0  0  0  0  0  0  0
   -3.7853  -33.9964  -44.8864 C   0  0  0  0  0  0  0  0  0  0  0  0
   -3.4733  -33.8178  -43.5208 C   0  0  0  0  0  0  0  0  0  0  0  0
   -4.4027  -34.2764  -42.5483 C   0  0  0  0  0  0  0  0  0  0  0  0
   -4.1794  -34.1416  -41.3706 O   0  0  0  0  0  0  0  0  0  0  0  0
   -2.1734  -33.1558  -43.4749 C   0  0  0  0  0  0  0  0  0  0  0  0
   -1.7879  -32.9714  -44.7500 C   0  0  0  0  0  0  0  0  0  0  0  0
   -2.7503  -33.4733  -45.6007 N   0  0  0  0  0  0  0  0  0  0  0  0
   -1.4099  -32.7639  -42.2358 C   0  0  0  0  0  0  0  0  0  0  0  0
    0.0374  -32.8226  -42.5245 N   0  0  0  0  0  0  0  0  0  0  0  0
  1  2  1  0  0  0  0
  1  7  1  0  0  0  0
  2  3  1  0  0  0  0
  2  4  2  0  0  0  0
  4  5  1  0  0  0  0
  5  6  2  0  0  0  0
  5 11  1  0  0  0  0
  6  7  1  0  0  0  0
  6  9  1  0  0  0  0
  7  8  2  0  0  0  0
  9 10  2  0  0  0  0
  9 12  1  0  0  0  0
 10 11  1  0  0  0  0
 12 13  1  0  0  0  0
M  END
>  <CHROM.1>
149.51742386,-3.64315058,-33.97401239,-43.65758325,2.92068495,-0.42467818
-1.56153388

>  <Name>
ligand

>  <RI>
0

>  <Rbt.Current_Directory>
/home/itssahil/PROJECTS/Mol_Feturizer/Test_systems_manuscript/rnas/3fu2

>  <Rbt.Executable>
rbdock ($Id: //depot/dev/client3/rdock/2013.1/src/exe/rbdock.cxx#4 $)

>  <Rbt.Library>
libRbt.so (2013.1, Build901 2013/11/27)

>  <Rbt.Parameter_File>
/export/apps/rDock/src/rDock_2013.1_src/data/scripts/dock_solv.prm

>  <Rbt.Receptor>
prm/pocket_docking_7.prm

>  <SCORE>
-16.8698

>  <SCORE.INTER>
-16.6482

>  <SCORE.INTER.CONST>
1

>  <SCORE.INTER.POLAR>
0

>  <SCORE.INTER.ROT>
1

>  <SCORE.INTER.SOLV>
20.0901

>  <SCORE.INTER.VDW>
-22.0622

>  <SCORE.INTER.norm>
-1.28063

>  <SCORE.INTRA>
-0.221584

>  <SCORE.INTRA.DIHEDRAL>
0.0323107

>  <SCORE.INTRA.DIHEDRAL.0>
1.66609

>  <SCORE.INTRA.POLAR>
0

>  <SCORE.INTRA.POLAR.0>
0

>  <SCORE.INTRA.REPUL>
0

>  <SCORE.INTRA.REPUL.0>
0

>  <SCORE.INTRA.SOLV>
-0.983855

>  <SCORE.INTRA.SOLV.lig_0>
-45.868

>  <SCORE.INTRA.VDW>
0.254188

>  <SCORE.INTRA.VDW.0>
-0.397919

>  <SCORE.INTRA.norm>
-0.0170449

>  <SCORE.RESTR>
0

>  <SCORE.RESTR.CAVITY>
0

>  <SCORE.RESTR.norm>
0

>  <SCORE.SYSTEM>
0

>  <SCORE.SYSTEM.CONST>
0

>  <SCORE.SYSTEM.DIHEDRAL>
0

>  <SCORE.SYSTEM.SOLV>
0

>  <SCORE.SYSTEM.norm>
0

>  <SCORE.heavy>
13

>  <SCORE.norm>
-1.29768

>  <RMSD>
2.712

$$$$
ligand
 OpenBabel02271912143D
libRbt.so/2013.1/901 2013/11/27
 13 14  0  0  0  0  0  0  0  0999 V2000
   -5.5515  -34.8757  -42.9705 N   0  0  0  0  0  0  0  0  0  0  0  0
   -5.8086  -35.0307  -44.3064 C   0  0  0  0  0  0  0  0  0  0  0  0
   -6.9732  -35.6386  -44.6891 N   0  0  0  0  0  0  0  0  0  0  0  0
   -4.9509  -34.6014  -45.2326 N   0  0  0  0  0  0  0  0  0  0  0  0
   -3.7828  -33.9930  -44.8865 C   0  0  0  0  0  0  0  0  0  0  0  0
   -3.4731  -33.8147  -43.5203 C   0  0  0  0  0  0  0  0  0  0  0  0
   -4.4026  -34.2766  -42.5495 C   0  0  0  0  0  0  0  0  0  0  0  0
   -4.1814  -34.1422  -41.3714 O   0  0  0  0  0  0  0  0  0  0  0  0
   -2.1752  -33.1491  -43.4721 C   0  0  0  0  0  0  0  0  0  0  0  0
   -1.7884  -32.9626  -44.7465 C   0  0  0  0  0  0  0  0  0  0  0  0
   -2.7482  -33.4665  -45.5989 N   0  0  0  0  0  0  0  0  0  0  0  0
   -1.4145  -32.7562  -42.2316 C   0  0  0  0  0  0  0  0  0  0  0  0
    0.0338  -32.8333  -42.5113 N   0  0  0  0  0  0  0  0  0  0  0  0
  1  2  1  0  0  0  0
  1  7  1  0  0  0  0
  2  3  1  0  0  0  0
  2  4  2  0  0  0  0
  4  5  1  0  0  0  0
  5  6  2  0  0  0  0
  5 11  1  0  0  0  0
  6  7  1  0  0  0  0
  6  9  1  0  0  0  0
  7  8  2  0  0  0  0
  9 10  2  0  0  0  0
  9 12  1  0  0  0  0
 10 11  1  0  0  0  0
 12 13  1  0  0  0  0
M  END
>  <CHROM.1>
148.54537020,-3.64232178,-33.97308917,-43.65693709,2.91864337,-0.42619484
-1.56044508

>  <Name>
ligand

>  <RI>
0

>  <Rbt.Current_Directory>
/home/itssahil/PROJECTS/Mol_Feturizer/Test_systems_manuscript/rnas/3fu2

>  <Rbt.Executable>
rbdock ($Id: //depot/dev/client3/rdock/2013.1/src/exe/rbdock.cxx#4 $)

>  <Rbt.Library>
libRbt.so (2013.1, Build901 2013/11/27)

>  <Rbt.Parameter_File>
/export/apps/rDock/src/rDock_2013.1_src/data/scripts/dock_solv.prm

>  <Rbt.Receptor>
prm/pocket_docking_7.prm

>  <SCORE>
-16.8732

>  <SCORE.INTER>
-16.6468

>  <SCORE.INTER.CONST>
1

>  <SCORE.INTER.POLAR>
0

>  <SCORE.INTER.ROT>
1

>  <SCORE.INTER.SOLV>
20.0578

>  <SCORE.INTER.VDW>
-22.0505

>  <SCORE.INTER.norm>
-1.28052

>  <SCORE.INTRA>
-0.226432

>  <SCORE.INTRA.DIHEDRAL>
0.0322735

>  <SCORE.INTRA.DIHEDRAL.0>
1.66609

>  <SCORE.INTRA.POLAR>
0

>  <SCORE.INTRA.POLAR.0>
0

>  <SCORE.INTRA.REPUL>
0

>  <SCORE.INTRA.REPUL.0>
0

>  <SCORE.INTRA.SOLV>
-0.984167

>  <SCORE.INTRA.SOLV.lig_0>
-45.868

>  <SCORE.INTRA.VDW>
0.249515

>  <SCORE.INTRA.VDW.0>
-0.397919

>  <SCORE.INTRA.norm>
-0.0174179

>  <SCORE.RESTR>
0

>  <SCORE.RESTR.CAVITY>
0

>  <SCORE.RESTR.norm>
0

>  <SCORE.SYSTEM>
0

>  <SCORE.SYSTEM.CONST>
0

>  <SCORE.SYSTEM.DIHEDRAL>
0

>  <SCORE.SYSTEM.SOLV>
0

>  <SCORE.SYSTEM.norm>
0

>  <SCORE.heavy>
13

>  <SCORE.norm>
-1.29794

>  <RMSD>
2.712

$$$$
ligand
 OpenBabel02271912143D
libRbt.so/2013.1/901 2013/11/27
 13 14  0  0  0  0  0  0  0  0999 V2000
   -5.5423  -34.9024  -42.9487 N   0  0  0  0  0  0  0  0  0  0  0  0
   -5.8458  -35.0688  -44.2734 C   0  0  0  0  0  0  0  0  0  0  0  0
   -7.0218  -35.6817  -44.6101 N   0  0  0  0  0  0  0  0  0  0  0  0
   -5.0219  -34.6458  -45.2327 N   0  0  0  0  0  0  0  0  0  0  0  0
   -3.8435  -34.0326  -44.9328 C   0  0  0  0  0  0  0  0  0  0  0  0
   -3.4864  -33.8426  -43.5798 C   0  0  0  0  0  0  0  0  0  0  0  0
   -4.3805  -34.2979  -42.5732 C   0  0  0  0  0  0  0  0  0  0  0  0
   -4.1184  -34.1535  -41.4047 O   0  0  0  0  0  0  0  0  0  0  0  0
   -2.1889  -33.1745  -43.5825 C   0  0  0  0  0  0  0  0  0  0  0  0
   -1.8473  -32.9979  -44.8712 C   0  0  0  0  0  0  0  0  0  0  0  0
   -2.8354  -33.5104  -45.6853 N   0  0  0  0  0  0  0  0  0  0  0  0
   -1.3859  -32.7701  -42.3727 C   0  0  0  0  0  0  0  0  0  0  0  0
    0.0073  -32.5072  -42.7865 N   0  0  0  0  0  0  0  0  0  0  0  0
  1  2  1  0  0  0  0
  1  7  1  0  0  0  0
  2  3  1  0  0  0  0
  2  4  2  0  0  0  0
  4  5  1  0  0  0  0
  5  6  2  0  0  0  0
  5 11  1  0  0  0  0
  6  7  1  0  0  0  0
  6  9  1  0  0  0  0
  7  8  2  0  0  0  0
  9 10  2  0  0  0  0
  9 12  1  0  0  0  0
 10 11  1  0  0  0  0
 12 13  1  0  0  0  0
M  END
>  <CHROM.1>
163.06667673,-3.66366630,-33.97468727,-43.71588327,2.96310390,-0.44849455
-1.56384730

>  <Name>
ligand

>  <RI>
0

>  <Rbt.Current_Directory>
/home/itssahil/PROJECTS/Mol_Feturizer/Test_systems_manuscript/rnas/3fu2

>  <Rbt.Executable>
rbdock ($Id: //depot/dev/client3/rdock/2013.1/src/exe/rbdock.cxx#4 $)

>  <Rbt.Library>
libRbt.so (2013.1, Build901 2013/11/27)

>  <Rbt.Parameter_File>
/export/apps/rDock/src/rDock_2013.1_src/data/scripts/dock_solv.prm

>  <Rbt.Receptor>
prm/blind_docking_100.prm

>  <SCORE>
-16.867

>  <SCORE.INTER>
-16.7208

>  <SCORE.INTER.CONST>
1

>  <SCORE.INTER.POLAR>
0

>  <SCORE.INTER.ROT>
1

>  <SCORE.INTER.SOLV>
20.3208

>  <SCORE.INTER.VDW>
-22.1875

>  <SCORE.INTER.norm>
-1.28622

>  <SCORE.INTRA>
-0.14619

>  <SCORE.INTRA.DIHEDRAL>
0.0280428

>  <SCORE.INTRA.DIHEDRAL.0>
1.66609

>  <SCORE.INTRA.POLAR>
0

>  <SCORE.INTRA.POLAR.0>
0

>  <SCORE.INTRA.REPUL>
0

>  <SCORE.INTRA.REPUL.0>
0

>  <SCORE.INTRA.SOLV>
-0.980276

>  <SCORE.INTRA.SOLV.lig_0>
-45.868

>  <SCORE.INTRA.VDW>
0.329926

>  <SCORE.INTRA.VDW.0>
-0.397919

>  <SCORE.INTRA.norm>
-0.0112454

>  <SCORE.RESTR>
0

>  <SCORE.RESTR.CAVITY>
0

>  <SCORE.RESTR.norm>
0

>  <SCORE.SYSTEM>
0

>  <SCORE.SYSTEM.CONST>
0

>  <SCORE.SYSTEM.DIHEDRAL>
0

>  <SCORE.SYSTEM.SOLV>
0

>  <SCORE.SYSTEM.norm>
0

>  <SCORE.heavy>
13

>  <SCORE.norm>
-1.29746

>  <RMSD>
2.713

$$$$
ligand
 OpenBabel02271912143D
libRbt.so/2013.1/901 2013/11/27
 13 14  0  0  0  0  0  0  0  0999 V2000
   -5.5518  -34.8669  -42.9677 N   0  0  0  0  0  0  0  0  0  0  0  0
   -5.8075  -35.0264  -44.3034 C   0  0  0  0  0  0  0  0  0  0  0  0
   -6.9722  -35.6344  -44.6854 N   0  0  0  0  0  0  0  0  0  0  0  0
   -4.9482  -34.6012  -45.2301 N   0  0  0  0  0  0  0  0  0  0  0  0
   -3.7798  -33.9928  -44.8848 C   0  0  0  0  0  0  0  0  0  0  0  0
   -3.4716  -33.8100  -43.5189 C   0  0  0  0  0  0  0  0  0  0  0  0
   -4.4028  -34.2674  -42.5475 C   0  0  0  0  0  0  0  0  0  0  0  0
   -4.1828  -34.1291  -41.3697 O   0  0  0  0  0  0  0  0  0  0  0  0
   -2.1731  -33.1455  -43.4714 C   0  0  0  0  0  0  0  0  0  0  0  0
   -1.7846  -32.9640  -44.7461 C   0  0  0  0  0  0  0  0  0  0  0  0
   -2.7438  -33.4700  -45.5979 N   0  0  0  0  0  0  0  0  0  0  0  0
   -1.4135  -32.7489  -42.2315 C   0  0  0  0  0  0  0  0  0  0  0  0
    0.0347  -32.8679  -42.4964 N   0  0  0  0  0  0  0  0  0  0  0  0
  1  2  1  0  0  0  0
  1  7  1  0  0  0  0
  2  3  1  0  0  0  0
  2  4  2  0  0  0  0
  4  5  1  0  0  0  0
  5  6  2  0  0  0  0
  5 11  1  0  0  0  0
  6  7  1  0  0  0  0
  6  9  1  0  0  0  0
  7  8  2  0  0  0  0
  9 10  2  0  0  0  0
  9 12  1  0  0  0  0
 10 11  1  0  0  0  0
 12 13  1  0  0  0  0
M  END
>  <CHROM.1>
146.84580706,-3.64088145,-33.97186175,-43.65408718,2.91631949,-0.42302885
-1.56298412

>  <Name>
ligand

>  <RI>
0

>  <Rbt.Current_Directory>
/home/itssahil/PROJECTS/Mol_Feturizer/Test_systems_manuscript/rnas/3fu2

>  <Rbt.Executable>
rbdock ($Id: //depot/dev/client3/rdock/2013.1/src/exe/rbdock.cxx#4 $)

>  <Rbt.Library>
libRbt.so (2013.1, Build901 2013/11/27)

>  <Rbt.Parameter_File>
/export/apps/rDock/src/rDock_2013.1_src/data/scripts/dock_solv.prm

>  <Rbt.Receptor>
prm/pocket_docking_2.prm

>  <SCORE>
-16.8791

>  <SCORE.INTER>
-16.6441

>  <SCORE.INTER.CONST>
1

>  <SCORE.INTER.POLAR>
0

>  <SCORE.INTER.ROT>
1

>  <SCORE.INTER.SOLV>
20.0723

>  <SCORE.INTER.VDW>
-22.0535

>  <SCORE.INTER.norm>
-1.28031

>  <SCORE.INTRA>
-0.234994

>  <SCORE.INTRA.DIHEDRAL>
0.0320943

>  <SCORE.INTRA.DIHEDRAL.0>
1.66609

>  <SCORE.INTRA.POLAR>
0

>  <SCORE.INTRA.POLAR.0>
0

>  <SCORE.INTRA.REPUL>
0

>  <SCORE.INTRA.REPUL.0>
0

>  <SCORE.INTRA.SOLV>
-0.984724

>  <SCORE.INTRA.SOLV.lig_0>
-45.868

>  <SCORE.INTRA.VDW>
0.241321

>  <SCORE.INTRA.VDW.0>
-0.397919

>  <SCORE.INTRA.norm>
-0.0180764

>  <SCORE.RESTR>
0

>  <SCORE.RESTR.CAVITY>
0

>  <SCORE.RESTR.norm>
0

>  <SCORE.SYSTEM>
0

>  <SCORE.SYSTEM.CONST>
0

>  <SCORE.SYSTEM.DIHEDRAL>
0

>  <SCORE.SYSTEM.SOLV>
0

>  <SCORE.SYSTEM.norm>
0

>  <SCORE.heavy>
13

>  <SCORE.norm>
-1.29839

>  <RMSD>
2.713

$$$$
ligand
 OpenBabel02271912143D
libRbt.so/2013.1/901 2013/11/27
 13 14  0  0  0  0  0  0  0  0999 V2000
   -5.5503  -34.8956  -42.9490 N   0  0  0  0  0  0  0  0  0  0  0  0
   -5.8496  -35.0629  -44.2746 C   0  0  0  0  0  0  0  0  0  0  0  0
   -7.0286  -35.6683  -44.6147 N   0  0  0  0  0  0  0  0  0  0  0  0
   -5.0189  -34.6478  -45.2314 N   0  0  0  0  0  0  0  0  0  0  0  0
   -3.8374  -34.0423  -44.9281 C   0  0  0  0  0  0  0  0  0  0  0  0
   -3.4846  -33.8517  -43.5741 C   0  0  0  0  0  0  0  0  0  0  0  0
   -4.3859  -34.2984  -42.5701 C   0  0  0  0  0  0  0  0  0  0  0  0
   -4.1275  -34.1531  -41.4010 O   0  0  0  0  0  0  0  0  0  0  0  0
   -2.1824  -33.1927  -43.5730 C   0  0  0  0  0  0  0  0  0  0  0  0
   -1.8344  -33.0215  -44.8607 C   0  0  0  0  0  0  0  0  0  0  0  0
   -2.8227  -33.5289  -45.6777 N   0  0  0  0  0  0  0  0  0  0  0  0
   -1.3815  -32.7912  -42.3609 C   0  0  0  0  0  0  0  0  0  0  0  0
    0.0167  -32.5455  -42.7685 N   0  0  0  0  0  0  0  0  0  0  0  0
  1  2  1  0  0  0  0
  1  7  1  0  0  0  0
  2  3  1  0  0  0  0
  2  4  2  0  0  0  0
  4  5  1  0  0  0  0
  5  6  2  0  0  0  0
  5 11  1  0  0  0  0
  6  7  1  0  0  0  0
  6  9  1  0  0  0  0
  7  8  2  0  0  0  0
  9 10  2  0  0  0  0
  9 12  1  0  0  0  0
 10 11  1  0  0  0  0
 12 13  1  0  0  0  0
M  END
>  <CHROM.1>
162.78940223,-3.66205224,-33.98336714,-43.71052622,2.95849867,-0.44106255
-1.56788436

>  <Name>
ligand

>  <RI>
0

>  <Rbt.Current_Directory>
/home/itssahil/PROJECTS/Mol_Feturizer/Test_systems_manuscript/rnas/3fu2

>  <Rbt.Executable>
rbdock ($Id: //depot/dev/client3/rdock/2013.1/src/exe/rbdock.cxx#4 $)

>  <Rbt.Library>
libRbt.so (2013.1, Build901 2013/11/27)

>  <Rbt.Parameter_File>
/export/apps/rDock/src/rDock_2013.1_src/data/scripts/dock_solv.prm

>  <Rbt.Receptor>
prm/blind_docking_100.prm

>  <SCORE>
-16.8901

>  <SCORE.INTER>
-16.7429

>  <SCORE.INTER.CONST>
1

>  <SCORE.INTER.POLAR>
0

>  <SCORE.INTER.ROT>
1

>  <SCORE.INTER.SOLV>
20.3247

>  <SCORE.INTER.VDW>
-22.2035

>  <SCORE.INTER.norm>
-1.28792

>  <SCORE.INTRA>
-0.147115

>  <SCORE.INTRA.DIHEDRAL>
0.0282125

>  <SCORE.INTRA.DIHEDRAL.0>
1.66609

>  <SCORE.INTRA.POLAR>
0

>  <SCORE.INTRA.POLAR.0>
0

>  <SCORE.INTRA.REPUL>
0

>  <SCORE.INTRA.REPUL.0>
0

>  <SCORE.INTRA.SOLV>
-0.98033

>  <SCORE.INTRA.SOLV.lig_0>
-45.868

>  <SCORE.INTRA.VDW>
0.328944

>  <SCORE.INTRA.VDW.0>
-0.397919

>  <SCORE.INTRA.norm>
-0.0113165

>  <SCORE.RESTR>
0

>  <SCORE.RESTR.CAVITY>
0

>  <SCORE.RESTR.norm>
0

>  <SCORE.SYSTEM>
0

>  <SCORE.SYSTEM.CONST>
0

>  <SCORE.SYSTEM.DIHEDRAL>
0

>  <SCORE.SYSTEM.SOLV>
0

>  <SCORE.SYSTEM.norm>
0

>  <SCORE.heavy>
13

>  <SCORE.norm>
-1.29923

>  <RMSD>
2.714

$$$$
ligand
 OpenBabel02271912143D
libRbt.so/2013.1/901 2013/11/27
 13 14  0  0  0  0  0  0  0  0999 V2000
   -5.5478  -34.8756  -42.9572 N   0  0  0  0  0  0  0  0  0  0  0  0
   -5.8358  -35.0314  -44.2867 C   0  0  0  0  0  0  0  0  0  0  0  0
   -7.0074  -35.6424  -44.6419 N   0  0  0  0  0  0  0  0  0  0  0  0
   -5.0012  -34.5999  -45.2328 N   0  0  0  0  0  0  0  0  0  0  0  0
   -3.8269  -33.9884  -44.9143 C   0  0  0  0  0  0  0  0  0  0  0  0
   -3.4856  -33.8092  -43.5557 C   0  0  0  0  0  0  0  0  0  0  0  0
   -4.3909  -34.2735  -42.5633 C   0  0  0  0  0  0  0  0  0  0  0  0
   -4.1424  -34.1384  -41.3908 O   0  0  0  0  0  0  0  0  0  0  0  0
   -2.1887  -33.1402  -43.5380 C   0  0  0  0  0  0  0  0  0  0  0  0
   -1.8324  -32.9528  -44.8212 C   0  0  0  0  0  0  0  0  0  0  0  0
   -2.8106  -33.4593  -45.6508 N   0  0  0  0  0  0  0  0  0  0  0  0
   -1.4001  -32.7452  -42.3158 C   0  0  0  0  0  0  0  0  0  0  0  0
    0.0331  -32.6842  -42.6675 N   0  0  0  0  0  0  0  0  0  0  0  0
  1  2  1  0  0  0  0
  1  7  1  0  0  0  0
  2  3  1  0  0  0  0
  2  4  2  0  0  0  0
  4  5  1  0  0  0  0
  5  6  2  0  0  0  0
  5 11  1  0  0  0  0
  6  7  1  0  0  0  0
  6  9  1  0  0  0  0
  7  8  2  0  0  0  0
  9 10  2  0  0  0  0
  9 12  1  0  0  0  0
 10 11  1  0  0  0  0
 12 13  1  0  0  0  0
M  END
>  <CHROM.1>
154.28536887,-3.65829510,-33.95713793,-43.69142291,2.94742303,-0.43627123
-1.55463361

>  <Name>
ligand

>  <RI>
0

>  <Rbt.Current_Directory>
/home/itssahil/PROJECTS/Mol_Feturizer/Test_systems_manuscript/rnas/3fu2

>  <Rbt.Executable>
rbdock ($Id: //depot/dev/client3/rdock/2013.1/src/exe/rbdock.cxx#4 $)

>  <Rbt.Library>
libRbt.so (2013.1, Build901 2013/11/27)

>  <Rbt.Parameter_File>
/export/apps/rDock/src/rDock_2013.1_src/data/scripts/dock_solv.prm

>  <Rbt.Receptor>
prm/pocket_docking_2.prm

>  <SCORE>
-16.8799

>  <SCORE.INTER>
-16.6813

>  <SCORE.INTER.CONST>
1

>  <SCORE.INTER.POLAR>
0

>  <SCORE.INTER.ROT>
1

>  <SCORE.INTER.SOLV>
20.2655

>  <SCORE.INTER.VDW>
-22.1427

>  <SCORE.INTER.norm>
-1.28317

>  <SCORE.INTRA>
-0.198634

>  <SCORE.INTRA.DIHEDRAL>
0.0318054

>  <SCORE.INTRA.DIHEDRAL.0>
1.66609

>  <SCORE.INTRA.POLAR>
0

>  <SCORE.INTRA.POLAR.0>
0

>  <SCORE.INTRA.REPUL>
0

>  <SCORE.INTRA.REPUL.0>
0

>  <SCORE.INTRA.SOLV>
-0.982411

>  <SCORE.INTRA.SOLV.lig_0>
-45.868

>  <SCORE.INTRA.VDW>
0.276669

>  <SCORE.INTRA.VDW.0>
-0.397919

>  <SCORE.INTRA.norm>
-0.0152795

>  <SCORE.RESTR>
0

>  <SCORE.RESTR.CAVITY>
0

>  <SCORE.RESTR.norm>
0

>  <SCORE.SYSTEM>
0

>  <SCORE.SYSTEM.CONST>
0

>  <SCORE.SYSTEM.DIHEDRAL>
0

>  <SCORE.SYSTEM.SOLV>
0

>  <SCORE.SYSTEM.norm>
0

>  <SCORE.heavy>
13

>  <SCORE.norm>
-1.29845

>  <RMSD>
2.714

$$$$
ligand
 OpenBabel02271912143D
libRbt.so/2013.1/901 2013/11/27
 13 14  0  0  0  0  0  0  0  0999 V2000
   -5.5340  -34.9344  -42.9544 N   0  0  0  0  0  0  0  0  0  0  0  0
   -5.8402  -35.0707  -44.2820 C   0  0  0  0  0  0  0  0  0  0  0  0
   -7.0192  -35.6714  -44.6301 N   0  0  0  0  0  0  0  0  0  0  0  0
   -5.0160  -34.6302  -45.2331 N   0  0  0  0  0  0  0  0  0  0  0  0
   -3.8347  -34.0285  -44.9218 C   0  0  0  0  0  0  0  0  0  0  0  0
   -3.4749  -33.8694  -43.5656 C   0  0  0  0  0  0  0  0  0  0  0  0
   -4.3692  -34.3429  -42.5677 C   0  0  0  0  0  0  0  0  0  0  0  0
   -4.1047  -34.2250  -41.3968 O   0  0  0  0  0  0  0  0  0  0  0  0
   -2.1746  -33.2066  -43.5558 C   0  0  0  0  0  0  0  0  0  0  0  0
   -1.8343  -33.0033  -44.8409 C   0  0  0  0  0  0  0  0  0  0  0  0
   -2.8257  -33.4940  -45.6644 N   0  0  0  0  0  0  0  0  0  0  0  0
   -1.3682  -32.8319  -42.3388 C   0  0  0  0  0  0  0  0  0  0  0  0
    0.0189  -32.5386  -42.7530 N   0  0  0  0  0  0  0  0  0  0  0  0
  1  2  1  0  0  0  0
  1  7  1  0  0  0  0
  2  3  1  0  0  0  0
  2  4  2  0  0  0  0
  4  5  1  0  0  0  0
  5  6  2  0  0  0  0
  5 11  1  0  0  0  0
  6  7  1  0  0  0  0
  6  9  1  0  0  0  0
  7  8  2  0  0  0  0
  9 10  2  0  0  0  0
  9 12  1  0  0  0  0
 10 11  1  0  0  0  0
 12 13  1  0  0  0  0
M  END
>  <CHROM.1>
164.21792068,-3.65336710,-33.99555423,-43.70458945,2.96498916,-0.44623254
-1.54212677

>  <Name>
ligand

>  <RI>
0

>  <Rbt.Current_Directory>
/home/itssahil/PROJECTS/Mol_Feturizer/Test_systems_manuscript/rnas/3fu2

>  <Rbt.Executable>
rbdock ($Id: //depot/dev/client3/rdock/2013.1/src/exe/rbdock.cxx#4 $)

>  <Rbt.Library>
libRbt.so (2013.1, Build901 2013/11/27)

>  <Rbt.Parameter_File>
/export/apps/rDock/src/rDock_2013.1_src/data/scripts/dock_solv.prm

>  <Rbt.Receptor>
prm/pocket_docking_3.prm

>  <SCORE>
-16.7886

>  <SCORE.INTER>
-16.6461

>  <SCORE.INTER.CONST>
1

>  <SCORE.INTER.POLAR>
0

>  <SCORE.INTER.ROT>
1

>  <SCORE.INTER.SOLV>
20.2191

>  <SCORE.INTER.VDW>
-22.1038

>  <SCORE.INTER.norm>
-1.28047

>  <SCORE.INTRA>
-0.142497

>  <SCORE.INTRA.DIHEDRAL>
0.0273071

>  <SCORE.INTRA.DIHEDRAL.0>
1.66609

>  <SCORE.INTRA.POLAR>
0

>  <SCORE.INTRA.POLAR.0>
0

>  <SCORE.INTRA.REPUL>
0

>  <SCORE.INTRA.REPUL.0>
0

>  <SCORE.INTRA.SOLV>
-0.980059

>  <SCORE.INTRA.SOLV.lig_0>
-45.868

>  <SCORE.INTRA.VDW>
0.333879

>  <SCORE.INTRA.VDW.0>
-0.397919

>  <SCORE.INTRA.norm>
-0.0109613

>  <SCORE.RESTR>
0

>  <SCORE.RESTR.CAVITY>
0

>  <SCORE.RESTR.norm>
0

>  <SCORE.SYSTEM>
0

>  <SCORE.SYSTEM.CONST>
0

>  <SCORE.SYSTEM.DIHEDRAL>
0

>  <SCORE.SYSTEM.SOLV>
0

>  <SCORE.SYSTEM.norm>
0

>  <SCORE.heavy>
13

>  <SCORE.norm>
-1.29143

>  <RMSD>
2.714

$$$$
ligand
 OpenBabel02271912143D
libRbt.so/2013.1/901 2013/11/27
 13 14  0  0  0  0  0  0  0  0999 V2000
   -5.5570  -34.8746  -42.9663 N   0  0  0  0  0  0  0  0  0  0  0  0
   -5.8216  -35.0229  -44.3015 C   0  0  0  0  0  0  0  0  0  0  0  0
   -6.9918  -35.6220  -44.6809 N   0  0  0  0  0  0  0  0  0  0  0  0
   -4.9657  -34.5956  -45.2303 N   0  0  0  0  0  0  0  0  0  0  0  0
   -3.7920  -33.9959  -44.8877 C   0  0  0  0  0  0  0  0  0  0  0  0
   -3.4746  -33.8247  -43.5224 C   0  0  0  0  0  0  0  0  0  0  0  0
   -4.4024  -34.2843  -42.5487 C   0  0  0  0  0  0  0  0  0  0  0  0
   -4.1746  -34.1558  -41.3713 O   0  0  0  0  0  0  0  0  0  0  0  0
   -2.1723  -33.1675  -43.4779 C   0  0  0  0  0  0  0  0  0  0  0  0
   -1.7905  -32.9787  -44.7535 C   0  0  0  0  0  0  0  0  0  0  0  0
   -2.7575  -33.4734  -45.6032 N   0  0  0  0  0  0  0  0  0  0  0  0
   -1.4031  -32.7841  -42.2397 C   0  0  0  0  0  0  0  0  0  0  0  0
    0.0423  -32.8183  -42.5419 N   0  0  0  0  0  0  0  0  0  0  0  0
  1  2  1  0  0  0  0
  1  7  1  0  0  0  0
  2  3  1  0  0  0  0
  2  4  2  0  0  0  0
  4  5  1  0  0  0  0
  5  6  2  0  0  0  0
  5 11  1  0  0  0  0
  6  7  1  0  0  0  0
  6  9  1  0  0  0  0
  7  8  2  0  0  0  0
  9 10  2  0  0  0  0
  9 12  1  0  0  0  0
 10 11  1  0  0  0  0
 12 13  1  0  0  0  0
M  END
>  <CHROM.1>
150.72738664,-3.64559372,-33.97735104,-43.65995046,2.92505720,-0.42264212
-1.55653579

>  <Name>
ligand

>  <RI>
0

>  <Rbt.Current_Directory>
/home/itssahil/PROJECTS/Mol_Feturizer/Test_systems_manuscript/rnas/3fu2

>  <Rbt.Executable>
rbdock ($Id: //depot/dev/client3/rdock/2013.1/src/exe/rbdock.cxx#4 $)

>  <Rbt.Library>
libRbt.so (2013.1, Build901 2013/11/27)

>  <Rbt.Parameter_File>
/export/apps/rDock/src/rDock_2013.1_src/data/scripts/dock_solv.prm

>  <Rbt.Receptor>
prm/pocket_docking_5.prm

>  <SCORE>
-16.8595

>  <SCORE.INTER>
-16.6439

>  <SCORE.INTER.CONST>
1

>  <SCORE.INTER.POLAR>
0

>  <SCORE.INTER.ROT>
1

>  <SCORE.INTER.SOLV>
20.1281

>  <SCORE.INTER.VDW>
-22.072

>  <SCORE.INTER.norm>
-1.2803

>  <SCORE.INTRA>
-0.215615

>  <SCORE.INTRA.DIHEDRAL>
0.0322905

>  <SCORE.INTRA.DIHEDRAL.0>
1.66609

>  <SCORE.INTRA.POLAR>
0

>  <SCORE.INTRA.POLAR.0>
0

>  <SCORE.INTRA.REPUL>
0

>  <SCORE.INTRA.REPUL.0>
0

>  <SCORE.INTRA.SOLV>
-0.983474

>  <SCORE.INTRA.SOLV.lig_0>
-45.868

>  <SCORE.INTRA.VDW>
0.259977

>  <SCORE.INTRA.VDW.0>
-0.397919

>  <SCORE.INTRA.norm>
-0.0165858

>  <SCORE.RESTR>
0

>  <SCORE.RESTR.CAVITY>
0

>  <SCORE.RESTR.norm>
0

>  <SCORE.SYSTEM>
0

>  <SCORE.SYSTEM.CONST>
0

>  <SCORE.SYSTEM.DIHEDRAL>
0

>  <SCORE.SYSTEM.SOLV>
0

>  <SCORE.SYSTEM.norm>
0

>  <SCORE.heavy>
13

>  <SCORE.norm>
-1.29689

>  <RMSD>
2.714

$$$$
ligand
 OpenBabel02271912143D
libRbt.so/2013.1/901 2013/11/27
 13 14  0  0  0  0  0  0  0  0999 V2000
   -5.5536  -34.8774  -42.9691 N   0  0  0  0  0  0  0  0  0  0  0  0
   -5.8137  -35.0298  -44.3047 C   0  0  0  0  0  0  0  0  0  0  0  0
   -6.9806  -35.6341  -44.6861 N   0  0  0  0  0  0  0  0  0  0  0  0
   -4.9567  -34.6013  -45.2320 N   0  0  0  0  0  0  0  0  0  0  0  0
   -3.7864  -33.9964  -44.8873 C   0  0  0  0  0  0  0  0  0  0  0  0
   -3.4736  -33.8209  -43.5214 C   0  0  0  0  0  0  0  0  0  0  0  0
   -4.4024  -34.2819  -42.5494 C   0  0  0  0  0  0  0  0  0  0  0  0
   -4.1785  -34.1498  -41.3716 O   0  0  0  0  0  0  0  0  0  0  0  0
   -2.1738  -33.1587  -43.4747 C   0  0  0  0  0  0  0  0  0  0  0  0
   -1.7890  -32.9713  -44.7496 C   0  0  0  0  0  0  0  0  0  0  0  0
   -2.7518  -33.4715  -45.6009 N   0  0  0  0  0  0  0  0  0  0  0  0
   -1.4097  -32.7696  -42.2351 C   0  0  0  0  0  0  0  0  0  0  0  0
    0.0378  -32.8515  -42.5173 N   0  0  0  0  0  0  0  0  0  0  0  0
  1  2  1  0  0  0  0
  1  7  1  0  0  0  0
  2  3  1  0  0  0  0
  2  4  2  0  0  0  0
  4  5  1  0  0  0  0
  5  6  2  0  0  0  0
  5 11  1  0  0  0  0
  6  7  1  0  0  0  0
  6  9  1  0  0  0  0
  7  8  2  0  0  0  0
  9 10  2  0  0  0  0
  9 12  1  0  0  0  0
 10 11  1  0  0  0  0
 12 13  1  0  0  0  0
M  END
>  <CHROM.1>
148.48167901,-3.64347175,-33.97879279,-43.65787914,2.92070437,-0.42352213
-1.55805018

>  <Name>
ligand

>  <RI>
0

>  <Rbt.Current_Directory>
/home/itssahil/PROJECTS/Mol_Feturizer/Test_systems_manuscript/rnas/3fu2

>  <Rbt.Executable>
rbdock ($Id: //depot/dev/client3/rdock/2013.1/src/exe/rbdock.cxx#4 $)

>  <Rbt.Library>
libRbt.so (2013.1, Build901 2013/11/27)

>  <Rbt.Parameter_File>
/export/apps/rDock/src/rDock_2013.1_src/data/scripts/dock_solv.prm

>  <Rbt.Receptor>
prm/blind_docking_100.prm

>  <SCORE>
-16.872

>  <SCORE.INTER>
-16.6452

>  <SCORE.INTER.CONST>
1

>  <SCORE.INTER.POLAR>
0

>  <SCORE.INTER.ROT>
1

>  <SCORE.INTER.SOLV>
20.0986

>  <SCORE.INTER.VDW>
-22.063

>  <SCORE.INTER.norm>
-1.2804

>  <SCORE.INTRA>
-0.226751

>  <SCORE.INTRA.DIHEDRAL>
0.0322694

>  <SCORE.INTRA.DIHEDRAL.0>
1.66609

>  <SCORE.INTRA.POLAR>
0

>  <SCORE.INTRA.POLAR.0>
0

>  <SCORE.INTRA.REPUL>
0

>  <SCORE.INTRA.REPUL.0>
0

>  <SCORE.INTRA.SOLV>
-0.984188

>  <SCORE.INTRA.SOLV.lig_0>
-45.868

>  <SCORE.INTRA.VDW>
0.249208

>  <SCORE.INTRA.VDW.0>
-0.397919

>  <SCORE.INTRA.norm>
-0.0174424

>  <SCORE.RESTR>
0

>  <SCORE.RESTR.CAVITY>
0

>  <SCORE.RESTR.norm>
0

>  <SCORE.SYSTEM>
0

>  <SCORE.SYSTEM.CONST>
0

>  <SCORE.SYSTEM.DIHEDRAL>
0

>  <SCORE.SYSTEM.SOLV>
0

>  <SCORE.SYSTEM.norm>
0

>  <SCORE.heavy>
13

>  <SCORE.norm>
-1.29785

>  <RMSD>
2.715

$$$$
ligand
 OpenBabel02271912143D
libRbt.so/2013.1/901 2013/11/27
 13 14  0  0  0  0  0  0  0  0999 V2000
   -5.5581  -34.8725  -42.9685 N   0  0  0  0  0  0  0  0  0  0  0  0
   -5.8171  -35.0297  -44.3038 C   0  0  0  0  0  0  0  0  0  0  0  0
   -6.9848  -35.6332  -44.6840 N   0  0  0  0  0  0  0  0  0  0  0  0
   -4.9583  -34.6067  -45.2318 N   0  0  0  0  0  0  0  0  0  0  0  0
   -3.7870  -34.0028  -44.8883 C   0  0  0  0  0  0  0  0  0  0  0  0
   -3.4754  -33.8225  -43.5228 C   0  0  0  0  0  0  0  0  0  0  0  0
   -4.4062  -34.2777  -42.5500 C   0  0  0  0  0  0  0  0  0  0  0  0
   -4.1833  -34.1413  -41.3725 O   0  0  0  0  0  0  0  0  0  0  0  0
   -2.1743  -33.1627  -43.4773 C   0  0  0  0  0  0  0  0  0  0  0  0
   -1.7878  -32.9812  -44.7526 C   0  0  0  0  0  0  0  0  0  0  0  0
   -2.7506  -33.4829  -45.6029 N   0  0  0  0  0  0  0  0  0  0  0  0
   -1.4108  -32.7702  -42.2385 C   0  0  0  0  0  0  0  0  0  0  0  0
    0.0368  -32.8490  -42.5210 N   0  0  0  0  0  0  0  0  0  0  0  0
  1  2  1  0  0  0  0
  1  7  1  0  0  0  0
  2  3  1  0  0  0  0
  2  4  2  0  0  0  0
  4  5  1  0  0  0  0
  5  6  2  0  0  0  0
  5 11  1  0  0  0  0
  6  7  1  0  0  0  0
  6  9  1  0  0  0  0
  7  8  2  0  0  0  0
  9 10  2  0  0  0  0
  9 12  1  0  0  0  0
 10 11  1  0  0  0  0
 12 13  1  0  0  0  0
M  END
>  <CHROM.1>
148.78698358,-3.64544309,-33.97996950,-43.65902062,2.91966421,-0.42190109
-1.56283801

>  <Name>
ligand

>  <RI>
0

>  <Rbt.Current_Directory>
/home/itssahil/PROJECTS/Mol_Feturizer/Test_systems_manuscript/rnas/3fu2

>  <Rbt.Executable>
rbdock ($Id: //depot/dev/client3/rdock/2013.1/src/exe/rbdock.cxx#4 $)

>  <Rbt.Library>
libRbt.so (2013.1, Build901 2013/11/27)

>  <Rbt.Parameter_File>
/export/apps/rDock/src/rDock_2013.1_src/data/scripts/dock_solv.prm

>  <Rbt.Receptor>
prm/blind_docking_80.prm

>  <SCORE>
-16.8696

>  <SCORE.INTER>
-16.6443

>  <SCORE.INTER.CONST>
1

>  <SCORE.INTER.POLAR>
0

>  <SCORE.INTER.ROT>
1

>  <SCORE.INTER.SOLV>
20.1187

>  <SCORE.INTER.VDW>
-22.0691

>  <SCORE.INTER.norm>
-1.28033

>  <SCORE.INTRA>
-0.225223

>  <SCORE.INTRA.DIHEDRAL>
0.0322872

>  <SCORE.INTRA.DIHEDRAL.0>
1.66609

>  <SCORE.INTRA.POLAR>
0

>  <SCORE.INTRA.POLAR.0>
0

>  <SCORE.INTRA.REPUL>
0

>  <SCORE.INTRA.REPUL.0>
0

>  <SCORE.INTRA.SOLV>
-0.984089

>  <SCORE.INTRA.SOLV.lig_0>
-45.868

>  <SCORE.INTRA.VDW>
0.250678

>  <SCORE.INTRA.VDW.0>
-0.397919

>  <SCORE.INTRA.norm>
-0.0173249

>  <SCORE.RESTR>
0

>  <SCORE.RESTR.CAVITY>
0

>  <SCORE.RESTR.norm>
0

>  <SCORE.SYSTEM>
0

>  <SCORE.SYSTEM.CONST>
0

>  <SCORE.SYSTEM.DIHEDRAL>
0

>  <SCORE.SYSTEM.SOLV>
0

>  <SCORE.SYSTEM.norm>
0

>  <SCORE.heavy>
13

>  <SCORE.norm>
-1.29766

>  <RMSD>
2.715

$$$$
ligand
 OpenBabel02271912143D
libRbt.so/2013.1/901 2013/11/27
 13 14  0  0  0  0  0  0  0  0999 V2000
   -5.5487  -34.8975  -42.9489 N   0  0  0  0  0  0  0  0  0  0  0  0
   -5.8509  -35.0623  -44.2741 C   0  0  0  0  0  0  0  0  0  0  0  0
   -7.0293  -35.6696  -44.6128 N   0  0  0  0  0  0  0  0  0  0  0  0
   -5.0235  -34.6430  -45.2320 N   0  0  0  0  0  0  0  0  0  0  0  0
   -3.8427  -34.0355  -44.9301 C   0  0  0  0  0  0  0  0  0  0  0  0
   -3.4869  -33.8473  -43.5765 C   0  0  0  0  0  0  0  0  0  0  0  0
   -4.3847  -34.2986  -42.5714 C   0  0  0  0  0  0  0  0  0  0  0  0
   -4.1237  -34.1556  -41.4026 O   0  0  0  0  0  0  0  0  0  0  0  0
   -2.1862  -33.1854  -43.5771 C   0  0  0  0  0  0  0  0  0  0  0  0
   -1.8418  -33.0102  -44.8652 C   0  0  0  0  0  0  0  0  0  0  0  0
   -2.8310  -33.5179  -45.6810 N   0  0  0  0  0  0  0  0  0  0  0  0
   -1.3833  -32.7849  -42.3660 C   0  0  0  0  0  0  0  0  0  0  0  0
    0.0137  -32.5365  -42.7762 N   0  0  0  0  0  0  0  0  0  0  0  0
  1  2  1  0  0  0  0
  1  7  1  0  0  0  0
  2  3  1  0  0  0  0
  2  4  2  0  0  0  0
  4  5  1  0  0  0  0
  5  6  2  0  0  0  0
  5 11  1  0  0  0  0
  6  7  1  0  0  0  0
  6  9  1  0  0  0  0
  7  8  2  0  0  0  0
  9 10  2  0  0  0  0
  9 12  1  0  0  0  0
 10 11  1  0  0  0  0
 12 13  1  0  0  0  0
M  END
>  <CHROM.1>
162.72889930,-3.66439996,-33.97921268,-43.71283105,2.96124376,-0.44326707
-1.56422413

>  <Name>
ligand

>  <RI>
0

>  <Rbt.Current_Directory>
/home/itssahil/PROJECTS/Mol_Feturizer/Test_systems_manuscript/rnas/3fu2

>  <Rbt.Executable>
rbdock ($Id: //depot/dev/client3/rdock/2013.1/src/exe/rbdock.cxx#4 $)

>  <Rbt.Library>
libRbt.so (2013.1, Build901 2013/11/27)

>  <Rbt.Parameter_File>
/export/apps/rDock/src/rDock_2013.1_src/data/scripts/dock_solv.prm

>  <Rbt.Receptor>
prm/pocket_docking_3.prm

>  <SCORE>
-16.8829

>  <SCORE.INTER>
-16.7356

>  <SCORE.INTER.CONST>
1

>  <SCORE.INTER.POLAR>
0

>  <SCORE.INTER.ROT>
1

>  <SCORE.INTER.SOLV>
20.3265

>  <SCORE.INTER.VDW>
-22.1992

>  <SCORE.INTER.norm>
-1.28735

>  <SCORE.INTRA>
-0.147319

>  <SCORE.INTRA.DIHEDRAL>
0.0282491

>  <SCORE.INTRA.DIHEDRAL.0>
1.66609

>  <SCORE.INTRA.POLAR>
0

>  <SCORE.INTRA.POLAR.0>
0

>  <SCORE.INTRA.REPUL>
0

>  <SCORE.INTRA.REPUL.0>
0

>  <SCORE.INTRA.SOLV>
-0.980342

>  <SCORE.INTRA.SOLV.lig_0>
-45.868

>  <SCORE.INTRA.VDW>
0.328728

>  <SCORE.INTRA.VDW.0>
-0.397919

>  <SCORE.INTRA.norm>
-0.0113322

>  <SCORE.RESTR>
0

>  <SCORE.RESTR.CAVITY>
0

>  <SCORE.RESTR.norm>
0

>  <SCORE.SYSTEM>
0

>  <SCORE.SYSTEM.CONST>
0

>  <SCORE.SYSTEM.DIHEDRAL>
0

>  <SCORE.SYSTEM.SOLV>
0

>  <SCORE.SYSTEM.norm>
0

>  <SCORE.heavy>
13

>  <SCORE.norm>
-1.29868

>  <RMSD>
2.715

$$$$
ligand
 OpenBabel02271912143D
libRbt.so/2013.1/901 2013/11/27
 13 14  0  0  0  0  0  0  0  0999 V2000
   -5.5540  -34.8719  -42.9714 N   0  0  0  0  0  0  0  0  0  0  0  0
   -5.8081  -35.0338  -44.3071 C   0  0  0  0  0  0  0  0  0  0  0  0
   -6.9720  -35.6433  -44.6894 N   0  0  0  0  0  0  0  0  0  0  0  0
   -4.9480  -34.6097  -45.2335 N   0  0  0  0  0  0  0  0  0  0  0  0
   -3.7804  -34.0000  -44.8879 C   0  0  0  0  0  0  0  0  0  0  0  0
   -3.4739  -33.8147  -43.5219 C   0  0  0  0  0  0  0  0  0  0  0  0
   -4.4059  -34.2711  -42.5509 C   0  0  0  0  0  0  0  0  0  0  0  0
   -4.1874  -34.1306  -41.3730 O   0  0  0  0  0  0  0  0  0  0  0  0
   -2.1758  -33.1493  -43.4741 C   0  0  0  0  0  0  0  0  0  0  0  0
   -1.7859  -32.9697  -44.7486 C   0  0  0  0  0  0  0  0  0  0  0  0
   -2.7439  -33.4777  -45.6006 N   0  0  0  0  0  0  0  0  0  0  0  0
   -1.4179  -32.7502  -42.2339 C   0  0  0  0  0  0  0  0  0  0  0  0
    0.0307  -32.8682  -42.4971 N   0  0  0  0  0  0  0  0  0  0  0  0
  1  2  1  0  0  0  0
  1  7  1  0  0  0  0
  2  3  1  0  0  0  0
  2  4  2  0  0  0  0
  4  5  1  0  0  0  0
  5  6  2  0  0  0  0
  5 11  1  0  0  0  0
  6  7  1  0  0  0  0
  6  9  1  0  0  0  0
  7  8  2  0  0  0  0
  9 10  2  0  0  0  0
  9 12  1  0  0  0  0
 10 11  1  0  0  0  0
 12 13  1  0  0  0  0
M  END
>  <CHROM.1>
146.86926857,-3.64291887,-33.97684671,-43.65707372,2.91505635,-0.42368844
-1.56521589

>  <Name>
ligand

>  <RI>
0

>  <Rbt.Current_Directory>
/home/itssahil/PROJECTS/Mol_Feturizer/Test_systems_manuscript/rnas/3fu2

>  <Rbt.Executable>
rbdock ($Id: //depot/dev/client3/rdock/2013.1/src/exe/rbdock.cxx#4 $)

>  <Rbt.Library>
libRbt.so (2013.1, Build901 2013/11/27)

>  <Rbt.Parameter_File>
/export/apps/rDock/src/rDock_2013.1_src/data/scripts/dock_solv.prm

>  <Rbt.Receptor>
prm/pocket_docking_4.prm

>  <SCORE>
-16.8789

>  <SCORE.INTER>
-16.644

>  <SCORE.INTER.CONST>
1

>  <SCORE.INTER.POLAR>
0

>  <SCORE.INTER.ROT>
1

>  <SCORE.INTER.SOLV>
20.0712

>  <SCORE.INTER.VDW>
-22.0531

>  <SCORE.INTER.norm>
-1.28031

>  <SCORE.INTRA>
-0.234875

>  <SCORE.INTRA.DIHEDRAL>
0.0320977

>  <SCORE.INTRA.DIHEDRAL.0>
1.66609

>  <SCORE.INTRA.POLAR>
0

>  <SCORE.INTRA.POLAR.0>
0

>  <SCORE.INTRA.REPUL>
0

>  <SCORE.INTRA.REPUL.0>
0

>  <SCORE.INTRA.SOLV>
-0.984716

>  <SCORE.INTRA.SOLV.lig_0>
-45.868

>  <SCORE.INTRA.VDW>
0.241434

>  <SCORE.INTRA.VDW.0>
-0.397919

>  <SCORE.INTRA.norm>
-0.0180673

>  <SCORE.RESTR>
0

>  <SCORE.RESTR.CAVITY>
0

>  <SCORE.RESTR.norm>
0

>  <SCORE.SYSTEM>
0

>  <SCORE.SYSTEM.CONST>
0

>  <SCORE.SYSTEM.DIHEDRAL>
0

>  <SCORE.SYSTEM.SOLV>
0

>  <SCORE.SYSTEM.norm>
0

>  <SCORE.heavy>
13

>  <SCORE.norm>
-1.29838

>  <RMSD>
2.715

$$$$
ligand
 OpenBabel02271912143D
libRbt.so/2013.1/901 2013/11/27
 13 14  0  0  0  0  0  0  0  0999 V2000
   -5.5504  -34.8756  -42.9713 N   0  0  0  0  0  0  0  0  0  0  0  0
   -5.8045  -35.0376  -44.3070 C   0  0  0  0  0  0  0  0  0  0  0  0
   -6.9674  -35.6492  -44.6891 N   0  0  0  0  0  0  0  0  0  0  0  0
   -4.9456  -34.6116  -45.2336 N   0  0  0  0  0  0  0  0  0  0  0  0
   -3.7790  -33.9998  -44.8882 C   0  0  0  0  0  0  0  0  0  0  0  0
   -3.4724  -33.8142  -43.5222 C   0  0  0  0  0  0  0  0  0  0  0  0
   -4.4033  -34.2727  -42.5510 C   0  0  0  0  0  0  0  0  0  0  0  0
   -4.1846  -34.1321  -41.3732 O   0  0  0  0  0  0  0  0  0  0  0  0
   -2.1756  -33.1465  -43.4746 C   0  0  0  0  0  0  0  0  0  0  0  0
   -1.7864  -32.9658  -44.7492 C   0  0  0  0  0  0  0  0  0  0  0  0
   -2.7437  -33.4754  -45.6011 N   0  0  0  0  0  0  0  0  0  0  0  0
   -1.4180  -32.7462  -42.2346 C   0  0  0  0  0  0  0  0  0  0  0  0
    0.0306  -32.8675  -42.4962 N   0  0  0  0  0  0  0  0  0  0  0  0
  1  2  1  0  0  0  0
  1  7  1  0  0  0  0
  2  3  1  0  0  0  0
  2  4  2  0  0  0  0
  4  5  1  0  0  0  0
  5  6  2  0  0  0  0
  5 11  1  0  0  0  0
  6  7  1  0  0  0  0
  6  9  1  0  0  0  0
  7  8  2  0  0  0  0
  9 10  2  0  0  0  0
  9 12  1  0  0  0  0
 10 11  1  0  0  0  0
 12 13  1  0  0  0  0
M  END
>  <CHROM.1>
146.60301720,-3.64115791,-33.97720878,-43.65718628,2.91526133,-0.42524466
-1.56455250

>  <Name>
ligand

>  <RI>
0

>  <Rbt.Current_Directory>
/home/itssahil/PROJECTS/Mol_Feturizer/Test_systems_manuscript/rnas/3fu2

>  <Rbt.Executable>
rbdock ($Id: //depot/dev/client3/rdock/2013.1/src/exe/rbdock.cxx#4 $)

>  <Rbt.Library>
libRbt.so (2013.1, Build901 2013/11/27)

>  <Rbt.Parameter_File>
/export/apps/rDock/src/rDock_2013.1_src/data/scripts/dock_solv.prm

>  <Rbt.Receptor>
prm/pocket_docking_4.prm

>  <SCORE>
-16.8793

>  <SCORE.INTER>
-16.6431

>  <SCORE.INTER.CONST>
1

>  <SCORE.INTER.POLAR>
0

>  <SCORE.INTER.ROT>
1

>  <SCORE.INTER.SOLV>
20.0626

>  <SCORE.INTER.VDW>
-22.0496

>  <SCORE.INTER.norm>
-1.28024

>  <SCORE.INTRA>
-0.236224

>  <SCORE.INTRA.DIHEDRAL>
0.0320569

>  <SCORE.INTRA.DIHEDRAL.0>
1.66609

>  <SCORE.INTRA.POLAR>
0

>  <SCORE.INTRA.POLAR.0>
0

>  <SCORE.INTRA.REPUL>
0

>  <SCORE.INTRA.REPUL.0>
0

>  <SCORE.INTRA.SOLV>
-0.984804

>  <SCORE.INTRA.SOLV.lig_0>
-45.868

>  <SCORE.INTRA.VDW>
0.24015

>  <SCORE.INTRA.VDW.0>
-0.397919

>  <SCORE.INTRA.norm>
-0.0181711

>  <SCORE.RESTR>
0

>  <SCORE.RESTR.CAVITY>
0

>  <SCORE.RESTR.norm>
0

>  <SCORE.SYSTEM>
0

>  <SCORE.SYSTEM.CONST>
0

>  <SCORE.SYSTEM.DIHEDRAL>
0

>  <SCORE.SYSTEM.SOLV>
0

>  <SCORE.SYSTEM.norm>
0

>  <SCORE.heavy>
13

>  <SCORE.norm>
-1.29841

>  <RMSD>
2.715

$$$$
ligand
 OpenBabel02271912143D
libRbt.so/2013.1/901 2013/11/27
 13 14  0  0  0  0  0  0  0  0999 V2000
   -5.5529  -34.8778  -42.9688 N   0  0  0  0  0  0  0  0  0  0  0  0
   -5.8090  -35.0388  -44.3042 C   0  0  0  0  0  0  0  0  0  0  0  0
   -6.9729  -35.6490  -44.6851 N   0  0  0  0  0  0  0  0  0  0  0  0
   -4.9509  -34.6131  -45.2318 N   0  0  0  0  0  0  0  0  0  0  0  0
   -3.7833  -34.0026  -44.8876 C   0  0  0  0  0  0  0  0  0  0  0  0
   -3.4747  -33.8181  -43.5220 C   0  0  0  0  0  0  0  0  0  0  0  0
   -4.4046  -34.2762  -42.5497 C   0  0  0  0  0  0  0  0  0  0  0  0
   -4.1843  -34.1365  -41.3721 O   0  0  0  0  0  0  0  0  0  0  0  0
   -2.1771  -33.1516  -43.4757 C   0  0  0  0  0  0  0  0  0  0  0  0
   -1.7896  -32.9705  -44.7507 C   0  0  0  0  0  0  0  0  0  0  0  0
   -2.7485  -33.4787  -45.6016 N   0  0  0  0  0  0  0  0  0  0  0  0
   -1.4175  -32.7527  -42.2365 C   0  0  0  0  0  0  0  0  0  0  0  0
    0.0310  -32.8519  -42.5079 N   0  0  0  0  0  0  0  0  0  0  0  0
  1  2  1  0  0  0  0
  1  7  1  0  0  0  0
  2  3  1  0  0  0  0
  2  4  2  0  0  0  0
  4  5  1  0  0  0  0
  5  6  2  0  0  0  0
  5 11  1  0  0  0  0
  6  7  1  0  0  0  0
  6  9  1  0  0  0  0
  7  8  2  0  0  0  0
  9 10  2  0  0  0  0
  9 12  1  0  0  0  0
 10 11  1  0  0  0  0
 12 13  1  0  0  0  0
M  END
>  <CHROM.1>
147.61249970,-3.64372501,-33.97892370,-43.65740668,2.91734955,-0.42555665
-1.56431080

>  <Name>
ligand

>  <RI>
0

>  <Rbt.Current_Directory>
/home/itssahil/PROJECTS/Mol_Feturizer/Test_systems_manuscript/rnas/3fu2

>  <Rbt.Executable>
rbdock ($Id: //depot/dev/client3/rdock/2013.1/src/exe/rbdock.cxx#4 $)

>  <Rbt.Library>
libRbt.so (2013.1, Build901 2013/11/27)

>  <Rbt.Parameter_File>
/export/apps/rDock/src/rDock_2013.1_src/data/scripts/dock_solv.prm

>  <Rbt.Receptor>
prm/pocket_docking_7.prm

>  <SCORE>
-16.8767

>  <SCORE.INTER>
-16.6456

>  <SCORE.INTER.CONST>
1

>  <SCORE.INTER.POLAR>
0

>  <SCORE.INTER.ROT>
1

>  <SCORE.INTER.SOLV>
20.0776

>  <SCORE.INTER.VDW>
-22.0562

>  <SCORE.INTER.norm>
-1.28043

>  <SCORE.INTRA>
-0.23112

>  <SCORE.INTRA.DIHEDRAL>
0.032193

>  <SCORE.INTRA.DIHEDRAL.0>
1.66609

>  <SCORE.INTRA.POLAR>
0

>  <SCORE.INTRA.POLAR.0>
0

>  <SCORE.INTRA.REPUL>
0

>  <SCORE.INTRA.REPUL.0>
0

>  <SCORE.INTRA.SOLV>
-0.984471

>  <SCORE.INTRA.SOLV.lig_0>
-45.868

>  <SCORE.INTRA.VDW>
0.245019

>  <SCORE.INTRA.VDW.0>
-0.397919

>  <SCORE.INTRA.norm>
-0.0177785

>  <SCORE.RESTR>
0

>  <SCORE.RESTR.CAVITY>
0

>  <SCORE.RESTR.norm>
0

>  <SCORE.SYSTEM>
0

>  <SCORE.SYSTEM.CONST>
0

>  <SCORE.SYSTEM.DIHEDRAL>
0

>  <SCORE.SYSTEM.SOLV>
0

>  <SCORE.SYSTEM.norm>
0

>  <SCORE.heavy>
13

>  <SCORE.norm>
-1.29821

>  <RMSD>
2.715

$$$$
ligand
 OpenBabel02271912143D
libRbt.so/2013.1/901 2013/11/27
 13 14  0  0  0  0  0  0  0  0999 V2000
   -5.5608  -34.8926  -42.9515 N   0  0  0  0  0  0  0  0  0  0  0  0
   -5.8531  -35.0642  -44.2781 C   0  0  0  0  0  0  0  0  0  0  0  0
   -7.0281  -35.6748  -44.6224 N   0  0  0  0  0  0  0  0  0  0  0  0
   -5.0193  -34.6482  -45.2319 N   0  0  0  0  0  0  0  0  0  0  0  0
   -3.8416  -34.0376  -44.9244 C   0  0  0  0  0  0  0  0  0  0  0  0
   -3.4960  -33.8424  -43.5691 C   0  0  0  0  0  0  0  0  0  0  0  0
   -4.4004  -34.2902  -42.5684 C   0  0  0  0  0  0  0  0  0  0  0  0
   -4.1482  -34.1412  -41.3984 O   0  0  0  0  0  0  0  0  0  0  0  0
   -2.1963  -33.1785  -43.5634 C   0  0  0  0  0  0  0  0  0  0  0  0
   -1.8427  -33.0090  -44.8498 C   0  0  0  0  0  0  0  0  0  0  0  0
   -2.8253  -33.5221  -45.6703 N   0  0  0  0  0  0  0  0  0  0  0  0
   -1.4027  -32.7711  -42.3485 C   0  0  0  0  0  0  0  0  0  0  0  0
    0.0082  -32.5761  -42.7392 N   0  0  0  0  0  0  0  0  0  0  0  0
  1  2  1  0  0  0  0
  1  7  1  0  0  0  0
  2  3  1  0  0  0  0
  2  4  2  0  0  0  0
  4  5  1  0  0  0  0
  5  6  2  0  0  0  0
  5 11  1  0  0  0  0
  6  7  1  0  0  0  0
  6  9  1  0  0  0  0
  7  8  2  0  0  0  0
  9 10  2  0  0  0  0
  9 12  1  0  0  0  0
 10 11  1  0  0  0  0
 12 13  1  0  0  0  0
M  END
>  <CHROM.1>
160.44462503,-3.67135374,-33.97955382,-43.70525702,2.95260376,-0.44122164
-1.57086594

>  <Name>
ligand

>  <RI>
0

>  <Rbt.Current_Directory>
/home/itssahil/PROJECTS/Mol_Feturizer/Test_systems_manuscript/rnas/3fu2

>  <Rbt.Executable>
rbdock ($Id: //depot/dev/client3/rdock/2013.1/src/exe/rbdock.cxx#4 $)

>  <Rbt.Library>
libRbt.so (2013.1, Build901 2013/11/27)

>  <Rbt.Parameter_File>
/export/apps/rDock/src/rDock_2013.1_src/data/scripts/dock_solv.prm

>  <Rbt.Receptor>
prm/blind_docking_80.prm

>  <SCORE>
-16.8625

>  <SCORE.INTER>
-16.7071

>  <SCORE.INTER.CONST>
1

>  <SCORE.INTER.POLAR>
0

>  <SCORE.INTER.ROT>
1

>  <SCORE.INTER.SOLV>
20.3057

>  <SCORE.INTER.VDW>
-22.1733

>  <SCORE.INTER.norm>
-1.28516

>  <SCORE.INTRA>
-0.155449

>  <SCORE.INTRA.DIHEDRAL>
0.0295229

>  <SCORE.INTRA.DIHEDRAL.0>
1.66609

>  <SCORE.INTRA.POLAR>
0

>  <SCORE.INTRA.POLAR.0>
0

>  <SCORE.INTRA.REPUL>
0

>  <SCORE.INTRA.REPUL.0>
0

>  <SCORE.INTRA.SOLV>
-0.980828

>  <SCORE.INTRA.SOLV.lig_0>
-45.868

>  <SCORE.INTRA.VDW>
0.320203

>  <SCORE.INTRA.VDW.0>
-0.397919

>  <SCORE.INTRA.norm>
-0.0119576

>  <SCORE.RESTR>
0

>  <SCORE.RESTR.CAVITY>
0

>  <SCORE.RESTR.norm>
0

>  <SCORE.SYSTEM>
0

>  <SCORE.SYSTEM.CONST>
0

>  <SCORE.SYSTEM.DIHEDRAL>
0

>  <SCORE.SYSTEM.SOLV>
0

>  <SCORE.SYSTEM.norm>
0

>  <SCORE.heavy>
13

>  <SCORE.norm>
-1.29712

>  <RMSD>
2.716

$$$$
ligand
 OpenBabel02271912143D
libRbt.so/2013.1/901 2013/11/27
 13 14  0  0  0  0  0  0  0  0999 V2000
   -5.5515  -34.9095  -42.9391 N   0  0  0  0  0  0  0  0  0  0  0  0
   -5.8474  -35.0657  -44.2668 C   0  0  0  0  0  0  0  0  0  0  0  0
   -7.0202  -35.6784  -44.6150 N   0  0  0  0  0  0  0  0  0  0  0  0
   -5.0192  -34.6329  -45.2180 N   0  0  0  0  0  0  0  0  0  0  0  0
   -3.8438  -34.0197  -44.9066 C   0  0  0  0  0  0  0  0  0  0  0  0
   -3.4946  -33.8401  -43.5502 C   0  0  0  0  0  0  0  0  0  0  0  0
   -4.3931  -34.3057  -42.5523 C   0  0  0  0  0  0  0  0  0  0  0  0
   -4.1377  -34.1703  -41.3813 O   0  0  0  0  0  0  0  0  0  0  0  0
   -2.1986  -33.1691  -43.5403 C   0  0  0  0  0  0  0  0  0  0  0  0
   -1.8504  -32.9812  -44.8256 C   0  0  0  0  0  0  0  0  0  0  0  0
   -2.8329  -33.4891  -45.6493 N   0  0  0  0  0  0  0  0  0  0  0  0
   -1.4031  -32.7730  -42.3229 C   0  0  0  0  0  0  0  0  0  0  0  0
    0.0153  -32.6190  -42.7048 N   0  0  0  0  0  0  0  0  0  0  0  0
  1  2  1  0  0  0  0
  1  7  1  0  0  0  0
  2  3  1  0  0  0  0
  2  4  2  0  0  0  0
  4  5  1  0  0  0  0
  5  6  2  0  0  0  0
  5 11  1  0  0  0  0
  6  7  1  0  0  0  0
  6  9  1  0  0  0  0
  7  8  2  0  0  0  0
  9 10  2  0  0  0  0
  9 12  1  0  0  0  0
 10 11  1  0  0  0  0
 12 13  1  0  0  0  0
M  END
>  <CHROM.1>
158.15033691,-3.66889505,-33.98082826,-43.68656556,2.95569128,-0.44327227
-1.55470754

>  <Name>
ligand

>  <RI>
0

>  <Rbt.Current_Directory>
/home/itssahil/PROJECTS/Mol_Feturizer/Test_systems_manuscript/rnas/3fu2

>  <Rbt.Executable>
rbdock ($Id: //depot/dev/client3/rdock/2013.1/src/exe/rbdock.cxx#4 $)

>  <Rbt.Library>
libRbt.so (2013.1, Build901 2013/11/27)

>  <Rbt.Parameter_File>
/export/apps/rDock/src/rDock_2013.1_src/data/scripts/dock_solv.prm

>  <Rbt.Receptor>
prm/pocket_docking_2.prm

>  <SCORE>
-16.8376

>  <SCORE.INTER>
-16.6732

>  <SCORE.INTER.CONST>
1

>  <SCORE.INTER.POLAR>
0

>  <SCORE.INTER.ROT>
1

>  <SCORE.INTER.SOLV>
20.2557

>  <SCORE.INTER.VDW>
-22.134

>  <SCORE.INTER.norm>
-1.28255

>  <SCORE.INTRA>
-0.164407

>  <SCORE.INTRA.DIHEDRAL>
0.0305778

>  <SCORE.INTRA.DIHEDRAL.0>
1.66609

>  <SCORE.INTRA.POLAR>
0

>  <SCORE.INTRA.POLAR.0>
0

>  <SCORE.INTRA.REPUL>
0

>  <SCORE.INTRA.REPUL.0>
0

>  <SCORE.INTRA.SOLV>
-0.981374

>  <SCORE.INTRA.SOLV.lig_0>
-45.868

>  <SCORE.INTRA.VDW>
0.310991

>  <SCORE.INTRA.VDW.0>
-0.397919

>  <SCORE.INTRA.norm>
-0.0126467

>  <SCORE.RESTR>
0

>  <SCORE.RESTR.CAVITY>
0

>  <SCORE.RESTR.norm>
0

>  <SCORE.SYSTEM>
0

>  <SCORE.SYSTEM.CONST>
0

>  <SCORE.SYSTEM.DIHEDRAL>
0

>  <SCORE.SYSTEM.SOLV>
0

>  <SCORE.SYSTEM.norm>
0

>  <SCORE.heavy>
13

>  <SCORE.norm>
-1.2952

>  <RMSD>
2.716

$$$$
ligand
 OpenBabel02271912143D
libRbt.so/2013.1/901 2013/11/27
 13 14  0  0  0  0  0  0  0  0999 V2000
   -5.5506  -34.8776  -42.9684 N   0  0  0  0  0  0  0  0  0  0  0  0
   -5.8356  -35.0351  -44.2983 C   0  0  0  0  0  0  0  0  0  0  0  0
   -7.0067  -35.6461  -44.6555 N   0  0  0  0  0  0  0  0  0  0  0  0
   -4.9986  -34.6054  -45.2431 N   0  0  0  0  0  0  0  0  0  0  0  0
   -3.8247  -33.9940  -44.9227 C   0  0  0  0  0  0  0  0  0  0  0  0
   -3.4866  -33.8130  -43.5636 C   0  0  0  0  0  0  0  0  0  0  0  0
   -4.3944  -34.2754  -42.5727 C   0  0  0  0  0  0  0  0  0  0  0  0
   -4.1486  -34.1388  -41.3998 O   0  0  0  0  0  0  0  0  0  0  0  0
   -2.1893  -33.1446  -43.5437 C   0  0  0  0  0  0  0  0  0  0  0  0
   -1.8300  -32.9593  -44.8263 C   0  0  0  0  0  0  0  0  0  0  0  0
   -2.8065  -33.4665  -45.6576 N   0  0  0  0  0  0  0  0  0  0  0  0
   -1.4035  -32.7482  -42.3202 C   0  0  0  0  0  0  0  0  0  0  0  0
    0.0298  -32.6811  -42.6706 N   0  0  0  0  0  0  0  0  0  0  0  0
  1  2  1  0  0  0  0
  1  7  1  0  0  0  0
  2  3  1  0  0  0  0
  2  4  2  0  0  0  0
  4  5  1  0  0  0  0
  5  6  2  0  0  0  0
  5 11  1  0  0  0  0
  6  7  1  0  0  0  0
  6  9  1  0  0  0  0
  7  8  2  0  0  0  0
  9 10  2  0  0  0  0
  9 12  1  0  0  0  0
 10 11  1  0  0  0  0
 12 13  1  0  0  0  0
M  END
>  <CHROM.1>
154.59728245,-3.65904701,-33.96044833,-43.69963617,2.94493391,-0.43626676
-1.55744059

>  <Name>
ligand

>  <RI>
0

>  <Rbt.Current_Directory>
/home/itssahil/PROJECTS/Mol_Feturizer/Test_systems_manuscript/rnas/3fu2

>  <Rbt.Executable>
rbdock ($Id: //depot/dev/client3/rdock/2013.1/src/exe/rbdock.cxx#4 $)

>  <Rbt.Library>
libRbt.so (2013.1, Build901 2013/11/27)

>  <Rbt.Parameter_File>
/export/apps/rDock/src/rDock_2013.1_src/data/scripts/dock_solv.prm

>  <Rbt.Receptor>
prm/pocket_docking_2.prm

>  <SCORE>
-16.8826

>  <SCORE.INTER>
-16.6854

>  <SCORE.INTER.CONST>
1

>  <SCORE.INTER.POLAR>
0

>  <SCORE.INTER.ROT>
1

>  <SCORE.INTER.SOLV>
20.2599

>  <SCORE.INTER.VDW>
-22.1436

>  <SCORE.INTER.norm>
-1.28349

>  <SCORE.INTRA>
-0.197196

>  <SCORE.INTRA.DIHEDRAL>
0.0317329

>  <SCORE.INTRA.DIHEDRAL.0>
1.66609

>  <SCORE.INTRA.POLAR>
0

>  <SCORE.INTRA.POLAR.0>
0

>  <SCORE.INTRA.REPUL>
0

>  <SCORE.INTRA.REPUL.0>
0

>  <SCORE.INTRA.SOLV>
-0.982323

>  <SCORE.INTRA.SOLV.lig_0>
-45.868

>  <SCORE.INTRA.VDW>
0.278099

>  <SCORE.INTRA.VDW.0>
-0.397919

>  <SCORE.INTRA.norm>
-0.0151689

>  <SCORE.RESTR>
0

>  <SCORE.RESTR.CAVITY>
0

>  <SCORE.RESTR.norm>
0

>  <SCORE.SYSTEM>
0

>  <SCORE.SYSTEM.CONST>
0

>  <SCORE.SYSTEM.DIHEDRAL>
0

>  <SCORE.SYSTEM.SOLV>
0

>  <SCORE.SYSTEM.norm>
0

>  <SCORE.heavy>
13

>  <SCORE.norm>
-1.29866

>  <RMSD>
2.716

$$$$
ligand
 OpenBabel02271912143D
libRbt.so/2013.1/901 2013/11/27
 13 14  0  0  0  0  0  0  0  0999 V2000
   -5.5540  -34.8853  -42.9490 N   0  0  0  0  0  0  0  0  0  0  0  0
   -5.8541  -35.0555  -44.2741 C   0  0  0  0  0  0  0  0  0  0  0  0
   -7.0338  -35.6607  -44.6122 N   0  0  0  0  0  0  0  0  0  0  0  0
   -5.0235  -34.6434  -45.2323 N   0  0  0  0  0  0  0  0  0  0  0  0
   -3.8413  -34.0382  -44.9309 C   0  0  0  0  0  0  0  0  0  0  0  0
   -3.4877  -33.8447  -43.5775 C   0  0  0  0  0  0  0  0  0  0  0  0
   -4.3889  -34.2884  -42.5721 C   0  0  0  0  0  0  0  0  0  0  0  0
   -4.1298  -34.1405  -41.4034 O   0  0  0  0  0  0  0  0  0  0  0  0
   -2.1849  -33.1869  -43.5786 C   0  0  0  0  0  0  0  0  0  0  0  0
   -1.8373  -33.0190  -44.8669 C   0  0  0  0  0  0  0  0  0  0  0  0
   -2.8265  -33.5275  -45.6822 N   0  0  0  0  0  0  0  0  0  0  0  0
   -1.3831  -32.7832  -42.3678 C   0  0  0  0  0  0  0  0  0  0  0  0
    0.0201  -32.5620  -42.7725 N   0  0  0  0  0  0  0  0  0  0  0  0
  1  2  1  0  0  0  0
  1  7  1  0  0  0  0
  2  3  1  0  0  0  0
  2  4  2  0  0  0  0
  4  5  1  0  0  0  0
  5  6  2  0  0  0  0
  5 11  1  0  0  0  0
  6  7  1  0  0  0  0
  6  9  1  0  0  0  0
  7  8  2  0  0  0  0
  9 10  2  0  0  0  0
  9 12  1  0  0  0  0
 10 11  1  0  0  0  0
 12 13  1  0  0  0  0
M  END
>  <CHROM.1>
161.84144974,-3.66492632,-33.97839454,-43.71325494,2.95878874,-0.43871708
-1.56935099

>  <Name>
ligand

>  <RI>
0

>  <Rbt.Current_Directory>
/home/itssahil/PROJECTS/Mol_Feturizer/Test_systems_manuscript/rnas/3fu2

>  <Rbt.Executable>
rbdock ($Id: //depot/dev/client3/rdock/2013.1/src/exe/rbdock.cxx#4 $)

>  <Rbt.Library>
libRbt.so (2013.1, Build901 2013/11/27)

>  <Rbt.Parameter_File>
/export/apps/rDock/src/rDock_2013.1_src/data/scripts/dock_solv.prm

>  <Rbt.Receptor>
prm/pocket_docking_4.prm

>  <SCORE>
-16.8747

>  <SCORE.INTER>
-16.7243

>  <SCORE.INTER.CONST>
1

>  <SCORE.INTER.POLAR>
0

>  <SCORE.INTER.ROT>
1

>  <SCORE.INTER.SOLV>
20.3677

>  <SCORE.INTER.VDW>
-22.2055

>  <SCORE.INTER.norm>
-1.28649

>  <SCORE.INTRA>
-0.150377

>  <SCORE.INTRA.DIHEDRAL>
0.0287694

>  <SCORE.INTRA.DIHEDRAL.0>
1.66609

>  <SCORE.INTRA.POLAR>
0

>  <SCORE.INTRA.POLAR.0>
0

>  <SCORE.INTRA.REPUL>
0

>  <SCORE.INTRA.REPUL.0>
0

>  <SCORE.INTRA.SOLV>
-0.980524

>  <SCORE.INTRA.SOLV.lig_0>
-45.868

>  <SCORE.INTRA.VDW>
0.325501

>  <SCORE.INTRA.VDW.0>
-0.397919

>  <SCORE.INTRA.norm>
-0.0115674

>  <SCORE.RESTR>
0

>  <SCORE.RESTR.CAVITY>
0

>  <SCORE.RESTR.norm>
0

>  <SCORE.SYSTEM>
0

>  <SCORE.SYSTEM.CONST>
0

>  <SCORE.SYSTEM.DIHEDRAL>
0

>  <SCORE.SYSTEM.SOLV>
0

>  <SCORE.SYSTEM.norm>
0

>  <SCORE.heavy>
13

>  <SCORE.norm>
-1.29805

>  <RMSD>
2.716

$$$$
ligand
 OpenBabel02271912143D
libRbt.so/2013.1/901 2013/11/27
 13 14  0  0  0  0  0  0  0  0999 V2000
   -5.5441  -34.9081  -42.9337 N   0  0  0  0  0  0  0  0  0  0  0  0
   -5.8424  -35.0663  -44.2607 C   0  0  0  0  0  0  0  0  0  0  0  0
   -7.0097  -35.6913  -44.6057 N   0  0  0  0  0  0  0  0  0  0  0  0
   -5.0219  -34.6239  -45.2140 N   0  0  0  0  0  0  0  0  0  0  0  0
   -3.8522  -33.9983  -44.9058 C   0  0  0  0  0  0  0  0  0  0  0  0
   -3.5008  -33.8160  -43.5503 C   0  0  0  0  0  0  0  0  0  0  0  0
   -4.3911  -34.2921  -42.5500 C   0  0  0  0  0  0  0  0  0  0  0  0
   -4.1335  -34.1549  -41.3797 O   0  0  0  0  0  0  0  0  0  0  0  0
   -2.2120  -33.1311  -43.5438 C   0  0  0  0  0  0  0  0  0  0  0  0
   -1.8699  -32.9384  -44.8301 C   0  0  0  0  0  0  0  0  0  0  0  0
   -2.8494  -33.4562  -45.6512 N   0  0  0  0  0  0  0  0  0  0  0  0
   -1.4171  -32.7274  -42.3286 C   0  0  0  0  0  0  0  0  0  0  0  0
    0.0110  -32.6403  -42.6955 N   0  0  0  0  0  0  0  0  0  0  0  0
  1  2  1  0  0  0  0
  1  7  1  0  0  0  0
  2  3  1  0  0  0  0
  2  4  2  0  0  0  0
  4  5  1  0  0  0  0
  5  6  2  0  0  0  0
  5 11  1  0  0  0  0
  6  7  1  0  0  0  0
  6  9  1  0  0  0  0
  7  8  2  0  0  0  0
  9 10  2  0  0  0  0
  9 12  1  0  0  0  0
 10 11  1  0  0  0  0
 12 13  1  0  0  0  0
M  END
>  <CHROM.1>
154.63914525,-3.67291150,-33.96519232,-43.68467683,2.95800521,-0.44886092
-1.54960360

>  <Name>
ligand

>  <RI>
0

>  <Rbt.Current_Directory>
/home/itssahil/PROJECTS/Mol_Feturizer/Test_systems_manuscript/rnas/3fu2

>  <Rbt.Executable>
rbdock ($Id: //depot/dev/client3/rdock/2013.1/src/exe/rbdock.cxx#4 $)

>  <Rbt.Library>
libRbt.so (2013.1, Build901 2013/11/27)

>  <Rbt.Parameter_File>
/export/apps/rDock/src/rDock_2013.1_src/data/scripts/dock_solv.prm

>  <Rbt.Receptor>
prm/pocket_docking_8.prm

>  <SCORE>
-16.8337

>  <SCORE.INTER>
-16.6367

>  <SCORE.INTER.CONST>
1

>  <SCORE.INTER.POLAR>
0

>  <SCORE.INTER.ROT>
1

>  <SCORE.INTER.SOLV>
20.2587

>  <SCORE.INTER.VDW>
-22.1107

>  <SCORE.INTER.norm>
-1.27974

>  <SCORE.INTRA>
-0.197004

>  <SCORE.INTRA.DIHEDRAL>
0.0317228

>  <SCORE.INTRA.DIHEDRAL.0>
1.66609

>  <SCORE.INTRA.POLAR>
0

>  <SCORE.INTRA.POLAR.0>
0

>  <SCORE.INTRA.REPUL>
0

>  <SCORE.INTRA.REPUL.0>
0

>  <SCORE.INTRA.SOLV>
-0.982311

>  <SCORE.INTRA.SOLV.lig_0>
-45.868

>  <SCORE.INTRA.VDW>
0.27829

>  <SCORE.INTRA.VDW.0>
-0.397919

>  <SCORE.INTRA.norm>
-0.0151541

>  <SCORE.RESTR>
0

>  <SCORE.RESTR.CAVITY>
0

>  <SCORE.RESTR.norm>
0

>  <SCORE.SYSTEM>
0

>  <SCORE.SYSTEM.CONST>
0

>  <SCORE.SYSTEM.DIHEDRAL>
0

>  <SCORE.SYSTEM.SOLV>
0

>  <SCORE.SYSTEM.norm>
0

>  <SCORE.heavy>
13

>  <SCORE.norm>
-1.2949

>  <RMSD>
2.716

$$$$
ligand
 OpenBabel02271912143D
libRbt.so/2013.1/901 2013/11/27
 13 14  0  0  0  0  0  0  0  0999 V2000
   -5.5986  -34.8804  -42.9037 N   0  0  0  0  0  0  0  0  0  0  0  0
   -5.8671  -35.0373  -44.2372 C   0  0  0  0  0  0  0  0  0  0  0  0
   -7.0420  -35.6316  -44.6094 N   0  0  0  0  0  0  0  0  0  0  0  0
   -5.0104  -34.6227  -45.1711 N   0  0  0  0  0  0  0  0  0  0  0  0
   -3.8321  -34.0281  -44.8356 C   0  0  0  0  0  0  0  0  0  0  0  0
   -3.5106  -33.8485  -43.4723 C   0  0  0  0  0  0  0  0  0  0  0  0
   -4.4392  -34.2945  -42.4932 C   0  0  0  0  0  0  0  0  0  0  0  0
   -4.2080  -34.1584  -41.3172 O   0  0  0  0  0  0  0  0  0  0  0  0
   -2.2039  -33.1995  -43.4356 C   0  0  0  0  0  0  0  0  0  0  0  0
   -1.8237  -33.0230  -44.7135 C   0  0  0  0  0  0  0  0  0  0  0  0
   -2.7958  -33.5178  -45.5572 N   0  0  0  0  0  0  0  0  0  0  0  0
   -1.4296  -32.8116  -42.2021 C   0  0  0  0  0  0  0  0  0  0  0  0
    0.0129  -32.8133  -42.5198 N   0  0  0  0  0  0  0  0  0  0  0  0
  1  2  1  0  0  0  0
  1  7  1  0  0  0  0
  2  3  1  0  0  0  0
  2  4  2  0  0  0  0
  4  5  1  0  0  0  0
  5  6  2  0  0  0  0
  5 11  1  0  0  0  0
  6  7  1  0  0  0  0
  6  9  1  0  0  0  0
  7  8  2  0  0  0  0
  9 10  2  0  0  0  0
  9 12  1  0  0  0  0
 10 11  1  0  0  0  0
 12 13  1  0  0  0  0
M  END
>  <CHROM.1>
152.62110085,-3.68305855,-33.99744198,-43.60934239,2.92829628,-0.41865145
-1.56492178

>  <Name>
ligand

>  <RI>
0

>  <Rbt.Current_Directory>
/home/itssahil/PROJECTS/Mol_Feturizer/Test_systems_manuscript/rnas/3fu2

>  <Rbt.Executable>
rbdock ($Id: //depot/dev/client3/rdock/2013.1/src/exe/rbdock.cxx#4 $)

>  <Rbt.Library>
libRbt.so (2013.1, Build901 2013/11/27)

>  <Rbt.Parameter_File>
/export/apps/rDock/src/rDock_2013.1_src/data/scripts/dock_solv.prm

>  <Rbt.Receptor>
prm/pocket_docking_6.prm

>  <SCORE>
-16.8147

>  <SCORE.INTER>
-16.6083

>  <SCORE.INTER.CONST>
1

>  <SCORE.INTER.POLAR>
0

>  <SCORE.INTER.ROT>
1

>  <SCORE.INTER.SOLV>
20.1699

>  <SCORE.INTER.VDW>
-22.0622

>  <SCORE.INTER.norm>
-1.27756

>  <SCORE.INTRA>
-0.206455

>  <SCORE.INTRA.DIHEDRAL>
0.0321109

>  <SCORE.INTRA.DIHEDRAL.0>
1.66609

>  <SCORE.INTRA.POLAR>
0

>  <SCORE.INTRA.POLAR.0>
0

>  <SCORE.INTRA.REPUL>
0

>  <SCORE.INTRA.REPUL.0>
0

>  <SCORE.INTRA.SOLV>
-0.982897

>  <SCORE.INTRA.SOLV.lig_0>
-45.868

>  <SCORE.INTRA.VDW>
0.268938

>  <SCORE.INTRA.VDW.0>
-0.397919

>  <SCORE.INTRA.norm>
-0.0158811

>  <SCORE.RESTR>
0

>  <SCORE.RESTR.CAVITY>
0

>  <SCORE.RESTR.norm>
0

>  <SCORE.SYSTEM>
0

>  <SCORE.SYSTEM.CONST>
0

>  <SCORE.SYSTEM.DIHEDRAL>
0

>  <SCORE.SYSTEM.SOLV>
0

>  <SCORE.SYSTEM.norm>
0

>  <SCORE.heavy>
13

>  <SCORE.norm>
-1.29344

>  <RMSD>
2.717

$$$$
ligand
 OpenBabel02271912143D
libRbt.so/2013.1/901 2013/11/27
 13 14  0  0  0  0  0  0  0  0999 V2000
   -5.5696  -34.8906  -42.9614 N   0  0  0  0  0  0  0  0  0  0  0  0
   -5.8272  -35.0380  -44.2981 C   0  0  0  0  0  0  0  0  0  0  0  0
   -6.9952  -35.6371  -44.6840 N   0  0  0  0  0  0  0  0  0  0  0  0
   -4.9665  -34.6097  -45.2221 N   0  0  0  0  0  0  0  0  0  0  0  0
   -3.7948  -34.0100  -44.8728 C   0  0  0  0  0  0  0  0  0  0  0  0
   -3.4846  -33.8397  -43.5057 C   0  0  0  0  0  0  0  0  0  0  0  0
   -4.4173  -34.3004  -42.5373 C   0  0  0  0  0  0  0  0  0  0  0  0
   -4.1957  -34.1726  -41.3586 O   0  0  0  0  0  0  0  0  0  0  0  0
   -2.1827  -33.1822  -43.4540 C   0  0  0  0  0  0  0  0  0  0  0  0
   -1.7943  -32.9924  -44.7274 C   0  0  0  0  0  0  0  0  0  0  0  0
   -2.7568  -33.4866  -45.5825 N   0  0  0  0  0  0  0  0  0  0  0  0
   -1.4201  -32.7995  -42.2115 C   0  0  0  0  0  0  0  0  0  0  0  0
    0.0276  -32.8644  -42.4970 N   0  0  0  0  0  0  0  0  0  0  0  0
  1  2  1  0  0  0  0
  1  7  1  0  0  0  0
  2  3  1  0  0  0  0
  2  4  2  0  0  0  0
  4  5  1  0  0  0  0
  5  6  2  0  0  0  0
  5 11  1  0  0  0  0
  6  7  1  0  0  0  0
  6  9  1  0  0  0  0
  7  8  2  0  0  0  0
  9 10  2  0  0  0  0
  9 12  1  0  0  0  0
 10 11  1  0  0  0  0
 12 13  1  0  0  0  0
M  END
>  <CHROM.1>
149.39075933,-3.65476874,-33.99486743,-43.64358769,2.91861035,-0.42122790
-1.55693165

>  <Name>
ligand

>  <RI>
0

>  <Rbt.Current_Directory>
/home/itssahil/PROJECTS/Mol_Feturizer/Test_systems_manuscript/rnas/3fu2

>  <Rbt.Executable>
rbdock ($Id: //depot/dev/client3/rdock/2013.1/src/exe/rbdock.cxx#4 $)

>  <Rbt.Library>
libRbt.so (2013.1, Build901 2013/11/27)

>  <Rbt.Parameter_File>
/export/apps/rDock/src/rDock_2013.1_src/data/scripts/dock_solv.prm

>  <Rbt.Receptor>
prm/pocket_docking_2.prm

>  <SCORE>
-16.8552

>  <SCORE.INTER>
-16.633

>  <SCORE.INTER.CONST>
1

>  <SCORE.INTER.POLAR>
0

>  <SCORE.INTER.ROT>
1

>  <SCORE.INTER.SOLV>
20.0674

>  <SCORE.INTER.VDW>
-22.0445

>  <SCORE.INTER.norm>
-1.27946

>  <SCORE.INTRA>
-0.222214

>  <SCORE.INTRA.DIHEDRAL>
0.0323086

>  <SCORE.INTRA.DIHEDRAL.0>
1.66609

>  <SCORE.INTRA.POLAR>
0

>  <SCORE.INTRA.POLAR.0>
0

>  <SCORE.INTRA.REPUL>
0

>  <SCORE.INTRA.REPUL.0>
0

>  <SCORE.INTRA.SOLV>
-0.983896

>  <SCORE.INTRA.SOLV.lig_0>
-45.868

>  <SCORE.INTRA.VDW>
0.25358

>  <SCORE.INTRA.VDW.0>
-0.397919

>  <SCORE.INTRA.norm>
-0.0170933

>  <SCORE.RESTR>
0

>  <SCORE.RESTR.CAVITY>
0

>  <SCORE.RESTR.norm>
0

>  <SCORE.SYSTEM>
0

>  <SCORE.SYSTEM.CONST>
0

>  <SCORE.SYSTEM.DIHEDRAL>
0

>  <SCORE.SYSTEM.SOLV>
0

>  <SCORE.SYSTEM.norm>
0

>  <SCORE.heavy>
13

>  <SCORE.norm>
-1.29655

>  <RMSD>
2.718

$$$$
ligand
 OpenBabel02271912143D
libRbt.so/2013.1/901 2013/11/27
 13 14  0  0  0  0  0  0  0  0999 V2000
   -5.5697  -34.8872  -42.9633 N   0  0  0  0  0  0  0  0  0  0  0  0
   -5.8243  -35.0430  -44.2996 C   0  0  0  0  0  0  0  0  0  0  0  0
   -6.9911  -35.6452  -44.6843 N   0  0  0  0  0  0  0  0  0  0  0  0
   -4.9619  -34.6198  -45.2243 N   0  0  0  0  0  0  0  0  0  0  0  0
   -3.7913  -34.0172  -44.8763 C   0  0  0  0  0  0  0  0  0  0  0  0
   -3.4841  -33.8384  -43.5096 C   0  0  0  0  0  0  0  0  0  0  0  0
   -4.4186  -34.2937  -42.5404 C   0  0  0  0  0  0  0  0  0  0  0  0
   -4.1996  -34.1586  -41.3620 O   0  0  0  0  0  0  0  0  0  0  0  0
   -2.1827  -33.1798  -43.4591 C   0  0  0  0  0  0  0  0  0  0  0  0
   -1.7917  -32.9975  -44.7329 C   0  0  0  0  0  0  0  0  0  0  0  0
   -2.7521  -33.4975  -45.5869 N   0  0  0  0  0  0  0  0  0  0  0  0
   -1.4230  -32.7890  -42.2174 C   0  0  0  0  0  0  0  0  0  0  0  0
    0.0254  -32.8615  -42.4974 N   0  0  0  0  0  0  0  0  0  0  0  0
  1  2  1  0  0  0  0
  1  7  1  0  0  0  0
  2  3  1  0  0  0  0
  2  4  2  0  0  0  0
  4  5  1  0  0  0  0
  5  6  2  0  0  0  0
  5 11  1  0  0  0  0
  6  7  1  0  0  0  0
  6  9  1  0  0  0  0
  7  8  2  0  0  0  0
  9 10  2  0  0  0  0
  9 12  1  0  0  0  0
 10 11  1  0  0  0  0
 12 13  1  0  0  0  0
M  END
>  <CHROM.1>
149.10387411,-3.65389554,-33.99505176,-43.64669198,2.91613618,-0.42149285
-1.56372718

>  <Name>
ligand

>  <RI>
0

>  <Rbt.Current_Directory>
/home/itssahil/PROJECTS/Mol_Feturizer/Test_systems_manuscript/rnas/3fu2

>  <Rbt.Executable>
rbdock ($Id: //depot/dev/client3/rdock/2013.1/src/exe/rbdock.cxx#4 $)

>  <Rbt.Library>
libRbt.so (2013.1, Build901 2013/11/27)

>  <Rbt.Parameter_File>
/export/apps/rDock/src/rDock_2013.1_src/data/scripts/dock_solv.prm

>  <Rbt.Receptor>
prm/pocket_docking_2.prm

>  <SCORE>
-16.852

>  <SCORE.INTER>
-16.6283

>  <SCORE.INTER.CONST>
1

>  <SCORE.INTER.POLAR>
0

>  <SCORE.INTER.ROT>
1

>  <SCORE.INTER.SOLV>
20.0749

>  <SCORE.INTER.VDW>
-22.0438

>  <SCORE.INTER.norm>
-1.2791

>  <SCORE.INTRA>
-0.223642

>  <SCORE.INTRA.DIHEDRAL>
0.0323007

>  <SCORE.INTRA.DIHEDRAL.0>
1.66609

>  <SCORE.INTRA.POLAR>
0

>  <SCORE.INTRA.POLAR.0>
0

>  <SCORE.INTRA.REPUL>
0

>  <SCORE.INTRA.REPUL.0>
0

>  <SCORE.INTRA.SOLV>
-0.983987

>  <SCORE.INTRA.SOLV.lig_0>
-45.868

>  <SCORE.INTRA.VDW>
0.252202

>  <SCORE.INTRA.VDW.0>
-0.397919

>  <SCORE.INTRA.norm>
-0.0172032

>  <SCORE.RESTR>
0

>  <SCORE.RESTR.CAVITY>
0

>  <SCORE.RESTR.norm>
0

>  <SCORE.SYSTEM>
0

>  <SCORE.SYSTEM.CONST>
0

>  <SCORE.SYSTEM.DIHEDRAL>
0

>  <SCORE.SYSTEM.SOLV>
0

>  <SCORE.SYSTEM.norm>
0

>  <SCORE.heavy>
13

>  <SCORE.norm>
-1.2963

>  <RMSD>
2.718

$$$$
ligand
 OpenBabel02271912143D
libRbt.so/2013.1/901 2013/11/27
 13 14  0  0  0  0  0  0  0  0999 V2000
   -5.5626  -34.8996  -42.9557 N   0  0  0  0  0  0  0  0  0  0  0  0
   -5.8656  -35.0560  -44.2818 C   0  0  0  0  0  0  0  0  0  0  0  0
   -7.0454  -35.6589  -44.6236 N   0  0  0  0  0  0  0  0  0  0  0  0
   -5.0377  -34.6327  -45.2375 N   0  0  0  0  0  0  0  0  0  0  0  0
   -3.8556  -34.0294  -44.9325 C   0  0  0  0  0  0  0  0  0  0  0  0
   -3.4989  -33.8500  -43.5780 C   0  0  0  0  0  0  0  0  0  0  0  0
   -4.3972  -34.3054  -42.5752 C   0  0  0  0  0  0  0  0  0  0  0  0
   -4.1355  -34.1698  -41.4056 O   0  0  0  0  0  0  0  0  0  0  0  0
   -2.1968  -33.1907  -43.5751 C   0  0  0  0  0  0  0  0  0  0  0  0
   -1.8526  -33.0086  -44.8623 C   0  0  0  0  0  0  0  0  0  0  0  0
   -2.8431  -33.5094  -45.6807 N   0  0  0  0  0  0  0  0  0  0  0  0
   -1.3926  -32.7990  -42.3620 C   0  0  0  0  0  0  0  0  0  0  0  0
   -0.0020  -32.5226  -42.7760 N   0  0  0  0  0  0  0  0  0  0  0  0
  1  2  1  0  0  0  0
  1  7  1  0  0  0  0
  2  3  1  0  0  0  0
  2  4  2  0  0  0  0
  4  5  1  0  0  0  0
  5  6  2  0  0  0  0
  5 11  1  0  0  0  0
  6  7  1  0  0  0  0
  6  9  1  0  0  0  0
  7  8  2  0  0  0  0
  9 10  2  0  0  0  0
  9 12  1  0  0  0  0
 10 11  1  0  0  0  0
 12 13  1  0  0  0  0
M  END
>  <CHROM.1>
163.94364250,-3.67724150,-33.97837042,-43.71537272,2.96191152,-0.44311754
-1.55896065

>  <Name>
ligand

>  <RI>
0

>  <Rbt.Current_Directory>
/home/itssahil/PROJECTS/Mol_Feturizer/Test_systems_manuscript/rnas/3fu2

>  <Rbt.Executable>
rbdock ($Id: //depot/dev/client3/rdock/2013.1/src/exe/rbdock.cxx#4 $)

>  <Rbt.Library>
libRbt.so (2013.1, Build901 2013/11/27)

>  <Rbt.Parameter_File>
/export/apps/rDock/src/rDock_2013.1_src/data/scripts/dock_solv.prm

>  <Rbt.Receptor>
prm/pocket_docking_4.prm

>  <SCORE>
-16.832

>  <SCORE.INTER>
-16.6886

>  <SCORE.INTER.CONST>
1

>  <SCORE.INTER.POLAR>
0

>  <SCORE.INTER.ROT>
1

>  <SCORE.INTER.SOLV>
20.3247

>  <SCORE.INTER.VDW>
-22.1673

>  <SCORE.INTER.norm>
-1.28374

>  <SCORE.INTRA>
-0.143355

>  <SCORE.INTRA.DIHEDRAL>
0.0274869

>  <SCORE.INTRA.DIHEDRAL.0>
1.66609

>  <SCORE.INTRA.POLAR>
0

>  <SCORE.INTRA.POLAR.0>
0

>  <SCORE.INTRA.REPUL>
0

>  <SCORE.INTRA.REPUL.0>
0

>  <SCORE.INTRA.SOLV>
-0.980109

>  <SCORE.INTRA.SOLV.lig_0>
-45.868

>  <SCORE.INTRA.VDW>
0.332956

>  <SCORE.INTRA.VDW.0>
-0.397919

>  <SCORE.INTRA.norm>
-0.0110273

>  <SCORE.RESTR>
0

>  <SCORE.RESTR.CAVITY>
0

>  <SCORE.RESTR.norm>
0

>  <SCORE.SYSTEM>
0

>  <SCORE.SYSTEM.CONST>
0

>  <SCORE.SYSTEM.DIHEDRAL>
0

>  <SCORE.SYSTEM.SOLV>
0

>  <SCORE.SYSTEM.norm>
0

>  <SCORE.heavy>
13

>  <SCORE.norm>
-1.29477

>  <RMSD>
2.718

$$$$
ligand
 OpenBabel02271912143D
libRbt.so/2013.1/901 2013/11/27
 13 14  0  0  0  0  0  0  0  0999 V2000
   -5.5700  -34.8804  -42.9669 N   0  0  0  0  0  0  0  0  0  0  0  0
   -5.8640  -35.0623  -44.2918 C   0  0  0  0  0  0  0  0  0  0  0  0
   -7.0418  -35.6712  -44.6299 N   0  0  0  0  0  0  0  0  0  0  0  0
   -5.0294  -34.6580  -45.2497 N   0  0  0  0  0  0  0  0  0  0  0  0
   -3.8490  -34.0494  -44.9484 C   0  0  0  0  0  0  0  0  0  0  0  0
   -3.5015  -33.8439  -43.5952 C   0  0  0  0  0  0  0  0  0  0  0  0
   -4.4070  -34.2794  -42.5900 C   0  0  0  0  0  0  0  0  0  0  0  0
   -4.1532  -34.1213  -41.4215 O   0  0  0  0  0  0  0  0  0  0  0  0
   -2.1991  -33.1853  -43.5961 C   0  0  0  0  0  0  0  0  0  0  0  0
   -1.8459  -33.0284  -44.8842 C   0  0  0  0  0  0  0  0  0  0  0  0
   -2.8311  -33.5445  -45.6995 N   0  0  0  0  0  0  0  0  0  0  0  0
   -1.4030  -32.7706  -42.3853 C   0  0  0  0  0  0  0  0  0  0  0  0
    0.0082  -32.5833  -42.7791 N   0  0  0  0  0  0  0  0  0  0  0  0
  1  2  1  0  0  0  0
  1  7  1  0  0  0  0
  2  3  1  0  0  0  0
  2  4  2  0  0  0  0
  4  5  1  0  0  0  0
  5  6  2  0  0  0  0
  5 11  1  0  0  0  0
  6  7  1  0  0  0  0
  6  9  1  0  0  0  0
  7  8  2  0  0  0  0
  9 10  2  0  0  0  0
  9 12  1  0  0  0  0
 10 11  1  0  0  0  0
 12 13  1  0  0  0  0
M  END
>  <CHROM.1>
160.50215995,-3.67755120,-33.98144053,-43.72998471,2.95347679,-0.43728669
-1.57919650

>  <Name>
ligand

>  <RI>
0

>  <Rbt.Current_Directory>
/home/itssahil/PROJECTS/Mol_Feturizer/Test_systems_manuscript/rnas/3fu2

>  <Rbt.Executable>
rbdock ($Id: //depot/dev/client3/rdock/2013.1/src/exe/rbdock.cxx#4 $)

>  <Rbt.Library>
libRbt.so (2013.1, Build901 2013/11/27)

>  <Rbt.Parameter_File>
/export/apps/rDock/src/rDock_2013.1_src/data/scripts/dock_solv.prm

>  <Rbt.Receptor>
prm/pocket_docking_5.prm

>  <SCORE>
-16.8794

>  <SCORE.INTER>
-16.7242

>  <SCORE.INTER.CONST>
1

>  <SCORE.INTER.POLAR>
0

>  <SCORE.INTER.ROT>
1

>  <SCORE.INTER.SOLV>
20.4158

>  <SCORE.INTER.VDW>
-22.2214

>  <SCORE.INTER.norm>
-1.28648

>  <SCORE.INTRA>
-0.155234

>  <SCORE.INTRA.DIHEDRAL>
0.0294935

>  <SCORE.INTRA.DIHEDRAL.0>
1.66609

>  <SCORE.INTRA.POLAR>
0

>  <SCORE.INTRA.POLAR.0>
0

>  <SCORE.INTRA.REPUL>
0

>  <SCORE.INTRA.REPUL.0>
0

>  <SCORE.INTRA.SOLV>
-0.980815

>  <SCORE.INTRA.SOLV.lig_0>
-45.868

>  <SCORE.INTRA.VDW>
0.320426

>  <SCORE.INTRA.VDW.0>
-0.397919

>  <SCORE.INTRA.norm>
-0.0119411

>  <SCORE.RESTR>
0

>  <SCORE.RESTR.CAVITY>
0

>  <SCORE.RESTR.norm>
0

>  <SCORE.SYSTEM>
0

>  <SCORE.SYSTEM.CONST>
0

>  <SCORE.SYSTEM.DIHEDRAL>
0

>  <SCORE.SYSTEM.SOLV>
0

>  <SCORE.SYSTEM.norm>
0

>  <SCORE.heavy>
13

>  <SCORE.norm>
-1.29842

>  <RMSD>
2.723

$$$$
ligand
 OpenBabel02271912143D
libRbt.so/2013.1/901 2013/11/27
 13 14  0  0  0  0  0  0  0  0999 V2000
   -5.5821  -34.9118  -42.9270 N   0  0  0  0  0  0  0  0  0  0  0  0
   -5.8492  -35.0690  -44.2608 C   0  0  0  0  0  0  0  0  0  0  0  0
   -7.0163  -35.6780  -44.6338 N   0  0  0  0  0  0  0  0  0  0  0  0
   -4.9986  -34.6408  -45.1940 N   0  0  0  0  0  0  0  0  0  0  0  0
   -3.8281  -34.0314  -44.8576 C   0  0  0  0  0  0  0  0  0  0  0  0
   -3.5083  -33.8509  -43.4941 C   0  0  0  0  0  0  0  0  0  0  0  0
   -4.4304  -34.3116  -42.5156 C   0  0  0  0  0  0  0  0  0  0  0  0
   -4.2004  -34.1753  -41.3395 O   0  0  0  0  0  0  0  0  0  0  0  0
   -2.2104  -33.1847  -43.4565 C   0  0  0  0  0  0  0  0  0  0  0  0
   -1.8331  -33.0000  -44.7341 C   0  0  0  0  0  0  0  0  0  0  0  0
   -2.7990  -33.5057  -45.5786 N   0  0  0  0  0  0  0  0  0  0  0  0
   -1.4406  -32.7895  -42.2224 C   0  0  0  0  0  0  0  0  0  0  0  0
    0.0055  -32.8599  -42.5148 N   0  0  0  0  0  0  0  0  0  0  0  0
  1  2  1  0  0  0  0
  1  7  1  0  0  0  0
  2  3  1  0  0  0  0
  2  4  2  0  0  0  0
  4  5  1  0  0  0  0
  5  6  2  0  0  0  0
  5 11  1  0  0  0  0
  6  7  1  0  0  0  0
  6  9  1  0  0  0  0
  7  8  2  0  0  0  0
  9 10  2  0  0  0  0
  9 12  1  0  0  0  0
 10 11  1  0  0  0  0
 12 13  1  0  0  0  0
M  END
>  <CHROM.1>
148.82467814,-3.67852904,-34.00900021,-43.62932491,2.92698489,-0.42686919
-1.55890635

>  <Name>
ligand

>  <RI>
0

>  <Rbt.Current_Directory>
/home/itssahil/PROJECTS/Mol_Feturizer/Test_systems_manuscript/rnas/3fu2

>  <Rbt.Executable>
rbdock ($Id: //depot/dev/client3/rdock/2013.1/src/exe/rbdock.cxx#4 $)

>  <Rbt.Library>
libRbt.so (2013.1, Build901 2013/11/27)

>  <Rbt.Parameter_File>
/export/apps/rDock/src/rDock_2013.1_src/data/scripts/dock_solv.prm

>  <Rbt.Receptor>
prm/pocket_docking_2.prm

>  <SCORE>
-16.795

>  <SCORE.INTER>
-16.5699

>  <SCORE.INTER.CONST>
1

>  <SCORE.INTER.POLAR>
0

>  <SCORE.INTER.ROT>
1

>  <SCORE.INTER.SOLV>
20.1348

>  <SCORE.INTER.VDW>
-22.0249

>  <SCORE.INTER.norm>
-1.27461

>  <SCORE.INTRA>
-0.225035

>  <SCORE.INTRA.DIHEDRAL>
0.0322891

>  <SCORE.INTRA.DIHEDRAL.0>
1.66609

>  <SCORE.INTRA.POLAR>
0

>  <SCORE.INTRA.POLAR.0>
0

>  <SCORE.INTRA.REPUL>
0

>  <SCORE.INTRA.REPUL.0>
0

>  <SCORE.INTRA.SOLV>
-0.984077

>  <SCORE.INTRA.SOLV.lig_0>
-45.868

>  <SCORE.INTRA.VDW>
0.250859

>  <SCORE.INTRA.VDW.0>
-0.397919

>  <SCORE.INTRA.norm>
-0.0173104

>  <SCORE.RESTR>
0

>  <SCORE.RESTR.CAVITY>
0

>  <SCORE.RESTR.norm>
0

>  <SCORE.SYSTEM>
0

>  <SCORE.SYSTEM.CONST>
0

>  <SCORE.SYSTEM.DIHEDRAL>
0

>  <SCORE.SYSTEM.SOLV>
0

>  <SCORE.SYSTEM.norm>
0

>  <SCORE.heavy>
13

>  <SCORE.norm>
-1.29192

>  <RMSD>
2.724

$$$$
ligand
 OpenBabel02271912143D
libRbt.so/2013.1/901 2013/11/27
 13 14  0  0  0  0  0  0  0  0999 V2000
   -5.6339  -34.8533  -42.9240 N   0  0  0  0  0  0  0  0  0  0  0  0
   -5.8958  -35.0015  -44.2598 C   0  0  0  0  0  0  0  0  0  0  0  0
   -7.0762  -35.5784  -44.6418 N   0  0  0  0  0  0  0  0  0  0  0  0
   -5.0275  -34.5951  -45.1865 N   0  0  0  0  0  0  0  0  0  0  0  0
   -3.8434  -34.0179  -44.8411 C   0  0  0  0  0  0  0  0  0  0  0  0
   -3.5284  -33.8478  -43.4751 C   0  0  0  0  0  0  0  0  0  0  0  0
   -4.4693  -34.2848  -42.5037 C   0  0  0  0  0  0  0  0  0  0  0  0
   -4.2439  -34.1563  -41.3258 O   0  0  0  0  0  0  0  0  0  0  0  0
   -2.2132  -33.2168  -43.4276 C   0  0  0  0  0  0  0  0  0  0  0  0
   -1.8223  -33.0408  -44.7022 C   0  0  0  0  0  0  0  0  0  0  0  0
   -2.7956  -33.5191  -45.5541 N   0  0  0  0  0  0  0  0  0  0  0  0
   -1.4417  -32.8441  -42.1876 C   0  0  0  0  0  0  0  0  0  0  0  0
    0.0019  -32.8509  -42.4996 N   0  0  0  0  0  0  0  0  0  0  0  0
  1  2  1  0  0  0  0
  1  7  1  0  0  0  0
  2  3  1  0  0  0  0
  2  4  2  0  0  0  0
  4  5  1  0  0  0  0
  5  6  2  0  0  0  0
  5 11  1  0  0  0  0
  6  7  1  0  0  0  0
  6  9  1  0  0  0  0
  7  8  2  0  0  0  0
  9 10  2  0  0  0  0
  9 12  1  0  0  0  0
 10 11  1  0  0  0  0
 12 13  1  0  0  0  0
M  END
>  <CHROM.1>
153.19297576,-3.70199540,-33.99280673,-43.61415773,2.92141330,-0.40586494
-1.56449392

>  <Name>
ligand

>  <RI>
0

>  <Rbt.Current_Directory>
/home/itssahil/PROJECTS/Mol_Feturizer/Test_systems_manuscript/rnas/3fu2

>  <Rbt.Executable>
rbdock ($Id: //depot/dev/client3/rdock/2013.1/src/exe/rbdock.cxx#4 $)

>  <Rbt.Library>
libRbt.so (2013.1, Build901 2013/11/27)

>  <Rbt.Parameter_File>
/export/apps/rDock/src/rDock_2013.1_src/data/scripts/dock_solv.prm

>  <Rbt.Receptor>
prm/pocket_docking_5.prm

>  <SCORE>
-16.8164

>  <SCORE.INTER>
-16.6126

>  <SCORE.INTER.CONST>
1

>  <SCORE.INTER.POLAR>
0

>  <SCORE.INTER.ROT>
1

>  <SCORE.INTER.SOLV>
20.2069

>  <SCORE.INTER.VDW>
-22.0774

>  <SCORE.INTER.norm>
-1.27789

>  <SCORE.INTRA>
-0.203741

>  <SCORE.INTRA.DIHEDRAL>
0.0320214

>  <SCORE.INTRA.DIHEDRAL.0>
1.66609

>  <SCORE.INTRA.POLAR>
0

>  <SCORE.INTRA.POLAR.0>
0

>  <SCORE.INTRA.REPUL>
0

>  <SCORE.INTRA.REPUL.0>
0

>  <SCORE.INTRA.SOLV>
-0.982728

>  <SCORE.INTRA.SOLV.lig_0>
-45.868

>  <SCORE.INTRA.VDW>
0.271612

>  <SCORE.INTRA.VDW.0>
-0.397919

>  <SCORE.INTRA.norm>
-0.0156724

>  <SCORE.RESTR>
0

>  <SCORE.RESTR.CAVITY>
0

>  <SCORE.RESTR.norm>
0

>  <SCORE.SYSTEM>
0

>  <SCORE.SYSTEM.CONST>
0

>  <SCORE.SYSTEM.DIHEDRAL>
0

>  <SCORE.SYSTEM.SOLV>
0

>  <SCORE.SYSTEM.norm>
0

>  <SCORE.heavy>
13

>  <SCORE.norm>
-1.29357

>  <RMSD>
2.724

$$$$
ligand
 OpenBabel02271912143D
libRbt.so/2013.1/901 2013/11/27
 13 14  0  0  0  0  0  0  0  0999 V2000
   -5.6043  -34.8954  -42.9193 N   0  0  0  0  0  0  0  0  0  0  0  0
   -5.8750  -35.0425  -44.2534 C   0  0  0  0  0  0  0  0  0  0  0  0
   -7.0457  -35.6438  -44.6279 N   0  0  0  0  0  0  0  0  0  0  0  0
   -5.0246  -34.6119  -45.1858 N   0  0  0  0  0  0  0  0  0  0  0  0
   -3.8507  -34.0100  -44.8481 C   0  0  0  0  0  0  0  0  0  0  0  0
   -3.5271  -33.8399  -43.4841 C   0  0  0  0  0  0  0  0  0  0  0  0
   -4.4490  -34.3030  -42.5066 C   0  0  0  0  0  0  0  0  0  0  0  0
   -4.2157  -34.1755  -41.3301 O   0  0  0  0  0  0  0  0  0  0  0  0
   -2.2260  -33.1797  -43.4451 C   0  0  0  0  0  0  0  0  0  0  0  0
   -1.8509  -32.9883  -44.7223 C   0  0  0  0  0  0  0  0  0  0  0  0
   -2.8210  -33.4840  -45.5678 N   0  0  0  0  0  0  0  0  0  0  0  0
   -1.4517  -32.7961  -42.2101 C   0  0  0  0  0  0  0  0  0  0  0  0
   -0.0067  -32.8686  -42.5071 N   0  0  0  0  0  0  0  0  0  0  0  0
  1  2  1  0  0  0  0
  1  7  1  0  0  0  0
  2  3  1  0  0  0  0
  2  4  2  0  0  0  0
  4  5  1  0  0  0  0
  5  6  2  0  0  0  0
  5 11  1  0  0  0  0
  6  7  1  0  0  0  0
  6  9  1  0  0  0  0
  7  8  2  0  0  0  0
  9 10  2  0  0  0  0
  9 12  1  0  0  0  0
 10 11  1  0  0  0  0
 12 13  1  0  0  0  0
M  END
>  <CHROM.1>
148.93113175,-3.69825350,-33.99614384,-43.62002473,2.92947002,-0.42253546
-1.55136782

>  <Name>
ligand

>  <RI>
0

>  <Rbt.Current_Directory>
/home/itssahil/PROJECTS/Mol_Feturizer/Test_systems_manuscript/rnas/3fu2

>  <Rbt.Executable>
rbdock ($Id: //depot/dev/client3/rdock/2013.1/src/exe/rbdock.cxx#4 $)

>  <Rbt.Library>
libRbt.so (2013.1, Build901 2013/11/27)

>  <Rbt.Parameter_File>
/export/apps/rDock/src/rDock_2013.1_src/data/scripts/dock_solv.prm

>  <Rbt.Receptor>
prm/pocket_docking_3.prm

>  <SCORE>
-16.7881

>  <SCORE.INTER>
-16.5636

>  <SCORE.INTER.CONST>
1

>  <SCORE.INTER.POLAR>
0

>  <SCORE.INTER.ROT>
1

>  <SCORE.INTER.SOLV>
20.1523

>  <SCORE.INTER.VDW>
-22.0265

>  <SCORE.INTER.norm>
-1.27412

>  <SCORE.INTRA>
-0.224503

>  <SCORE.INTRA.DIHEDRAL>
0.032294

>  <SCORE.INTRA.DIHEDRAL.0>
1.66609

>  <SCORE.INTRA.POLAR>
0

>  <SCORE.INTRA.POLAR.0>
0

>  <SCORE.INTRA.REPUL>
0

>  <SCORE.INTRA.REPUL.0>
0

>  <SCORE.INTRA.SOLV>
-0.984043

>  <SCORE.INTRA.SOLV.lig_0>
-45.868

>  <SCORE.INTRA.VDW>
0.251371

>  <SCORE.INTRA.VDW.0>
-0.397919

>  <SCORE.INTRA.norm>
-0.0172695

>  <SCORE.RESTR>
0

>  <SCORE.RESTR.CAVITY>
0

>  <SCORE.RESTR.norm>
0

>  <SCORE.SYSTEM>
0

>  <SCORE.SYSTEM.CONST>
0

>  <SCORE.SYSTEM.DIHEDRAL>
0

>  <SCORE.SYSTEM.SOLV>
0

>  <SCORE.SYSTEM.norm>
0

>  <SCORE.heavy>
13

>  <SCORE.norm>
-1.29139

>  <RMSD>
2.727

$$$$
ligand
 OpenBabel02271912143D
libRbt.so/2013.1/901 2013/11/27
 13 14  0  0  0  0  0  0  0  0999 V2000
   -5.4452  -34.8070  -42.9779 N   0  0  0  0  0  0  0  0  0  0  0  0
   -5.7359  -35.0415  -44.2952 C   0  0  0  0  0  0  0  0  0  0  0  0
   -6.8915  -35.7033  -44.6094 N   0  0  0  0  0  0  0  0  0  0  0  0
   -4.9192  -34.6376  -45.2687 N   0  0  0  0  0  0  0  0  0  0  0  0
   -3.7610  -33.9771  -44.9912 C   0  0  0  0  0  0  0  0  0  0  0  0
   -3.4177  -33.7162  -43.6465 C   0  0  0  0  0  0  0  0  0  0  0  0
   -4.3039  -34.1523  -42.6246 C   0  0  0  0  0  0  0  0  0  0  0  0
   -4.0530  -33.9480  -41.4626 O   0  0  0  0  0  0  0  0  0  0  0  0
   -2.1403  -33.0109  -43.6733 C   0  0  0  0  0  0  0  0  0  0  0  0
   -1.7965  -32.8821  -44.9671 C   0  0  0  0  0  0  0  0  0  0  0  0
   -2.7643  -33.4595  -45.7619 N   0  0  0  0  0  0  0  0  0  0  0  0
   -1.3567  -32.5292  -42.4793 C   0  0  0  0  0  0  0  0  0  0  0  0
    0.0155  -33.0705  -42.5547 N   0  0  0  0  0  0  0  0  0  0  0  0
  1  2  1  0  0  0  0
  1  7  1  0  0  0  0
  2  3  1  0  0  0  0
  2  4  2  0  0  0  0
  4  5  1  0  0  0  0
  5  6  2  0  0  0  0
  5 11  1  0  0  0  0
  6  7  1  0  0  0  0
  6  9  1  0  0  0  0
  7  8  2  0  0  0  0
  9 10  2  0  0  0  0
  9 12  1  0  0  0  0
 10 11  1  0  0  0  0
 12 13  1  0  0  0  0
M  END
>  <CHROM.1>
125.68515971,-3.59140305,-33.92674474,-43.74944192,2.93353822,-0.43375666
-1.57565111

>  <Name>
ligand

>  <RI>
0

>  <Rbt.Current_Directory>
/home/itssahil/PROJECTS/Mol_Feturizer/Test_systems_manuscript/rnas/3fu2

>  <Rbt.Executable>
rbdock ($Id: //depot/dev/client3/rdock/2013.1/src/exe/rbdock.cxx#4 $)

>  <Rbt.Library>
libRbt.so (2013.1, Build901 2013/11/27)

>  <Rbt.Parameter_File>
/export/apps/rDock/src/rDock_2013.1_src/data/scripts/dock_solv.prm

>  <Rbt.Receptor>
prm/blind_docking_100.prm

>  <SCORE>
-16.6425

>  <SCORE.INTER>
-16.3048

>  <SCORE.INTER.CONST>
1

>  <SCORE.INTER.POLAR>
0

>  <SCORE.INTER.ROT>
1

>  <SCORE.INTER.SOLV>
20.7226

>  <SCORE.INTER.VDW>
-22.044

>  <SCORE.INTER.norm>
-1.25421

>  <SCORE.INTRA>
-0.337747

>  <SCORE.INTRA.DIHEDRAL>
0.0195002

>  <SCORE.INTRA.DIHEDRAL.0>
1.66609

>  <SCORE.INTRA.POLAR>
0

>  <SCORE.INTRA.POLAR.0>
0

>  <SCORE.INTRA.REPUL>
0

>  <SCORE.INTRA.REPUL.0>
0

>  <SCORE.INTRA.SOLV>
-0.991602

>  <SCORE.INTRA.SOLV.lig_0>
-45.868

>  <SCORE.INTRA.VDW>
0.148304

>  <SCORE.INTRA.VDW.0>
-0.397919

>  <SCORE.INTRA.norm>
-0.0259806

>  <SCORE.RESTR>
0

>  <SCORE.RESTR.CAVITY>
0

>  <SCORE.RESTR.norm>
0

>  <SCORE.SYSTEM>
0

>  <SCORE.SYSTEM.CONST>
0

>  <SCORE.SYSTEM.DIHEDRAL>
0

>  <SCORE.SYSTEM.SOLV>
0

>  <SCORE.SYSTEM.norm>
0

>  <SCORE.heavy>
13

>  <SCORE.norm>
-1.28019

>  <RMSD>
2.731

$$$$
ligand
 OpenBabel02271912143D
libRbt.so/2013.1/901 2013/11/27
 13 14  0  0  0  0  0  0  0  0999 V2000
   -5.5731  -34.9702  -42.9700 N   0  0  0  0  0  0  0  0  0  0  0  0
   -5.8788  -35.0760  -44.3004 C   0  0  0  0  0  0  0  0  0  0  0  0
   -7.0634  -35.6575  -44.6622 N   0  0  0  0  0  0  0  0  0  0  0  0
   -5.0490  -34.6243  -45.2413 N   0  0  0  0  0  0  0  0  0  0  0  0
   -3.8621  -34.0411  -44.9163 C   0  0  0  0  0  0  0  0  0  0  0  0
   -3.5026  -33.9136  -43.5566 C   0  0  0  0  0  0  0  0  0  0  0  0
   -4.4030  -34.3986  -42.5698 C   0  0  0  0  0  0  0  0  0  0  0  0
   -4.1390  -34.3074  -41.3964 O   0  0  0  0  0  0  0  0  0  0  0  0
   -2.1957  -33.2643  -43.5317 C   0  0  0  0  0  0  0  0  0  0  0  0
   -1.8516  -33.0381  -44.8119 C   0  0  0  0  0  0  0  0  0  0  0  0
   -2.8468  -33.5017  -45.6465 N   0  0  0  0  0  0  0  0  0  0  0  0
   -1.3873  -32.9228  -42.3063 C   0  0  0  0  0  0  0  0  0  0  0  0
   -0.0039  -32.6065  -42.7160 N   0  0  0  0  0  0  0  0  0  0  0  0
  1  2  1  0  0  0  0
  1  7  1  0  0  0  0
  2  3  1  0  0  0  0
  2  4  2  0  0  0  0
  4  5  1  0  0  0  0
  5  6  2  0  0  0  0
  5 11  1  0  0  0  0
  6  7  1  0  0  0  0
  6  9  1  0  0  0  0
  7  8  2  0  0  0  0
  9 10  2  0  0  0  0
  9 12  1  0  0  0  0
 10 11  1  0  0  0  0
 12 13  1  0  0  0  0
M  END
>  <CHROM.1>
165.43717290,-3.68271975,-34.03275365,-43.69868937,2.96336690,-0.43815421
-1.52312584

>  <Name>
ligand

>  <RI>
0

>  <Rbt.Current_Directory>
/home/itssahil/PROJECTS/Mol_Feturizer/Test_systems_manuscript/rnas/3fu2

>  <Rbt.Executable>
rbdock ($Id: //depot/dev/client3/rdock/2013.1/src/exe/rbdock.cxx#4 $)

>  <Rbt.Library>
libRbt.so (2013.1, Build901 2013/11/27)

>  <Rbt.Parameter_File>
/export/apps/rDock/src/rDock_2013.1_src/data/scripts/dock_solv.prm

>  <Rbt.Receptor>
prm/blind_docking_100.prm

>  <SCORE>
-16.8771

>  <SCORE.INTER>
-16.7382

>  <SCORE.INTER.CONST>
1

>  <SCORE.INTER.POLAR>
0

>  <SCORE.INTER.ROT>
1

>  <SCORE.INTER.SOLV>
20.186

>  <SCORE.INTER.VDW>
-22.1541

>  <SCORE.INTER.norm>
-1.28755

>  <SCORE.INTRA>
-0.138856

>  <SCORE.INTRA.DIHEDRAL>
0.026475

>  <SCORE.INTRA.DIHEDRAL.0>
1.66609

>  <SCORE.INTRA.POLAR>
0

>  <SCORE.INTRA.POLAR.0>
0

>  <SCORE.INTRA.REPUL>
0

>  <SCORE.INTRA.REPUL.0>
0

>  <SCORE.INTRA.SOLV>
-0.979847

>  <SCORE.INTRA.SOLV.lig_0>
-45.868

>  <SCORE.INTRA.VDW>
0.33783

>  <SCORE.INTRA.VDW.0>
-0.397919

>  <SCORE.INTRA.norm>
-0.0106812

>  <SCORE.RESTR>
0

>  <SCORE.RESTR.CAVITY>
0

>  <SCORE.RESTR.norm>
0

>  <SCORE.SYSTEM>
0

>  <SCORE.SYSTEM.CONST>
0

>  <SCORE.SYSTEM.DIHEDRAL>
0

>  <SCORE.SYSTEM.SOLV>
0

>  <SCORE.SYSTEM.norm>
0

>  <SCORE.heavy>
13

>  <SCORE.norm>
-1.29824

>  <RMSD>
2.731

$$$$
ligand
 OpenBabel02271912143D
libRbt.so/2013.1/901 2013/11/27
 13 14  0  0  0  0  0  0  0  0999 V2000
   -5.5745  -34.9676  -42.9740 N   0  0  0  0  0  0  0  0  0  0  0  0
   -5.8775  -35.0806  -44.3045 C   0  0  0  0  0  0  0  0  0  0  0  0
   -7.0606  -35.6656  -44.6656 N   0  0  0  0  0  0  0  0  0  0  0  0
   -5.0465  -34.6327  -45.2461 N   0  0  0  0  0  0  0  0  0  0  0  0
   -3.8609  -34.0463  -44.9218 C   0  0  0  0  0  0  0  0  0  0  0  0
   -3.5042  -33.9113  -43.5621 C   0  0  0  0  0  0  0  0  0  0  0  0
   -4.4059  -34.3924  -42.5746 C   0  0  0  0  0  0  0  0  0  0  0  0
   -4.1443  -34.2949  -41.4012 O   0  0  0  0  0  0  0  0  0  0  0  0
   -2.1983  -33.2602  -43.5380 C   0  0  0  0  0  0  0  0  0  0  0  0
   -1.8520  -33.0401  -44.8188 C   0  0  0  0  0  0  0  0  0  0  0  0
   -2.8449  -33.5093  -45.6529 N   0  0  0  0  0  0  0  0  0  0  0  0
   -1.3926  -32.9114  -42.3129 C   0  0  0  0  0  0  0  0  0  0  0  0
   -0.0101  -32.5906  -42.7220 N   0  0  0  0  0  0  0  0  0  0  0  0
  1  2  1  0  0  0  0
  1  7  1  0  0  0  0
  2  3  1  0  0  0  0
  2  4  2  0  0  0  0
  4  5  1  0  0  0  0
  5  6  2  0  0  0  0
  5 11  1  0  0  0  0
  6  7  1  0  0  0  0
  6  9  1  0  0  0  0
  7  8  2  0  0  0  0
  9 10  2  0  0  0  0
  9 12  1  0  0  0  0
 10 11  1  0  0  0  0
 12 13  1  0  0  0  0
M  END
>  <CHROM.1>
165.63857560,-3.68402123,-34.03104495,-43.70397193,2.96134035,-0.43986418
-1.52926949

>  <Name>
ligand

>  <RI>
0

>  <Rbt.Current_Directory>
/home/itssahil/PROJECTS/Mol_Feturizer/Test_systems_manuscript/rnas/3fu2

>  <Rbt.Executable>
rbdock ($Id: //depot/dev/client3/rdock/2013.1/src/exe/rbdock.cxx#4 $)

>  <Rbt.Library>
libRbt.so (2013.1, Build901 2013/11/27)

>  <Rbt.Parameter_File>
/export/apps/rDock/src/rDock_2013.1_src/data/scripts/dock_solv.prm

>  <Rbt.Receptor>
prm/blind_docking_80.prm

>  <SCORE>
-16.877

>  <SCORE.INTER>
-16.7387

>  <SCORE.INTER.CONST>
1

>  <SCORE.INTER.POLAR>
0

>  <SCORE.INTER.ROT>
1

>  <SCORE.INTER.SOLV>
20.1871

>  <SCORE.INTER.VDW>
-22.1548

>  <SCORE.INTER.norm>
-1.28759

>  <SCORE.INTRA>
-0.138282

>  <SCORE.INTRA.DIHEDRAL>
0.0263325

>  <SCORE.INTRA.DIHEDRAL.0>
1.66609

>  <SCORE.INTRA.POLAR>
0

>  <SCORE.INTRA.POLAR.0>
0

>  <SCORE.INTRA.REPUL>
0

>  <SCORE.INTRA.REPUL.0>
0

>  <SCORE.INTRA.SOLV>
-0.979814

>  <SCORE.INTRA.SOLV.lig_0>
-45.868

>  <SCORE.INTRA.VDW>
0.338459

>  <SCORE.INTRA.VDW.0>
-0.397919

>  <SCORE.INTRA.norm>
-0.0106371

>  <SCORE.RESTR>
0

>  <SCORE.RESTR.CAVITY>
0

>  <SCORE.RESTR.norm>
0

>  <SCORE.SYSTEM>
0

>  <SCORE.SYSTEM.CONST>
0

>  <SCORE.SYSTEM.DIHEDRAL>
0

>  <SCORE.SYSTEM.SOLV>
0

>  <SCORE.SYSTEM.norm>
0

>  <SCORE.heavy>
13

>  <SCORE.norm>
-1.29823

>  <RMSD>
2.731

$$$$
ligand
 OpenBabel02271912143D
libRbt.so/2013.1/901 2013/11/27
 13 14  0  0  0  0  0  0  0  0999 V2000
   -5.5745  -34.9685  -42.9708 N   0  0  0  0  0  0  0  0  0  0  0  0
   -5.8804  -35.0748  -44.3012 C   0  0  0  0  0  0  0  0  0  0  0  0
   -7.0649  -35.6567  -44.6625 N   0  0  0  0  0  0  0  0  0  0  0  0
   -5.0509  -34.6232  -45.2423 N   0  0  0  0  0  0  0  0  0  0  0  0
   -3.8641  -34.0396  -44.9177 C   0  0  0  0  0  0  0  0  0  0  0  0
   -3.5043  -33.9116  -43.5582 C   0  0  0  0  0  0  0  0  0  0  0  0
   -4.4044  -34.3965  -42.5710 C   0  0  0  0  0  0  0  0  0  0  0  0
   -4.1402  -34.3050  -41.3977 O   0  0  0  0  0  0  0  0  0  0  0  0
   -2.1976  -33.2620  -43.5337 C   0  0  0  0  0  0  0  0  0  0  0  0
   -1.8538  -33.0361  -44.8140 C   0  0  0  0  0  0  0  0  0  0  0  0
   -2.8490  -33.5001  -45.6483 N   0  0  0  0  0  0  0  0  0  0  0  0
   -1.3890  -32.9200  -42.3086 C   0  0  0  0  0  0  0  0  0  0  0  0
   -0.0044  -32.6086  -42.7180 N   0  0  0  0  0  0  0  0  0  0  0  0
  1  2  1  0  0  0  0
  1  7  1  0  0  0  0
  2  3  1  0  0  0  0
  2  4  2  0  0  0  0
  4  5  1  0  0  0  0
  5  6  2  0  0  0  0
  5 11  1  0  0  0  0
  6  7  1  0  0  0  0
  6  9  1  0  0  0  0
  7  8  2  0  0  0  0
  9 10  2  0  0  0  0
  9 12  1  0  0  0  0
 10 11  1  0  0  0  0
 12 13  1  0  0  0  0
M  END
>  <CHROM.1>
165.21503578,-3.68432228,-34.03128112,-43.70009958,2.96356365,-0.43803465
-1.52317041

>  <Name>
ligand

>  <RI>
0

>  <Rbt.Current_Directory>
/home/itssahil/PROJECTS/Mol_Feturizer/Test_systems_manuscript/rnas/3fu2

>  <Rbt.Executable>
rbdock ($Id: //depot/dev/client3/rdock/2013.1/src/exe/rbdock.cxx#4 $)

>  <Rbt.Library>
libRbt.so (2013.1, Build901 2013/11/27)

>  <Rbt.Parameter_File>
/export/apps/rDock/src/rDock_2013.1_src/data/scripts/dock_solv.prm

>  <Rbt.Receptor>
prm/pocket_docking_6.prm

>  <SCORE>
-16.8741

>  <SCORE.INTER>
-16.7346

>  <SCORE.INTER.CONST>
1

>  <SCORE.INTER.POLAR>
0

>  <SCORE.INTER.ROT>
1

>  <SCORE.INTER.SOLV>
20.1932

>  <SCORE.INTER.VDW>
-22.1541

>  <SCORE.INTER.norm>
-1.28728

>  <SCORE.INTRA>
-0.139498

>  <SCORE.INTRA.DIHEDRAL>
0.0266305

>  <SCORE.INTRA.DIHEDRAL.0>
1.66609

>  <SCORE.INTRA.POLAR>
0

>  <SCORE.INTRA.POLAR.0>
0

>  <SCORE.INTRA.REPUL>
0

>  <SCORE.INTRA.REPUL.0>
0

>  <SCORE.INTRA.SOLV>
-0.979884

>  <SCORE.INTRA.SOLV.lig_0>
-45.868

>  <SCORE.INTRA.VDW>
0.337129

>  <SCORE.INTRA.VDW.0>
-0.397919

>  <SCORE.INTRA.norm>
-0.0107306

>  <SCORE.RESTR>
0

>  <SCORE.RESTR.CAVITY>
0

>  <SCORE.RESTR.norm>
0

>  <SCORE.SYSTEM>
0

>  <SCORE.SYSTEM.CONST>
0

>  <SCORE.SYSTEM.DIHEDRAL>
0

>  <SCORE.SYSTEM.SOLV>
0

>  <SCORE.SYSTEM.norm>
0

>  <SCORE.heavy>
13

>  <SCORE.norm>
-1.29801

>  <RMSD>
2.732

$$$$
ligand
 OpenBabel02271912143D
libRbt.so/2013.1/901 2013/11/27
 13 14  0  0  0  0  0  0  0  0999 V2000
   -5.6135  -34.9410  -42.9194 N   0  0  0  0  0  0  0  0  0  0  0  0
   -5.8875  -35.0558  -44.2560 C   0  0  0  0  0  0  0  0  0  0  0  0
   -7.0640  -35.6382  -44.6418 N   0  0  0  0  0  0  0  0  0  0  0  0
   -5.0348  -34.6120  -45.1799 N   0  0  0  0  0  0  0  0  0  0  0  0
   -3.8550  -34.0281  -44.8308 C   0  0  0  0  0  0  0  0  0  0  0  0
   -3.5278  -33.8915  -43.4639 C   0  0  0  0  0  0  0  0  0  0  0  0
   -4.4523  -34.3683  -42.4954 C   0  0  0  0  0  0  0  0  0  0  0  0
   -4.2162  -34.2693  -41.3168 O   0  0  0  0  0  0  0  0  0  0  0  0
   -2.2209  -33.2440  -43.4123 C   0  0  0  0  0  0  0  0  0  0  0  0
   -1.8460  -33.0273  -44.6856 C   0  0  0  0  0  0  0  0  0  0  0  0
   -2.8217  -33.4953  -45.5404 N   0  0  0  0  0  0  0  0  0  0  0  0
   -1.4413  -32.8950  -42.1704 C   0  0  0  0  0  0  0  0  0  0  0  0
   -0.0013  -32.8711  -42.4978 N   0  0  0  0  0  0  0  0  0  0  0  0
  1  2  1  0  0  0  0
  1  7  1  0  0  0  0
  2  3  1  0  0  0  0
  2  4  2  0  0  0  0
  4  5  1  0  0  0  0
  5  6  2  0  0  0  0
  5 11  1  0  0  0  0
  6  7  1  0  0  0  0
  6  9  1  0  0  0  0
  7  8  2  0  0  0  0
  9 10  2  0  0  0  0
  9 12  1  0  0  0  0
 10 11  1  0  0  0  0
 12 13  1  0  0  0  0
M  END
>  <CHROM.1>
153.27732186,-3.70089060,-34.03486706,-43.60517113,2.93320478,-0.41946662
-1.53210452

>  <Name>
ligand

>  <RI>
0

>  <Rbt.Current_Directory>
/home/itssahil/PROJECTS/Mol_Feturizer/Test_systems_manuscript/rnas/3fu2

>  <Rbt.Executable>
rbdock ($Id: //depot/dev/client3/rdock/2013.1/src/exe/rbdock.cxx#4 $)

>  <Rbt.Library>
libRbt.so (2013.1, Build901 2013/11/27)

>  <Rbt.Parameter_File>
/export/apps/rDock/src/rDock_2013.1_src/data/scripts/dock_solv.prm

>  <Rbt.Receptor>
prm/pocket_docking_8.prm

>  <SCORE>
-16.8117

>  <SCORE.INTER>
-16.6083

>  <SCORE.INTER.CONST>
1

>  <SCORE.INTER.POLAR>
0

>  <SCORE.INTER.ROT>
1

>  <SCORE.INTER.SOLV>
20.0983

>  <SCORE.INTER.VDW>
-22.0383

>  <SCORE.INTER.norm>
-1.27756

>  <SCORE.INTRA>
-0.203343

>  <SCORE.INTRA.DIHEDRAL>
0.0320068

>  <SCORE.INTRA.DIHEDRAL.0>
1.66609

>  <SCORE.INTRA.POLAR>
0

>  <SCORE.INTRA.POLAR.0>
0

>  <SCORE.INTRA.REPUL>
0

>  <SCORE.INTRA.REPUL.0>
0

>  <SCORE.INTRA.SOLV>
-0.982703

>  <SCORE.INTRA.SOLV.lig_0>
-45.868

>  <SCORE.INTRA.VDW>
0.272005

>  <SCORE.INTRA.VDW.0>
-0.397919

>  <SCORE.INTRA.norm>
-0.0156417

>  <SCORE.RESTR>
0

>  <SCORE.RESTR.CAVITY>
0

>  <SCORE.RESTR.norm>
0

>  <SCORE.SYSTEM>
0

>  <SCORE.SYSTEM.CONST>
0

>  <SCORE.SYSTEM.DIHEDRAL>
0

>  <SCORE.SYSTEM.SOLV>
0

>  <SCORE.SYSTEM.norm>
0

>  <SCORE.heavy>
13

>  <SCORE.norm>
-1.29321

>  <RMSD>
2.732

$$$$
ligand
 OpenBabel02271912143D
libRbt.so/2013.1/901 2013/11/27
 13 14  0  0  0  0  0  0  0  0999 V2000
   -5.5689  -34.9830  -42.9736 N   0  0  0  0  0  0  0  0  0  0  0  0
   -5.8787  -35.0827  -44.3036 C   0  0  0  0  0  0  0  0  0  0  0  0
   -7.0622  -35.6669  -44.6645 N   0  0  0  0  0  0  0  0  0  0  0  0
   -5.0539  -34.6225  -45.2448 N   0  0  0  0  0  0  0  0  0  0  0  0
   -3.8682  -34.0363  -44.9206 C   0  0  0  0  0  0  0  0  0  0  0  0
   -3.5045  -33.9149  -43.5615 C   0  0  0  0  0  0  0  0  0  0  0  0
   -4.3997  -34.4089  -42.5743 C   0  0  0  0  0  0  0  0  0  0  0  0
   -4.1319  -34.3232  -41.4013 O   0  0  0  0  0  0  0  0  0  0  0  0
   -2.2002  -33.2606  -43.5374 C   0  0  0  0  0  0  0  0  0  0  0  0
   -1.8614  -33.0259  -44.8175 C   0  0  0  0  0  0  0  0  0  0  0  0
   -2.8575  -33.4888  -45.6513 N   0  0  0  0  0  0  0  0  0  0  0  0
   -1.3889  -32.9227  -42.3129 C   0  0  0  0  0  0  0  0  0  0  0  0
   -0.0080  -32.5993  -42.7254 N   0  0  0  0  0  0  0  0  0  0  0  0
  1  2  1  0  0  0  0
  1  7  1  0  0  0  0
  2  3  1  0  0  0  0
  2  4  2  0  0  0  0
  4  5  1  0  0  0  0
  5  6  2  0  0  0  0
  5 11  1  0  0  0  0
  6  7  1  0  0  0  0
  6  9  1  0  0  0  0
  7  8  2  0  0  0  0
  9 10  2  0  0  0  0
  9 12  1  0  0  0  0
 10 11  1  0  0  0  0
 12 13  1  0  0  0  0
M  END
>  <CHROM.1>
165.40479343,-3.68466627,-34.03407814,-43.70354638,2.96736066,-0.44189624
-1.51585884

>  <Name>
ligand

>  <RI>
0

>  <Rbt.Current_Directory>
/home/itssahil/PROJECTS/Mol_Feturizer/Test_systems_manuscript/rnas/3fu2

>  <Rbt.Executable>
rbdock ($Id: //depot/dev/client3/rdock/2013.1/src/exe/rbdock.cxx#4 $)

>  <Rbt.Library>
libRbt.so (2013.1, Build901 2013/11/27)

>  <Rbt.Parameter_File>
/export/apps/rDock/src/rDock_2013.1_src/data/scripts/dock_solv.prm

>  <Rbt.Receptor>
prm/blind_docking_80.prm

>  <SCORE>
-16.8603

>  <SCORE.INTER>
-16.7213

>  <SCORE.INTER.CONST>
1

>  <SCORE.INTER.POLAR>
0

>  <SCORE.INTER.ROT>
1

>  <SCORE.INTER.SOLV>
20.1746

>  <SCORE.INTER.VDW>
-22.1391

>  <SCORE.INTER.norm>
-1.28625

>  <SCORE.INTRA>
-0.138949

>  <SCORE.INTRA.DIHEDRAL>
0.0264978

>  <SCORE.INTRA.DIHEDRAL.0>
1.66609

>  <SCORE.INTRA.POLAR>
0

>  <SCORE.INTRA.POLAR.0>
0

>  <SCORE.INTRA.REPUL>
0

>  <SCORE.INTRA.REPUL.0>
0

>  <SCORE.INTRA.SOLV>
-0.979853

>  <SCORE.INTRA.SOLV.lig_0>
-45.868

>  <SCORE.INTRA.VDW>
0.337729

>  <SCORE.INTRA.VDW.0>
-0.397919

>  <SCORE.INTRA.norm>
-0.0106884

>  <SCORE.RESTR>
0

>  <SCORE.RESTR.CAVITY>
0

>  <SCORE.RESTR.norm>
0

>  <SCORE.SYSTEM>
0

>  <SCORE.SYSTEM.CONST>
0

>  <SCORE.SYSTEM.DIHEDRAL>
0

>  <SCORE.SYSTEM.SOLV>
0

>  <SCORE.SYSTEM.norm>
0

>  <SCORE.heavy>
13

>  <SCORE.norm>
-1.29694

>  <RMSD>
2.733

$$$$
ligand
 OpenBabel02271912143D
libRbt.so/2013.1/901 2013/11/27
 13 14  0  0  0  0  0  0  0  0999 V2000
   -5.5711  -34.9772  -42.9907 N   0  0  0  0  0  0  0  0  0  0  0  0
   -5.8769  -35.0994  -44.3198 C   0  0  0  0  0  0  0  0  0  0  0  0
   -7.0566  -35.6949  -44.6746 N   0  0  0  0  0  0  0  0  0  0  0  0
   -5.0517  -34.6502  -45.2659 N   0  0  0  0  0  0  0  0  0  0  0  0
   -3.8697  -34.0534  -44.9479 C   0  0  0  0  0  0  0  0  0  0  0  0
   -3.5103  -33.9088  -43.5899 C   0  0  0  0  0  0  0  0  0  0  0  0
   -4.4058  -34.3914  -42.5974 C   0  0  0  0  0  0  0  0  0  0  0  0
   -4.1416  -34.2859  -41.4252 O   0  0  0  0  0  0  0  0  0  0  0  0
   -2.2091  -33.2479  -43.5727 C   0  0  0  0  0  0  0  0  0  0  0  0
   -1.8679  -33.0319  -44.8555 C   0  0  0  0  0  0  0  0  0  0  0  0
   -2.8596  -33.5127  -45.6845 N   0  0  0  0  0  0  0  0  0  0  0  0
   -1.4028  -32.8869  -42.3516 C   0  0  0  0  0  0  0  0  0  0  0  0
   -0.0330  -32.5258  -42.7696 N   0  0  0  0  0  0  0  0  0  0  0  0
  1  2  1  0  0  0  0
  1  7  1  0  0  0  0
  2  3  1  0  0  0  0
  2  4  2  0  0  0  0
  4  5  1  0  0  0  0
  5  6  2  0  0  0  0
  5 11  1  0  0  0  0
  6  7  1  0  0  0  0
  6  9  1  0  0  0  0
  7  8  2  0  0  0  0
  9 10  2  0  0  0  0
  9 12  1  0  0  0  0
 10 11  1  0  0  0  0
 12 13  1  0  0  0  0
M  END
>  <CHROM.1>
167.02040313,-3.69033605,-34.02794735,-43.73090809,2.96484966,-0.44933728
-1.53388382

>  <Name>
ligand

>  <RI>
0

>  <Rbt.Current_Directory>
/home/itssahil/PROJECTS/Mol_Feturizer/Test_systems_manuscript/rnas/3fu2

>  <Rbt.Executable>
rbdock ($Id: //depot/dev/client3/rdock/2013.1/src/exe/rbdock.cxx#4 $)

>  <Rbt.Library>
libRbt.so (2013.1, Build901 2013/11/27)

>  <Rbt.Parameter_File>
/export/apps/rDock/src/rDock_2013.1_src/data/scripts/dock_solv.prm

>  <Rbt.Receptor>
prm/pocket_docking_3.prm

>  <SCORE>
-16.8297

>  <SCORE.INTER>
-16.6951

>  <SCORE.INTER.CONST>
1

>  <SCORE.INTER.POLAR>
0

>  <SCORE.INTER.ROT>
1

>  <SCORE.INTER.SOLV>
20.265

>  <SCORE.INTER.VDW>
-22.1518

>  <SCORE.INTER.norm>
-1.28424

>  <SCORE.INTRA>
-0.134568

>  <SCORE.INTRA.DIHEDRAL>
0.0253185

>  <SCORE.INTRA.DIHEDRAL.0>
1.66609

>  <SCORE.INTRA.POLAR>
0

>  <SCORE.INTRA.POLAR.0>
0

>  <SCORE.INTRA.REPUL>
0

>  <SCORE.INTRA.REPUL.0>
0

>  <SCORE.INTRA.SOLV>
-0.979601

>  <SCORE.INTRA.SOLV.lig_0>
-45.868

>  <SCORE.INTRA.VDW>
0.342574

>  <SCORE.INTRA.VDW.0>
-0.397919

>  <SCORE.INTRA.norm>
-0.0103513

>  <SCORE.RESTR>
0

>  <SCORE.RESTR.CAVITY>
0

>  <SCORE.RESTR.norm>
0

>  <SCORE.SYSTEM>
0

>  <SCORE.SYSTEM.CONST>
0

>  <SCORE.SYSTEM.DIHEDRAL>
0

>  <SCORE.SYSTEM.SOLV>
0

>  <SCORE.SYSTEM.norm>
0

>  <SCORE.heavy>
13

>  <SCORE.norm>
-1.29459

>  <RMSD>
2.734

$$$$
ligand
 OpenBabel02271912143D
libRbt.so/2013.1/901 2013/11/27
 13 14  0  0  0  0  0  0  0  0999 V2000
   -5.5903  -34.9311  -42.9879 N   0  0  0  0  0  0  0  0  0  0  0  0
   -5.8847  -35.0779  -44.3170 C   0  0  0  0  0  0  0  0  0  0  0  0
   -7.0648  -35.6733  -44.6707 N   0  0  0  0  0  0  0  0  0  0  0  0
   -5.0482  -34.6526  -45.2642 N   0  0  0  0  0  0  0  0  0  0  0  0
   -3.8655  -34.0566  -44.9472 C   0  0  0  0  0  0  0  0  0  0  0  0
   -3.5175  -33.8872  -43.5891 C   0  0  0  0  0  0  0  0  0  0  0  0
   -4.4249  -34.3446  -42.5955 C   0  0  0  0  0  0  0  0  0  0  0  0
   -4.1708  -34.2174  -41.4233 O   0  0  0  0  0  0  0  0  0  0  0  0
   -2.2125  -33.2339  -43.5731 C   0  0  0  0  0  0  0  0  0  0  0  0
   -1.8584  -33.0455  -44.8567 C   0  0  0  0  0  0  0  0  0  0  0  0
   -2.8454  -33.5367  -45.6851 N   0  0  0  0  0  0  0  0  0  0  0  0
   -1.4151  -32.8535  -42.3520 C   0  0  0  0  0  0  0  0  0  0  0  0
   -0.0159  -32.5996  -42.7515 N   0  0  0  0  0  0  0  0  0  0  0  0
  1  2  1  0  0  0  0
  1  7  1  0  0  0  0
  2  3  1  0  0  0  0
  2  4  2  0  0  0  0
  4  5  1  0  0  0  0
  5  6  2  0  0  0  0
  5 11  1  0  0  0  0
  6  7  1  0  0  0  0
  6  9  1  0  0  0  0
  7  8  2  0  0  0  0
  9 10  2  0  0  0  0
  9 12  1  0  0  0  0
 10 11  1  0  0  0  0
 12 13  1  0  0  0  0
M  END
>  <CHROM.1>
163.14374291,-3.69510740,-34.01544401,-43.72834240,2.95392647,-0.43737256
-1.55557872

>  <Name>
ligand

>  <RI>
0

>  <Rbt.Current_Directory>
/home/itssahil/PROJECTS/Mol_Feturizer/Test_systems_manuscript/rnas/3fu2

>  <Rbt.Executable>
rbdock ($Id: //depot/dev/client3/rdock/2013.1/src/exe/rbdock.cxx#4 $)

>  <Rbt.Library>
libRbt.so (2013.1, Build901 2013/11/27)

>  <Rbt.Parameter_File>
/export/apps/rDock/src/rDock_2013.1_src/data/scripts/dock_solv.prm

>  <Rbt.Receptor>
prm/pocket_docking_6.prm

>  <SCORE>
-16.8624

>  <SCORE.INTER>
-16.7165

>  <SCORE.INTER.CONST>
1

>  <SCORE.INTER.POLAR>
0

>  <SCORE.INTER.ROT>
1

>  <SCORE.INTER.SOLV>
20.3114

>  <SCORE.INTER.VDW>
-22.1815

>  <SCORE.INTER.norm>
-1.28588

>  <SCORE.INTRA>
-0.145935

>  <SCORE.INTRA.DIHEDRAL>
0.0279952

>  <SCORE.INTRA.DIHEDRAL.0>
1.66609

>  <SCORE.INTRA.POLAR>
0

>  <SCORE.INTRA.POLAR.0>
0

>  <SCORE.INTRA.REPUL>
0

>  <SCORE.INTRA.REPUL.0>
0

>  <SCORE.INTRA.SOLV>
-0.980261

>  <SCORE.INTRA.SOLV.lig_0>
-45.868

>  <SCORE.INTRA.VDW>
0.330197

>  <SCORE.INTRA.VDW.0>
-0.397919

>  <SCORE.INTRA.norm>
-0.0112258

>  <SCORE.RESTR>
0

>  <SCORE.RESTR.CAVITY>
0

>  <SCORE.RESTR.norm>
0

>  <SCORE.SYSTEM>
0

>  <SCORE.SYSTEM.CONST>
0

>  <SCORE.SYSTEM.DIHEDRAL>
0

>  <SCORE.SYSTEM.SOLV>
0

>  <SCORE.SYSTEM.norm>
0

>  <SCORE.heavy>
13

>  <SCORE.norm>
-1.29711

>  <RMSD>
2.735

$$$$
ligand
 OpenBabel02271912143D
libRbt.so/2013.1/901 2013/11/27
 13 14  0  0  0  0  0  0  0  0999 V2000
   -5.5599  -35.0015  -42.9758 N   0  0  0  0  0  0  0  0  0  0  0  0
   -5.8808  -35.0839  -44.3043 C   0  0  0  0  0  0  0  0  0  0  0  0
   -7.0691  -35.6597  -44.6628 N   0  0  0  0  0  0  0  0  0  0  0  0
   -5.0620  -34.6150  -45.2464 N   0  0  0  0  0  0  0  0  0  0  0  0
   -3.8717  -34.0368  -44.9247 C   0  0  0  0  0  0  0  0  0  0  0  0
   -3.4966  -33.9333  -43.5672 C   0  0  0  0  0  0  0  0  0  0  0  0
   -4.3855  -34.4364  -42.5789 C   0  0  0  0  0  0  0  0  0  0  0  0
   -4.1081  -34.3660  -41.4072 O   0  0  0  0  0  0  0  0  0  0  0  0
   -2.1899  -33.2837  -43.5456 C   0  0  0  0  0  0  0  0  0  0  0  0
   -1.8606  -33.0345  -44.8255 C   0  0  0  0  0  0  0  0  0  0  0  0
   -2.8650  -33.4838  -45.6568 N   0  0  0  0  0  0  0  0  0  0  0  0
   -1.3676  -32.9636  -42.3237 C   0  0  0  0  0  0  0  0  0  0  0  0
   -0.0045  -32.5844  -42.7475 N   0  0  0  0  0  0  0  0  0  0  0  0
  1  2  1  0  0  0  0
  1  7  1  0  0  0  0
  2  3  1  0  0  0  0
  2  4  2  0  0  0  0
  4  5  1  0  0  0  0
  5  6  2  0  0  0  0
  5 11  1  0  0  0  0
  6  7  1  0  0  0  0
  6  9  1  0  0  0  0
  7  8  2  0  0  0  0
  9 10  2  0  0  0  0
  9 12  1  0  0  0  0
 10 11  1  0  0  0  0
 12 13  1  0  0  0  0
M  END
>  <CHROM.1>
167.77137210,-3.67960107,-34.04560893,-43.70958100,2.97635647,-0.44177932
-1.50138825

>  <Name>
ligand

>  <RI>
0

>  <Rbt.Current_Directory>
/home/itssahil/PROJECTS/Mol_Feturizer/Test_systems_manuscript/rnas/3fu2

>  <Rbt.Executable>
rbdock ($Id: //depot/dev/client3/rdock/2013.1/src/exe/rbdock.cxx#4 $)

>  <Rbt.Library>
libRbt.so (2013.1, Build901 2013/11/27)

>  <Rbt.Parameter_File>
/export/apps/rDock/src/rDock_2013.1_src/data/scripts/dock_solv.prm

>  <Rbt.Receptor>
prm/blind_docking_60.prm

>  <SCORE>
-16.8201

>  <SCORE.INTER>
-16.6874

>  <SCORE.INTER.CONST>
1

>  <SCORE.INTER.POLAR>
0

>  <SCORE.INTER.ROT>
1

>  <SCORE.INTER.SOLV>
20.173

>  <SCORE.INTER.VDW>
-22.1159

>  <SCORE.INTER.norm>
-1.28365

>  <SCORE.INTRA>
-0.132716

>  <SCORE.INTRA.DIHEDRAL>
0.0247421

>  <SCORE.INTRA.DIHEDRAL.0>
1.66609

>  <SCORE.INTRA.POLAR>
0

>  <SCORE.INTRA.POLAR.0>
0

>  <SCORE.INTRA.REPUL>
0

>  <SCORE.INTRA.REPUL.0>
0

>  <SCORE.INTRA.SOLV>
-0.979496

>  <SCORE.INTRA.SOLV.lig_0>
-45.868

>  <SCORE.INTRA.VDW>
0.344662

>  <SCORE.INTRA.VDW.0>
-0.397919

>  <SCORE.INTRA.norm>
-0.0102089

>  <SCORE.RESTR>
0

>  <SCORE.RESTR.CAVITY>
0

>  <SCORE.RESTR.norm>
0

>  <SCORE.SYSTEM>
0

>  <SCORE.SYSTEM.CONST>
0

>  <SCORE.SYSTEM.DIHEDRAL>
0

>  <SCORE.SYSTEM.SOLV>
0

>  <SCORE.SYSTEM.norm>
0

>  <SCORE.heavy>
13

>  <SCORE.norm>
-1.29386

>  <RMSD>
2.736

$$$$
ligand
 OpenBabel02271912143D
libRbt.so/2013.1/901 2013/11/27
 13 14  0  0  0  0  0  0  0  0999 V2000
   -5.6009  -34.9340  -42.9927 N   0  0  0  0  0  0  0  0  0  0  0  0
   -5.8918  -35.0769  -44.3230 C   0  0  0  0  0  0  0  0  0  0  0  0
   -7.0737  -35.6658  -44.6816 N   0  0  0  0  0  0  0  0  0  0  0  0
   -5.0501  -34.6541  -45.2668 N   0  0  0  0  0  0  0  0  0  0  0  0
   -3.8655  -34.0646  -44.9450 C   0  0  0  0  0  0  0  0  0  0  0  0
   -3.5210  -33.8993  -43.5856 C   0  0  0  0  0  0  0  0  0  0  0  0
   -4.4339  -34.3539  -42.5956 C   0  0  0  0  0  0  0  0  0  0  0  0
   -4.1829  -34.2301  -41.4224 O   0  0  0  0  0  0  0  0  0  0  0  0
   -2.2128  -33.2526  -43.5642 C   0  0  0  0  0  0  0  0  0  0  0  0
   -1.8537  -33.0637  -44.8464 C   0  0  0  0  0  0  0  0  0  0  0  0
   -2.8405  -33.5486  -45.6787 N   0  0  0  0  0  0  0  0  0  0  0  0
   -1.4174  -32.8783  -42.3399 C   0  0  0  0  0  0  0  0  0  0  0  0
   -0.0208  -32.6089  -42.7379 N   0  0  0  0  0  0  0  0  0  0  0  0
  1  2  1  0  0  0  0
  1  7  1  0  0  0  0
  2  3  1  0  0  0  0
  2  4  2  0  0  0  0
  4  5  1  0  0  0  0
  5  6  2  0  0  0  0
  5 11  1  0  0  0  0
  6  7  1  0  0  0  0
  6  9  1  0  0  0  0
  7  8  2  0  0  0  0
  9 10  2  0  0  0  0
  9 12  1  0  0  0  0
 10 11  1  0  0  0  0
 12 13  1  0  0  0  0
M  END
>  <CHROM.1>
164.07279860,-3.69921152,-34.02466490,-43.72583062,2.95051301,-0.43388840
-1.55598308

>  <Name>
ligand

>  <RI>
0

>  <Rbt.Current_Directory>
/home/itssahil/PROJECTS/Mol_Feturizer/Test_systems_manuscript/rnas/3fu2

>  <Rbt.Executable>
rbdock ($Id: //depot/dev/client3/rdock/2013.1/src/exe/rbdock.cxx#4 $)

>  <Rbt.Library>
libRbt.so (2013.1, Build901 2013/11/27)

>  <Rbt.Parameter_File>
/export/apps/rDock/src/rDock_2013.1_src/data/scripts/dock_solv.prm

>  <Rbt.Receptor>
prm/pocket_docking_4.prm

>  <SCORE>
-16.8576

>  <SCORE.INTER>
-16.7147

>  <SCORE.INTER.CONST>
1

>  <SCORE.INTER.POLAR>
0

>  <SCORE.INTER.ROT>
1

>  <SCORE.INTER.SOLV>
20.2975

>  <SCORE.INTER.VDW>
-22.1756

>  <SCORE.INTER.norm>
-1.28575

>  <SCORE.INTRA>
-0.142949

>  <SCORE.INTRA.DIHEDRAL>
0.0274026

>  <SCORE.INTRA.DIHEDRAL.0>
1.66609

>  <SCORE.INTRA.POLAR>
0

>  <SCORE.INTRA.POLAR.0>
0

>  <SCORE.INTRA.REPUL>
0

>  <SCORE.INTRA.REPUL.0>
0

>  <SCORE.INTRA.SOLV>
-0.980085

>  <SCORE.INTRA.SOLV.lig_0>
-45.868

>  <SCORE.INTRA.VDW>
0.333392

>  <SCORE.INTRA.VDW.0>
-0.397919

>  <SCORE.INTRA.norm>
-0.0109961

>  <SCORE.RESTR>
0

>  <SCORE.RESTR.CAVITY>
0

>  <SCORE.RESTR.norm>
0

>  <SCORE.SYSTEM>
0

>  <SCORE.SYSTEM.CONST>
0

>  <SCORE.SYSTEM.DIHEDRAL>
0

>  <SCORE.SYSTEM.SOLV>
0

>  <SCORE.SYSTEM.norm>
0

>  <SCORE.heavy>
13

>  <SCORE.norm>
-1.29674

>  <RMSD>
2.737

$$$$
ligand
 OpenBabel02271912143D
libRbt.so/2013.1/901 2013/11/27
 13 14  0  0  0  0  0  0  0  0999 V2000
   -5.5703  -34.9891  -42.9922 N   0  0  0  0  0  0  0  0  0  0  0  0
   -5.8847  -35.0940  -44.3207 C   0  0  0  0  0  0  0  0  0  0  0  0
   -7.0695  -35.6795  -44.6753 N   0  0  0  0  0  0  0  0  0  0  0  0
   -5.0631  -34.6376  -45.2665 N   0  0  0  0  0  0  0  0  0  0  0  0
   -3.8762  -34.0504  -44.9487 C   0  0  0  0  0  0  0  0  0  0  0  0
   -3.5078  -33.9237  -43.5913 C   0  0  0  0  0  0  0  0  0  0  0  0
   -4.3997  -34.4137  -42.5991 C   0  0  0  0  0  0  0  0  0  0  0  0
   -4.1279  -34.3235  -41.4274 O   0  0  0  0  0  0  0  0  0  0  0  0
   -2.2034  -33.2695  -43.5743 C   0  0  0  0  0  0  0  0  0  0  0  0
   -1.8689  -33.0399  -44.8565 C   0  0  0  0  0  0  0  0  0  0  0  0
   -2.8680  -33.5059  -45.6850 N   0  0  0  0  0  0  0  0  0  0  0  0
   -1.3878  -32.9269  -42.3539 C   0  0  0  0  0  0  0  0  0  0  0  0
   -0.0137  -32.5854  -42.7745 N   0  0  0  0  0  0  0  0  0  0  0  0
  1  2  1  0  0  0  0
  1  7  1  0  0  0  0
  2  3  1  0  0  0  0
  2  4  2  0  0  0  0
  4  5  1  0  0  0  0
  5  6  2  0  0  0  0
  5 11  1  0  0  0  0
  6  7  1  0  0  0  0
  6  9  1  0  0  0  0
  7  8  2  0  0  0  0
  9 10  2  0  0  0  0
  9 12  1  0  0  0  0
 10 11  1  0  0  0  0
 12 13  1  0  0  0  0
M  END
>  <CHROM.1>
166.25819238,-3.68894486,-34.04177475,-43.73248742,2.97128254,-0.44292748
-1.51870761

>  <Name>
ligand

>  <RI>
0

>  <Rbt.Current_Directory>
/home/itssahil/PROJECTS/Mol_Feturizer/Test_systems_manuscript/rnas/3fu2

>  <Rbt.Executable>
rbdock ($Id: //depot/dev/client3/rdock/2013.1/src/exe/rbdock.cxx#4 $)

>  <Rbt.Library>
libRbt.so (2013.1, Build901 2013/11/27)

>  <Rbt.Parameter_File>
/export/apps/rDock/src/rDock_2013.1_src/data/scripts/dock_solv.prm

>  <Rbt.Receptor>
prm/pocket_docking_5.prm

>  <SCORE>
-16.825

>  <SCORE.INTER>
-16.6884

>  <SCORE.INTER.CONST>
1

>  <SCORE.INTER.POLAR>
0

>  <SCORE.INTER.ROT>
1

>  <SCORE.INTER.SOLV>
20.2592

>  <SCORE.INTER.VDW>
-22.1453

>  <SCORE.INTER.norm>
-1.28372

>  <SCORE.INTRA>
-0.136568

>  <SCORE.INTRA.DIHEDRAL>
0.0258856

>  <SCORE.INTRA.DIHEDRAL.0>
1.66609

>  <SCORE.INTRA.POLAR>
0

>  <SCORE.INTRA.POLAR.0>
0

>  <SCORE.INTRA.REPUL>
0

>  <SCORE.INTRA.REPUL.0>
0

>  <SCORE.INTRA.SOLV>
-0.979716

>  <SCORE.INTRA.SOLV.lig_0>
-45.868

>  <SCORE.INTRA.VDW>
0.340347

>  <SCORE.INTRA.VDW.0>
-0.397919

>  <SCORE.INTRA.norm>
-0.0105053

>  <SCORE.RESTR>
0

>  <SCORE.RESTR.CAVITY>
0

>  <SCORE.RESTR.norm>
0

>  <SCORE.SYSTEM>
0

>  <SCORE.SYSTEM.CONST>
0

>  <SCORE.SYSTEM.DIHEDRAL>
0

>  <SCORE.SYSTEM.SOLV>
0

>  <SCORE.SYSTEM.norm>
0

>  <SCORE.heavy>
13

>  <SCORE.norm>
-1.29423

>  <RMSD>
2.741

$$$$
ligand
 OpenBabel02271912143D
libRbt.so/2013.1/901 2013/11/27
 13 14  0  0  0  0  0  0  0  0999 V2000
   -5.6010  -34.9568  -42.9899 N   0  0  0  0  0  0  0  0  0  0  0  0
   -5.9028  -35.0857  -44.3192 C   0  0  0  0  0  0  0  0  0  0  0  0
   -7.0859  -35.6742  -44.6743 N   0  0  0  0  0  0  0  0  0  0  0  0
   -5.0706  -34.6495  -45.2653 N   0  0  0  0  0  0  0  0  0  0  0  0
   -3.8851  -34.0599  -44.9469 C   0  0  0  0  0  0  0  0  0  0  0  0
   -3.5295  -33.9089  -43.5886 C   0  0  0  0  0  0  0  0  0  0  0  0
   -4.4325  -34.3776  -42.5962 C   0  0  0  0  0  0  0  0  0  0  0  0
   -4.1718  -34.2662  -41.4238 O   0  0  0  0  0  0  0  0  0  0  0  0
   -2.2232  -33.2582  -43.5711 C   0  0  0  0  0  0  0  0  0  0  0  0
   -1.8756  -33.0537  -44.8540 C   0  0  0  0  0  0  0  0  0  0  0  0
   -2.8680  -33.5323  -45.6834 N   0  0  0  0  0  0  0  0  0  0  0  0
   -1.4186  -32.8952  -42.3494 C   0  0  0  0  0  0  0  0  0  0  0  0
   -0.0283  -32.6082  -42.7575 N   0  0  0  0  0  0  0  0  0  0  0  0
  1  2  1  0  0  0  0
  1  7  1  0  0  0  0
  2  3  1  0  0  0  0
  2  4  2  0  0  0  0
  4  5  1  0  0  0  0
  5  6  2  0  0  0  0
  5 11  1  0  0  0  0
  6  7  1  0  0  0  0
  6  9  1  0  0  0  0
  7  8  2  0  0  0  0
  9 10  2  0  0  0  0
  9 12  1  0  0  0  0
 10 11  1  0  0  0  0
 12 13  1  0  0  0  0
M  END
>  <CHROM.1>
164.44175123,-3.70870175,-34.03248608,-43.72889948,2.96006866,-0.43744334
-1.54090613

>  <Name>
ligand

>  <RI>
0

>  <Rbt.Current_Directory>
/home/itssahil/PROJECTS/Mol_Feturizer/Test_systems_manuscript/rnas/3fu2

>  <Rbt.Executable>
rbdock ($Id: //depot/dev/client3/rdock/2013.1/src/exe/rbdock.cxx#4 $)

>  <Rbt.Library>
libRbt.so (2013.1, Build901 2013/11/27)

>  <Rbt.Parameter_File>
/export/apps/rDock/src/rDock_2013.1_src/data/scripts/dock_solv.prm

>  <Rbt.Receptor>
prm/pocket_docking_4.prm

>  <SCORE>
-16.8333

>  <SCORE.INTER>
-16.6915

>  <SCORE.INTER.CONST>
1

>  <SCORE.INTER.POLAR>
0

>  <SCORE.INTER.ROT>
1

>  <SCORE.INTER.SOLV>
20.3138

>  <SCORE.INTER.VDW>
-22.1656

>  <SCORE.INTER.norm>
-1.28396

>  <SCORE.INTRA>
-0.141807

>  <SCORE.INTRA.DIHEDRAL>
0.0271584

>  <SCORE.INTRA.DIHEDRAL.0>
1.66609

>  <SCORE.INTRA.POLAR>
0

>  <SCORE.INTRA.POLAR.0>
0

>  <SCORE.INTRA.REPUL>
0

>  <SCORE.INTRA.REPUL.0>
0

>  <SCORE.INTRA.SOLV>
-0.980019

>  <SCORE.INTRA.SOLV.lig_0>
-45.868

>  <SCORE.INTRA.VDW>
0.334623

>  <SCORE.INTRA.VDW.0>
-0.397919

>  <SCORE.INTRA.norm>
-0.0109083

>  <SCORE.RESTR>
0

>  <SCORE.RESTR.CAVITY>
0

>  <SCORE.RESTR.norm>
0

>  <SCORE.SYSTEM>
0

>  <SCORE.SYSTEM.CONST>
0

>  <SCORE.SYSTEM.DIHEDRAL>
0

>  <SCORE.SYSTEM.SOLV>
0

>  <SCORE.SYSTEM.norm>
0

>  <SCORE.heavy>
13

>  <SCORE.norm>
-1.29487

>  <RMSD>
2.743

$$$$
ligand
 OpenBabel02271912143D
libRbt.so/2013.1/901 2013/11/27
 13 14  0  0  0  0  0  0  0  0999 V2000
   -5.5300  -34.8280  -42.9464 N   0  0  0  0  0  0  0  0  0  0  0  0
   -5.7835  -35.0256  -44.2774 C   0  0  0  0  0  0  0  0  0  0  0  0
   -6.9405  -35.6580  -44.6431 N   0  0  0  0  0  0  0  0  0  0  0  0
   -4.9295  -34.6142  -45.2150 N   0  0  0  0  0  0  0  0  0  0  0  0
   -3.7689  -33.9823  -44.8860 C   0  0  0  0  0  0  0  0  0  0  0  0
   -3.4632  -33.7600  -43.5254 C   0  0  0  0  0  0  0  0  0  0  0  0
   -4.3887  -34.2035  -42.5422 C   0  0  0  0  0  0  0  0  0  0  0  0
   -4.1707  -34.0316  -41.3684 O   0  0  0  0  0  0  0  0  0  0  0  0
   -2.1731  -33.0783  -43.4955 C   0  0  0  0  0  0  0  0  0  0  0  0
   -1.7867  -32.9253  -44.7745 C   0  0  0  0  0  0  0  0  0  0  0  0
   -2.7394  -33.4654  -45.6126 N   0  0  0  0  0  0  0  0  0  0  0  0
   -1.4187  -32.6399  -42.2665 C   0  0  0  0  0  0  0  0  0  0  0  0
   -0.3601  -33.6277  -41.9745 N   0  0  0  0  0  0  0  0  0  0  0  0
  1  2  1  0  0  0  0
  1  7  1  0  0  0  0
  2  3  1  0  0  0  0
  2  4  2  0  0  0  0
  4  5  1  0  0  0  0
  5  6  2  0  0  0  0
  5 11  1  0  0  0  0
  6  7  1  0  0  0  0
  6  9  1  0  0  0  0
  7  8  2  0  0  0  0
  9 10  2  0  0  0  0
  9 12  1  0  0  0  0
 10 11  1  0  0  0  0
 12 13  1  0  0  0  0
M  END
>  <CHROM.1>
99.97206143,-3.66222257,-33.99906643,-43.61117807,2.87027719,-0.41040825
-1.53233876

>  <Name>
ligand

>  <RI>
0

>  <Rbt.Current_Directory>
/home/itssahil/PROJECTS/Mol_Feturizer/Test_systems_manuscript/rnas/3fu2

>  <Rbt.Executable>
rbdock ($Id: //depot/dev/client3/rdock/2013.1/src/exe/rbdock.cxx#4 $)

>  <Rbt.Library>
libRbt.so (2013.1, Build901 2013/11/27)

>  <Rbt.Parameter_File>
/export/apps/rDock/src/rDock_2013.1_src/data/scripts/dock_solv.prm

>  <Rbt.Receptor>
prm/pocket_docking_5.prm

>  <SCORE>
-16.3431

>  <SCORE.INTER>
-16.1026

>  <SCORE.INTER.CONST>
1

>  <SCORE.INTER.POLAR>
0

>  <SCORE.INTER.ROT>
1

>  <SCORE.INTER.SOLV>
20.4779

>  <SCORE.INTER.VDW>
-21.8277

>  <SCORE.INTER.norm>
-1.23866

>  <SCORE.INTRA>
-0.240564

>  <SCORE.INTRA.DIHEDRAL>
-0.00193819

>  <SCORE.INTRA.DIHEDRAL.0>
1.66609

>  <SCORE.INTRA.POLAR>
0

>  <SCORE.INTRA.POLAR.0>
0

>  <SCORE.INTRA.REPUL>
0

>  <SCORE.INTRA.REPUL.0>
0

>  <SCORE.INTRA.SOLV>
-0.61694

>  <SCORE.INTRA.SOLV.lig_0>
-45.868

>  <SCORE.INTRA.VDW>
0.0688751

>  <SCORE.INTRA.VDW.0>
-0.397919

>  <SCORE.INTRA.norm>
-0.0185049

>  <SCORE.RESTR>
0

>  <SCORE.RESTR.CAVITY>
0

>  <SCORE.RESTR.norm>
0

>  <SCORE.SYSTEM>
0

>  <SCORE.SYSTEM.CONST>
0

>  <SCORE.SYSTEM.DIHEDRAL>
0

>  <SCORE.SYSTEM.SOLV>
0

>  <SCORE.SYSTEM.norm>
0

>  <SCORE.heavy>
13

>  <SCORE.norm>
-1.25716

>  <RMSD>
2.770

$$$$
ligand
 OpenBabel02271912143D
libRbt.so/2013.1/901 2013/11/27
 13 14  0  0  0  0  0  0  0  0999 V2000
   -5.5353  -34.8250  -42.9504 N   0  0  0  0  0  0  0  0  0  0  0  0
   -5.7978  -35.0492  -44.2755 C   0  0  0  0  0  0  0  0  0  0  0  0
   -6.9472  -35.7070  -44.6195 N   0  0  0  0  0  0  0  0  0  0  0  0
   -4.9596  -34.6393  -45.2280 N   0  0  0  0  0  0  0  0  0  0  0  0
   -3.8068  -33.9826  -44.9207 C   0  0  0  0  0  0  0  0  0  0  0  0
   -3.4923  -33.7323  -43.5670 C   0  0  0  0  0  0  0  0  0  0  0  0
   -4.4010  -34.1746  -42.5677 C   0  0  0  0  0  0  0  0  0  0  0  0
   -4.1750  -33.9793  -41.3991 O   0  0  0  0  0  0  0  0  0  0  0  0
   -2.2137  -33.0286  -43.5609 C   0  0  0  0  0  0  0  0  0  0  0  0
   -1.8418  -32.8908  -44.8459 C   0  0  0  0  0  0  0  0  0  0  0  0
   -2.7930  -33.4608  -45.6657 N   0  0  0  0  0  0  0  0  0  0  0  0
   -1.4555  -32.5570  -42.3466 C   0  0  0  0  0  0  0  0  0  0  0  0
   -0.6095  -33.6610  -41.8495 N   0  0  0  0  0  0  0  0  0  0  0  0
  1  2  1  0  0  0  0
  1  7  1  0  0  0  0
  2  3  1  0  0  0  0
  2  4  2  0  0  0  0
  4  5  1  0  0  0  0
  5  6  2  0  0  0  0
  5 11  1  0  0  0  0
  6  7  1  0  0  0  0
  6  9  1  0  0  0  0
  7  8  2  0  0  0  0
  9 10  2  0  0  0  0
  9 12  1  0  0  0  0
 10 11  1  0  0  0  0
 12 13  1  0  0  0  0
M  END
>  <CHROM.1>
86.17231688,-3.70693006,-33.98740819,-43.63066829,2.86345905,-0.43281600
-1.53007057

>  <Name>
ligand

>  <RI>
0

>  <Rbt.Current_Directory>
/home/itssahil/PROJECTS/Mol_Feturizer/Test_systems_manuscript/rnas/3fu2

>  <Rbt.Executable>
rbdock ($Id: //depot/dev/client3/rdock/2013.1/src/exe/rbdock.cxx#4 $)

>  <Rbt.Library>
libRbt.so (2013.1, Build901 2013/11/27)

>  <Rbt.Parameter_File>
/export/apps/rDock/src/rDock_2013.1_src/data/scripts/dock_solv.prm

>  <Rbt.Receptor>
prm/pocket_docking_3.prm

>  <SCORE>
-16.2677

>  <SCORE.INTER>
-16.1461

>  <SCORE.INTER.CONST>
1

>  <SCORE.INTER.POLAR>
0

>  <SCORE.INTER.ROT>
1

>  <SCORE.INTER.SOLV>
20.4692

>  <SCORE.INTER.VDW>
-21.8538

>  <SCORE.INTER.norm>
-1.24201

>  <SCORE.INTRA>
-0.12154

>  <SCORE.INTRA.DIHEDRAL>
-0.00416235

>  <SCORE.INTRA.DIHEDRAL.0>
1.66609

>  <SCORE.INTRA.POLAR>
0

>  <SCORE.INTRA.POLAR.0>
0

>  <SCORE.INTRA.REPUL>
0

>  <SCORE.INTRA.REPUL.0>
0

>  <SCORE.INTRA.SOLV>
-0.298434

>  <SCORE.INTRA.SOLV.lig_0>
-45.868

>  <SCORE.INTRA.VDW>
0.0297575

>  <SCORE.INTRA.VDW.0>
-0.397919

>  <SCORE.INTRA.norm>
-0.00934927

>  <SCORE.RESTR>
0

>  <SCORE.RESTR.CAVITY>
0

>  <SCORE.RESTR.norm>
0

>  <SCORE.SYSTEM>
0

>  <SCORE.SYSTEM.CONST>
0

>  <SCORE.SYSTEM.DIHEDRAL>
0

>  <SCORE.SYSTEM.SOLV>
0

>  <SCORE.SYSTEM.norm>
0

>  <SCORE.heavy>
13

>  <SCORE.norm>
-1.25136

>  <RMSD>
2.789

$$$$
ligand
 OpenBabel02271912143D
libRbt.so/2013.1/901 2013/11/27
 13 14  0  0  0  0  0  0  0  0999 V2000
   -5.4610  -34.7761  -42.9566 N   0  0  0  0  0  0  0  0  0  0  0  0
   -5.7583  -35.0142  -44.2718 C   0  0  0  0  0  0  0  0  0  0  0  0
   -6.9195  -35.6698  -44.5786 N   0  0  0  0  0  0  0  0  0  0  0  0
   -4.9428  -34.6199  -45.2502 N   0  0  0  0  0  0  0  0  0  0  0  0
   -3.7792  -33.9659  -44.9801 C   0  0  0  0  0  0  0  0  0  0  0  0
   -3.4290  -33.7015  -43.6378 C   0  0  0  0  0  0  0  0  0  0  0  0
   -4.3140  -34.1274  -42.6106 C   0  0  0  0  0  0  0  0  0  0  0  0
   -4.0572  -33.9198  -41.4505 O   0  0  0  0  0  0  0  0  0  0  0  0
   -2.1471  -33.0047  -43.6726 C   0  0  0  0  0  0  0  0  0  0  0  0
   -1.8075  -32.8837  -44.9682 C   0  0  0  0  0  0  0  0  0  0  0  0
   -2.7822  -33.4581  -45.7568 N   0  0  0  0  0  0  0  0  0  0  0  0
   -1.3557  -32.5230  -42.4837 C   0  0  0  0  0  0  0  0  0  0  0  0
   -0.6879  -33.6785  -41.8508 N   0  0  0  0  0  0  0  0  0  0  0  0
  1  2  1  0  0  0  0
  1  7  1  0  0  0  0
  2  3  1  0  0  0  0
  2  4  2  0  0  0  0
  4  5  1  0  0  0  0
  5  6  2  0  0  0  0
  5 11  1  0  0  0  0
  6  7  1  0  0  0  0
  6  9  1  0  0  0  0
  7  8  2  0  0  0  0
  9 10  2  0  0  0  0
  9 12  1  0  0  0  0
 10 11  1  0  0  0  0
 12 13  1  0  0  0  0
M  END
>  <CHROM.1>
76.28156578,-3.66145906,-33.96050087,-43.68128185,2.87788202,-0.43341010
-1.52354087

>  <Name>
ligand

>  <RI>
0

>  <Rbt.Current_Directory>
/home/itssahil/PROJECTS/Mol_Feturizer/Test_systems_manuscript/rnas/3fu2

>  <Rbt.Executable>
rbdock ($Id: //depot/dev/client3/rdock/2013.1/src/exe/rbdock.cxx#4 $)

>  <Rbt.Library>
libRbt.so (2013.1, Build901 2013/11/27)

>  <Rbt.Parameter_File>
/export/apps/rDock/src/rDock_2013.1_src/data/scripts/dock_solv.prm

>  <Rbt.Receptor>
prm/pocket_docking_4.prm

>  <SCORE>
-16.3181

>  <SCORE.INTER>
-16.3166

>  <SCORE.INTER.CONST>
1

>  <SCORE.INTER.POLAR>
0

>  <SCORE.INTER.ROT>
1

>  <SCORE.INTER.SOLV>
20.515

>  <SCORE.INTER.VDW>
-21.9827

>  <SCORE.INTER.norm>
-1.25512

>  <SCORE.INTRA>
-0.00151737

>  <SCORE.INTRA.DIHEDRAL>
-7.68305e-05

>  <SCORE.INTRA.DIHEDRAL.0>
1.66609

>  <SCORE.INTRA.POLAR>
0

>  <SCORE.INTRA.POLAR.0>
0

>  <SCORE.INTRA.REPUL>
0

>  <SCORE.INTRA.REPUL.0>
0

>  <SCORE.INTRA.SOLV>
-0.00367191

>  <SCORE.INTRA.SOLV.lig_0>
-45.868

>  <SCORE.INTRA.VDW>
0.000356999

>  <SCORE.INTRA.VDW.0>
-0.397919

>  <SCORE.INTRA.norm>
-0.000116721

>  <SCORE.RESTR>
0

>  <SCORE.RESTR.CAVITY>
0

>  <SCORE.RESTR.norm>
0

>  <SCORE.SYSTEM>
0

>  <SCORE.SYSTEM.CONST>
0

>  <SCORE.SYSTEM.DIHEDRAL>
0

>  <SCORE.SYSTEM.SOLV>
0

>  <SCORE.SYSTEM.norm>
0

>  <SCORE.heavy>
13

>  <SCORE.norm>
-1.25524

>  <RMSD>
2.789

$$$$
ligand
 OpenBabel02271912143D
libRbt.so/2013.1/901 2013/11/27
 13 14  0  0  0  0  0  0  0  0999 V2000
   -5.4688  -34.7690  -42.9641 N   0  0  0  0  0  0  0  0  0  0  0  0
   -5.7607  -35.0108  -44.2798 C   0  0  0  0  0  0  0  0  0  0  0  0
   -6.9228  -35.6632  -44.5899 N   0  0  0  0  0  0  0  0  0  0  0  0
   -4.9390  -34.6229  -45.2557 N   0  0  0  0  0  0  0  0  0  0  0  0
   -3.7744  -33.9722  -44.9823 C   0  0  0  0  0  0  0  0  0  0  0  0
   -3.4296  -33.7043  -43.6394 C   0  0  0  0  0  0  0  0  0  0  0  0
   -4.3211  -34.1233  -42.6149 C   0  0  0  0  0  0  0  0  0  0  0  0
   -4.0691  -33.9125  -41.4543 O   0  0  0  0  0  0  0  0  0  0  0  0
   -2.1450  -33.0123  -43.6704 C   0  0  0  0  0  0  0  0  0  0  0  0
   -1.7988  -32.8972  -44.9649 C   0  0  0  0  0  0  0  0  0  0  0  0
   -2.7718  -33.4709  -45.7560 N   0  0  0  0  0  0  0  0  0  0  0  0
   -1.3575  -32.5293  -42.4795 C   0  0  0  0  0  0  0  0  0  0  0  0
   -0.6909  -33.6839  -41.8438 N   0  0  0  0  0  0  0  0  0  0  0  0
  1  2  1  0  0  0  0
  1  7  1  0  0  0  0
  2  3  1  0  0  0  0
  2  4  2  0  0  0  0
  4  5  1  0  0  0  0
  5  6  2  0  0  0  0
  5 11  1  0  0  0  0
  6  7  1  0  0  0  0
  6  9  1  0  0  0  0
  7  8  2  0  0  0  0
  9 10  2  0  0  0  0
  9 12  1  0  0  0  0
 10 11  1  0  0  0  0
 12 13  1  0  0  0  0
M  END
>  <CHROM.1>
76.59913400,-3.66233460,-33.96255083,-43.68336910,2.87287983,-0.42970962
-1.52951325

>  <Name>
ligand

>  <RI>
0

>  <Rbt.Current_Directory>
/home/itssahil/PROJECTS/Mol_Feturizer/Test_systems_manuscript/rnas/3fu2

>  <Rbt.Executable>
rbdock ($Id: //depot/dev/client3/rdock/2013.1/src/exe/rbdock.cxx#4 $)

>  <Rbt.Library>
libRbt.so (2013.1, Build901 2013/11/27)

>  <Rbt.Parameter_File>
/export/apps/rDock/src/rDock_2013.1_src/data/scripts/dock_solv.prm

>  <Rbt.Receptor>
prm/pocket_docking_2.prm

>  <SCORE>
-16.3317

>  <SCORE.INTER>
-16.3262

>  <SCORE.INTER.CONST>
1

>  <SCORE.INTER.POLAR>
0

>  <SCORE.INTER.ROT>
1

>  <SCORE.INTER.SOLV>
20.5231

>  <SCORE.INTER.VDW>
-21.9918

>  <SCORE.INTER.norm>
-1.25586

>  <SCORE.INTRA>
-0.00545464

>  <SCORE.INTRA.DIHEDRAL>
-0.000273723

>  <SCORE.INTRA.DIHEDRAL.0>
1.66609

>  <SCORE.INTRA.POLAR>
0

>  <SCORE.INTRA.POLAR.0>
0

>  <SCORE.INTRA.REPUL>
0

>  <SCORE.INTRA.REPUL.0>
0

>  <SCORE.INTRA.SOLV>
-0.0132089

>  <SCORE.INTRA.SOLV.lig_0>
-45.868

>  <SCORE.INTRA.VDW>
0.00128669

>  <SCORE.INTRA.VDW.0>
-0.397919

>  <SCORE.INTRA.norm>
-0.000419587

>  <SCORE.RESTR>
0

>  <SCORE.RESTR.CAVITY>
0

>  <SCORE.RESTR.norm>
0

>  <SCORE.SYSTEM>
0

>  <SCORE.SYSTEM.CONST>
0

>  <SCORE.SYSTEM.DIHEDRAL>
0

>  <SCORE.SYSTEM.SOLV>
0

>  <SCORE.SYSTEM.norm>
0

>  <SCORE.heavy>
13

>  <SCORE.norm>
-1.25628

>  <RMSD>
2.790

$$$$
ligand
 OpenBabel02271912143D
libRbt.so/2013.1/901 2013/11/27
 13 14  0  0  0  0  0  0  0  0999 V2000
   -5.4606  -34.7805  -42.9651 N   0  0  0  0  0  0  0  0  0  0  0  0
   -5.7613  -35.0089  -44.2812 C   0  0  0  0  0  0  0  0  0  0  0  0
   -6.9265  -35.6562  -44.5903 N   0  0  0  0  0  0  0  0  0  0  0  0
   -4.9450  -34.6132  -45.2584 N   0  0  0  0  0  0  0  0  0  0  0  0
   -3.7774  -33.9673  -44.9861 C   0  0  0  0  0  0  0  0  0  0  0  0
   -3.4236  -33.7131  -43.6429 C   0  0  0  0  0  0  0  0  0  0  0  0
   -4.3095  -34.1404  -42.6169 C   0  0  0  0  0  0  0  0  0  0  0  0
   -4.0498  -33.9413  -41.4560 O   0  0  0  0  0  0  0  0  0  0  0  0
   -2.1379  -33.0232  -43.6753 C   0  0  0  0  0  0  0  0  0  0  0  0
   -1.7997  -32.8962  -44.9707 C   0  0  0  0  0  0  0  0  0  0  0  0
   -2.7787  -33.4603  -45.7613 N   0  0  0  0  0  0  0  0  0  0  0  0
   -1.3420  -32.5533  -42.4848 C   0  0  0  0  0  0  0  0  0  0  0  0
   -0.7777  -33.7282  -41.7899 N   0  0  0  0  0  0  0  0  0  0  0  0
  1  2  1  0  0  0  0
  1  7  1  0  0  0  0
  2  3  1  0  0  0  0
  2  4  2  0  0  0  0
  4  5  1  0  0  0  0
  5  6  2  0  0  0  0
  5 11  1  0  0  0  0
  6  7  1  0  0  0  0
  6  9  1  0  0  0  0
  7  8  2  0  0  0  0
  9 10  2  0  0  0  0
  9 12  1  0  0  0  0
 10 11  1  0  0  0  0
 12 13  1  0  0  0  0
M  END
>  <CHROM.1>
71.31594784,-3.66559753,-33.97150861,-43.68182539,2.87233769,-0.43182505
-1.51517487

>  <Name>
ligand

>  <RI>
0

>  <Rbt.Current_Directory>
/home/itssahil/PROJECTS/Mol_Feturizer/Test_systems_manuscript/rnas/3fu2

>  <Rbt.Executable>
rbdock ($Id: //depot/dev/client3/rdock/2013.1/src/exe/rbdock.cxx#4 $)

>  <Rbt.Library>
libRbt.so (2013.1, Build901 2013/11/27)

>  <Rbt.Parameter_File>
/export/apps/rDock/src/rDock_2013.1_src/data/scripts/dock_solv.prm

>  <Rbt.Receptor>
prm/blind_docking_80.prm

>  <SCORE>
-16.3012

>  <SCORE.INTER>
-16.3622

>  <SCORE.INTER.CONST>
1

>  <SCORE.INTER.POLAR>
0

>  <SCORE.INTER.ROT>
1

>  <SCORE.INTER.SOLV>
20.4917

>  <SCORE.INTER.VDW>
-22.0054

>  <SCORE.INTER.norm>
-1.25863

>  <SCORE.INTRA>
0.0609931

>  <SCORE.INTRA.DIHEDRAL>
0.00346744

>  <SCORE.INTRA.DIHEDRAL.0>
1.66609

>  <SCORE.INTRA.POLAR>
0

>  <SCORE.INTRA.POLAR.0>
0

>  <SCORE.INTRA.REPUL>
0

>  <SCORE.INTRA.REPUL.0>
0

>  <SCORE.INTRA.SOLV>
0.145505

>  <SCORE.INTRA.SOLV.lig_0>
-45.868

>  <SCORE.INTRA.VDW>
-0.0134931

>  <SCORE.INTRA.VDW.0>
-0.397919

>  <SCORE.INTRA.norm>
0.00469178

>  <SCORE.RESTR>
0

>  <SCORE.RESTR.CAVITY>
0

>  <SCORE.RESTR.norm>
0

>  <SCORE.SYSTEM>
0

>  <SCORE.SYSTEM.CONST>
0

>  <SCORE.SYSTEM.DIHEDRAL>
0

>  <SCORE.SYSTEM.SOLV>
0

>  <SCORE.SYSTEM.norm>
0

>  <SCORE.heavy>
13

>  <SCORE.norm>
-1.25394

>  <RMSD>
2.797

$$$$
ligand
 OpenBabel02271912143D
libRbt.so/2013.1/901 2013/11/27
 13 14  0  0  0  0  0  0  0  0999 V2000
   -5.6456  -34.8781  -42.9673 N   0  0  0  0  0  0  0  0  0  0  0  0
   -5.8736  -35.0709  -44.3036 C   0  0  0  0  0  0  0  0  0  0  0  0
   -7.0275  -35.6939  -44.6941 N   0  0  0  0  0  0  0  0  0  0  0  0
   -4.9977  -34.6638  -45.2229 N   0  0  0  0  0  0  0  0  0  0  0  0
   -3.8393  -34.0414  -44.8690 C   0  0  0  0  0  0  0  0  0  0  0  0
   -3.5596  -33.8243  -43.5020 C   0  0  0  0  0  0  0  0  0  0  0  0
   -4.5081  -34.2630  -42.5387 C   0  0  0  0  0  0  0  0  0  0  0  0
   -4.3126  -34.0953  -41.3604 O   0  0  0  0  0  0  0  0  0  0  0  0
   -2.2653  -33.1523  -43.4445 C   0  0  0  0  0  0  0  0  0  0  0  0
   -1.8520  -32.9995  -44.7150 C   0  0  0  0  0  0  0  0  0  0  0  0
   -2.7915  -33.5306  -45.5735 N   0  0  0  0  0  0  0  0  0  0  0  0
   -1.5327  -32.7223  -42.1994 C   0  0  0  0  0  0  0  0  0  0  0  0
   -0.5824  -33.7838  -41.8101 N   0  0  0  0  0  0  0  0  0  0  0  0
  1  2  1  0  0  0  0
  1  7  1  0  0  0  0
  2  3  1  0  0  0  0
  2  4  2  0  0  0  0
  4  5  1  0  0  0  0
  5  6  2  0  0  0  0
  5 11  1  0  0  0  0
  6  7  1  0  0  0  0
  6  9  1  0  0  0  0
  7  8  2  0  0  0  0
  9 10  2  0  0  0  0
  9 12  1  0  0  0  0
 10 11  1  0  0  0  0
 12 13  1  0  0  0  0
M  END
>  <CHROM.1>
94.26418436,-3.76633279,-34.06699898,-43.58594982,2.84061080,-0.40565808
-1.53239765

>  <Name>
ligand

>  <RI>
0

>  <Rbt.Current_Directory>
/home/itssahil/PROJECTS/Mol_Feturizer/Test_systems_manuscript/rnas/3fu2

>  <Rbt.Executable>
rbdock ($Id: //depot/dev/client3/rdock/2013.1/src/exe/rbdock.cxx#4 $)

>  <Rbt.Library>
libRbt.so (2013.1, Build901 2013/11/27)

>  <Rbt.Parameter_File>
/export/apps/rDock/src/rDock_2013.1_src/data/scripts/dock_solv.prm

>  <Rbt.Receptor>
prm/pocket_docking_3.prm

>  <SCORE>
-16.3394

>  <SCORE.INTER>
-16.1314

>  <SCORE.INTER.CONST>
1

>  <SCORE.INTER.POLAR>
0

>  <SCORE.INTER.ROT>
1

>  <SCORE.INTER.SOLV>
20.5591

>  <SCORE.INTER.VDW>
-21.874

>  <SCORE.INTER.norm>
-1.24088

>  <SCORE.INTRA>
-0.207979

>  <SCORE.INTRA.DIHEDRAL>
-0.00398916

>  <SCORE.INTRA.DIHEDRAL.0>
1.66609

>  <SCORE.INTRA.POLAR>
0

>  <SCORE.INTRA.POLAR.0>
0

>  <SCORE.INTRA.REPUL>
0

>  <SCORE.INTRA.REPUL.0>
0

>  <SCORE.INTRA.SOLV>
-0.517985

>  <SCORE.INTRA.SOLV.lig_0>
-45.868

>  <SCORE.INTRA.VDW>
0.0530083

>  <SCORE.INTRA.VDW.0>
-0.397919

>  <SCORE.INTRA.norm>
-0.0159984

>  <SCORE.RESTR>
0

>  <SCORE.RESTR.CAVITY>
0

>  <SCORE.RESTR.norm>
0

>  <SCORE.SYSTEM>
0

>  <SCORE.SYSTEM.CONST>
0

>  <SCORE.SYSTEM.DIHEDRAL>
0

>  <SCORE.SYSTEM.SOLV>
0

>  <SCORE.SYSTEM.norm>
0

>  <SCORE.heavy>
13

>  <SCORE.norm>
-1.25688

>  <RMSD>
2.814

$$$$
ligand
 OpenBabel02271912143D
libRbt.so/2013.1/901 2013/11/27
 13 14  0  0  0  0  0  0  0  0999 V2000
   -5.5261  -34.8434  -42.9515 N   0  0  0  0  0  0  0  0  0  0  0  0
   -5.7740  -35.0155  -44.2870 C   0  0  0  0  0  0  0  0  0  0  0  0
   -6.9403  -35.6199  -44.6702 N   0  0  0  0  0  0  0  0  0  0  0  0
   -4.9058  -34.6061  -45.2125 N   0  0  0  0  0  0  0  0  0  0  0  0
   -3.7357  -34.0018  -44.8660 C   0  0  0  0  0  0  0  0  0  0  0  0
   -3.4353  -33.8063  -43.5001 C   0  0  0  0  0  0  0  0  0  0  0  0
   -4.3759  -34.2471  -42.5301 C   0  0  0  0  0  0  0  0  0  0  0  0
   -4.1627  -34.0975  -41.3524 O   0  0  0  0  0  0  0  0  0  0  0  0
   -2.1326  -33.1501  -43.4511 C   0  0  0  0  0  0  0  0  0  0  0  0
   -1.7345  -32.9849  -44.7250 C   0  0  0  0  0  0  0  0  0  0  0  0
   -2.6915  -33.4936  -45.5777 N   0  0  0  0  0  0  0  0  0  0  0  0
   -1.3785  -32.7452  -42.2104 C   0  0  0  0  0  0  0  0  0  0  0  0
   -1.1489  -33.9419  -41.3756 N   0  0  0  0  0  0  0  0  0  0  0  0
  1  2  1  0  0  0  0
  1  7  1  0  0  0  0
  2  3  1  0  0  0  0
  2  4  2  0  0  0  0
  4  5  1  0  0  0  0
  5  6  2  0  0  0  0
  5 11  1  0  0  0  0
  6  7  1  0  0  0  0
  6  9  1  0  0  0  0
  7  8  2  0  0  0  0
  9 10  2  0  0  0  0
  9 12  1  0  0  0  0
 10 11  1  0  0  0  0
 12 13  1  0  0  0  0
M  END
>  <CHROM.1>
58.22910702,-3.70395105,-34.05522701,-43.54605767,2.80394638,-0.42081615
-1.50061309

>  <Name>
ligand

>  <RI>
0

>  <Rbt.Current_Directory>
/home/itssahil/PROJECTS/Mol_Feturizer/Test_systems_manuscript/rnas/3fu2

>  <Rbt.Executable>
rbdock ($Id: //depot/dev/client3/rdock/2013.1/src/exe/rbdock.cxx#4 $)

>  <Rbt.Library>
libRbt.so (2013.1, Build901 2013/11/27)

>  <Rbt.Parameter_File>
/export/apps/rDock/src/rDock_2013.1_src/data/scripts/dock_solv.prm

>  <Rbt.Receptor>
prm/blind_docking_80.prm

>  <SCORE>
-16.2581

>  <SCORE.INTER>
-16.5034

>  <SCORE.INTER.CONST>
1

>  <SCORE.INTER.POLAR>
0

>  <SCORE.INTER.ROT>
1

>  <SCORE.INTER.SOLV>
20.1343

>  <SCORE.INTER.VDW>
-21.9804

>  <SCORE.INTER.norm>
-1.26949

>  <SCORE.INTRA>
0.24528

>  <SCORE.INTRA.DIHEDRAL>
0.0154135

>  <SCORE.INTRA.DIHEDRAL.0>
1.66609

>  <SCORE.INTRA.POLAR>
0

>  <SCORE.INTRA.POLAR.0>
0

>  <SCORE.INTRA.REPUL>
0

>  <SCORE.INTRA.REPUL.0>
0

>  <SCORE.INTRA.SOLV>
0.5321

>  <SCORE.INTRA.SOLV.lig_0>
-45.868

>  <SCORE.INTRA.VDW>
-0.0284767

>  <SCORE.INTRA.VDW.0>
-0.397919

>  <SCORE.INTRA.norm>
0.0188677

>  <SCORE.RESTR>
0

>  <SCORE.RESTR.CAVITY>
0

>  <SCORE.RESTR.norm>
0

>  <SCORE.SYSTEM>
0

>  <SCORE.SYSTEM.CONST>
0

>  <SCORE.SYSTEM.DIHEDRAL>
0

>  <SCORE.SYSTEM.SOLV>
0

>  <SCORE.SYSTEM.norm>
0

>  <SCORE.heavy>
13

>  <SCORE.norm>
-1.25063

>  <RMSD>
2.815

$$$$
ligand
 OpenBabel02271912143D
libRbt.so/2013.1/901 2013/11/27
 13 14  0  0  0  0  0  0  0  0999 V2000
   -5.5505  -34.8211  -42.9659 N   0  0  0  0  0  0  0  0  0  0  0  0
   -5.8082  -34.9977  -44.2990 C   0  0  0  0  0  0  0  0  0  0  0  0
   -6.9750  -35.6078  -44.6714 N   0  0  0  0  0  0  0  0  0  0  0  0
   -4.9489  -34.5873  -45.2323 N   0  0  0  0  0  0  0  0  0  0  0  0
   -3.7786  -33.9774  -44.8965 C   0  0  0  0  0  0  0  0  0  0  0  0
   -3.4682  -33.7772  -43.5335 C   0  0  0  0  0  0  0  0  0  0  0  0
   -4.3995  -34.2191  -42.5551 C   0  0  0  0  0  0  0  0  0  0  0  0
   -4.1777  -34.0656  -41.3794 O   0  0  0  0  0  0  0  0  0  0  0  0
   -2.1679  -33.1156  -43.4965 C   0  0  0  0  0  0  0  0  0  0  0  0
   -1.7804  -32.9521  -44.7739 C   0  0  0  0  0  0  0  0  0  0  0  0
   -2.7420  -33.4669  -45.6177 N   0  0  0  0  0  0  0  0  0  0  0  0
   -1.4057  -32.7045  -42.2628 C   0  0  0  0  0  0  0  0  0  0  0  0
   -1.0716  -33.9114  -41.4798 N   0  0  0  0  0  0  0  0  0  0  0  0
  1  2  1  0  0  0  0
  1  7  1  0  0  0  0
  2  3  1  0  0  0  0
  2  4  2  0  0  0  0
  4  5  1  0  0  0  0
  5  6  2  0  0  0  0
  5 11  1  0  0  0  0
  6  7  1  0  0  0  0
  6  9  1  0  0  0  0
  7  8  2  0  0  0  0
  9 10  2  0  0  0  0
  9 12  1  0  0  0  0
 10 11  1  0  0  0  0
 12 13  1  0  0  0  0
M  END
>  <CHROM.1>
62.66424498,-3.72868630,-34.02832563,-43.58106728,2.81924277,-0.42011234
-1.49782915

>  <Name>
ligand

>  <RI>
0

>  <Rbt.Current_Directory>
/home/itssahil/PROJECTS/Mol_Feturizer/Test_systems_manuscript/rnas/3fu2

>  <Rbt.Executable>
rbdock ($Id: //depot/dev/client3/rdock/2013.1/src/exe/rbdock.cxx#4 $)

>  <Rbt.Library>
libRbt.so (2013.1, Build901 2013/11/27)

>  <Rbt.Parameter_File>
/export/apps/rDock/src/rDock_2013.1_src/data/scripts/dock_solv.prm

>  <Rbt.Receptor>
prm/pocket_docking_2.prm

>  <SCORE>
-16.2538

>  <SCORE.INTER>
-16.4314

>  <SCORE.INTER.CONST>
1

>  <SCORE.INTER.POLAR>
0

>  <SCORE.INTER.ROT>
1

>  <SCORE.INTER.SOLV>
20.2914

>  <SCORE.INTER.VDW>
-21.9847

>  <SCORE.INTER.norm>
-1.26395

>  <SCORE.INTRA>
0.17754

>  <SCORE.INTRA.DIHEDRAL>
0.0111522

>  <SCORE.INTRA.DIHEDRAL.0>
1.66609

>  <SCORE.INTRA.POLAR>
0

>  <SCORE.INTRA.POLAR.0>
0

>  <SCORE.INTRA.REPUL>
0

>  <SCORE.INTRA.REPUL.0>
0

>  <SCORE.INTRA.SOLV>
0.403031

>  <SCORE.INTRA.SOLV.lig_0>
-45.868

>  <SCORE.INTRA.VDW>
-0.0295515

>  <SCORE.INTRA.VDW.0>
-0.397919

>  <SCORE.INTRA.norm>
0.0136569

>  <SCORE.RESTR>
0

>  <SCORE.RESTR.CAVITY>
0

>  <SCORE.RESTR.norm>
0

>  <SCORE.SYSTEM>
0

>  <SCORE.SYSTEM.CONST>
0

>  <SCORE.SYSTEM.DIHEDRAL>
0

>  <SCORE.SYSTEM.SOLV>
0

>  <SCORE.SYSTEM.norm>
0

>  <SCORE.heavy>
13

>  <SCORE.norm>
-1.25029

>  <RMSD>
2.819

$$$$
ligand
 OpenBabel02271912143D
libRbt.so/2013.1/901 2013/11/27
 13 14  0  0  0  0  0  0  0  0999 V2000
   -5.6692  -34.8634  -42.9574 N   0  0  0  0  0  0  0  0  0  0  0  0
   -5.9031  -35.0475  -44.2939 C   0  0  0  0  0  0  0  0  0  0  0  0
   -7.0659  -35.6542  -44.6839 N   0  0  0  0  0  0  0  0  0  0  0  0
   -5.0247  -34.6475  -45.2138 N   0  0  0  0  0  0  0  0  0  0  0  0
   -3.8577  -34.0412  -44.8604 C   0  0  0  0  0  0  0  0  0  0  0  0
   -3.5715  -33.8336  -43.4932 C   0  0  0  0  0  0  0  0  0  0  0  0
   -4.5229  -34.2645  -42.5293 C   0  0  0  0  0  0  0  0  0  0  0  0
   -4.3221  -34.1044  -41.3508 O   0  0  0  0  0  0  0  0  0  0  0  0
   -2.2687  -33.1782  -43.4363 C   0  0  0  0  0  0  0  0  0  0  0  0
   -1.8569  -33.0250  -44.7074 C   0  0  0  0  0  0  0  0  0  0  0  0
   -2.8054  -33.5406  -45.5655 N   0  0  0  0  0  0  0  0  0  0  0  0
   -1.5274  -32.7628  -42.1915 C   0  0  0  0  0  0  0  0  0  0  0  0
   -1.1864  -33.9690  -41.4102 N   0  0  0  0  0  0  0  0  0  0  0  0
  1  2  1  0  0  0  0
  1  7  1  0  0  0  0
  2  3  1  0  0  0  0
  2  4  2  0  0  0  0
  4  5  1  0  0  0  0
  5  6  2  0  0  0  0
  5 11  1  0  0  0  0
  6  7  1  0  0  0  0
  6  9  1  0  0  0  0
  7  8  2  0  0  0  0
  9 10  2  0  0  0  0
  9 12  1  0  0  0  0
 10 11  1  0  0  0  0
 12 13  1  0  0  0  0
M  END
>  <CHROM.1>
63.96380069,-3.83009391,-34.08397730,-43.54517095,2.80059918,-0.41513567
-1.51231137

>  <Name>
ligand

>  <RI>
0

>  <Rbt.Current_Directory>
/home/itssahil/PROJECTS/Mol_Feturizer/Test_systems_manuscript/rnas/3fu2

>  <Rbt.Executable>
rbdock ($Id: //depot/dev/client3/rdock/2013.1/src/exe/rbdock.cxx#4 $)

>  <Rbt.Library>
libRbt.so (2013.1, Build901 2013/11/27)

>  <Rbt.Parameter_File>
/export/apps/rDock/src/rDock_2013.1_src/data/scripts/dock_solv.prm

>  <Rbt.Receptor>
prm/pocket_docking_4.prm

>  <SCORE>
-16.3316

>  <SCORE.INTER>
-16.4906

>  <SCORE.INTER.CONST>
1

>  <SCORE.INTER.POLAR>
0

>  <SCORE.INTER.ROT>
1

>  <SCORE.INTER.SOLV>
20.3737

>  <SCORE.INTER.VDW>
-22.0516

>  <SCORE.INTER.norm>
-1.26851

>  <SCORE.INTRA>
0.15903

>  <SCORE.INTRA.DIHEDRAL>
0.00992157

>  <SCORE.INTRA.DIHEDRAL.0>
1.66609

>  <SCORE.INTRA.POLAR>
0

>  <SCORE.INTRA.POLAR.0>
0

>  <SCORE.INTRA.REPUL>
0

>  <SCORE.INTRA.REPUL.0>
0

>  <SCORE.INTRA.SOLV>
0.364738

>  <SCORE.INTRA.SOLV.lig_0>
-45.868

>  <SCORE.INTRA.VDW>
-0.0283

>  <SCORE.INTRA.VDW.0>
-0.397919

>  <SCORE.INTRA.norm>
0.0122331

>  <SCORE.RESTR>
0

>  <SCORE.RESTR.CAVITY>
0

>  <SCORE.RESTR.norm>
0

>  <SCORE.SYSTEM>
0

>  <SCORE.SYSTEM.CONST>
0

>  <SCORE.SYSTEM.DIHEDRAL>
0

>  <SCORE.SYSTEM.SOLV>
0

>  <SCORE.SYSTEM.norm>
0

>  <SCORE.heavy>
13

>  <SCORE.norm>
-1.25628

>  <RMSD>
2.853

$$$$
ligand
 OpenBabel02271912143D
libRbt.so/2013.1/901 2013/11/27
 13 14  0  0  0  0  0  0  0  0999 V2000
   -5.6638  -34.8661  -42.9383 N   0  0  0  0  0  0  0  0  0  0  0  0
   -5.9148  -35.0348  -44.2738 C   0  0  0  0  0  0  0  0  0  0  0  0
   -7.0804  -35.6411  -44.6557 N   0  0  0  0  0  0  0  0  0  0  0  0
   -5.0502  -34.6202  -45.2002 N   0  0  0  0  0  0  0  0  0  0  0  0
   -3.8807  -34.0138  -44.8549 C   0  0  0  0  0  0  0  0  0  0  0  0
   -3.5772  -33.8218  -43.4892 C   0  0  0  0  0  0  0  0  0  0  0  0
   -4.5141  -34.2681  -42.5181 C   0  0  0  0  0  0  0  0  0  0  0  0
   -4.2982  -34.1216  -41.3405 O   0  0  0  0  0  0  0  0  0  0  0  0
   -2.2762  -33.1622  -43.4416 C   0  0  0  0  0  0  0  0  0  0  0  0
   -1.8819  -32.9920  -44.7160 C   0  0  0  0  0  0  0  0  0  0  0  0
   -2.8398  -33.5006  -45.5678 N   0  0  0  0  0  0  0  0  0  0  0  0
   -1.5199  -32.7592  -42.2017 C   0  0  0  0  0  0  0  0  0  0  0  0
   -1.1931  -33.9709  -41.4229 N   0  0  0  0  0  0  0  0  0  0  0  0
  1  2  1  0  0  0  0
  1  7  1  0  0  0  0
  2  3  1  0  0  0  0
  2  4  2  0  0  0  0
  4  5  1  0  0  0  0
  5  6  2  0  0  0  0
  5 11  1  0  0  0  0
  6  7  1  0  0  0  0
  6  9  1  0  0  0  0
  7  8  2  0  0  0  0
  9 10  2  0  0  0  0
  9 12  1  0  0  0  0
 10 11  1  0  0  0  0
 12 13  1  0  0  0  0
M  END
>  <CHROM.1>
62.58480916,-3.83787329,-34.07232028,-43.53946671,2.81336543,-0.41923077
-1.49446458

>  <Name>
ligand

>  <RI>
0

>  <Rbt.Current_Directory>
/home/itssahil/PROJECTS/Mol_Feturizer/Test_systems_manuscript/rnas/3fu2

>  <Rbt.Executable>
rbdock ($Id: //depot/dev/client3/rdock/2013.1/src/exe/rbdock.cxx#4 $)

>  <Rbt.Library>
libRbt.so (2013.1, Build901 2013/11/27)

>  <Rbt.Parameter_File>
/export/apps/rDock/src/rDock_2013.1_src/data/scripts/dock_solv.prm

>  <Rbt.Receptor>
prm/pocket_docking_5.prm

>  <SCORE>
-16.3266

>  <SCORE.INTER>
-16.5052

>  <SCORE.INTER.CONST>
1

>  <SCORE.INTER.POLAR>
0

>  <SCORE.INTER.ROT>
1

>  <SCORE.INTER.SOLV>
20.4026

>  <SCORE.INTER.VDW>
-22.071

>  <SCORE.INTER.norm>
-1.26963

>  <SCORE.INTRA>
0.178688

>  <SCORE.INTRA.DIHEDRAL>
0.0112279

>  <SCORE.INTRA.DIHEDRAL.0>
1.66609

>  <SCORE.INTRA.POLAR>
0

>  <SCORE.INTRA.POLAR.0>
0

>  <SCORE.INTRA.REPUL>
0

>  <SCORE.INTRA.REPUL.0>
0

>  <SCORE.INTRA.SOLV>
0.405366

>  <SCORE.INTRA.SOLV.lig_0>
-45.868

>  <SCORE.INTRA.VDW>
-0.0296089

>  <SCORE.INTRA.VDW.0>
-0.397919

>  <SCORE.INTRA.norm>
0.0137452

>  <SCORE.RESTR>
0

>  <SCORE.RESTR.CAVITY>
0

>  <SCORE.RESTR.norm>
0

>  <SCORE.SYSTEM>
0

>  <SCORE.SYSTEM.CONST>
0

>  <SCORE.SYSTEM.DIHEDRAL>
0

>  <SCORE.SYSTEM.SOLV>
0

>  <SCORE.SYSTEM.norm>
0

>  <SCORE.heavy>
13

>  <SCORE.norm>
-1.25589

>  <RMSD>
2.854

$$$$
ligand
 OpenBabel02271912143D
libRbt.so/2013.1/901 2013/11/27
 13 14  0  0  0  0  0  0  0  0999 V2000
   -5.6694  -34.8783  -42.9509 N   0  0  0  0  0  0  0  0  0  0  0  0
   -5.9062  -35.0595  -44.2873 C   0  0  0  0  0  0  0  0  0  0  0  0
   -7.0691  -35.6666  -44.6761 N   0  0  0  0  0  0  0  0  0  0  0  0
   -5.0304  -34.6562  -45.2083 N   0  0  0  0  0  0  0  0  0  0  0  0
   -3.8633  -34.0494  -44.8561 C   0  0  0  0  0  0  0  0  0  0  0  0
   -3.5742  -33.8446  -43.4891 C   0  0  0  0  0  0  0  0  0  0  0  0
   -4.5228  -34.2791  -42.5240 C   0  0  0  0  0  0  0  0  0  0  0  0
   -4.3195  -34.1215  -41.3456 O   0  0  0  0  0  0  0  0  0  0  0  0
   -2.2721  -33.1879  -43.4337 C   0  0  0  0  0  0  0  0  0  0  0  0
   -1.8634  -33.0311  -44.7053 C   0  0  0  0  0  0  0  0  0  0  0  0
   -2.8133  -33.5457  -45.5625 N   0  0  0  0  0  0  0  0  0  0  0  0
   -1.5284  -32.7745  -42.1896 C   0  0  0  0  0  0  0  0  0  0  0  0
   -1.1914  -33.9815  -41.4078 N   0  0  0  0  0  0  0  0  0  0  0  0
  1  2  1  0  0  0  0
  1  7  1  0  0  0  0
  2  3  1  0  0  0  0
  2  4  2  0  0  0  0
  4  5  1  0  0  0  0
  5  6  2  0  0  0  0
  5 11  1  0  0  0  0
  6  7  1  0  0  0  0
  6  9  1  0  0  0  0
  7  8  2  0  0  0  0
  9 10  2  0  0  0  0
  9 12  1  0  0  0  0
 10 11  1  0  0  0  0
 12 13  1  0  0  0  0
M  END
>  <CHROM.1>
63.61898881,-3.83318703,-34.09518727,-43.54075047,2.80270872,-0.41651760
-1.50893570

>  <Name>
ligand

>  <RI>
0

>  <Rbt.Current_Directory>
/home/itssahil/PROJECTS/Mol_Feturizer/Test_systems_manuscript/rnas/3fu2

>  <Rbt.Executable>
rbdock ($Id: //depot/dev/client3/rdock/2013.1/src/exe/rbdock.cxx#4 $)

>  <Rbt.Library>
libRbt.so (2013.1, Build901 2013/11/27)

>  <Rbt.Parameter_File>
/export/apps/rDock/src/rDock_2013.1_src/data/scripts/dock_solv.prm

>  <Rbt.Receptor>
prm/blind_docking_100.prm

>  <SCORE>
-16.3267

>  <SCORE.INTER>
-16.4906

>  <SCORE.INTER.CONST>
1

>  <SCORE.INTER.POLAR>
0

>  <SCORE.INTER.ROT>
1

>  <SCORE.INTER.SOLV>
20.3869

>  <SCORE.INTER.VDW>
-22.056

>  <SCORE.INTER.norm>
-1.26851

>  <SCORE.INTRA>
0.163894

>  <SCORE.INTRA.DIHEDRAL>
0.0102465

>  <SCORE.INTRA.DIHEDRAL.0>
1.66609

>  <SCORE.INTRA.POLAR>
0

>  <SCORE.INTRA.POLAR.0>
0

>  <SCORE.INTRA.REPUL>
0

>  <SCORE.INTRA.REPUL.0>
0

>  <SCORE.INTRA.SOLV>
0.374916

>  <SCORE.INTRA.SOLV.lig_0>
-45.868

>  <SCORE.INTRA.VDW>
-0.028687

>  <SCORE.INTRA.VDW.0>
-0.397919

>  <SCORE.INTRA.norm>
0.0126073

>  <SCORE.RESTR>
0

>  <SCORE.RESTR.CAVITY>
0

>  <SCORE.RESTR.norm>
0

>  <SCORE.SYSTEM>
0

>  <SCORE.SYSTEM.CONST>
0

>  <SCORE.SYSTEM.DIHEDRAL>
0

>  <SCORE.SYSTEM.SOLV>
0

>  <SCORE.SYSTEM.norm>
0

>  <SCORE.heavy>
13

>  <SCORE.norm>
-1.2559

>  <RMSD>
2.856

$$$$
ligand
 OpenBabel02271912143D
libRbt.so/2013.1/901 2013/11/27
 13 14  0  0  0  0  0  0  0  0999 V2000
   -5.6829  -34.8849  -42.9461 N   0  0  0  0  0  0  0  0  0  0  0  0
   -5.9078  -35.0674  -44.2843 C   0  0  0  0  0  0  0  0  0  0  0  0
   -7.0695  -35.6703  -44.6831 N   0  0  0  0  0  0  0  0  0  0  0  0
   -5.0216  -34.6693  -45.1976 N   0  0  0  0  0  0  0  0  0  0  0  0
   -3.8553  -34.0667  -44.8354 C   0  0  0  0  0  0  0  0  0  0  0  0
   -3.5784  -33.8609  -43.4661 C   0  0  0  0  0  0  0  0  0  0  0  0
   -4.5379  -34.2897  -42.5093 C   0  0  0  0  0  0  0  0  0  0  0  0
   -4.3451  -34.1309  -41.3293 O   0  0  0  0  0  0  0  0  0  0  0  0
   -2.2741  -33.2094  -43.3994 C   0  0  0  0  0  0  0  0  0  0  0  0
   -1.8527  -33.0566  -44.6673 C   0  0  0  0  0  0  0  0  0  0  0  0
   -2.7965  -33.5687  -45.5326 N   0  0  0  0  0  0  0  0  0  0  0  0
   -1.5405  -32.7971  -42.1490 C   0  0  0  0  0  0  0  0  0  0  0  0
   -1.2037  -34.0052  -41.3688 N   0  0  0  0  0  0  0  0  0  0  0  0
  1  2  1  0  0  0  0
  1  7  1  0  0  0  0
  2  3  1  0  0  0  0
  2  4  2  0  0  0  0
  4  5  1  0  0  0  0
  5  6  2  0  0  0  0
  5 11  1  0  0  0  0
  6  7  1  0  0  0  0
  6  9  1  0  0  0  0
  7  8  2  0  0  0  0
  9 10  2  0  0  0  0
  9 12  1  0  0  0  0
 10 11  1  0  0  0  0
 12 13  1  0  0  0  0
M  END
>  <CHROM.1>
64.19704628,-3.83689493,-34.11050461,-43.52029978,2.79292366,-0.41237710
-1.51478161

>  <Name>
ligand

>  <RI>
0

>  <Rbt.Current_Directory>
/home/itssahil/PROJECTS/Mol_Feturizer/Test_systems_manuscript/rnas/3fu2

>  <Rbt.Executable>
rbdock ($Id: //depot/dev/client3/rdock/2013.1/src/exe/rbdock.cxx#4 $)

>  <Rbt.Library>
libRbt.so (2013.1, Build901 2013/11/27)

>  <Rbt.Parameter_File>
/export/apps/rDock/src/rDock_2013.1_src/data/scripts/dock_solv.prm

>  <Rbt.Receptor>
prm/pocket_docking_3.prm

>  <SCORE>
-16.2708

>  <SCORE.INTER>
-16.4266

>  <SCORE.INTER.CONST>
1

>  <SCORE.INTER.POLAR>
0

>  <SCORE.INTER.ROT>
1

>  <SCORE.INTER.SOLV>
20.3674

>  <SCORE.INTER.VDW>
-22.0069

>  <SCORE.INTER.norm>
-1.26358

>  <SCORE.INTRA>
0.155757

>  <SCORE.INTRA.DIHEDRAL>
0.00970247

>  <SCORE.INTRA.DIHEDRAL.0>
1.66609

>  <SCORE.INTRA.POLAR>
0

>  <SCORE.INTRA.POLAR.0>
0

>  <SCORE.INTRA.REPUL>
0

>  <SCORE.INTRA.REPUL.0>
0

>  <SCORE.INTRA.SOLV>
0.357846

>  <SCORE.INTRA.SOLV.lig_0>
-45.868

>  <SCORE.INTRA.VDW>
-0.0280173

>  <SCORE.INTRA.VDW.0>
-0.397919

>  <SCORE.INTRA.norm>
0.0119813

>  <SCORE.RESTR>
0

>  <SCORE.RESTR.CAVITY>
0

>  <SCORE.RESTR.norm>
0

>  <SCORE.SYSTEM>
0

>  <SCORE.SYSTEM.CONST>
0

>  <SCORE.SYSTEM.DIHEDRAL>
0

>  <SCORE.SYSTEM.SOLV>
0

>  <SCORE.SYSTEM.norm>
0

>  <SCORE.heavy>
13

>  <SCORE.norm>
-1.2516

>  <RMSD>
2.858

$$$$
ligand
 OpenBabel02271912143D
libRbt.so/2013.1/901 2013/11/27
 13 14  0  0  0  0  0  0  0  0999 V2000
   -1.3400  -32.7756  -44.2099 N   0  0  0  0  0  0  0  0  0  0  0  0
   -0.8405  -32.4281  -42.9833 C   0  0  0  0  0  0  0  0  0  0  0  0
    0.3470  -31.7512  -42.9210 N   0  0  0  0  0  0  0  0  0  0  0  0
   -1.4872  -32.7346  -41.8583 N   0  0  0  0  0  0  0  0  0  0  0  0
   -2.6705  -33.4081  -41.8842 C   0  0  0  0  0  0  0  0  0  0  0  0
   -3.2226  -33.7906  -43.1264 C   0  0  0  0  0  0  0  0  0  0  0  0
   -2.5187  -33.4510  -44.3135 C   0  0  0  0  0  0  0  0  0  0  0  0
   -2.9544  -33.7543  -45.3966 O   0  0  0  0  0  0  0  0  0  0  0  0
   -4.4696  -34.4883  -42.8296 C   0  0  0  0  0  0  0  0  0  0  0  0
   -4.6046  -34.4870  -41.4916 C   0  0  0  0  0  0  0  0  0  0  0  0
   -3.5291  -33.8408  -40.9194 N   0  0  0  0  0  0  0  0  0  0  0  0
   -5.4161  -35.0986  -43.8314 C   0  0  0  0  0  0  0  0  0  0  0  0
   -5.6344  -34.1390  -44.9328 N   0  0  0  0  0  0  0  0  0  0  0  0
  1  2  1  0  0  0  0
  1  7  1  0  0  0  0
  2  3  1  0  0  0  0
  2  4  2  0  0  0  0
  4  5  1  0  0  0  0
  5  6  2  0  0  0  0
  5 11  1  0  0  0  0
  6  7  1  0  0  0  0
  6  9  1  0  0  0  0
  7  8  2  0  0  0  0
  9 10  2  0  0  0  0
  9 12  1  0  0  0  0
 10 11  1  0  0  0  0
 12 13  1  0  0  0  0
M  END
>  <CHROM.1>
-45.83459221,-2.94231752,-33.54358122,-43.18192527,-0.13409301,-0.46834764
-1.54600191

>  <Name>
ligand

>  <RI>
0

>  <Rbt.Current_Directory>
/home/itssahil/PROJECTS/Mol_Feturizer/Test_systems_manuscript/rnas/3fu2

>  <Rbt.Executable>
rbdock ($Id: //depot/dev/client3/rdock/2013.1/src/exe/rbdock.cxx#4 $)

>  <Rbt.Library>
libRbt.so (2013.1, Build901 2013/11/27)

>  <Rbt.Parameter_File>
/export/apps/rDock/src/rDock_2013.1_src/data/scripts/dock_solv.prm

>  <Rbt.Receptor>
prm/pocket_docking_7.prm

>  <SCORE>
-14.5489

>  <SCORE.INTER>
-15.0589

>  <SCORE.INTER.CONST>
1

>  <SCORE.INTER.POLAR>
0

>  <SCORE.INTER.ROT>
1

>  <SCORE.INTER.SOLV>
17.0808

>  <SCORE.INTER.VDW>
-19.9995

>  <SCORE.INTER.norm>
-1.15838

>  <SCORE.INTRA>
0.510018

>  <SCORE.INTRA.DIHEDRAL>
0.0013312

>  <SCORE.INTRA.DIHEDRAL.0>
1.66609

>  <SCORE.INTRA.POLAR>
0

>  <SCORE.INTRA.POLAR.0>
0

>  <SCORE.INTRA.REPUL>
0

>  <SCORE.INTRA.REPUL.0>
0

>  <SCORE.INTRA.SOLV>
0.890849

>  <SCORE.INTRA.SOLV.lig_0>
-45.868

>  <SCORE.INTRA.VDW>
0.0639275

>  <SCORE.INTRA.VDW.0>
-0.397919

>  <SCORE.INTRA.norm>
0.0392321

>  <SCORE.RESTR>
0

>  <SCORE.RESTR.CAVITY>
0

>  <SCORE.RESTR.norm>
0

>  <SCORE.SYSTEM>
0

>  <SCORE.SYSTEM.CONST>
0

>  <SCORE.SYSTEM.DIHEDRAL>
0

>  <SCORE.SYSTEM.SOLV>
0

>  <SCORE.SYSTEM.norm>
0

>  <SCORE.heavy>
13

>  <SCORE.norm>
-1.11915

>  <RMSD>
3.954

$$$$
ligand
 OpenBabel02271912143D
libRbt.so/2013.1/901 2013/11/27
 13 14  0  0  0  0  0  0  0  0999 V2000
   -1.0187  -32.6387  -44.2592 N   0  0  0  0  0  0  0  0  0  0  0  0
   -0.6601  -32.4891  -42.9463 C   0  0  0  0  0  0  0  0  0  0  0  0
    0.5640  -31.9529  -42.6525 N   0  0  0  0  0  0  0  0  0  0  0  0
   -1.4776  -32.8528  -41.9578 N   0  0  0  0  0  0  0  0  0  0  0  0
   -2.7023  -33.3901  -42.2147 C   0  0  0  0  0  0  0  0  0  0  0  0
   -3.1136  -33.5670  -43.5540 C   0  0  0  0  0  0  0  0  0  0  0  0
   -2.2283  -33.1695  -44.5924 C   0  0  0  0  0  0  0  0  0  0  0  0
   -2.5394  -33.2986  -45.7506 O   0  0  0  0  0  0  0  0  0  0  0  0
   -4.4469  -34.1586  -43.5044 C   0  0  0  0  0  0  0  0  0  0  0  0
   -4.7606  -34.2968  -42.2040 C   0  0  0  0  0  0  0  0  0  0  0  0
   -3.7185  -33.8378  -41.4261 N   0  0  0  0  0  0  0  0  0  0  0  0
   -5.3004  -34.5465  -44.6845 C   0  0  0  0  0  0  0  0  0  0  0  0
   -5.9681  -35.8313  -44.3932 N   0  0  0  0  0  0  0  0  0  0  0  0
  1  2  1  0  0  0  0
  1  7  1  0  0  0  0
  2  3  1  0  0  0  0
  2  4  2  0  0  0  0
  4  5  1  0  0  0  0
  5  6  2  0  0  0  0
  5 11  1  0  0  0  0
  6  7  1  0  0  0  0
  6  9  1  0  0  0  0
  7  8  2  0  0  0  0
  9 10  2  0  0  0  0
  9 12  1  0  0  0  0
 10 11  1  0  0  0  0
 12 13  1  0  0  0  0
M  END
>  <CHROM.1>
139.59675223,-2.86334537,-33.54006536,-43.43850176,-0.18071952,-0.47701709
-1.59616974

>  <Name>
ligand

>  <RI>
0

>  <Rbt.Current_Directory>
/home/itssahil/PROJECTS/Mol_Feturizer/Test_systems_manuscript/rnas/3fu2

>  <Rbt.Executable>
rbdock ($Id: //depot/dev/client3/rdock/2013.1/src/exe/rbdock.cxx#4 $)

>  <Rbt.Library>
libRbt.so (2013.1, Build901 2013/11/27)

>  <Rbt.Parameter_File>
/export/apps/rDock/src/rDock_2013.1_src/data/scripts/dock_solv.prm

>  <Rbt.Receptor>
prm/pocket_docking_3.prm

>  <SCORE>
-16.075

>  <SCORE.INTER>
-15.8031

>  <SCORE.INTER.CONST>
1

>  <SCORE.INTER.POLAR>
0

>  <SCORE.INTER.ROT>
1

>  <SCORE.INTER.SOLV>
17.3383

>  <SCORE.INTER.VDW>
-20.5815

>  <SCORE.INTER.norm>
-1.21563

>  <SCORE.INTRA>
-0.271869

>  <SCORE.INTRA.DIHEDRAL>
0.0297529

>  <SCORE.INTRA.DIHEDRAL.0>
1.66609

>  <SCORE.INTRA.POLAR>
0

>  <SCORE.INTRA.POLAR.0>
0

>  <SCORE.INTRA.REPUL>
0

>  <SCORE.INTRA.REPUL.0>
0

>  <SCORE.INTRA.SOLV>
-0.987188

>  <SCORE.INTRA.SOLV.lig_0>
-45.868

>  <SCORE.INTRA.VDW>
0.206848

>  <SCORE.INTRA.VDW.0>
-0.397919

>  <SCORE.INTRA.norm>
-0.020913

>  <SCORE.RESTR>
0

>  <SCORE.RESTR.CAVITY>
0

>  <SCORE.RESTR.norm>
0

>  <SCORE.SYSTEM>
0

>  <SCORE.SYSTEM.CONST>
0

>  <SCORE.SYSTEM.DIHEDRAL>
0

>  <SCORE.SYSTEM.SOLV>
0

>  <SCORE.SYSTEM.norm>
0

>  <SCORE.heavy>
13

>  <SCORE.norm>
-1.23654

>  <RMSD>
4.152

$$$$
ligand
 OpenBabel02271912143D
libRbt.so/2013.1/901 2013/11/27
 13 14  0  0  0  0  0  0  0  0999 V2000
   -1.0335  -32.6094  -44.2661 N   0  0  0  0  0  0  0  0  0  0  0  0
   -0.6613  -32.4721  -42.9555 C   0  0  0  0  0  0  0  0  0  0  0  0
    0.5604  -31.9267  -42.6691 N   0  0  0  0  0  0  0  0  0  0  0  0
   -1.4636  -32.8564  -41.9623 N   0  0  0  0  0  0  0  0  0  0  0  0
   -2.6854  -33.4035  -42.2120 C   0  0  0  0  0  0  0  0  0  0  0  0
   -3.1104  -33.5683  -43.5486 C   0  0  0  0  0  0  0  0  0  0  0  0
   -2.2413  -33.1488  -44.5919 C   0  0  0  0  0  0  0  0  0  0  0  0
   -2.5643  -33.2670  -45.7480 O   0  0  0  0  0  0  0  0  0  0  0  0
   -4.4367  -34.1746  -43.4910 C   0  0  0  0  0  0  0  0  0  0  0  0
   -4.7340  -34.3319  -42.1889 C   0  0  0  0  0  0  0  0  0  0  0  0
   -3.6878  -33.8715  -41.4173 N   0  0  0  0  0  0  0  0  0  0  0  0
   -5.2997  -34.5569  -44.6661 C   0  0  0  0  0  0  0  0  0  0  0  0
   -5.9605  -35.8460  -44.3778 N   0  0  0  0  0  0  0  0  0  0  0  0
  1  2  1  0  0  0  0
  1  7  1  0  0  0  0
  2  3  1  0  0  0  0
  2  4  2  0  0  0  0
  4  5  1  0  0  0  0
  5  6  2  0  0  0  0
  5 11  1  0  0  0  0
  6  7  1  0  0  0  0
  6  9  1  0  0  0  0
  7  8  2  0  0  0  0
  9 10  2  0  0  0  0
  9 12  1  0  0  0  0
 10 11  1  0  0  0  0
 12 13  1  0  0  0  0
M  END
>  <CHROM.1>
140.12260985,-2.85986544,-33.53965629,-43.43513081,-0.16710506,-0.48709322
-1.57743158

>  <Name>
ligand

>  <RI>
0

>  <Rbt.Current_Directory>
/home/itssahil/PROJECTS/Mol_Feturizer/Test_systems_manuscript/rnas/3fu2

>  <Rbt.Executable>
rbdock ($Id: //depot/dev/client3/rdock/2013.1/src/exe/rbdock.cxx#4 $)

>  <Rbt.Library>
libRbt.so (2013.1, Build901 2013/11/27)

>  <Rbt.Parameter_File>
/export/apps/rDock/src/rDock_2013.1_src/data/scripts/dock_solv.prm

>  <Rbt.Receptor>
prm/pocket_docking_7.prm

>  <SCORE>
-16.0302

>  <SCORE.INTER>
-15.761

>  <SCORE.INTER.CONST>
1

>  <SCORE.INTER.POLAR>
0

>  <SCORE.INTER.ROT>
1

>  <SCORE.INTER.SOLV>
17.3231

>  <SCORE.INTER.VDW>
-20.5483

>  <SCORE.INTER.norm>
-1.21238

>  <SCORE.INTRA>
-0.26921

>  <SCORE.INTRA.DIHEDRAL>
0.0300046

>  <SCORE.INTRA.DIHEDRAL.0>
1.66609

>  <SCORE.INTRA.POLAR>
0

>  <SCORE.INTRA.POLAR.0>
0

>  <SCORE.INTRA.REPUL>
0

>  <SCORE.INTRA.REPUL.0>
0

>  <SCORE.INTRA.SOLV>
-0.987007

>  <SCORE.INTRA.SOLV.lig_0>
-45.868

>  <SCORE.INTRA.VDW>
0.209291

>  <SCORE.INTRA.VDW.0>
-0.397919

>  <SCORE.INTRA.norm>
-0.0207085

>  <SCORE.RESTR>
0

>  <SCORE.RESTR.CAVITY>
0

>  <SCORE.RESTR.norm>
0

>  <SCORE.SYSTEM>
0

>  <SCORE.SYSTEM.CONST>
0

>  <SCORE.SYSTEM.DIHEDRAL>
0

>  <SCORE.SYSTEM.SOLV>
0

>  <SCORE.SYSTEM.norm>
0

>  <SCORE.heavy>
13

>  <SCORE.norm>
-1.23309

>  <RMSD>
4.152

$$$$
ligand
 OpenBabel02271912143D
libRbt.so/2013.1/901 2013/11/27
 13 14  0  0  0  0  0  0  0  0999 V2000
   -1.0177  -32.6403  -44.2576 N   0  0  0  0  0  0  0  0  0  0  0  0
   -0.6624  -32.4855  -42.9444 C   0  0  0  0  0  0  0  0  0  0  0  0
    0.5608  -31.9479  -42.6495 N   0  0  0  0  0  0  0  0  0  0  0  0
   -1.4823  -32.8458  -41.9565 N   0  0  0  0  0  0  0  0  0  0  0  0
   -2.7061  -33.3845  -42.2146 C   0  0  0  0  0  0  0  0  0  0  0  0
   -3.1141  -33.5665  -43.5542 C   0  0  0  0  0  0  0  0  0  0  0  0
   -2.2263  -33.1727  -44.5918 C   0  0  0  0  0  0  0  0  0  0  0  0
   -2.5344  -33.3063  -45.7503 O   0  0  0  0  0  0  0  0  0  0  0  0
   -4.4472  -34.1585  -43.5056 C   0  0  0  0  0  0  0  0  0  0  0  0
   -4.7642  -34.2918  -42.2055 C   0  0  0  0  0  0  0  0  0  0  0  0
   -3.7242  -33.8295  -41.4268 N   0  0  0  0  0  0  0  0  0  0  0  0
   -5.2976  -34.5511  -44.6865 C   0  0  0  0  0  0  0  0  0  0  0  0
   -5.9697  -35.8325  -44.3899 N   0  0  0  0  0  0  0  0  0  0  0  0
  1  2  1  0  0  0  0
  1  7  1  0  0  0  0
  2  3  1  0  0  0  0
  2  4  2  0  0  0  0
  4  5  1  0  0  0  0
  5  6  2  0  0  0  0
  5 11  1  0  0  0  0
  6  7  1  0  0  0  0
  6  9  1  0  0  0  0
  7  8  2  0  0  0  0
  9 10  2  0  0  0  0
  9 12  1  0  0  0  0
 10 11  1  0  0  0  0
 12 13  1  0  0  0  0
M  END
>  <CHROM.1>
139.80910650,-2.86442321,-33.53891775,-43.43797862,-0.18321474,-0.47703106
-1.60105354

>  <Name>
ligand

>  <RI>
0

>  <Rbt.Current_Directory>
/home/itssahil/PROJECTS/Mol_Feturizer/Test_systems_manuscript/rnas/3fu2

>  <Rbt.Executable>
rbdock ($Id: //depot/dev/client3/rdock/2013.1/src/exe/rbdock.cxx#4 $)

>  <Rbt.Library>
libRbt.so (2013.1, Build901 2013/11/27)

>  <Rbt.Parameter_File>
/export/apps/rDock/src/rDock_2013.1_src/data/scripts/dock_solv.prm

>  <Rbt.Receptor>
prm/blind_docking_60.prm

>  <SCORE>
-16.0795

>  <SCORE.INTER>
-15.8087

>  <SCORE.INTER.CONST>
1

>  <SCORE.INTER.POLAR>
0

>  <SCORE.INTER.ROT>
1

>  <SCORE.INTER.SOLV>
17.3341

>  <SCORE.INTER.VDW>
-20.5838

>  <SCORE.INTER.norm>
-1.21605

>  <SCORE.INTRA>
-0.270796

>  <SCORE.INTRA.DIHEDRAL>
0.029856

>  <SCORE.INTRA.DIHEDRAL.0>
1.66609

>  <SCORE.INTRA.POLAR>
0

>  <SCORE.INTRA.POLAR.0>
0

>  <SCORE.INTRA.REPUL>
0

>  <SCORE.INTRA.REPUL.0>
0

>  <SCORE.INTRA.SOLV>
-0.987115

>  <SCORE.INTRA.SOLV.lig_0>
-45.868

>  <SCORE.INTRA.VDW>
0.207833

>  <SCORE.INTRA.VDW.0>
-0.397919

>  <SCORE.INTRA.norm>
-0.0208305

>  <SCORE.RESTR>
0

>  <SCORE.RESTR.CAVITY>
0

>  <SCORE.RESTR.norm>
0

>  <SCORE.SYSTEM>
0

>  <SCORE.SYSTEM.CONST>
0

>  <SCORE.SYSTEM.DIHEDRAL>
0

>  <SCORE.SYSTEM.SOLV>
0

>  <SCORE.SYSTEM.norm>
0

>  <SCORE.heavy>
13

>  <SCORE.norm>
-1.23688

>  <RMSD>
4.153

$$$$
ligand
 OpenBabel02271912143D
libRbt.so/2013.1/901 2013/11/27
 13 14  0  0  0  0  0  0  0  0999 V2000
   -1.0089  -32.6233  -44.2457 N   0  0  0  0  0  0  0  0  0  0  0  0
   -0.6500  -32.4756  -42.9326 C   0  0  0  0  0  0  0  0  0  0  0  0
    0.5699  -31.9301  -42.6383 N   0  0  0  0  0  0  0  0  0  0  0  0
   -1.4631  -32.8500  -41.9445 N   0  0  0  0  0  0  0  0  0  0  0  0
   -2.6834  -33.3969  -42.2021 C   0  0  0  0  0  0  0  0  0  0  0  0
   -3.0950  -33.5721  -43.5415 C   0  0  0  0  0  0  0  0  0  0  0  0
   -2.2144  -33.1632  -44.5794 C   0  0  0  0  0  0  0  0  0  0  0  0
   -2.5258  -33.2905  -45.7377 O   0  0  0  0  0  0  0  0  0  0  0  0
   -4.4230  -34.1754  -43.4925 C   0  0  0  0  0  0  0  0  0  0  0  0
   -4.7339  -34.3212  -42.1922 C   0  0  0  0  0  0  0  0  0  0  0  0
   -3.6948  -33.8562  -41.4139 N   0  0  0  0  0  0  0  0  0  0  0  0
   -5.2746  -34.5660  -44.6731 C   0  0  0  0  0  0  0  0  0  0  0  0
   -5.9588  -35.8398  -44.3717 N   0  0  0  0  0  0  0  0  0  0  0  0
  1  2  1  0  0  0  0
  1  7  1  0  0  0  0
  2  3  1  0  0  0  0
  2  4  2  0  0  0  0
  4  5  1  0  0  0  0
  5  6  2  0  0  0  0
  5 11  1  0  0  0  0
  6  7  1  0  0  0  0
  6  9  1  0  0  0  0
  7  8  2  0  0  0  0
  9 10  2  0  0  0  0
  9 12  1  0  0  0  0
 10 11  1  0  0  0  0
 12 13  1  0  0  0  0
M  END
>  <CHROM.1>
141.07133961,-2.84703445,-33.54207297,-43.42503026,-0.17713529,-0.48393547
-1.59030860

>  <Name>
ligand

>  <RI>
0

>  <Rbt.Current_Directory>
/home/itssahil/PROJECTS/Mol_Feturizer/Test_systems_manuscript/rnas/3fu2

>  <Rbt.Executable>
rbdock ($Id: //depot/dev/client3/rdock/2013.1/src/exe/rbdock.cxx#4 $)

>  <Rbt.Library>
libRbt.so (2013.1, Build901 2013/11/27)

>  <Rbt.Parameter_File>
/export/apps/rDock/src/rDock_2013.1_src/data/scripts/dock_solv.prm

>  <Rbt.Receptor>
prm/pocket_docking_3.prm

>  <SCORE>
-16.0597

>  <SCORE.INTER>
-15.7953

>  <SCORE.INTER.CONST>
1

>  <SCORE.INTER.POLAR>
0

>  <SCORE.INTER.ROT>
1

>  <SCORE.INTER.SOLV>
17.2567

>  <SCORE.INTER.VDW>
-20.5491

>  <SCORE.INTER.norm>
-1.21503

>  <SCORE.INTRA>
-0.264399

>  <SCORE.INTRA.DIHEDRAL>
0.0304278

>  <SCORE.INTRA.DIHEDRAL.0>
1.66609

>  <SCORE.INTRA.POLAR>
0

>  <SCORE.INTRA.POLAR.0>
0

>  <SCORE.INTRA.REPUL>
0

>  <SCORE.INTRA.REPUL.0>
0

>  <SCORE.INTRA.SOLV>
-0.986681

>  <SCORE.INTRA.SOLV.lig_0>
-45.868

>  <SCORE.INTRA.VDW>
0.213728

>  <SCORE.INTRA.VDW.0>
-0.397919

>  <SCORE.INTRA.norm>
-0.0203383

>  <SCORE.RESTR>
0

>  <SCORE.RESTR.CAVITY>
0

>  <SCORE.RESTR.norm>
0

>  <SCORE.SYSTEM>
0

>  <SCORE.SYSTEM.CONST>
0

>  <SCORE.SYSTEM.DIHEDRAL>
0

>  <SCORE.SYSTEM.SOLV>
0

>  <SCORE.SYSTEM.norm>
0

>  <SCORE.heavy>
13

>  <SCORE.norm>
-1.23536

>  <RMSD>
4.153

$$$$
ligand
 OpenBabel02271912143D
libRbt.so/2013.1/901 2013/11/27
 13 14  0  0  0  0  0  0  0  0999 V2000
   -1.0169  -32.6365  -44.2561 N   0  0  0  0  0  0  0  0  0  0  0  0
   -0.6624  -32.4822  -42.9425 C   0  0  0  0  0  0  0  0  0  0  0  0
    0.5602  -31.9439  -42.6467 N   0  0  0  0  0  0  0  0  0  0  0  0
   -1.4827  -32.8436  -41.9553 N   0  0  0  0  0  0  0  0  0  0  0  0
   -2.7060  -33.3830  -42.2143 C   0  0  0  0  0  0  0  0  0  0  0  0
   -3.1131  -33.5646  -43.5543 C   0  0  0  0  0  0  0  0  0  0  0  0
   -2.2250  -33.1696  -44.5912 C   0  0  0  0  0  0  0  0  0  0  0  0
   -2.5323  -33.3028  -45.7499 O   0  0  0  0  0  0  0  0  0  0  0  0
   -4.4458  -34.1575  -43.5068 C   0  0  0  0  0  0  0  0  0  0  0  0
   -4.7634  -34.2917  -42.2069 C   0  0  0  0  0  0  0  0  0  0  0  0
   -3.7241  -33.8291  -41.4273 N   0  0  0  0  0  0  0  0  0  0  0  0
   -5.2953  -34.5500  -44.6883 C   0  0  0  0  0  0  0  0  0  0  0  0
   -5.9641  -35.8337  -44.3941 N   0  0  0  0  0  0  0  0  0  0  0  0
  1  2  1  0  0  0  0
  1  7  1  0  0  0  0
  2  3  1  0  0  0  0
  2  4  2  0  0  0  0
  4  5  1  0  0  0  0
  5  6  2  0  0  0  0
  5 11  1  0  0  0  0
  6  7  1  0  0  0  0
  6  9  1  0  0  0  0
  7  8  2  0  0  0  0
  9 10  2  0  0  0  0
  9 12  1  0  0  0  0
 10 11  1  0  0  0  0
 12 13  1  0  0  0  0
M  END
>  <CHROM.1>
139.67233753,-2.86325502,-33.53700006,-43.43800892,-0.18406860,-0.47785314
-1.60093928

>  <Name>
ligand

>  <RI>
0

>  <Rbt.Current_Directory>
/home/itssahil/PROJECTS/Mol_Feturizer/Test_systems_manuscript/rnas/3fu2

>  <Rbt.Executable>
rbdock ($Id: //depot/dev/client3/rdock/2013.1/src/exe/rbdock.cxx#4 $)

>  <Rbt.Library>
libRbt.so (2013.1, Build901 2013/11/27)

>  <Rbt.Parameter_File>
/export/apps/rDock/src/rDock_2013.1_src/data/scripts/dock_solv.prm

>  <Rbt.Receptor>
prm/pocket_docking_3.prm

>  <SCORE>
-16.078

>  <SCORE.INTER>
-15.8065

>  <SCORE.INTER.CONST>
1

>  <SCORE.INTER.POLAR>
0

>  <SCORE.INTER.ROT>
1

>  <SCORE.INTER.SOLV>
17.3178

>  <SCORE.INTER.VDW>
-20.5769

>  <SCORE.INTER.norm>
-1.21588

>  <SCORE.INTRA>
-0.271487

>  <SCORE.INTRA.DIHEDRAL>
0.0297898

>  <SCORE.INTRA.DIHEDRAL.0>
1.66609

>  <SCORE.INTRA.POLAR>
0

>  <SCORE.INTRA.POLAR.0>
0

>  <SCORE.INTRA.REPUL>
0

>  <SCORE.INTRA.REPUL.0>
0

>  <SCORE.INTRA.SOLV>
-0.987162

>  <SCORE.INTRA.SOLV.lig_0>
-45.868

>  <SCORE.INTRA.VDW>
0.207199

>  <SCORE.INTRA.VDW.0>
-0.397919

>  <SCORE.INTRA.norm>
-0.0208836

>  <SCORE.RESTR>
0

>  <SCORE.RESTR.CAVITY>
0

>  <SCORE.RESTR.norm>
0

>  <SCORE.SYSTEM>
0

>  <SCORE.SYSTEM.CONST>
0

>  <SCORE.SYSTEM.DIHEDRAL>
0

>  <SCORE.SYSTEM.SOLV>
0

>  <SCORE.SYSTEM.norm>
0

>  <SCORE.heavy>
13

>  <SCORE.norm>
-1.23677

>  <RMSD>
4.153

$$$$
ligand
 OpenBabel02271912143D
libRbt.so/2013.1/901 2013/11/27
 13 14  0  0  0  0  0  0  0  0999 V2000
   -1.2209  -32.6640  -44.4963 N   0  0  0  0  0  0  0  0  0  0  0  0
   -0.7897  -32.4658  -43.2119 C   0  0  0  0  0  0  0  0  0  0  0  0
    0.4419  -31.9062  -43.0071 N   0  0  0  0  0  0  0  0  0  0  0  0
   -1.5445  -32.8051  -42.1663 N   0  0  0  0  0  0  0  0  0  0  0  0
   -2.7745  -33.3647  -42.3343 C   0  0  0  0  0  0  0  0  0  0  0  0
   -3.2595  -33.5916  -43.6410 C   0  0  0  0  0  0  0  0  0  0  0  0
   -2.4404  -33.2195  -44.7413 C   0  0  0  0  0  0  0  0  0  0  0  0
   -2.8155  -33.3914  -45.8747 O   0  0  0  0  0  0  0  0  0  0  0  0
   -4.5797  -34.1964  -43.4950 C   0  0  0  0  0  0  0  0  0  0  0  0
   -4.8166  -34.2939  -42.1748 C   0  0  0  0  0  0  0  0  0  0  0  0
   -3.7379  -33.7969  -41.4739 N   0  0  0  0  0  0  0  0  0  0  0  0
   -5.4941  -34.6337  -44.6104 C   0  0  0  0  0  0  0  0  0  0  0  0
   -6.0089  -35.9847  -44.3081 N   0  0  0  0  0  0  0  0  0  0  0  0
  1  2  1  0  0  0  0
  1  7  1  0  0  0  0
  2  3  1  0  0  0  0
  2  4  2  0  0  0  0
  4  5  1  0  0  0  0
  5  6  2  0  0  0  0
  5 11  1  0  0  0  0
  6  7  1  0  0  0  0
  6  9  1  0  0  0  0
  7  8  2  0  0  0  0
  9 10  2  0  0  0  0
  9 12  1  0  0  0  0
 10 11  1  0  0  0  0
 12 13  1  0  0  0  0
M  END
>  <CHROM.1>
133.29844624,-2.99378077,-33.56357870,-43.54674771,-0.12714654,-0.49769964
-1.60617164

>  <Name>
ligand

>  <RI>
0

>  <Rbt.Current_Directory>
/home/itssahil/PROJECTS/Mol_Feturizer/Test_systems_manuscript/rnas/3fu2

>  <Rbt.Executable>
rbdock ($Id: //depot/dev/client3/rdock/2013.1/src/exe/rbdock.cxx#4 $)

>  <Rbt.Library>
libRbt.so (2013.1, Build901 2013/11/27)

>  <Rbt.Parameter_File>
/export/apps/rDock/src/rDock_2013.1_src/data/scripts/dock_solv.prm

>  <Rbt.Receptor>
prm/pocket_docking_4.prm

>  <SCORE>
-15.9518

>  <SCORE.INTER>
-15.6489

>  <SCORE.INTER.CONST>
1

>  <SCORE.INTER.POLAR>
0

>  <SCORE.INTER.ROT>
1

>  <SCORE.INTER.SOLV>
18.7694

>  <SCORE.INTER.VDW>
-20.9557

>  <SCORE.INTER.norm>
-1.20376

>  <SCORE.INTRA>
-0.302957

>  <SCORE.INTRA.DIHEDRAL>
0.0258673

>  <SCORE.INTRA.DIHEDRAL.0>
1.66609

>  <SCORE.INTRA.POLAR>
0

>  <SCORE.INTRA.POLAR.0>
0

>  <SCORE.INTRA.REPUL>
0

>  <SCORE.INTRA.REPUL.0>
0

>  <SCORE.INTRA.SOLV>
-0.989309

>  <SCORE.INTRA.SOLV.lig_0>
-45.868

>  <SCORE.INTRA.VDW>
0.178764

>  <SCORE.INTRA.VDW.0>
-0.397919

>  <SCORE.INTRA.norm>
-0.0233044

>  <SCORE.RESTR>
0

>  <SCORE.RESTR.CAVITY>
0

>  <SCORE.RESTR.norm>
0

>  <SCORE.SYSTEM>
0

>  <SCORE.SYSTEM.CONST>
0

>  <SCORE.SYSTEM.DIHEDRAL>
0

>  <SCORE.SYSTEM.SOLV>
0

>  <SCORE.SYSTEM.norm>
0

>  <SCORE.heavy>
13

>  <SCORE.norm>
-1.22706

>  <RMSD>
4.153

$$$$
ligand
 OpenBabel02271912143D
libRbt.so/2013.1/901 2013/11/27
 13 14  0  0  0  0  0  0  0  0999 V2000
   -1.0007  -32.6380  -44.2317 N   0  0  0  0  0  0  0  0  0  0  0  0
   -0.6413  -32.4727  -42.9209 C   0  0  0  0  0  0  0  0  0  0  0  0
    0.5801  -31.9265  -42.6342 N   0  0  0  0  0  0  0  0  0  0  0  0
   -1.4556  -32.8307  -41.9275 N   0  0  0  0  0  0  0  0  0  0  0  0
   -2.6774  -33.3777  -42.1773 C   0  0  0  0  0  0  0  0  0  0  0  0
   -3.0895  -33.5708  -43.5142 C   0  0  0  0  0  0  0  0  0  0  0  0
   -2.2078  -33.1791  -44.5578 C   0  0  0  0  0  0  0  0  0  0  0  0
   -2.5195  -33.3220  -45.7141 O   0  0  0  0  0  0  0  0  0  0  0  0
   -4.4192  -34.1695  -43.4566 C   0  0  0  0  0  0  0  0  0  0  0  0
   -4.7305  -34.2959  -42.1544 C   0  0  0  0  0  0  0  0  0  0  0  0
   -3.6901  -33.8229  -41.3827 N   0  0  0  0  0  0  0  0  0  0  0  0
   -5.2720  -34.5745  -44.6316 C   0  0  0  0  0  0  0  0  0  0  0  0
   -5.9524  -35.8468  -44.3157 N   0  0  0  0  0  0  0  0  0  0  0  0
  1  2  1  0  0  0  0
  1  7  1  0  0  0  0
  2  3  1  0  0  0  0
  2  4  2  0  0  0  0
  4  5  1  0  0  0  0
  5  6  2  0  0  0  0
  5 11  1  0  0  0  0
  6  7  1  0  0  0  0
  6  9  1  0  0  0  0
  7  8  2  0  0  0  0
  9 10  2  0  0  0  0
  9 12  1  0  0  0  0
 10 11  1  0  0  0  0
 12 13  1  0  0  0  0
M  END
>  <CHROM.1>
140.67828048,-2.84084046,-33.54019355,-43.39840948,-0.17768457,-0.48154385
-1.60487219

>  <Name>
ligand

>  <RI>
0

>  <Rbt.Current_Directory>
/home/itssahil/PROJECTS/Mol_Feturizer/Test_systems_manuscript/rnas/3fu2

>  <Rbt.Executable>
rbdock ($Id: //depot/dev/client3/rdock/2013.1/src/exe/rbdock.cxx#4 $)

>  <Rbt.Library>
libRbt.so (2013.1, Build901 2013/11/27)

>  <Rbt.Parameter_File>
/export/apps/rDock/src/rDock_2013.1_src/data/scripts/dock_solv.prm

>  <Rbt.Receptor>
prm/pocket_docking_4.prm

>  <SCORE>
-15.9867

>  <SCORE.INTER>
-15.7204

>  <SCORE.INTER.CONST>
1

>  <SCORE.INTER.POLAR>
0

>  <SCORE.INTER.ROT>
1

>  <SCORE.INTER.SOLV>
17.2986

>  <SCORE.INTER.VDW>
-20.5131

>  <SCORE.INTER.norm>
-1.20926

>  <SCORE.INTRA>
-0.266394

>  <SCORE.INTRA.DIHEDRAL>
0.0302574

>  <SCORE.INTRA.DIHEDRAL.0>
1.66609

>  <SCORE.INTRA.POLAR>
0

>  <SCORE.INTRA.POLAR.0>
0

>  <SCORE.INTRA.REPUL>
0

>  <SCORE.INTRA.REPUL.0>
0

>  <SCORE.INTRA.SOLV>
-0.986816

>  <SCORE.INTRA.SOLV.lig_0>
-45.868

>  <SCORE.INTRA.VDW>
0.211885

>  <SCORE.INTRA.VDW.0>
-0.397919

>  <SCORE.INTRA.norm>
-0.0204919

>  <SCORE.RESTR>
0

>  <SCORE.RESTR.CAVITY>
0

>  <SCORE.RESTR.norm>
0

>  <SCORE.SYSTEM>
0

>  <SCORE.SYSTEM.CONST>
0

>  <SCORE.SYSTEM.DIHEDRAL>
0

>  <SCORE.SYSTEM.SOLV>
0

>  <SCORE.SYSTEM.norm>
0

>  <SCORE.heavy>
13

>  <SCORE.norm>
-1.22975

>  <RMSD>
4.153

$$$$
ligand
 OpenBabel02271912143D
libRbt.so/2013.1/901 2013/11/27
 13 14  0  0  0  0  0  0  0  0999 V2000
   -1.0000  -32.6367  -44.2261 N   0  0  0  0  0  0  0  0  0  0  0  0
   -0.6462  -32.4901  -42.9115 C   0  0  0  0  0  0  0  0  0  0  0  0
    0.5744  -31.9492  -42.6119 N   0  0  0  0  0  0  0  0  0  0  0  0
   -1.4651  -32.8612  -41.9269 N   0  0  0  0  0  0  0  0  0  0  0  0
   -2.6864  -33.4034  -42.1896 C   0  0  0  0  0  0  0  0  0  0  0  0
   -3.0927  -33.5774  -43.5308 C   0  0  0  0  0  0  0  0  0  0  0  0
   -2.2061  -33.1720  -44.5650 C   0  0  0  0  0  0  0  0  0  0  0  0
   -2.5128  -33.2984  -45.7246 O   0  0  0  0  0  0  0  0  0  0  0  0
   -4.4233  -34.1755  -43.4875 C   0  0  0  0  0  0  0  0  0  0  0  0
   -4.7404  -34.3199  -42.1886 C   0  0  0  0  0  0  0  0  0  0  0  0
   -3.7030  -33.8587  -41.4058 N   0  0  0  0  0  0  0  0  0  0  0  0
   -5.2712  -34.5632  -44.6718 C   0  0  0  0  0  0  0  0  0  0  0  0
   -5.9643  -35.8325  -44.3717 N   0  0  0  0  0  0  0  0  0  0  0  0
  1  2  1  0  0  0  0
  1  7  1  0  0  0  0
  2  3  1  0  0  0  0
  2  4  2  0  0  0  0
  4  5  1  0  0  0  0
  5  6  2  0  0  0  0
  5 11  1  0  0  0  0
  6  7  1  0  0  0  0
  6  9  1  0  0  0  0
  7  8  2  0  0  0  0
  9 10  2  0  0  0  0
  9 12  1  0  0  0  0
 10 11  1  0  0  0  0
 12 13  1  0  0  0  0
M  END
>  <CHROM.1>
141.21602964,-2.84540715,-33.54811877,-43.41317340,-0.18175211,-0.47985959
-1.59262702

>  <Name>
ligand

>  <RI>
0

>  <Rbt.Current_Directory>
/home/itssahil/PROJECTS/Mol_Feturizer/Test_systems_manuscript/rnas/3fu2

>  <Rbt.Executable>
rbdock ($Id: //depot/dev/client3/rdock/2013.1/src/exe/rbdock.cxx#4 $)

>  <Rbt.Library>
libRbt.so (2013.1, Build901 2013/11/27)

>  <Rbt.Parameter_File>
/export/apps/rDock/src/rDock_2013.1_src/data/scripts/dock_solv.prm

>  <Rbt.Receptor>
prm/pocket_docking_5.prm

>  <SCORE>
-16.0551

>  <SCORE.INTER>
-15.7915

>  <SCORE.INTER.CONST>
1

>  <SCORE.INTER.POLAR>
0

>  <SCORE.INTER.ROT>
1

>  <SCORE.INTER.SOLV>
17.2231

>  <SCORE.INTER.VDW>
-20.5353

>  <SCORE.INTER.norm>
-1.21473

>  <SCORE.INTRA>
-0.263663

>  <SCORE.INTRA.DIHEDRAL>
0.0304888

>  <SCORE.INTRA.DIHEDRAL.0>
1.66609

>  <SCORE.INTRA.POLAR>
0

>  <SCORE.INTRA.POLAR.0>
0

>  <SCORE.INTRA.REPUL>
0

>  <SCORE.INTRA.REPUL.0>
0

>  <SCORE.INTRA.SOLV>
-0.986631

>  <SCORE.INTRA.SOLV.lig_0>
-45.868

>  <SCORE.INTRA.VDW>
0.214408

>  <SCORE.INTRA.VDW.0>
-0.397919

>  <SCORE.INTRA.norm>
-0.0202818

>  <SCORE.RESTR>
0

>  <SCORE.RESTR.CAVITY>
0

>  <SCORE.RESTR.norm>
0

>  <SCORE.SYSTEM>
0

>  <SCORE.SYSTEM.CONST>
0

>  <SCORE.SYSTEM.DIHEDRAL>
0

>  <SCORE.SYSTEM.SOLV>
0

>  <SCORE.SYSTEM.norm>
0

>  <SCORE.heavy>
13

>  <SCORE.norm>
-1.23501

>  <RMSD>
4.153

$$$$
ligand
 OpenBabel02271912143D
libRbt.so/2013.1/901 2013/11/27
 13 14  0  0  0  0  0  0  0  0999 V2000
   -1.0460  -32.6194  -44.2572 N   0  0  0  0  0  0  0  0  0  0  0  0
   -0.6834  -32.4767  -42.9446 C   0  0  0  0  0  0  0  0  0  0  0  0
    0.5361  -31.9298  -42.6515 N   0  0  0  0  0  0  0  0  0  0  0  0
   -1.4928  -32.8572  -41.9556 N   0  0  0  0  0  0  0  0  0  0  0  0
   -2.7127  -33.4056  -42.2119 C   0  0  0  0  0  0  0  0  0  0  0  0
   -3.1279  -33.5759  -43.5509 C   0  0  0  0  0  0  0  0  0  0  0  0
   -2.2513  -33.1605  -44.5896 C   0  0  0  0  0  0  0  0  0  0  0  0
   -2.5659  -33.2835  -45.7475 O   0  0  0  0  0  0  0  0  0  0  0  0
   -4.4545  -34.1823  -43.5005 C   0  0  0  0  0  0  0  0  0  0  0  0
   -4.7611  -34.3344  -42.1999 C   0  0  0  0  0  0  0  0  0  0  0  0
   -3.7207  -33.8705  -41.4227 N   0  0  0  0  0  0  0  0  0  0  0  0
   -5.3088  -34.5697  -44.6802 C   0  0  0  0  0  0  0  0  0  0  0  0
   -5.9950  -35.8425  -44.3794 N   0  0  0  0  0  0  0  0  0  0  0  0
  1  2  1  0  0  0  0
  1  7  1  0  0  0  0
  2  3  1  0  0  0  0
  2  4  2  0  0  0  0
  4  5  1  0  0  0  0
  5  6  2  0  0  0  0
  5 11  1  0  0  0  0
  6  7  1  0  0  0  0
  6  9  1  0  0  0  0
  7  8  2  0  0  0  0
  9 10  2  0  0  0  0
  9 12  1  0  0  0  0
 10 11  1  0  0  0  0
 12 13  1  0  0  0  0
M  END
>  <CHROM.1>
141.37658679,-2.88012949,-33.54552788,-43.43475533,-0.17328860,-0.48581735
-1.58408977

>  <Name>
ligand

>  <RI>
0

>  <Rbt.Current_Directory>
/home/itssahil/PROJECTS/Mol_Feturizer/Test_systems_manuscript/rnas/3fu2

>  <Rbt.Executable>
rbdock ($Id: //depot/dev/client3/rdock/2013.1/src/exe/rbdock.cxx#4 $)

>  <Rbt.Library>
libRbt.so (2013.1, Build901 2013/11/27)

>  <Rbt.Parameter_File>
/export/apps/rDock/src/rDock_2013.1_src/data/scripts/dock_solv.prm

>  <Rbt.Receptor>
prm/pocket_docking_8.prm

>  <SCORE>
-16.0432

>  <SCORE.INTER>
-15.7804

>  <SCORE.INTER.CONST>
1

>  <SCORE.INTER.POLAR>
0

>  <SCORE.INTER.ROT>
1

>  <SCORE.INTER.SOLV>
17.2716

>  <SCORE.INTER.VDW>
-20.5441

>  <SCORE.INTER.norm>
-1.21388

>  <SCORE.INTRA>
-0.262847

>  <SCORE.INTRA.DIHEDRAL>
0.0305554

>  <SCORE.INTRA.DIHEDRAL.0>
1.66609

>  <SCORE.INTRA.POLAR>
0

>  <SCORE.INTRA.POLAR.0>
0

>  <SCORE.INTRA.REPUL>
0

>  <SCORE.INTRA.REPUL.0>
0

>  <SCORE.INTRA.SOLV>
-0.986576

>  <SCORE.INTRA.SOLV.lig_0>
-45.868

>  <SCORE.INTRA.VDW>
0.215164

>  <SCORE.INTRA.VDW.0>
-0.397919

>  <SCORE.INTRA.norm>
-0.020219

>  <SCORE.RESTR>
0

>  <SCORE.RESTR.CAVITY>
0

>  <SCORE.RESTR.norm>
0

>  <SCORE.SYSTEM>
0

>  <SCORE.SYSTEM.CONST>
0

>  <SCORE.SYSTEM.DIHEDRAL>
0

>  <SCORE.SYSTEM.SOLV>
0

>  <SCORE.SYSTEM.norm>
0

>  <SCORE.heavy>
13

>  <SCORE.norm>
-1.23409

>  <RMSD>
4.153

$$$$
ligand
 OpenBabel02271912143D
libRbt.so/2013.1/901 2013/11/27
 13 14  0  0  0  0  0  0  0  0999 V2000
   -1.0126  -32.6513  -44.2473 N   0  0  0  0  0  0  0  0  0  0  0  0
   -0.6708  -32.4904  -42.9312 C   0  0  0  0  0  0  0  0  0  0  0  0
    0.5515  -31.9563  -42.6263 N   0  0  0  0  0  0  0  0  0  0  0  0
   -1.5029  -32.8412  -41.9502 N   0  0  0  0  0  0  0  0  0  0  0  0
   -2.7262  -33.3762  -42.2182 C   0  0  0  0  0  0  0  0  0  0  0  0
   -3.1205  -33.5644  -43.5611 C   0  0  0  0  0  0  0  0  0  0  0  0
   -2.2199  -33.1805  -44.5913 C   0  0  0  0  0  0  0  0  0  0  0  0
   -2.5161  -33.3196  -45.7523 O   0  0  0  0  0  0  0  0  0  0  0  0
   -4.4567  -34.1503  -43.5234 C   0  0  0  0  0  0  0  0  0  0  0  0
   -4.7882  -34.2746  -42.2260 C   0  0  0  0  0  0  0  0  0  0  0  0
   -3.7546  -33.8122  -41.4388 N   0  0  0  0  0  0  0  0  0  0  0  0
   -5.2961  -34.5462  -44.7110 C   0  0  0  0  0  0  0  0  0  0  0  0
   -5.9737  -35.8249  -44.4157 N   0  0  0  0  0  0  0  0  0  0  0  0
  1  2  1  0  0  0  0
  1  7  1  0  0  0  0
  2  3  1  0  0  0  0
  2  4  2  0  0  0  0
  4  5  1  0  0  0  0
  5  6  2  0  0  0  0
  5 11  1  0  0  0  0
  6  7  1  0  0  0  0
  6  9  1  0  0  0  0
  7  8  2  0  0  0  0
  9 10  2  0  0  0  0
  9 12  1  0  0  0  0
 10 11  1  0  0  0  0
 12 13  1  0  0  0  0
M  END
>  <CHROM.1>
139.64272285,-2.87172302,-33.53732768,-43.44243649,-0.19538886,-0.47249181
-1.61253141

>  <Name>
ligand

>  <RI>
0

>  <Rbt.Current_Directory>
/home/itssahil/PROJECTS/Mol_Feturizer/Test_systems_manuscript/rnas/3fu2

>  <Rbt.Executable>
rbdock ($Id: //depot/dev/client3/rdock/2013.1/src/exe/rbdock.cxx#4 $)

>  <Rbt.Library>
libRbt.so (2013.1, Build901 2013/11/27)

>  <Rbt.Parameter_File>
/export/apps/rDock/src/rDock_2013.1_src/data/scripts/dock_solv.prm

>  <Rbt.Receptor>
prm/blind_docking_100.prm

>  <SCORE>
-16.0273

>  <SCORE.INTER>
-15.7557

>  <SCORE.INTER.CONST>
1

>  <SCORE.INTER.POLAR>
0

>  <SCORE.INTER.ROT>
1

>  <SCORE.INTER.SOLV>
17.3144

>  <SCORE.INTER.VDW>
-20.5419

>  <SCORE.INTER.norm>
-1.21198

>  <SCORE.INTRA>
-0.271637

>  <SCORE.INTRA.DIHEDRAL>
0.0297754

>  <SCORE.INTRA.DIHEDRAL.0>
1.66609

>  <SCORE.INTRA.POLAR>
0

>  <SCORE.INTRA.POLAR.0>
0

>  <SCORE.INTRA.REPUL>
0

>  <SCORE.INTRA.REPUL.0>
0

>  <SCORE.INTRA.SOLV>
-0.987172

>  <SCORE.INTRA.SOLV.lig_0>
-45.868

>  <SCORE.INTRA.VDW>
0.207061

>  <SCORE.INTRA.VDW.0>
-0.397919

>  <SCORE.INTRA.norm>
-0.0208951

>  <SCORE.RESTR>
0

>  <SCORE.RESTR.CAVITY>
0

>  <SCORE.RESTR.norm>
0

>  <SCORE.SYSTEM>
0

>  <SCORE.SYSTEM.CONST>
0

>  <SCORE.SYSTEM.DIHEDRAL>
0

>  <SCORE.SYSTEM.SOLV>
0

>  <SCORE.SYSTEM.norm>
0

>  <SCORE.heavy>
13

>  <SCORE.norm>
-1.23287

>  <RMSD>
4.154

$$$$
ligand
 OpenBabel02271912143D
libRbt.so/2013.1/901 2013/11/27
 13 14  0  0  0  0  0  0  0  0999 V2000
   -1.0528  -32.5863  -44.3487 N   0  0  0  0  0  0  0  0  0  0  0  0
   -0.6675  -32.4374  -43.0433 C   0  0  0  0  0  0  0  0  0  0  0  0
    0.5542  -31.8833  -42.7739 N   0  0  0  0  0  0  0  0  0  0  0  0
   -1.4570  -32.8190  -42.0388 N   0  0  0  0  0  0  0  0  0  0  0  0
   -2.6784  -33.3745  -42.2714 C   0  0  0  0  0  0  0  0  0  0  0  0
   -3.1166  -33.5514  -43.6021 C   0  0  0  0  0  0  0  0  0  0  0  0
   -2.2610  -33.1348  -44.6578 C   0  0  0  0  0  0  0  0  0  0  0  0
   -2.5957  -33.2631  -45.8094 O   0  0  0  0  0  0  0  0  0  0  0  0
   -4.4388  -34.1645  -43.5260 C   0  0  0  0  0  0  0  0  0  0  0  0
   -4.7213  -34.3140  -42.2197 C   0  0  0  0  0  0  0  0  0  0  0  0
   -3.6696  -33.8422  -41.4627 N   0  0  0  0  0  0  0  0  0  0  0  0
   -5.3122  -34.5601  -44.6890 C   0  0  0  0  0  0  0  0  0  0  0  0
   -5.9715  -35.8451  -44.3796 N   0  0  0  0  0  0  0  0  0  0  0  0
  1  2  1  0  0  0  0
  1  7  1  0  0  0  0
  2  3  1  0  0  0  0
  2  4  2  0  0  0  0
  4  5  1  0  0  0  0
  5  6  2  0  0  0  0
  5 11  1  0  0  0  0
  6  7  1  0  0  0  0
  6  9  1  0  0  0  0
  7  8  2  0  0  0  0
  9 10  2  0  0  0  0
  9 12  1  0  0  0  0
 10 11  1  0  0  0  0
 12 13  1  0  0  0  0
M  END
>  <CHROM.1>
140.59118147,-2.86577356,-33.52008288,-43.49120255,-0.15426592,-0.49215286
-1.57852667

>  <Name>
ligand

>  <RI>
0

>  <Rbt.Current_Directory>
/home/itssahil/PROJECTS/Mol_Feturizer/Test_systems_manuscript/rnas/3fu2

>  <Rbt.Executable>
rbdock ($Id: //depot/dev/client3/rdock/2013.1/src/exe/rbdock.cxx#4 $)

>  <Rbt.Library>
libRbt.so (2013.1, Build901 2013/11/27)

>  <Rbt.Parameter_File>
/export/apps/rDock/src/rDock_2013.1_src/data/scripts/dock_solv.prm

>  <Rbt.Receptor>
prm/blind_docking_80.prm

>  <SCORE>
-16.0508

>  <SCORE.INTER>
-15.784

>  <SCORE.INTER.CONST>
1

>  <SCORE.INTER.POLAR>
0

>  <SCORE.INTER.ROT>
1

>  <SCORE.INTER.SOLV>
17.7308

>  <SCORE.INTER.VDW>
-20.6996

>  <SCORE.INTER.norm>
-1.21415

>  <SCORE.INTRA>
-0.266836

>  <SCORE.INTRA.DIHEDRAL>
0.0302187

>  <SCORE.INTRA.DIHEDRAL.0>
1.66609

>  <SCORE.INTRA.POLAR>
0

>  <SCORE.INTRA.POLAR.0>
0

>  <SCORE.INTRA.REPUL>
0

>  <SCORE.INTRA.REPUL.0>
0

>  <SCORE.INTRA.SOLV>
-0.986846

>  <SCORE.INTRA.SOLV.lig_0>
-45.868

>  <SCORE.INTRA.VDW>
0.211478

>  <SCORE.INTRA.VDW.0>
-0.397919

>  <SCORE.INTRA.norm>
-0.0205259

>  <SCORE.RESTR>
0

>  <SCORE.RESTR.CAVITY>
0

>  <SCORE.RESTR.norm>
0

>  <SCORE.SYSTEM>
0

>  <SCORE.SYSTEM.CONST>
0

>  <SCORE.SYSTEM.DIHEDRAL>
0

>  <SCORE.SYSTEM.SOLV>
0

>  <SCORE.SYSTEM.norm>
0

>  <SCORE.heavy>
13

>  <SCORE.norm>
-1.23468

>  <RMSD>
4.154

$$$$
ligand
 OpenBabel02271912143D
libRbt.so/2013.1/901 2013/11/27
 13 14  0  0  0  0  0  0  0  0999 V2000
   -1.0150  -32.6251  -44.2562 N   0  0  0  0  0  0  0  0  0  0  0  0
   -0.6617  -32.4722  -42.9421 C   0  0  0  0  0  0  0  0  0  0  0  0
    0.5588  -31.9299  -42.6447 N   0  0  0  0  0  0  0  0  0  0  0  0
   -1.4810  -32.8387  -41.9560 N   0  0  0  0  0  0  0  0  0  0  0  0
   -2.7021  -33.3822  -42.2167 C   0  0  0  0  0  0  0  0  0  0  0  0
   -3.1080  -33.5626  -43.5572 C   0  0  0  0  0  0  0  0  0  0  0  0
   -2.2210  -33.1621  -44.5929 C   0  0  0  0  0  0  0  0  0  0  0  0
   -2.5273  -33.2940  -45.7520 O   0  0  0  0  0  0  0  0  0  0  0  0
   -4.4385  -34.1606  -43.5114 C   0  0  0  0  0  0  0  0  0  0  0  0
   -4.7561  -34.2987  -42.2120 C   0  0  0  0  0  0  0  0  0  0  0  0
   -3.7189  -33.8338  -41.4310 N   0  0  0  0  0  0  0  0  0  0  0  0
   -5.2860  -34.5539  -44.6941 C   0  0  0  0  0  0  0  0  0  0  0  0
   -5.9701  -35.8277  -44.3927 N   0  0  0  0  0  0  0  0  0  0  0  0
  1  2  1  0  0  0  0
  1  7  1  0  0  0  0
  2  3  1  0  0  0  0
  2  4  2  0  0  0  0
  4  5  1  0  0  0  0
  5  6  2  0  0  0  0
  5 11  1  0  0  0  0
  6  7  1  0  0  0  0
  6  9  1  0  0  0  0
  7  8  2  0  0  0  0
  9 10  2  0  0  0  0
  9 12  1  0  0  0  0
 10 11  1  0  0  0  0
 12 13  1  0  0  0  0
M  END
>  <CHROM.1>
140.73689439,-2.85995379,-33.53321545,-43.43991001,-0.18290765,-0.48043829
-1.59802980

>  <Name>
ligand

>  <RI>
0

>  <Rbt.Current_Directory>
/home/itssahil/PROJECTS/Mol_Feturizer/Test_systems_manuscript/rnas/3fu2

>  <Rbt.Executable>
rbdock ($Id: //depot/dev/client3/rdock/2013.1/src/exe/rbdock.cxx#4 $)

>  <Rbt.Library>
libRbt.so (2013.1, Build901 2013/11/27)

>  <Rbt.Parameter_File>
/export/apps/rDock/src/rDock_2013.1_src/data/scripts/dock_solv.prm

>  <Rbt.Receptor>
prm/pocket_docking_4.prm

>  <SCORE>
-16.0482

>  <SCORE.INTER>
-15.7821

>  <SCORE.INTER.CONST>
1

>  <SCORE.INTER.POLAR>
0

>  <SCORE.INTER.ROT>
1

>  <SCORE.INTER.SOLV>
17.2856

>  <SCORE.INTER.VDW>
-20.5499

>  <SCORE.INTER.norm>
-1.21401

>  <SCORE.INTRA>
-0.266097

>  <SCORE.INTRA.DIHEDRAL>
0.0302832

>  <SCORE.INTRA.DIHEDRAL.0>
1.66609

>  <SCORE.INTRA.POLAR>
0

>  <SCORE.INTRA.POLAR.0>
0

>  <SCORE.INTRA.REPUL>
0

>  <SCORE.INTRA.REPUL.0>
0

>  <SCORE.INTRA.SOLV>
-0.986796

>  <SCORE.INTRA.SOLV.lig_0>
-45.868

>  <SCORE.INTRA.VDW>
0.21216

>  <SCORE.INTRA.VDW.0>
-0.397919

>  <SCORE.INTRA.norm>
-0.020469

>  <SCORE.RESTR>
0

>  <SCORE.RESTR.CAVITY>
0

>  <SCORE.RESTR.norm>
0

>  <SCORE.SYSTEM>
0

>  <SCORE.SYSTEM.CONST>
0

>  <SCORE.SYSTEM.DIHEDRAL>
0

>  <SCORE.SYSTEM.SOLV>
0

>  <SCORE.SYSTEM.norm>
0

>  <SCORE.heavy>
13

>  <SCORE.norm>
-1.23448

>  <RMSD>
4.154

$$$$
ligand
 OpenBabel02271912143D
libRbt.so/2013.1/901 2013/11/27
 13 14  0  0  0  0  0  0  0  0999 V2000
   -1.0130  -32.6248  -44.2544 N   0  0  0  0  0  0  0  0  0  0  0  0
   -0.6597  -32.4739  -42.9401 C   0  0  0  0  0  0  0  0  0  0  0  0
    0.5609  -31.9323  -42.6419 N   0  0  0  0  0  0  0  0  0  0  0  0
   -1.4790  -32.8417  -41.9546 N   0  0  0  0  0  0  0  0  0  0  0  0
   -2.7002  -33.3846  -42.2160 C   0  0  0  0  0  0  0  0  0  0  0  0
   -3.1061  -33.5630  -43.5567 C   0  0  0  0  0  0  0  0  0  0  0  0
   -2.2190  -33.1611  -44.5919 C   0  0  0  0  0  0  0  0  0  0  0  0
   -2.5254  -33.2913  -45.7512 O   0  0  0  0  0  0  0  0  0  0  0  0
   -4.4368  -34.1608  -43.5119 C   0  0  0  0  0  0  0  0  0  0  0  0
   -4.7544  -34.3008  -42.2126 C   0  0  0  0  0  0  0  0  0  0  0  0
   -3.7171  -33.8372  -41.4310 N   0  0  0  0  0  0  0  0  0  0  0  0
   -5.2843  -34.5523  -44.6952 C   0  0  0  0  0  0  0  0  0  0  0  0
   -5.9637  -35.8297  -44.3981 N   0  0  0  0  0  0  0  0  0  0  0  0
  1  2  1  0  0  0  0
  1  7  1  0  0  0  0
  2  3  1  0  0  0  0
  2  4  2  0  0  0  0
  4  5  1  0  0  0  0
  5  6  2  0  0  0  0
  5 11  1  0  0  0  0
  6  7  1  0  0  0  0
  6  9  1  0  0  0  0
  7  8  2  0  0  0  0
  9 10  2  0  0  0  0
  9 12  1  0  0  0  0
 10 11  1  0  0  0  0
 12 13  1  0  0  0  0
M  END
>  <CHROM.1>
140.47219473,-2.85769857,-33.53410178,-43.43965764,-0.18333816,-0.48056195
-1.59685164

>  <Name>
ligand

>  <RI>
0

>  <Rbt.Current_Directory>
/home/itssahil/PROJECTS/Mol_Feturizer/Test_systems_manuscript/rnas/3fu2

>  <Rbt.Executable>
rbdock ($Id: //depot/dev/client3/rdock/2013.1/src/exe/rbdock.cxx#4 $)

>  <Rbt.Library>
libRbt.so (2013.1, Build901 2013/11/27)

>  <Rbt.Parameter_File>
/export/apps/rDock/src/rDock_2013.1_src/data/scripts/dock_solv.prm

>  <Rbt.Receptor>
prm/pocket_docking_4.prm

>  <SCORE>
-16.0458

>  <SCORE.INTER>
-15.7784

>  <SCORE.INTER.CONST>
1

>  <SCORE.INTER.POLAR>
0

>  <SCORE.INTER.ROT>
1

>  <SCORE.INTER.SOLV>
17.2737

>  <SCORE.INTER.VDW>
-20.5435

>  <SCORE.INTER.norm>
-1.21372

>  <SCORE.INTRA>
-0.267439

>  <SCORE.INTRA.DIHEDRAL>
0.0301652

>  <SCORE.INTRA.DIHEDRAL.0>
1.66609

>  <SCORE.INTRA.POLAR>
0

>  <SCORE.INTRA.POLAR.0>
0

>  <SCORE.INTRA.REPUL>
0

>  <SCORE.INTRA.REPUL.0>
0

>  <SCORE.INTRA.SOLV>
-0.986887

>  <SCORE.INTRA.SOLV.lig_0>
-45.868

>  <SCORE.INTRA.VDW>
0.210921

>  <SCORE.INTRA.VDW.0>
-0.397919

>  <SCORE.INTRA.norm>
-0.0205723

>  <SCORE.RESTR>
0

>  <SCORE.RESTR.CAVITY>
0

>  <SCORE.RESTR.norm>
0

>  <SCORE.SYSTEM>
0

>  <SCORE.SYSTEM.CONST>
0

>  <SCORE.SYSTEM.DIHEDRAL>
0

>  <SCORE.SYSTEM.SOLV>
0

>  <SCORE.SYSTEM.norm>
0

>  <SCORE.heavy>
13

>  <SCORE.norm>
-1.2343

>  <RMSD>
4.154

$$$$
ligand
 OpenBabel02271912143D
libRbt.so/2013.1/901 2013/11/27
 13 14  0  0  0  0  0  0  0  0999 V2000
   -1.0188  -32.6269  -44.3943 N   0  0  0  0  0  0  0  0  0  0  0  0
   -0.6194  -32.4724  -43.0938 C   0  0  0  0  0  0  0  0  0  0  0  0
    0.6125  -31.9335  -42.8403 N   0  0  0  0  0  0  0  0  0  0  0  0
   -1.4050  -32.8339  -42.0789 N   0  0  0  0  0  0  0  0  0  0  0  0
   -2.6363  -33.3738  -42.2956 C   0  0  0  0  0  0  0  0  0  0  0  0
   -3.0892  -33.5557  -43.6207 C   0  0  0  0  0  0  0  0  0  0  0  0
   -2.2375  -33.1605  -44.6876 C   0  0  0  0  0  0  0  0  0  0  0  0
   -2.5845  -33.2939  -45.8351 O   0  0  0  0  0  0  0  0  0  0  0  0
   -4.4193  -34.1491  -43.5273 C   0  0  0  0  0  0  0  0  0  0  0  0
   -4.6919  -34.2834  -42.2172 C   0  0  0  0  0  0  0  0  0  0  0  0
   -3.6266  -33.8203  -41.4739 N   0  0  0  0  0  0  0  0  0  0  0  0
   -5.3089  -34.5421  -44.6788 C   0  0  0  0  0  0  0  0  0  0  0  0
   -5.9612  -35.8295  -44.3647 N   0  0  0  0  0  0  0  0  0  0  0  0
  1  2  1  0  0  0  0
  1  7  1  0  0  0  0
  2  3  1  0  0  0  0
  2  4  2  0  0  0  0
  4  5  1  0  0  0  0
  5  6  2  0  0  0  0
  5 11  1  0  0  0  0
  6  7  1  0  0  0  0
  6  9  1  0  0  0  0
  7  8  2  0  0  0  0
  9 10  2  0  0  0  0
  9 12  1  0  0  0  0
 10 11  1  0  0  0  0
 12 13  1  0  0  0  0
M  END
>  <CHROM.1>
139.37988179,-2.83515142,-33.52829795,-43.51335660,-0.14577758,-0.47930797
-1.58346206

>  <Name>
ligand

>  <RI>
0

>  <Rbt.Current_Directory>
/home/itssahil/PROJECTS/Mol_Feturizer/Test_systems_manuscript/rnas/3fu2

>  <Rbt.Executable>
rbdock ($Id: //depot/dev/client3/rdock/2013.1/src/exe/rbdock.cxx#4 $)

>  <Rbt.Library>
libRbt.so (2013.1, Build901 2013/11/27)

>  <Rbt.Parameter_File>
/export/apps/rDock/src/rDock_2013.1_src/data/scripts/dock_solv.prm

>  <Rbt.Receptor>
prm/pocket_docking_5.prm

>  <SCORE>
-16.0374

>  <SCORE.INTER>
-15.7645

>  <SCORE.INTER.CONST>
1

>  <SCORE.INTER.POLAR>
0

>  <SCORE.INTER.ROT>
1

>  <SCORE.INTER.SOLV>
18.2905

>  <SCORE.INTER.VDW>
-20.8731

>  <SCORE.INTER.norm>
-1.21265

>  <SCORE.INTRA>
-0.272963

>  <SCORE.INTRA.DIHEDRAL>
0.0296455

>  <SCORE.INTRA.DIHEDRAL.0>
1.66609

>  <SCORE.INTRA.POLAR>
0

>  <SCORE.INTRA.POLAR.0>
0

>  <SCORE.INTRA.REPUL>
0

>  <SCORE.INTRA.REPUL.0>
0

>  <SCORE.INTRA.SOLV>
-0.987262

>  <SCORE.INTRA.SOLV.lig_0>
-45.868

>  <SCORE.INTRA.VDW>
0.205845

>  <SCORE.INTRA.VDW.0>
-0.397919

>  <SCORE.INTRA.norm>
-0.0209972

>  <SCORE.RESTR>
0

>  <SCORE.RESTR.CAVITY>
0

>  <SCORE.RESTR.norm>
0

>  <SCORE.SYSTEM>
0

>  <SCORE.SYSTEM.CONST>
0

>  <SCORE.SYSTEM.DIHEDRAL>
0

>  <SCORE.SYSTEM.SOLV>
0

>  <SCORE.SYSTEM.norm>
0

>  <SCORE.heavy>
13

>  <SCORE.norm>
-1.23365

>  <RMSD>
4.154

$$$$
ligand
 OpenBabel02271912143D
libRbt.so/2013.1/901 2013/11/27
 13 14  0  0  0  0  0  0  0  0999 V2000
   -1.0199  -32.6458  -44.2596 N   0  0  0  0  0  0  0  0  0  0  0  0
   -0.6666  -32.4864  -42.9464 C   0  0  0  0  0  0  0  0  0  0  0  0
    0.5555  -31.9461  -42.6517 N   0  0  0  0  0  0  0  0  0  0  0  0
   -1.4873  -32.8445  -41.9585 N   0  0  0  0  0  0  0  0  0  0  0  0
   -2.7100  -33.3858  -42.2164 C   0  0  0  0  0  0  0  0  0  0  0  0
   -3.1159  -33.5728  -43.5560 C   0  0  0  0  0  0  0  0  0  0  0  0
   -2.2273  -33.1811  -44.5937 C   0  0  0  0  0  0  0  0  0  0  0  0
   -2.5337  -33.3189  -45.7521 O   0  0  0  0  0  0  0  0  0  0  0  0
   -4.4483  -34.1664  -43.5073 C   0  0  0  0  0  0  0  0  0  0  0  0
   -4.7668  -34.2960  -42.2071 C   0  0  0  0  0  0  0  0  0  0  0  0
   -3.7285  -33.8296  -41.4285 N   0  0  0  0  0  0  0  0  0  0  0  0
   -5.2966  -34.5640  -44.6880 C   0  0  0  0  0  0  0  0  0  0  0  0
   -5.9601  -35.8499  -44.3917 N   0  0  0  0  0  0  0  0  0  0  0  0
  1  2  1  0  0  0  0
  1  7  1  0  0  0  0
  2  3  1  0  0  0  0
  2  4  2  0  0  0  0
  4  5  1  0  0  0  0
  5  6  2  0  0  0  0
  5 11  1  0  0  0  0
  6  7  1  0  0  0  0
  6  9  1  0  0  0  0
  7  8  2  0  0  0  0
  9 10  2  0  0  0  0
  9 12  1  0  0  0  0
 10 11  1  0  0  0  0
 12 13  1  0  0  0  0
M  END
>  <CHROM.1>
139.42951543,-2.86587284,-33.54478792,-43.43981392,-0.18538311,-0.47880257
-1.60539358

>  <Name>
ligand

>  <RI>
0

>  <Rbt.Current_Directory>
/home/itssahil/PROJECTS/Mol_Feturizer/Test_systems_manuscript/rnas/3fu2

>  <Rbt.Executable>
rbdock ($Id: //depot/dev/client3/rdock/2013.1/src/exe/rbdock.cxx#4 $)

>  <Rbt.Library>
libRbt.so (2013.1, Build901 2013/11/27)

>  <Rbt.Parameter_File>
/export/apps/rDock/src/rDock_2013.1_src/data/scripts/dock_solv.prm

>  <Rbt.Receptor>
prm/pocket_docking_6.prm

>  <SCORE>
-16.074

>  <SCORE.INTER>
-15.8013

>  <SCORE.INTER.CONST>
1

>  <SCORE.INTER.POLAR>
0

>  <SCORE.INTER.ROT>
1

>  <SCORE.INTER.SOLV>
17.366

>  <SCORE.INTER.VDW>
-20.5895

>  <SCORE.INTER.norm>
-1.21549

>  <SCORE.INTRA>
-0.272713

>  <SCORE.INTRA.DIHEDRAL>
0.0296703

>  <SCORE.INTRA.DIHEDRAL.0>
1.66609

>  <SCORE.INTRA.POLAR>
0

>  <SCORE.INTRA.POLAR.0>
0

>  <SCORE.INTRA.REPUL>
0

>  <SCORE.INTRA.REPUL.0>
0

>  <SCORE.INTRA.SOLV>
-0.987245

>  <SCORE.INTRA.SOLV.lig_0>
-45.868

>  <SCORE.INTRA.VDW>
0.206074

>  <SCORE.INTRA.VDW.0>
-0.397919

>  <SCORE.INTRA.norm>
-0.0209779

>  <SCORE.RESTR>
0

>  <SCORE.RESTR.CAVITY>
0

>  <SCORE.RESTR.norm>
0

>  <SCORE.SYSTEM>
0

>  <SCORE.SYSTEM.CONST>
0

>  <SCORE.SYSTEM.DIHEDRAL>
0

>  <SCORE.SYSTEM.SOLV>
0

>  <SCORE.SYSTEM.norm>
0

>  <SCORE.heavy>
13

>  <SCORE.norm>
-1.23646

>  <RMSD>
4.154

$$$$
ligand
 OpenBabel02271912143D
libRbt.so/2013.1/901 2013/11/27
 13 14  0  0  0  0  0  0  0  0999 V2000
   -1.0157  -32.6324  -44.2563 N   0  0  0  0  0  0  0  0  0  0  0  0
   -0.6611  -32.4812  -42.9425 C   0  0  0  0  0  0  0  0  0  0  0  0
    0.5603  -31.9404  -42.6457 N   0  0  0  0  0  0  0  0  0  0  0  0
   -1.4798  -32.8478  -41.9560 N   0  0  0  0  0  0  0  0  0  0  0  0
   -2.7017  -33.3897  -42.2160 C   0  0  0  0  0  0  0  0  0  0  0  0
   -3.1090  -33.5684  -43.5563 C   0  0  0  0  0  0  0  0  0  0  0  0
   -2.2225  -33.1678  -44.5925 C   0  0  0  0  0  0  0  0  0  0  0  0
   -2.5301  -33.2983  -45.7515 O   0  0  0  0  0  0  0  0  0  0  0  0
   -4.4401  -34.1650  -43.5100 C   0  0  0  0  0  0  0  0  0  0  0  0
   -4.7567  -34.3041  -42.2103 C   0  0  0  0  0  0  0  0  0  0  0  0
   -3.7183  -33.8410  -41.4299 N   0  0  0  0  0  0  0  0  0  0  0  0
   -5.2892  -34.5563  -44.6922 C   0  0  0  0  0  0  0  0  0  0  0  0
   -5.9712  -35.8318  -44.3930 N   0  0  0  0  0  0  0  0  0  0  0  0
  1  2  1  0  0  0  0
  1  7  1  0  0  0  0
  2  3  1  0  0  0  0
  2  4  2  0  0  0  0
  4  5  1  0  0  0  0
  5  6  2  0  0  0  0
  5 11  1  0  0  0  0
  6  7  1  0  0  0  0
  6  9  1  0  0  0  0
  7  8  2  0  0  0  0
  9 10  2  0  0  0  0
  9 12  1  0  0  0  0
 10 11  1  0  0  0  0
 12 13  1  0  0  0  0
M  END
>  <CHROM.1>
140.56895726,-2.86060452,-33.53957219,-43.43940560,-0.18211549,-0.47960074
-1.59674814

>  <Name>
ligand

>  <RI>
0

>  <Rbt.Current_Directory>
/home/itssahil/PROJECTS/Mol_Feturizer/Test_systems_manuscript/rnas/3fu2

>  <Rbt.Executable>
rbdock ($Id: //depot/dev/client3/rdock/2013.1/src/exe/rbdock.cxx#4 $)

>  <Rbt.Library>
libRbt.so (2013.1, Build901 2013/11/27)

>  <Rbt.Parameter_File>
/export/apps/rDock/src/rDock_2013.1_src/data/scripts/dock_solv.prm

>  <Rbt.Receptor>
prm/pocket_docking_6.prm

>  <SCORE>
-16.0475

>  <SCORE.INTER>
-15.7805

>  <SCORE.INTER.CONST>
1

>  <SCORE.INTER.POLAR>
0

>  <SCORE.INTER.ROT>
1

>  <SCORE.INTER.SOLV>
17.3022

>  <SCORE.INTER.VDW>
-20.5544

>  <SCORE.INTER.norm>
-1.21389

>  <SCORE.INTRA>
-0.266949

>  <SCORE.INTRA.DIHEDRAL>
0.0302087

>  <SCORE.INTRA.DIHEDRAL.0>
1.66609

>  <SCORE.INTRA.POLAR>
0

>  <SCORE.INTRA.POLAR.0>
0

>  <SCORE.INTRA.REPUL>
0

>  <SCORE.INTRA.REPUL.0>
0

>  <SCORE.INTRA.SOLV>
-0.986854

>  <SCORE.INTRA.SOLV.lig_0>
-45.868

>  <SCORE.INTRA.VDW>
0.211374

>  <SCORE.INTRA.VDW.0>
-0.397919

>  <SCORE.INTRA.norm>
-0.0205345

>  <SCORE.RESTR>
0

>  <SCORE.RESTR.CAVITY>
0

>  <SCORE.RESTR.norm>
0

>  <SCORE.SYSTEM>
0

>  <SCORE.SYSTEM.CONST>
0

>  <SCORE.SYSTEM.DIHEDRAL>
0

>  <SCORE.SYSTEM.SOLV>
0

>  <SCORE.SYSTEM.norm>
0

>  <SCORE.heavy>
13

>  <SCORE.norm>
-1.23442

>  <RMSD>
4.154

$$$$
ligand
 OpenBabel02271912143D
libRbt.so/2013.1/901 2013/11/27
 13 14  0  0  0  0  0  0  0  0999 V2000
   -1.0164  -32.6341  -44.3902 N   0  0  0  0  0  0  0  0  0  0  0  0
   -0.6173  -32.4838  -43.0890 C   0  0  0  0  0  0  0  0  0  0  0  0
    0.6160  -31.9490  -42.8336 N   0  0  0  0  0  0  0  0  0  0  0  0
   -1.4044  -32.8456  -42.0754 N   0  0  0  0  0  0  0  0  0  0  0  0
   -2.6371  -33.3816  -42.2940 C   0  0  0  0  0  0  0  0  0  0  0  0
   -3.0898  -33.5590  -43.6198 C   0  0  0  0  0  0  0  0  0  0  0  0
   -2.2365  -33.1636  -44.6854 C   0  0  0  0  0  0  0  0  0  0  0  0
   -2.5833  -33.2933  -45.8333 O   0  0  0  0  0  0  0  0  0  0  0  0
   -4.4216  -34.1489  -43.5285 C   0  0  0  0  0  0  0  0  0  0  0  0
   -4.6953  -34.2856  -42.2189 C   0  0  0  0  0  0  0  0  0  0  0  0
   -3.6291  -33.8272  -41.4740 N   0  0  0  0  0  0  0  0  0  0  0  0
   -5.3116  -34.5367  -44.6814 C   0  0  0  0  0  0  0  0  0  0  0  0
   -5.9655  -35.8244  -44.3719 N   0  0  0  0  0  0  0  0  0  0  0  0
  1  2  1  0  0  0  0
  1  7  1  0  0  0  0
  2  3  1  0  0  0  0
  2  4  2  0  0  0  0
  4  5  1  0  0  0  0
  5  6  2  0  0  0  0
  5 11  1  0  0  0  0
  6  7  1  0  0  0  0
  6  9  1  0  0  0  0
  7  8  2  0  0  0  0
  9 10  2  0  0  0  0
  9 12  1  0  0  0  0
 10 11  1  0  0  0  0
 12 13  1  0  0  0  0
M  END
>  <CHROM.1>
139.26158234,-2.83553879,-33.53267124,-43.51237457,-0.14651006,-0.47665992
-1.58142735

>  <Name>
ligand

>  <RI>
0

>  <Rbt.Current_Directory>
/home/itssahil/PROJECTS/Mol_Feturizer/Test_systems_manuscript/rnas/3fu2

>  <Rbt.Executable>
rbdock ($Id: //depot/dev/client3/rdock/2013.1/src/exe/rbdock.cxx#4 $)

>  <Rbt.Library>
libRbt.so (2013.1, Build901 2013/11/27)

>  <Rbt.Parameter_File>
/export/apps/rDock/src/rDock_2013.1_src/data/scripts/dock_solv.prm

>  <Rbt.Receptor>
prm/pocket_docking_8.prm

>  <SCORE>
-16.0273

>  <SCORE.INTER>
-15.7537

>  <SCORE.INTER.CONST>
1

>  <SCORE.INTER.POLAR>
0

>  <SCORE.INTER.ROT>
1

>  <SCORE.INTER.SOLV>
18.286

>  <SCORE.INTER.VDW>
-20.8645

>  <SCORE.INTER.norm>
-1.21182

>  <SCORE.INTRA>
-0.27356

>  <SCORE.INTRA.DIHEDRAL>
0.0295861

>  <SCORE.INTRA.DIHEDRAL.0>
1.66609

>  <SCORE.INTRA.POLAR>
0

>  <SCORE.INTRA.POLAR.0>
0

>  <SCORE.INTRA.REPUL>
0

>  <SCORE.INTRA.REPUL.0>
0

>  <SCORE.INTRA.SOLV>
-0.987303

>  <SCORE.INTRA.SOLV.lig_0>
-45.868

>  <SCORE.INTRA.VDW>
0.205298

>  <SCORE.INTRA.VDW.0>
-0.397919

>  <SCORE.INTRA.norm>
-0.0210431

>  <SCORE.RESTR>
0

>  <SCORE.RESTR.CAVITY>
0

>  <SCORE.RESTR.norm>
0

>  <SCORE.SYSTEM>
0

>  <SCORE.SYSTEM.CONST>
0

>  <SCORE.SYSTEM.DIHEDRAL>
0

>  <SCORE.SYSTEM.SOLV>
0

>  <SCORE.SYSTEM.norm>
0

>  <SCORE.heavy>
13

>  <SCORE.norm>
-1.23287

>  <RMSD>
4.154

$$$$
ligand
 OpenBabel02271912143D
libRbt.so/2013.1/901 2013/11/27
 13 14  0  0  0  0  0  0  0  0999 V2000
   -1.0030  -32.6298  -44.2667 N   0  0  0  0  0  0  0  0  0  0  0  0
   -0.6552  -32.4706  -42.9520 C   0  0  0  0  0  0  0  0  0  0  0  0
    0.5652  -31.9294  -42.6521 N   0  0  0  0  0  0  0  0  0  0  0  0
   -1.4797  -32.8299  -41.9676 N   0  0  0  0  0  0  0  0  0  0  0  0
   -2.7009  -33.3720  -42.2307 C   0  0  0  0  0  0  0  0  0  0  0  0
   -3.1011  -33.5588  -43.5720 C   0  0  0  0  0  0  0  0  0  0  0  0
   -2.2086  -33.1659  -44.6060 C   0  0  0  0  0  0  0  0  0  0  0  0
   -2.5101  -33.3034  -45.7657 O   0  0  0  0  0  0  0  0  0  0  0  0
   -4.4332  -34.1535  -43.5290 C   0  0  0  0  0  0  0  0  0  0  0  0
   -4.7569  -34.2839  -42.2303 C   0  0  0  0  0  0  0  0  0  0  0  0
   -3.7222  -33.8170  -41.4472 N   0  0  0  0  0  0  0  0  0  0  0  0
   -5.2764  -34.5513  -44.7133 C   0  0  0  0  0  0  0  0  0  0  0  0
   -5.9710  -35.8178  -44.4051 N   0  0  0  0  0  0  0  0  0  0  0  0
  1  2  1  0  0  0  0
  1  7  1  0  0  0  0
  2  3  1  0  0  0  0
  2  4  2  0  0  0  0
  4  5  1  0  0  0  0
  5  6  2  0  0  0  0
  5 11  1  0  0  0  0
  6  7  1  0  0  0  0
  6  9  1  0  0  0  0
  7  8  2  0  0  0  0
  9 10  2  0  0  0  0
  9 12  1  0  0  0  0
 10 11  1  0  0  0  0
 12 13  1  0  0  0  0
M  END
>  <CHROM.1>
141.06808447,-2.85410268,-33.52898399,-43.45359866,-0.18733178,-0.47764421
-1.60542161

>  <Name>
ligand

>  <RI>
0

>  <Rbt.Current_Directory>
/home/itssahil/PROJECTS/Mol_Feturizer/Test_systems_manuscript/rnas/3fu2

>  <Rbt.Executable>
rbdock ($Id: //depot/dev/client3/rdock/2013.1/src/exe/rbdock.cxx#4 $)

>  <Rbt.Library>
libRbt.so (2013.1, Build901 2013/11/27)

>  <Rbt.Parameter_File>
/export/apps/rDock/src/rDock_2013.1_src/data/scripts/dock_solv.prm

>  <Rbt.Receptor>
prm/blind_docking_100.prm

>  <SCORE>
-16.0345

>  <SCORE.INTER>
-15.7701

>  <SCORE.INTER.CONST>
1

>  <SCORE.INTER.POLAR>
0

>  <SCORE.INTER.ROT>
1

>  <SCORE.INTER.SOLV>
17.3395

>  <SCORE.INTER.VDW>
-20.5599

>  <SCORE.INTER.norm>
-1.21308

>  <SCORE.INTRA>
-0.264415

>  <SCORE.INTRA.DIHEDRAL>
0.0304265

>  <SCORE.INTRA.DIHEDRAL.0>
1.66609

>  <SCORE.INTRA.POLAR>
0

>  <SCORE.INTRA.POLAR.0>
0

>  <SCORE.INTRA.REPUL>
0

>  <SCORE.INTRA.REPUL.0>
0

>  <SCORE.INTRA.SOLV>
-0.986682

>  <SCORE.INTRA.SOLV.lig_0>
-45.868

>  <SCORE.INTRA.VDW>
0.213713

>  <SCORE.INTRA.VDW.0>
-0.397919

>  <SCORE.INTRA.norm>
-0.0203396

>  <SCORE.RESTR>
0

>  <SCORE.RESTR.CAVITY>
0

>  <SCORE.RESTR.norm>
0

>  <SCORE.SYSTEM>
0

>  <SCORE.SYSTEM.CONST>
0

>  <SCORE.SYSTEM.DIHEDRAL>
0

>  <SCORE.SYSTEM.SOLV>
0

>  <SCORE.SYSTEM.norm>
0

>  <SCORE.heavy>
13

>  <SCORE.norm>
-1.23342

>  <RMSD>
4.155

$$$$
ligand
 OpenBabel02271912143D
libRbt.so/2013.1/901 2013/11/27
 13 14  0  0  0  0  0  0  0  0999 V2000
   -1.0057  -32.6185  -44.2481 N   0  0  0  0  0  0  0  0  0  0  0  0
   -0.6482  -32.4720  -42.9345 C   0  0  0  0  0  0  0  0  0  0  0  0
    0.5693  -31.9222  -42.6383 N   0  0  0  0  0  0  0  0  0  0  0  0
   -1.4604  -32.8517  -41.9477 N   0  0  0  0  0  0  0  0  0  0  0  0
   -2.6783  -33.4030  -42.2071 C   0  0  0  0  0  0  0  0  0  0  0  0
   -3.0883  -33.5772  -43.5471 C   0  0  0  0  0  0  0  0  0  0  0  0
   -2.2088  -33.1626  -44.5837 C   0  0  0  0  0  0  0  0  0  0  0  0
   -2.5189  -33.2889  -45.7424 O   0  0  0  0  0  0  0  0  0  0  0  0
   -4.4139  -34.1860  -43.5001 C   0  0  0  0  0  0  0  0  0  0  0  0
   -4.7251  -34.3356  -42.2004 C   0  0  0  0  0  0  0  0  0  0  0  0
   -3.6883  -33.8680  -41.4204 N   0  0  0  0  0  0  0  0  0  0  0  0
   -5.2633  -34.5777  -44.6821 C   0  0  0  0  0  0  0  0  0  0  0  0
   -5.9593  -35.8438  -44.3752 N   0  0  0  0  0  0  0  0  0  0  0  0
  1  2  1  0  0  0  0
  1  7  1  0  0  0  0
  2  3  1  0  0  0  0
  2  4  2  0  0  0  0
  4  5  1  0  0  0  0
  5  6  2  0  0  0  0
  5 11  1  0  0  0  0
  6  7  1  0  0  0  0
  6  9  1  0  0  0  0
  7  8  2  0  0  0  0
  9 10  2  0  0  0  0
  9 12  1  0  0  0  0
 10 11  1  0  0  0  0
 12 13  1  0  0  0  0
M  END
>  <CHROM.1>
141.96869631,-2.84195836,-33.54550485,-43.42974247,-0.17648608,-0.48694767
-1.58776887

>  <Name>
ligand

>  <RI>
0

>  <Rbt.Current_Directory>
/home/itssahil/PROJECTS/Mol_Feturizer/Test_systems_manuscript/rnas/3fu2

>  <Rbt.Executable>
rbdock ($Id: //depot/dev/client3/rdock/2013.1/src/exe/rbdock.cxx#4 $)

>  <Rbt.Library>
libRbt.so (2013.1, Build901 2013/11/27)

>  <Rbt.Parameter_File>
/export/apps/rDock/src/rDock_2013.1_src/data/scripts/dock_solv.prm

>  <Rbt.Receptor>
prm/blind_docking_100.prm

>  <SCORE>
-16.076

>  <SCORE.INTER>
-15.8161

>  <SCORE.INTER.CONST>
1

>  <SCORE.INTER.POLAR>
0

>  <SCORE.INTER.ROT>
1

>  <SCORE.INTER.SOLV>
17.2497

>  <SCORE.INTER.VDW>
-20.5606

>  <SCORE.INTER.norm>
-1.21662

>  <SCORE.INTRA>
-0.259833

>  <SCORE.INTRA.DIHEDRAL>
0.0307906

>  <SCORE.INTRA.DIHEDRAL.0>
1.66609

>  <SCORE.INTRA.POLAR>
0

>  <SCORE.INTRA.POLAR.0>
0

>  <SCORE.INTRA.REPUL>
0

>  <SCORE.INTRA.REPUL.0>
0

>  <SCORE.INTRA.SOLV>
-0.986373

>  <SCORE.INTRA.SOLV.lig_0>
-45.868

>  <SCORE.INTRA.VDW>
0.217958

>  <SCORE.INTRA.VDW.0>
-0.397919

>  <SCORE.INTRA.norm>
-0.0199872

>  <SCORE.RESTR>
0

>  <SCORE.RESTR.CAVITY>
0

>  <SCORE.RESTR.norm>
0

>  <SCORE.SYSTEM>
0

>  <SCORE.SYSTEM.CONST>
0

>  <SCORE.SYSTEM.DIHEDRAL>
0

>  <SCORE.SYSTEM.SOLV>
0

>  <SCORE.SYSTEM.norm>
0

>  <SCORE.heavy>
13

>  <SCORE.norm>
-1.23661

>  <RMSD>
4.155

$$$$
ligand
 OpenBabel02271912143D
libRbt.so/2013.1/901 2013/11/27
 13 14  0  0  0  0  0  0  0  0999 V2000
   -0.9696  -32.6552  -44.2378 N   0  0  0  0  0  0  0  0  0  0  0  0
   -0.6261  -32.5053  -42.9209 C   0  0  0  0  0  0  0  0  0  0  0  0
    0.5980  -31.9771  -42.6131 N   0  0  0  0  0  0  0  0  0  0  0  0
   -1.4582  -32.8613  -41.9418 N   0  0  0  0  0  0  0  0  0  0  0  0
   -2.6833  -33.3907  -42.2127 C   0  0  0  0  0  0  0  0  0  0  0  0
   -3.0794  -33.5675  -43.5566 C   0  0  0  0  0  0  0  0  0  0  0  0
   -2.1787  -33.1783  -44.5848 C   0  0  0  0  0  0  0  0  0  0  0  0
   -2.4764  -33.3076  -45.7465 O   0  0  0  0  0  0  0  0  0  0  0  0
   -4.4172  -34.1498  -43.5221 C   0  0  0  0  0  0  0  0  0  0  0  0
   -4.7478  -34.2832  -42.2254 C   0  0  0  0  0  0  0  0  0  0  0  0
   -3.7122  -33.8297  -41.4357 N   0  0  0  0  0  0  0  0  0  0  0  0
   -5.2588  -34.5342  -44.7119 C   0  0  0  0  0  0  0  0  0  0  0  0
   -5.9751  -35.7898  -44.4085 N   0  0  0  0  0  0  0  0  0  0  0  0
  1  2  1  0  0  0  0
  1  7  1  0  0  0  0
  2  3  1  0  0  0  0
  2  4  2  0  0  0  0
  4  5  1  0  0  0  0
  5  6  2  0  0  0  0
  5 11  1  0  0  0  0
  6  7  1  0  0  0  0
  6  9  1  0  0  0  0
  7  8  2  0  0  0  0
  9 10  2  0  0  0  0
  9 12  1  0  0  0  0
 10 11  1  0  0  0  0
 12 13  1  0  0  0  0
M  END
>  <CHROM.1>
141.51987580,-2.83330215,-33.54014320,-43.43660879,-0.19115804,-0.46757546
-1.60239208

>  <Name>
ligand

>  <RI>
0

>  <Rbt.Current_Directory>
/home/itssahil/PROJECTS/Mol_Feturizer/Test_systems_manuscript/rnas/3fu2

>  <Rbt.Executable>
rbdock ($Id: //depot/dev/client3/rdock/2013.1/src/exe/rbdock.cxx#4 $)

>  <Rbt.Library>
libRbt.so (2013.1, Build901 2013/11/27)

>  <Rbt.Parameter_File>
/export/apps/rDock/src/rDock_2013.1_src/data/scripts/dock_solv.prm

>  <Rbt.Receptor>
prm/blind_docking_60.prm

>  <SCORE>
-16.0323

>  <SCORE.INTER>
-15.7701

>  <SCORE.INTER.CONST>
1

>  <SCORE.INTER.POLAR>
0

>  <SCORE.INTER.ROT>
1

>  <SCORE.INTER.SOLV>
17.3233

>  <SCORE.INTER.VDW>
-20.5545

>  <SCORE.INTER.norm>
-1.21309

>  <SCORE.INTRA>
-0.262118

>  <SCORE.INTRA.DIHEDRAL>
0.0306138

>  <SCORE.INTRA.DIHEDRAL.0>
1.66609

>  <SCORE.INTRA.POLAR>
0

>  <SCORE.INTRA.POLAR.0>
0

>  <SCORE.INTRA.REPUL>
0

>  <SCORE.INTRA.REPUL.0>
0

>  <SCORE.INTRA.SOLV>
-0.986527

>  <SCORE.INTRA.SOLV.lig_0>
-45.868

>  <SCORE.INTRA.VDW>
0.215839

>  <SCORE.INTRA.VDW.0>
-0.397919

>  <SCORE.INTRA.norm>
-0.0201629

>  <SCORE.RESTR>
0

>  <SCORE.RESTR.CAVITY>
0

>  <SCORE.RESTR.norm>
0

>  <SCORE.SYSTEM>
0

>  <SCORE.SYSTEM.CONST>
0

>  <SCORE.SYSTEM.DIHEDRAL>
0

>  <SCORE.SYSTEM.SOLV>
0

>  <SCORE.SYSTEM.norm>
0

>  <SCORE.heavy>
13

>  <SCORE.norm>
-1.23325

>  <RMSD>
4.155

$$$$
ligand
 OpenBabel02271912143D
libRbt.so/2013.1/901 2013/11/27
 13 14  0  0  0  0  0  0  0  0999 V2000
   -0.9596  -32.5756  -44.2161 N   0  0  0  0  0  0  0  0  0  0  0  0
   -0.6162  -32.4216  -42.8996 C   0  0  0  0  0  0  0  0  0  0  0  0
    0.5984  -31.8708  -42.5934 N   0  0  0  0  0  0  0  0  0  0  0  0
   -1.4393  -32.7951  -41.9193 N   0  0  0  0  0  0  0  0  0  0  0  0
   -2.6547  -33.3471  -42.1886 C   0  0  0  0  0  0  0  0  0  0  0  0
   -3.0503  -33.5289  -43.5320 C   0  0  0  0  0  0  0  0  0  0  0  0
   -2.1594  -33.1210  -44.5614 C   0  0  0  0  0  0  0  0  0  0  0  0
   -2.4570  -33.2539  -45.7227 O   0  0  0  0  0  0  0  0  0  0  0  0
   -4.3768  -34.1366  -43.4958 C   0  0  0  0  0  0  0  0  0  0  0  0
   -4.7020  -34.2784  -42.1986 C   0  0  0  0  0  0  0  0  0  0  0  0
   -3.6735  -33.8068  -41.4102 N   0  0  0  0  0  0  0  0  0  0  0  0
   -5.2135  -34.5347  -44.6845 C   0  0  0  0  0  0  0  0  0  0  0  0
   -5.9358  -35.7835  -44.3672 N   0  0  0  0  0  0  0  0  0  0  0  0
  1  2  1  0  0  0  0
  1  7  1  0  0  0  0
  2  3  1  0  0  0  0
  2  4  2  0  0  0  0
  4  5  1  0  0  0  0
  5  6  2  0  0  0  0
  5 11  1  0  0  0  0
  6  7  1  0  0  0  0
  6  9  1  0  0  0  0
  7  8  2  0  0  0  0
  9 10  2  0  0  0  0
  9 12  1  0  0  0  0
 10 11  1  0  0  0  0
 12 13  1  0  0  0  0
M  END
>  <CHROM.1>
143.14485597,-2.80701151,-33.49545553,-43.41130290,-0.18684045,-0.48466891
-1.59818444

>  <Name>
ligand

>  <RI>
0

>  <Rbt.Current_Directory>
/home/itssahil/PROJECTS/Mol_Feturizer/Test_systems_manuscript/rnas/3fu2

>  <Rbt.Executable>
rbdock ($Id: //depot/dev/client3/rdock/2013.1/src/exe/rbdock.cxx#4 $)

>  <Rbt.Library>
libRbt.so (2013.1, Build901 2013/11/27)

>  <Rbt.Parameter_File>
/export/apps/rDock/src/rDock_2013.1_src/data/scripts/dock_solv.prm

>  <Rbt.Receptor>
prm/blind_docking_60.prm

>  <SCORE>
-16.0011

>  <SCORE.INTER>
-15.7472

>  <SCORE.INTER.CONST>
1

>  <SCORE.INTER.POLAR>
0

>  <SCORE.INTER.ROT>
1

>  <SCORE.INTER.SOLV>
17.0261

>  <SCORE.INTER.VDW>
-20.4402

>  <SCORE.INTER.norm>
-1.21132

>  <SCORE.INTRA>
-0.253837

>  <SCORE.INTRA.DIHEDRAL>
0.0312096

>  <SCORE.INTRA.DIHEDRAL.0>
1.66609

>  <SCORE.INTRA.POLAR>
0

>  <SCORE.INTRA.POLAR.0>
0

>  <SCORE.INTRA.REPUL>
0

>  <SCORE.INTRA.REPUL.0>
0

>  <SCORE.INTRA.SOLV>
-0.985971

>  <SCORE.INTRA.SOLV.lig_0>
-45.868

>  <SCORE.INTRA.VDW>
0.223544

>  <SCORE.INTRA.VDW.0>
-0.397919

>  <SCORE.INTRA.norm>
-0.0195259

>  <SCORE.RESTR>
0

>  <SCORE.RESTR.CAVITY>
0

>  <SCORE.RESTR.norm>
0

>  <SCORE.SYSTEM>
0

>  <SCORE.SYSTEM.CONST>
0

>  <SCORE.SYSTEM.DIHEDRAL>
0

>  <SCORE.SYSTEM.SOLV>
0

>  <SCORE.SYSTEM.norm>
0

>  <SCORE.heavy>
13

>  <SCORE.norm>
-1.23085

>  <RMSD>
4.155

$$$$
ligand
 OpenBabel02271912143D
libRbt.so/2013.1/901 2013/11/27
 13 14  0  0  0  0  0  0  0  0999 V2000
   -1.0059  -32.6188  -44.2464 N   0  0  0  0  0  0  0  0  0  0  0  0
   -0.6488  -32.4725  -42.9327 C   0  0  0  0  0  0  0  0  0  0  0  0
    0.5684  -31.9223  -42.6360 N   0  0  0  0  0  0  0  0  0  0  0  0
   -1.4612  -32.8527  -41.9462 N   0  0  0  0  0  0  0  0  0  0  0  0
   -2.6788  -33.4044  -42.2061 C   0  0  0  0  0  0  0  0  0  0  0  0
   -3.0884  -33.5785  -43.5463 C   0  0  0  0  0  0  0  0  0  0  0  0
   -2.2086  -33.1633  -44.5825 C   0  0  0  0  0  0  0  0  0  0  0  0
   -2.5184  -33.2894  -45.7413 O   0  0  0  0  0  0  0  0  0  0  0  0
   -4.4138  -34.1877  -43.4999 C   0  0  0  0  0  0  0  0  0  0  0  0
   -4.7252  -34.3378  -42.2002 C   0  0  0  0  0  0  0  0  0  0  0  0
   -3.6889  -33.8699  -41.4199 N   0  0  0  0  0  0  0  0  0  0  0  0
   -5.2626  -34.5795  -44.6821 C   0  0  0  0  0  0  0  0  0  0  0  0
   -5.9636  -35.8422  -44.3731 N   0  0  0  0  0  0  0  0  0  0  0  0
  1  2  1  0  0  0  0
  1  7  1  0  0  0  0
  2  3  1  0  0  0  0
  2  4  2  0  0  0  0
  4  5  1  0  0  0  0
  5  6  2  0  0  0  0
  5 11  1  0  0  0  0
  6  7  1  0  0  0  0
  6  9  1  0  0  0  0
  7  8  2  0  0  0  0
  9 10  2  0  0  0  0
  9 12  1  0  0  0  0
 10 11  1  0  0  0  0
 12 13  1  0  0  0  0
M  END
>  <CHROM.1>
142.25642583,-2.84247121,-33.54638075,-43.42862467,-0.17638823,-0.48696655
-1.58743310

>  <Name>
ligand

>  <RI>
0

>  <Rbt.Current_Directory>
/home/itssahil/PROJECTS/Mol_Feturizer/Test_systems_manuscript/rnas/3fu2

>  <Rbt.Executable>
rbdock ($Id: //depot/dev/client3/rdock/2013.1/src/exe/rbdock.cxx#4 $)

>  <Rbt.Library>
libRbt.so (2013.1, Build901 2013/11/27)

>  <Rbt.Parameter_File>
/export/apps/rDock/src/rDock_2013.1_src/data/scripts/dock_solv.prm

>  <Rbt.Receptor>
prm/blind_docking_60.prm

>  <SCORE>
-16.0762

>  <SCORE.INTER>
-15.8178

>  <SCORE.INTER.CONST>
1

>  <SCORE.INTER.POLAR>
0

>  <SCORE.INTER.ROT>
1

>  <SCORE.INTER.SOLV>
17.2428

>  <SCORE.INTER.VDW>
-20.5595

>  <SCORE.INTER.norm>
-1.21675

>  <SCORE.INTRA>
-0.258367

>  <SCORE.INTRA.DIHEDRAL>
0.0308991

>  <SCORE.INTRA.DIHEDRAL.0>
1.66609

>  <SCORE.INTRA.POLAR>
0

>  <SCORE.INTRA.POLAR.0>
0

>  <SCORE.INTRA.REPUL>
0

>  <SCORE.INTRA.REPUL.0>
0

>  <SCORE.INTRA.SOLV>
-0.986274

>  <SCORE.INTRA.SOLV.lig_0>
-45.868

>  <SCORE.INTRA.VDW>
0.21932

>  <SCORE.INTRA.VDW.0>
-0.397919

>  <SCORE.INTRA.norm>
-0.0198744

>  <SCORE.RESTR>
0

>  <SCORE.RESTR.CAVITY>
0

>  <SCORE.RESTR.norm>
0

>  <SCORE.SYSTEM>
0

>  <SCORE.SYSTEM.CONST>
0

>  <SCORE.SYSTEM.DIHEDRAL>
0

>  <SCORE.SYSTEM.SOLV>
0

>  <SCORE.SYSTEM.norm>
0

>  <SCORE.heavy>
13

>  <SCORE.norm>
-1.23663

>  <RMSD>
4.155

$$$$
ligand
 OpenBabel02271912143D
libRbt.so/2013.1/901 2013/11/27
 13 14  0  0  0  0  0  0  0  0999 V2000
   -1.0175  -32.6448  -44.2560 N   0  0  0  0  0  0  0  0  0  0  0  0
   -0.6706  -32.4794  -42.9418 C   0  0  0  0  0  0  0  0  0  0  0  0
    0.5492  -31.9359  -42.6436 N   0  0  0  0  0  0  0  0  0  0  0  0
   -1.4953  -32.8348  -41.9562 N   0  0  0  0  0  0  0  0  0  0  0  0
   -2.7160  -33.3791  -42.2176 C   0  0  0  0  0  0  0  0  0  0  0  0
   -3.1153  -33.5723  -43.5583 C   0  0  0  0  0  0  0  0  0  0  0  0
   -2.2225  -33.1834  -44.5934 C   0  0  0  0  0  0  0  0  0  0  0  0
   -2.5232  -33.3265  -45.7527 O   0  0  0  0  0  0  0  0  0  0  0  0
   -4.4470  -34.1678  -43.5133 C   0  0  0  0  0  0  0  0  0  0  0  0
   -4.7713  -34.2926  -42.2142 C   0  0  0  0  0  0  0  0  0  0  0  0
   -3.7374  -33.8214  -41.4326 N   0  0  0  0  0  0  0  0  0  0  0  0
   -5.2891  -34.5717  -44.6963 C   0  0  0  0  0  0  0  0  0  0  0  0
   -5.9567  -35.8545  -44.3955 N   0  0  0  0  0  0  0  0  0  0  0  0
  1  2  1  0  0  0  0
  1  7  1  0  0  0  0
  2  3  1  0  0  0  0
  2  4  2  0  0  0  0
  4  5  1  0  0  0  0
  5  6  2  0  0  0  0
  5 11  1  0  0  0  0
  6  7  1  0  0  0  0
  6  9  1  0  0  0  0
  7  8  2  0  0  0  0
  9 10  2  0  0  0  0
  9 12  1  0  0  0  0
 10 11  1  0  0  0  0
 12 13  1  0  0  0  0
M  END
>  <CHROM.1>
139.68150190,-2.86623649,-33.54315662,-43.44085798,-0.19029198,-0.47996983
-1.61171310

>  <Name>
ligand

>  <RI>
0

>  <Rbt.Current_Directory>
/home/itssahil/PROJECTS/Mol_Feturizer/Test_systems_manuscript/rnas/3fu2

>  <Rbt.Executable>
rbdock ($Id: //depot/dev/client3/rdock/2013.1/src/exe/rbdock.cxx#4 $)

>  <Rbt.Library>
libRbt.so (2013.1, Build901 2013/11/27)

>  <Rbt.Parameter_File>
/export/apps/rDock/src/rDock_2013.1_src/data/scripts/dock_solv.prm

>  <Rbt.Receptor>
prm/blind_docking_80.prm

>  <SCORE>
-16.0638

>  <SCORE.INTER>
-15.7924

>  <SCORE.INTER.CONST>
1

>  <SCORE.INTER.POLAR>
0

>  <SCORE.INTER.ROT>
1

>  <SCORE.INTER.SOLV>
17.3503

>  <SCORE.INTER.VDW>
-20.5784

>  <SCORE.INTER.norm>
-1.2148

>  <SCORE.INTRA>
-0.271441

>  <SCORE.INTRA.DIHEDRAL>
0.0297943

>  <SCORE.INTRA.DIHEDRAL.0>
1.66609

>  <SCORE.INTRA.POLAR>
0

>  <SCORE.INTRA.POLAR.0>
0

>  <SCORE.INTRA.REPUL>
0

>  <SCORE.INTRA.REPUL.0>
0

>  <SCORE.INTRA.SOLV>
-0.987158

>  <SCORE.INTRA.SOLV.lig_0>
-45.868

>  <SCORE.INTRA.VDW>
0.207241

>  <SCORE.INTRA.VDW.0>
-0.397919

>  <SCORE.INTRA.norm>
-0.0208801

>  <SCORE.RESTR>
0

>  <SCORE.RESTR.CAVITY>
0

>  <SCORE.RESTR.norm>
0

>  <SCORE.SYSTEM>
0

>  <SCORE.SYSTEM.CONST>
0

>  <SCORE.SYSTEM.DIHEDRAL>
0

>  <SCORE.SYSTEM.SOLV>
0

>  <SCORE.SYSTEM.norm>
0

>  <SCORE.heavy>
13

>  <SCORE.norm>
-1.23568

>  <RMSD>
4.155

$$$$
ligand
 OpenBabel02271912143D
libRbt.so/2013.1/901 2013/11/27
 13 14  0  0  0  0  0  0  0  0999 V2000
   -1.2144  -32.6356  -44.5135 N   0  0  0  0  0  0  0  0  0  0  0  0
   -0.7762  -32.4512  -43.2294 C   0  0  0  0  0  0  0  0  0  0  0  0
    0.4514  -31.8825  -43.0252 N   0  0  0  0  0  0  0  0  0  0  0  0
   -1.5203  -32.8124  -42.1836 N   0  0  0  0  0  0  0  0  0  0  0  0
   -2.7461  -33.3816  -42.3510 C   0  0  0  0  0  0  0  0  0  0  0  0
   -3.2380  -33.5949  -43.6574 C   0  0  0  0  0  0  0  0  0  0  0  0
   -2.4302  -33.1996  -44.7580 C   0  0  0  0  0  0  0  0  0  0  0  0
   -2.8115  -33.3592  -45.8911 O   0  0  0  0  0  0  0  0  0  0  0  0
   -4.5512  -34.2145  -43.5108 C   0  0  0  0  0  0  0  0  0  0  0  0
   -4.7779  -34.3328  -42.1905 C   0  0  0  0  0  0  0  0  0  0  0  0
   -3.6992  -33.8351  -41.4902 N   0  0  0  0  0  0  0  0  0  0  0  0
   -5.4691  -34.6451  -44.6260 C   0  0  0  0  0  0  0  0  0  0  0  0
   -6.0380  -35.9678  -44.2966 N   0  0  0  0  0  0  0  0  0  0  0  0
  1  2  1  0  0  0  0
  1  7  1  0  0  0  0
  2  3  1  0  0  0  0
  2  4  2  0  0  0  0
  4  5  1  0  0  0  0
  5  6  2  0  0  0  0
  5 11  1  0  0  0  0
  6  7  1  0  0  0  0
  6  9  1  0  0  0  0
  7  8  2  0  0  0  0
  9 10  2  0  0  0  0
  9 12  1  0  0  0  0
 10 11  1  0  0  0  0
 12 13  1  0  0  0  0
M  END
>  <CHROM.1>
136.97012087,-2.97750422,-33.56258949,-43.56109998,-0.11296108,-0.50374487
-1.58466352

>  <Name>
ligand

>  <RI>
0

>  <Rbt.Current_Directory>
/home/itssahil/PROJECTS/Mol_Feturizer/Test_systems_manuscript/rnas/3fu2

>  <Rbt.Executable>
rbdock ($Id: //depot/dev/client3/rdock/2013.1/src/exe/rbdock.cxx#4 $)

>  <Rbt.Library>
libRbt.so (2013.1, Build901 2013/11/27)

>  <Rbt.Parameter_File>
/export/apps/rDock/src/rDock_2013.1_src/data/scripts/dock_solv.prm

>  <Rbt.Receptor>
prm/pocket_docking_3.prm

>  <SCORE>
-16.0326

>  <SCORE.INTER>
-15.7476

>  <SCORE.INTER.CONST>
1

>  <SCORE.INTER.POLAR>
0

>  <SCORE.INTER.ROT>
1

>  <SCORE.INTER.SOLV>
18.7812

>  <SCORE.INTER.VDW>
-21.0255

>  <SCORE.INTER.norm>
-1.21135

>  <SCORE.INTRA>
-0.285027

>  <SCORE.INTRA.DIHEDRAL>
0.0283197

>  <SCORE.INTRA.DIHEDRAL.0>
1.66609

>  <SCORE.INTRA.POLAR>
0

>  <SCORE.INTRA.POLAR.0>
0

>  <SCORE.INTRA.REPUL>
0

>  <SCORE.INTRA.REPUL.0>
0

>  <SCORE.INTRA.SOLV>
-0.988085

>  <SCORE.INTRA.SOLV.lig_0>
-45.868

>  <SCORE.INTRA.VDW>
0.194855

>  <SCORE.INTRA.VDW.0>
-0.397919

>  <SCORE.INTRA.norm>
-0.0219252

>  <SCORE.RESTR>
0

>  <SCORE.RESTR.CAVITY>
0

>  <SCORE.RESTR.norm>
0

>  <SCORE.SYSTEM>
0

>  <SCORE.SYSTEM.CONST>
0

>  <SCORE.SYSTEM.DIHEDRAL>
0

>  <SCORE.SYSTEM.SOLV>
0

>  <SCORE.SYSTEM.norm>
0

>  <SCORE.heavy>
13

>  <SCORE.norm>
-1.23328

>  <RMSD>
4.155

$$$$
ligand
 OpenBabel02271912143D
libRbt.so/2013.1/901 2013/11/27
 13 14  0  0  0  0  0  0  0  0999 V2000
   -1.0186  -32.6393  -44.3933 N   0  0  0  0  0  0  0  0  0  0  0  0
   -0.6216  -32.4822  -43.0923 C   0  0  0  0  0  0  0  0  0  0  0  0
    0.6098  -31.9427  -42.8377 N   0  0  0  0  0  0  0  0  0  0  0  0
   -1.4089  -32.8418  -42.0781 N   0  0  0  0  0  0  0  0  0  0  0  0
   -2.6398  -33.3823  -42.2959 C   0  0  0  0  0  0  0  0  0  0  0  0
   -3.0903  -33.5669  -43.6215 C   0  0  0  0  0  0  0  0  0  0  0  0
   -2.2368  -33.1736  -44.6877 C   0  0  0  0  0  0  0  0  0  0  0  0
   -2.5817  -33.3093  -45.8355 O   0  0  0  0  0  0  0  0  0  0  0  0
   -4.4205  -34.1602  -43.5293 C   0  0  0  0  0  0  0  0  0  0  0  0
   -4.6954  -34.2920  -42.2194 C   0  0  0  0  0  0  0  0  0  0  0  0
   -3.6315  -33.8273  -41.4752 N   0  0  0  0  0  0  0  0  0  0  0  0
   -5.3079  -34.5556  -44.6816 C   0  0  0  0  0  0  0  0  0  0  0  0
   -5.9653  -35.8394  -44.3635 N   0  0  0  0  0  0  0  0  0  0  0  0
  1  2  1  0  0  0  0
  1  7  1  0  0  0  0
  2  3  1  0  0  0  0
  2  4  2  0  0  0  0
  4  5  1  0  0  0  0
  5  6  2  0  0  0  0
  5 11  1  0  0  0  0
  6  7  1  0  0  0  0
  6  9  1  0  0  0  0
  7  8  2  0  0  0  0
  9 10  2  0  0  0  0
  9 12  1  0  0  0  0
 10 11  1  0  0  0  0
 12 13  1  0  0  0  0
M  END
>  <CHROM.1>
139.63258543,-2.83679856,-33.53896472,-43.51354559,-0.14736750,-0.47912815
-1.58610056

>  <Name>
ligand

>  <RI>
0

>  <Rbt.Current_Directory>
/home/itssahil/PROJECTS/Mol_Feturizer/Test_systems_manuscript/rnas/3fu2

>  <Rbt.Executable>
rbdock ($Id: //depot/dev/client3/rdock/2013.1/src/exe/rbdock.cxx#4 $)

>  <Rbt.Library>
libRbt.so (2013.1, Build901 2013/11/27)

>  <Rbt.Parameter_File>
/export/apps/rDock/src/rDock_2013.1_src/data/scripts/dock_solv.prm

>  <Rbt.Receptor>
prm/pocket_docking_4.prm

>  <SCORE>
-16.0356

>  <SCORE.INTER>
-15.7639

>  <SCORE.INTER.CONST>
1

>  <SCORE.INTER.POLAR>
0

>  <SCORE.INTER.ROT>
1

>  <SCORE.INTER.SOLV>
18.3132

>  <SCORE.INTER.VDW>
-20.8804

>  <SCORE.INTER.norm>
-1.21261

>  <SCORE.INTRA>
-0.271688

>  <SCORE.INTRA.DIHEDRAL>
0.0297704

>  <SCORE.INTRA.DIHEDRAL.0>
1.66609

>  <SCORE.INTRA.POLAR>
0

>  <SCORE.INTRA.POLAR.0>
0

>  <SCORE.INTRA.REPUL>
0

>  <SCORE.INTRA.REPUL.0>
0

>  <SCORE.INTRA.SOLV>
-0.987175

>  <SCORE.INTRA.SOLV.lig_0>
-45.868

>  <SCORE.INTRA.VDW>
0.207014

>  <SCORE.INTRA.VDW.0>
-0.397919

>  <SCORE.INTRA.norm>
-0.0208991

>  <SCORE.RESTR>
0

>  <SCORE.RESTR.CAVITY>
0

>  <SCORE.RESTR.norm>
0

>  <SCORE.SYSTEM>
0

>  <SCORE.SYSTEM.CONST>
0

>  <SCORE.SYSTEM.DIHEDRAL>
0

>  <SCORE.SYSTEM.SOLV>
0

>  <SCORE.SYSTEM.norm>
0

>  <SCORE.heavy>
13

>  <SCORE.norm>
-1.23351

>  <RMSD>
4.155

$$$$
ligand
 OpenBabel02271912143D
libRbt.so/2013.1/901 2013/11/27
 13 14  0  0  0  0  0  0  0  0999 V2000
   -0.9984  -32.6223  -44.2555 N   0  0  0  0  0  0  0  0  0  0  0  0
   -0.6500  -32.4692  -42.9402 C   0  0  0  0  0  0  0  0  0  0  0  0
    0.5691  -31.9261  -42.6383 N   0  0  0  0  0  0  0  0  0  0  0  0
   -1.4726  -32.8361  -41.9571 N   0  0  0  0  0  0  0  0  0  0  0  0
   -2.6925  -33.3804  -42.2222 C   0  0  0  0  0  0  0  0  0  0  0  0
   -3.0933  -33.5610  -43.5642 C   0  0  0  0  0  0  0  0  0  0  0  0
   -2.2028  -33.1601  -44.5967 C   0  0  0  0  0  0  0  0  0  0  0  0
   -2.5048  -33.2922  -45.7569 O   0  0  0  0  0  0  0  0  0  0  0  0
   -4.4237  -34.1598  -43.5233 C   0  0  0  0  0  0  0  0  0  0  0  0
   -4.7459  -34.2981  -42.2250 C   0  0  0  0  0  0  0  0  0  0  0  0
   -3.7119  -33.8326  -41.4403 N   0  0  0  0  0  0  0  0  0  0  0  0
   -5.2666  -34.5537  -44.7091 C   0  0  0  0  0  0  0  0  0  0  0  0
   -5.9694  -35.8158  -44.4012 N   0  0  0  0  0  0  0  0  0  0  0  0
  1  2  1  0  0  0  0
  1  7  1  0  0  0  0
  2  3  1  0  0  0  0
  2  4  2  0  0  0  0
  4  5  1  0  0  0  0
  5  6  2  0  0  0  0
  5 11  1  0  0  0  0
  6  7  1  0  0  0  0
  6  9  1  0  0  0  0
  7  8  2  0  0  0  0
  9 10  2  0  0  0  0
  9 12  1  0  0  0  0
 10 11  1  0  0  0  0
 12 13  1  0  0  0  0
M  END
>  <CHROM.1>
141.71125750,-2.84726525,-33.53054885,-43.44528226,-0.18549936,-0.47981487
-1.59901029

>  <Name>
ligand

>  <RI>
0

>  <Rbt.Current_Directory>
/home/itssahil/PROJECTS/Mol_Feturizer/Test_systems_manuscript/rnas/3fu2

>  <Rbt.Executable>
rbdock ($Id: //depot/dev/client3/rdock/2013.1/src/exe/rbdock.cxx#4 $)

>  <Rbt.Library>
libRbt.so (2013.1, Build901 2013/11/27)

>  <Rbt.Parameter_File>
/export/apps/rDock/src/rDock_2013.1_src/data/scripts/dock_solv.prm

>  <Rbt.Receptor>
prm/pocket_docking_6.prm

>  <SCORE>
-16.0518

>  <SCORE.INTER>
-15.7907

>  <SCORE.INTER.CONST>
1

>  <SCORE.INTER.POLAR>
0

>  <SCORE.INTER.ROT>
1

>  <SCORE.INTER.SOLV>
17.2644

>  <SCORE.INTER.VDW>
-20.5486

>  <SCORE.INTER.norm>
-1.21467

>  <SCORE.INTRA>
-0.261144

>  <SCORE.INTRA.DIHEDRAL>
0.0306903

>  <SCORE.INTRA.DIHEDRAL.0>
1.66609

>  <SCORE.INTRA.POLAR>
0

>  <SCORE.INTRA.POLAR.0>
0

>  <SCORE.INTRA.REPUL>
0

>  <SCORE.INTRA.REPUL.0>
0

>  <SCORE.INTRA.SOLV>
-0.986461

>  <SCORE.INTRA.SOLV.lig_0>
-45.868

>  <SCORE.INTRA.VDW>
0.216741

>  <SCORE.INTRA.VDW.0>
-0.397919

>  <SCORE.INTRA.norm>
-0.020088

>  <SCORE.RESTR>
0

>  <SCORE.RESTR.CAVITY>
0

>  <SCORE.RESTR.norm>
0

>  <SCORE.SYSTEM>
0

>  <SCORE.SYSTEM.CONST>
0

>  <SCORE.SYSTEM.DIHEDRAL>
0

>  <SCORE.SYSTEM.SOLV>
0

>  <SCORE.SYSTEM.norm>
0

>  <SCORE.heavy>
13

>  <SCORE.norm>
-1.23476

>  <RMSD>
4.155

$$$$
ligand
 OpenBabel02271912143D
libRbt.so/2013.1/901 2013/11/27
 13 14  0  0  0  0  0  0  0  0999 V2000
   -1.1275  -32.6093  -44.4322 N   0  0  0  0  0  0  0  0  0  0  0  0
   -0.7114  -32.4245  -43.1409 C   0  0  0  0  0  0  0  0  0  0  0  0
    0.5097  -31.8496  -42.9158 N   0  0  0  0  0  0  0  0  0  0  0  0
   -1.4706  -32.7911  -42.1079 N   0  0  0  0  0  0  0  0  0  0  0  0
   -2.6904  -33.3665  -42.2961 C   0  0  0  0  0  0  0  0  0  0  0  0
   -3.1597  -33.5805  -43.6107 C   0  0  0  0  0  0  0  0  0  0  0  0
   -2.3361  -33.1793  -44.6974 C   0  0  0  0  0  0  0  0  0  0  0  0
   -2.6980  -33.3392  -45.8368 O   0  0  0  0  0  0  0  0  0  0  0  0
   -4.4718  -34.2072  -43.4865 C   0  0  0  0  0  0  0  0  0  0  0  0
   -4.7196  -34.3286  -42.1703 C   0  0  0  0  0  0  0  0  0  0  0  0
   -3.6551  -33.8263  -41.4517 N   0  0  0  0  0  0  0  0  0  0  0  0
   -5.3691  -34.6410  -44.6172 C   0  0  0  0  0  0  0  0  0  0  0  0
   -6.0069  -35.9243  -44.2595 N   0  0  0  0  0  0  0  0  0  0  0  0
  1  2  1  0  0  0  0
  1  7  1  0  0  0  0
  2  3  1  0  0  0  0
  2  4  2  0  0  0  0
  4  5  1  0  0  0  0
  5  6  2  0  0  0  0
  5 11  1  0  0  0  0
  6  7  1  0  0  0  0
  6  9  1  0  0  0  0
  7  8  2  0  0  0  0
  9 10  2  0  0  0  0
  9 12  1  0  0  0  0
 10 11  1  0  0  0  0
 12 13  1  0  0  0  0
M  END
>  <CHROM.1>
140.72440857,-2.90674231,-33.54344908,-43.50691022,-0.12548020,-0.50447005
-1.58863270

>  <Name>
ligand

>  <RI>
0

>  <Rbt.Current_Directory>
/home/itssahil/PROJECTS/Mol_Feturizer/Test_systems_manuscript/rnas/3fu2

>  <Rbt.Executable>
rbdock ($Id: //depot/dev/client3/rdock/2013.1/src/exe/rbdock.cxx#4 $)

>  <Rbt.Library>
libRbt.so (2013.1, Build901 2013/11/27)

>  <Rbt.Parameter_File>
/export/apps/rDock/src/rDock_2013.1_src/data/scripts/dock_solv.prm

>  <Rbt.Receptor>
prm/pocket_docking_7.prm

>  <SCORE>
-15.9039

>  <SCORE.INTER>
-15.6378

>  <SCORE.INTER.CONST>
1

>  <SCORE.INTER.POLAR>
0

>  <SCORE.INTER.ROT>
1

>  <SCORE.INTER.SOLV>
18.3614

>  <SCORE.INTER.VDW>
-20.8123

>  <SCORE.INTER.norm>
-1.20291

>  <SCORE.INTRA>
-0.26616

>  <SCORE.INTRA.DIHEDRAL>
0.0302778

>  <SCORE.INTRA.DIHEDRAL.0>
1.66609

>  <SCORE.INTRA.POLAR>
0

>  <SCORE.INTRA.POLAR.0>
0

>  <SCORE.INTRA.REPUL>
0

>  <SCORE.INTRA.REPUL.0>
0

>  <SCORE.INTRA.SOLV>
-0.9868

>  <SCORE.INTRA.SOLV.lig_0>
-45.868

>  <SCORE.INTRA.VDW>
0.212101

>  <SCORE.INTRA.VDW.0>
-0.397919

>  <SCORE.INTRA.norm>
-0.0204739

>  <SCORE.RESTR>
0

>  <SCORE.RESTR.CAVITY>
0

>  <SCORE.RESTR.norm>
0

>  <SCORE.SYSTEM>
0

>  <SCORE.SYSTEM.CONST>
0

>  <SCORE.SYSTEM.DIHEDRAL>
0

>  <SCORE.SYSTEM.SOLV>
0

>  <SCORE.SYSTEM.norm>
0

>  <SCORE.heavy>
13

>  <SCORE.norm>
-1.22338

>  <RMSD>
4.155

$$$$
ligand
 OpenBabel02271912143D
libRbt.so/2013.1/901 2013/11/27
 13 14  0  0  0  0  0  0  0  0999 V2000
   -0.9641  -32.5886  -44.2300 N   0  0  0  0  0  0  0  0  0  0  0  0
   -0.6129  -32.4358  -42.9155 C   0  0  0  0  0  0  0  0  0  0  0  0
    0.6021  -31.8825  -42.6160 N   0  0  0  0  0  0  0  0  0  0  0  0
   -1.4291  -32.8127  -41.9307 N   0  0  0  0  0  0  0  0  0  0  0  0
   -2.6448  -33.3673  -42.1934 C   0  0  0  0  0  0  0  0  0  0  0  0
   -3.0483  -33.5480  -43.5346 C   0  0  0  0  0  0  0  0  0  0  0  0
   -2.1647  -33.1363  -44.5688 C   0  0  0  0  0  0  0  0  0  0  0  0
   -2.4692  -33.2681  -45.7284 O   0  0  0  0  0  0  0  0  0  0  0  0
   -4.3730  -34.1589  -43.4910 C   0  0  0  0  0  0  0  0  0  0  0  0
   -4.6899  -34.3035  -42.1921 C   0  0  0  0  0  0  0  0  0  0  0  0
   -3.6576  -33.8307  -41.4094 N   0  0  0  0  0  0  0  0  0  0  0  0
   -5.2162  -34.5572  -44.6752 C   0  0  0  0  0  0  0  0  0  0  0  0
   -5.9414  -35.8026  -44.3516 N   0  0  0  0  0  0  0  0  0  0  0  0
  1  2  1  0  0  0  0
  1  7  1  0  0  0  0
  2  3  1  0  0  0  0
  2  4  2  0  0  0  0
  4  5  1  0  0  0  0
  5  6  2  0  0  0  0
  5 11  1  0  0  0  0
  6  7  1  0  0  0  0
  6  9  1  0  0  0  0
  7  8  2  0  0  0  0
  9 10  2  0  0  0  0
  9 12  1  0  0  0  0
 10 11  1  0  0  0  0
 12 13  1  0  0  0  0
M  END
>  <CHROM.1>
143.57451737,-2.80496563,-33.51365497,-43.41499757,-0.17924965,-0.48671418
-1.59297907

>  <Name>
ligand

>  <RI>
0

>  <Rbt.Current_Directory>
/home/itssahil/PROJECTS/Mol_Feturizer/Test_systems_manuscript/rnas/3fu2

>  <Rbt.Executable>
rbdock ($Id: //depot/dev/client3/rdock/2013.1/src/exe/rbdock.cxx#4 $)

>  <Rbt.Library>
libRbt.so (2013.1, Build901 2013/11/27)

>  <Rbt.Parameter_File>
/export/apps/rDock/src/rDock_2013.1_src/data/scripts/dock_solv.prm

>  <Rbt.Receptor>
prm/blind_docking_100.prm

>  <SCORE>
-15.9906

>  <SCORE.INTER>
-15.739

>  <SCORE.INTER.CONST>
1

>  <SCORE.INTER.POLAR>
0

>  <SCORE.INTER.ROT>
1

>  <SCORE.INTER.SOLV>
17.124

>  <SCORE.INTER.VDW>
-20.4673

>  <SCORE.INTER.norm>
-1.21069

>  <SCORE.INTRA>
-0.251644

>  <SCORE.INTRA.DIHEDRAL>
0.0313464

>  <SCORE.INTRA.DIHEDRAL.0>
1.66609

>  <SCORE.INTRA.POLAR>
0

>  <SCORE.INTRA.POLAR.0>
0

>  <SCORE.INTRA.REPUL>
0

>  <SCORE.INTRA.REPUL.0>
0

>  <SCORE.INTRA.SOLV>
-0.985824

>  <SCORE.INTRA.SOLV.lig_0>
-45.868

>  <SCORE.INTRA.VDW>
0.225595

>  <SCORE.INTRA.VDW.0>
-0.397919

>  <SCORE.INTRA.norm>
-0.0193572

>  <SCORE.RESTR>
0

>  <SCORE.RESTR.CAVITY>
0

>  <SCORE.RESTR.norm>
0

>  <SCORE.SYSTEM>
0

>  <SCORE.SYSTEM.CONST>
0

>  <SCORE.SYSTEM.DIHEDRAL>
0

>  <SCORE.SYSTEM.SOLV>
0

>  <SCORE.SYSTEM.norm>
0

>  <SCORE.heavy>
13

>  <SCORE.norm>
-1.23005

>  <RMSD>
4.156

$$$$
ligand
 OpenBabel02271912143D
libRbt.so/2013.1/901 2013/11/27
 13 14  0  0  0  0  0  0  0  0999 V2000
   -0.9609  -32.5743  -44.2192 N   0  0  0  0  0  0  0  0  0  0  0  0
   -0.6167  -32.4197  -42.9029 C   0  0  0  0  0  0  0  0  0  0  0  0
    0.5975  -31.8676  -42.5977 N   0  0  0  0  0  0  0  0  0  0  0  0
   -1.4389  -32.7936  -41.9221 N   0  0  0  0  0  0  0  0  0  0  0  0
   -2.6539  -33.3469  -42.1904 C   0  0  0  0  0  0  0  0  0  0  0  0
   -3.0502  -33.5295  -43.5335 C   0  0  0  0  0  0  0  0  0  0  0  0
   -2.1603  -33.1209  -44.5636 C   0  0  0  0  0  0  0  0  0  0  0  0
   -2.4586  -33.2544  -45.7246 O   0  0  0  0  0  0  0  0  0  0  0  0
   -4.3760  -34.1384  -43.4962 C   0  0  0  0  0  0  0  0  0  0  0  0
   -4.7003  -34.2802  -42.1988 C   0  0  0  0  0  0  0  0  0  0  0  0
   -3.6717  -33.8075  -41.4112 N   0  0  0  0  0  0  0  0  0  0  0  0
   -5.2132  -34.5377  -44.6843 C   0  0  0  0  0  0  0  0  0  0  0  0
   -5.9477  -35.7774  -44.3598 N   0  0  0  0  0  0  0  0  0  0  0  0
  1  2  1  0  0  0  0
  1  7  1  0  0  0  0
  2  3  1  0  0  0  0
  2  4  2  0  0  0  0
  4  5  1  0  0  0  0
  5  6  2  0  0  0  0
  5 11  1  0  0  0  0
  6  7  1  0  0  0  0
  6  9  1  0  0  0  0
  7  8  2  0  0  0  0
  9 10  2  0  0  0  0
  9 12  1  0  0  0  0
 10 11  1  0  0  0  0
 12 13  1  0  0  0  0
M  END
>  <CHROM.1>
143.88147618,-2.80796206,-33.49496981,-43.41242903,-0.18500459,-0.48478451
-1.59740674

>  <Name>
ligand

>  <RI>
0

>  <Rbt.Current_Directory>
/home/itssahil/PROJECTS/Mol_Feturizer/Test_systems_manuscript/rnas/3fu2

>  <Rbt.Executable>
rbdock ($Id: //depot/dev/client3/rdock/2013.1/src/exe/rbdock.cxx#4 $)

>  <Rbt.Library>
libRbt.so (2013.1, Build901 2013/11/27)

>  <Rbt.Parameter_File>
/export/apps/rDock/src/rDock_2013.1_src/data/scripts/dock_solv.prm

>  <Rbt.Receptor>
prm/blind_docking_100.prm

>  <SCORE>
-16.002

>  <SCORE.INTER>
-15.7519

>  <SCORE.INTER.CONST>
1

>  <SCORE.INTER.POLAR>
0

>  <SCORE.INTER.ROT>
1

>  <SCORE.INTER.SOLV>
17.0338

>  <SCORE.INTER.VDW>
-20.4459

>  <SCORE.INTER.norm>
-1.21169

>  <SCORE.INTRA>
-0.250078

>  <SCORE.INTRA.DIHEDRAL>
0.0314387

>  <SCORE.INTRA.DIHEDRAL.0>
1.66609

>  <SCORE.INTRA.POLAR>
0

>  <SCORE.INTRA.POLAR.0>
0

>  <SCORE.INTRA.REPUL>
0

>  <SCORE.INTRA.REPUL.0>
0

>  <SCORE.INTRA.SOLV>
-0.985719

>  <SCORE.INTRA.SOLV.lig_0>
-45.868

>  <SCORE.INTRA.VDW>
0.227062

>  <SCORE.INTRA.VDW.0>
-0.397919

>  <SCORE.INTRA.norm>
-0.0192368

>  <SCORE.RESTR>
0

>  <SCORE.RESTR.CAVITY>
0

>  <SCORE.RESTR.norm>
0

>  <SCORE.SYSTEM>
0

>  <SCORE.SYSTEM.CONST>
0

>  <SCORE.SYSTEM.DIHEDRAL>
0

>  <SCORE.SYSTEM.SOLV>
0

>  <SCORE.SYSTEM.norm>
0

>  <SCORE.heavy>
13

>  <SCORE.norm>
-1.23092

>  <RMSD>
4.156

$$$$
ligand
 OpenBabel02271912143D
libRbt.so/2013.1/901 2013/11/27
 13 14  0  0  0  0  0  0  0  0999 V2000
   -0.9539  -32.5717  -44.2139 N   0  0  0  0  0  0  0  0  0  0  0  0
   -0.6037  -32.4224  -42.8987 C   0  0  0  0  0  0  0  0  0  0  0  0
    0.6103  -31.8682  -42.5967 N   0  0  0  0  0  0  0  0  0  0  0  0
   -1.4199  -32.8036  -41.9156 N   0  0  0  0  0  0  0  0  0  0  0  0
   -2.6346  -33.3592  -42.1808 C   0  0  0  0  0  0  0  0  0  0  0  0
   -3.0370  -33.5364  -43.5228 C   0  0  0  0  0  0  0  0  0  0  0  0
   -2.1533  -33.1201  -44.5552 C   0  0  0  0  0  0  0  0  0  0  0  0
   -2.4569  -33.2488  -45.7154 O   0  0  0  0  0  0  0  0  0  0  0  0
   -4.3608  -34.1494  -43.4820 C   0  0  0  0  0  0  0  0  0  0  0  0
   -4.6783  -34.2986  -42.1837 C   0  0  0  0  0  0  0  0  0  0  0  0
   -3.6472  -33.8266  -41.3989 N   0  0  0  0  0  0  0  0  0  0  0  0
   -5.2026  -34.5454  -44.6679 C   0  0  0  0  0  0  0  0  0  0  0  0
   -5.9376  -35.7847  -44.3432 N   0  0  0  0  0  0  0  0  0  0  0  0
  1  2  1  0  0  0  0
  1  7  1  0  0  0  0
  2  3  1  0  0  0  0
  2  4  2  0  0  0  0
  4  5  1  0  0  0  0
  5  6  2  0  0  0  0
  5 11  1  0  0  0  0
  6  7  1  0  0  0  0
  6  9  1  0  0  0  0
  7  8  2  0  0  0  0
  9 10  2  0  0  0  0
  9 12  1  0  0  0  0
 10 11  1  0  0  0  0
 12 13  1  0  0  0  0
M  END
>  <CHROM.1>
144.19511053,-2.79472106,-33.50139349,-43.40249729,-0.17907219,-0.48747413
-1.58964356

>  <Name>
ligand

>  <RI>
0

>  <Rbt.Current_Directory>
/home/itssahil/PROJECTS/Mol_Feturizer/Test_systems_manuscript/rnas/3fu2

>  <Rbt.Executable>
rbdock ($Id: //depot/dev/client3/rdock/2013.1/src/exe/rbdock.cxx#4 $)

>  <Rbt.Library>
libRbt.so (2013.1, Build901 2013/11/27)

>  <Rbt.Parameter_File>
/export/apps/rDock/src/rDock_2013.1_src/data/scripts/dock_solv.prm

>  <Rbt.Receptor>
prm/blind_docking_60.prm

>  <SCORE>
-16.0391

>  <SCORE.INTER>
-15.7907

>  <SCORE.INTER.CONST>
1

>  <SCORE.INTER.POLAR>
0

>  <SCORE.INTER.ROT>
1

>  <SCORE.INTER.SOLV>
17.0237

>  <SCORE.INTER.VDW>
-20.4683

>  <SCORE.INTER.norm>
-1.21467

>  <SCORE.INTRA>
-0.248478

>  <SCORE.INTRA.DIHEDRAL>
0.0315284

>  <SCORE.INTRA.DIHEDRAL.0>
1.66609

>  <SCORE.INTRA.POLAR>
0

>  <SCORE.INTRA.POLAR.0>
0

>  <SCORE.INTRA.REPUL>
0

>  <SCORE.INTRA.REPUL.0>
0

>  <SCORE.INTRA.SOLV>
-0.985613

>  <SCORE.INTRA.SOLV.lig_0>
-45.868

>  <SCORE.INTRA.VDW>
0.228565

>  <SCORE.INTRA.VDW.0>
-0.397919

>  <SCORE.INTRA.norm>
-0.0191137

>  <SCORE.RESTR>
0

>  <SCORE.RESTR.CAVITY>
0

>  <SCORE.RESTR.norm>
0

>  <SCORE.SYSTEM>
0

>  <SCORE.SYSTEM.CONST>
0

>  <SCORE.SYSTEM.DIHEDRAL>
0

>  <SCORE.SYSTEM.SOLV>
0

>  <SCORE.SYSTEM.norm>
0

>  <SCORE.heavy>
13

>  <SCORE.norm>
-1.23378

>  <RMSD>
4.156

$$$$
ligand
 OpenBabel02271912143D
libRbt.so/2013.1/901 2013/11/27
 13 14  0  0  0  0  0  0  0  0999 V2000
   -0.9935  -32.6281  -44.2194 N   0  0  0  0  0  0  0  0  0  0  0  0
   -0.6437  -32.4440  -42.9085 C   0  0  0  0  0  0  0  0  0  0  0  0
    0.5711  -31.8838  -42.6211 N   0  0  0  0  0  0  0  0  0  0  0  0
   -1.4608  -32.7974  -41.9159 N   0  0  0  0  0  0  0  0  0  0  0  0
   -2.6763  -33.3580  -42.1665 C   0  0  0  0  0  0  0  0  0  0  0  0
   -3.0784  -33.5706  -43.5034 C   0  0  0  0  0  0  0  0  0  0  0  0
   -2.1938  -33.1837  -44.5463 C   0  0  0  0  0  0  0  0  0  0  0  0
   -2.4971  -33.3431  -45.7027 O   0  0  0  0  0  0  0  0  0  0  0  0
   -4.4032  -34.1803  -43.4467 C   0  0  0  0  0  0  0  0  0  0  0  0
   -4.7214  -34.2939  -42.1450 C   0  0  0  0  0  0  0  0  0  0  0  0
   -3.6899  -33.8026  -41.3728 N   0  0  0  0  0  0  0  0  0  0  0  0
   -5.2452  -34.6067  -44.6219 C   0  0  0  0  0  0  0  0  0  0  0  0
   -5.9323  -35.8707  -44.2874 N   0  0  0  0  0  0  0  0  0  0  0  0
  1  2  1  0  0  0  0
  1  7  1  0  0  0  0
  2  3  1  0  0  0  0
  2  4  2  0  0  0  0
  4  5  1  0  0  0  0
  5  6  2  0  0  0  0
  5 11  1  0  0  0  0
  6  7  1  0  0  0  0
  6  9  1  0  0  0  0
  7  8  2  0  0  0  0
  9 10  2  0  0  0  0
  9 12  1  0  0  0  0
 10 11  1  0  0  0  0
 12 13  1  0  0  0  0
M  END
>  <CHROM.1>
141.51727859,-2.83209326,-33.53562659,-43.38591726,-0.18362593,-0.48908112
-1.61935854

>  <Name>
ligand

>  <RI>
0

>  <Rbt.Current_Directory>
/home/itssahil/PROJECTS/Mol_Feturizer/Test_systems_manuscript/rnas/3fu2

>  <Rbt.Executable>
rbdock ($Id: //depot/dev/client3/rdock/2013.1/src/exe/rbdock.cxx#4 $)

>  <Rbt.Library>
libRbt.so (2013.1, Build901 2013/11/27)

>  <Rbt.Parameter_File>
/export/apps/rDock/src/rDock_2013.1_src/data/scripts/dock_solv.prm

>  <Rbt.Receptor>
prm/pocket_docking_6.prm

>  <SCORE>
-16.0233

>  <SCORE.INTER>
-15.7612

>  <SCORE.INTER.CONST>
1

>  <SCORE.INTER.POLAR>
0

>  <SCORE.INTER.ROT>
1

>  <SCORE.INTER.SOLV>
17.2621

>  <SCORE.INTER.VDW>
-20.5282

>  <SCORE.INTER.norm>
-1.2124

>  <SCORE.INTRA>
-0.262131

>  <SCORE.INTRA.DIHEDRAL>
0.0306127

>  <SCORE.INTRA.DIHEDRAL.0>
1.66609

>  <SCORE.INTRA.POLAR>
0

>  <SCORE.INTRA.POLAR.0>
0

>  <SCORE.INTRA.REPUL>
0

>  <SCORE.INTRA.REPUL.0>
0

>  <SCORE.INTRA.SOLV>
-0.986528

>  <SCORE.INTRA.SOLV.lig_0>
-45.868

>  <SCORE.INTRA.VDW>
0.215826

>  <SCORE.INTRA.VDW.0>
-0.397919

>  <SCORE.INTRA.norm>
-0.0201639

>  <SCORE.RESTR>
0

>  <SCORE.RESTR.CAVITY>
0

>  <SCORE.RESTR.norm>
0

>  <SCORE.SYSTEM>
0

>  <SCORE.SYSTEM.CONST>
0

>  <SCORE.SYSTEM.DIHEDRAL>
0

>  <SCORE.SYSTEM.SOLV>
0

>  <SCORE.SYSTEM.norm>
0

>  <SCORE.heavy>
13

>  <SCORE.norm>
-1.23256

>  <RMSD>
4.156

$$$$
ligand
 OpenBabel02271912143D
libRbt.so/2013.1/901 2013/11/27
 13 14  0  0  0  0  0  0  0  0999 V2000
   -1.0298  -32.6067  -44.4112 N   0  0  0  0  0  0  0  0  0  0  0  0
   -0.6305  -32.4428  -43.1118 C   0  0  0  0  0  0  0  0  0  0  0  0
    0.5973  -31.8929  -42.8619 N   0  0  0  0  0  0  0  0  0  0  0  0
   -1.4122  -32.8059  -42.0945 N   0  0  0  0  0  0  0  0  0  0  0  0
   -2.6393  -33.3567  -42.3075 C   0  0  0  0  0  0  0  0  0  0  0  0
   -3.0919  -33.5485  -43.6313 C   0  0  0  0  0  0  0  0  0  0  0  0
   -2.2444  -33.1515  -44.7009 C   0  0  0  0  0  0  0  0  0  0  0  0
   -2.5913  -33.2931  -45.8473 O   0  0  0  0  0  0  0  0  0  0  0  0
   -4.4171  -34.1521  -43.5339 C   0  0  0  0  0  0  0  0  0  0  0  0
   -4.6875  -34.2824  -42.2229 C   0  0  0  0  0  0  0  0  0  0  0  0
   -3.6253  -33.8073  -41.4828 N   0  0  0  0  0  0  0  0  0  0  0  0
   -5.3045  -34.5577  -44.6827 C   0  0  0  0  0  0  0  0  0  0  0  0
   -5.9583  -35.8410  -44.3552 N   0  0  0  0  0  0  0  0  0  0  0  0
  1  2  1  0  0  0  0
  1  7  1  0  0  0  0
  2  3  1  0  0  0  0
  2  4  2  0  0  0  0
  4  5  1  0  0  0  0
  5  6  2  0  0  0  0
  5 11  1  0  0  0  0
  6  7  1  0  0  0  0
  6  9  1  0  0  0  0
  7  8  2  0  0  0  0
  9 10  2  0  0  0  0
  9 12  1  0  0  0  0
 10 11  1  0  0  0  0
 12 13  1  0  0  0  0
M  END
>  <CHROM.1>
140.03692431,-2.83897955,-33.51791251,-43.52378632,-0.14380956,-0.48662982
-1.58710449

>  <Name>
ligand

>  <RI>
0

>  <Rbt.Current_Directory>
/home/itssahil/PROJECTS/Mol_Feturizer/Test_systems_manuscript/rnas/3fu2

>  <Rbt.Executable>
rbdock ($Id: //depot/dev/client3/rdock/2013.1/src/exe/rbdock.cxx#4 $)

>  <Rbt.Library>
libRbt.so (2013.1, Build901 2013/11/27)

>  <Rbt.Parameter_File>
/export/apps/rDock/src/rDock_2013.1_src/data/scripts/dock_solv.prm

>  <Rbt.Receptor>
prm/pocket_docking_7.prm

>  <SCORE>
-16.0471

>  <SCORE.INTER>
-15.7774

>  <SCORE.INTER.CONST>
1

>  <SCORE.INTER.POLAR>
0

>  <SCORE.INTER.ROT>
1

>  <SCORE.INTER.SOLV>
18.3025

>  <SCORE.INTER.VDW>
-20.8858

>  <SCORE.INTER.norm>
-1.21365

>  <SCORE.INTRA>
-0.269644

>  <SCORE.INTRA.DIHEDRAL>
0.0299644

>  <SCORE.INTRA.DIHEDRAL.0>
1.66609

>  <SCORE.INTRA.POLAR>
0

>  <SCORE.INTRA.POLAR.0>
0

>  <SCORE.INTRA.REPUL>
0

>  <SCORE.INTRA.REPUL.0>
0

>  <SCORE.INTRA.SOLV>
-0.987036

>  <SCORE.INTRA.SOLV.lig_0>
-45.868

>  <SCORE.INTRA.VDW>
0.208892

>  <SCORE.INTRA.VDW.0>
-0.397919

>  <SCORE.INTRA.norm>
-0.0207418

>  <SCORE.RESTR>
0

>  <SCORE.RESTR.CAVITY>
0

>  <SCORE.RESTR.norm>
0

>  <SCORE.SYSTEM>
0

>  <SCORE.SYSTEM.CONST>
0

>  <SCORE.SYSTEM.DIHEDRAL>
0

>  <SCORE.SYSTEM.SOLV>
0

>  <SCORE.SYSTEM.norm>
0

>  <SCORE.heavy>
13

>  <SCORE.norm>
-1.23439

>  <RMSD>
4.156

$$$$
ligand
 OpenBabel02271912143D
libRbt.so/2013.1/901 2013/11/27
 13 14  0  0  0  0  0  0  0  0999 V2000
   -1.0151  -32.6224  -44.2571 N   0  0  0  0  0  0  0  0  0  0  0  0
   -0.6653  -32.4668  -42.9425 C   0  0  0  0  0  0  0  0  0  0  0  0
    0.5518  -31.9181  -42.6428 N   0  0  0  0  0  0  0  0  0  0  0  0
   -1.4848  -32.8367  -41.9579 N   0  0  0  0  0  0  0  0  0  0  0  0
   -2.7026  -33.3866  -42.2207 C   0  0  0  0  0  0  0  0  0  0  0  0
   -3.1047  -33.5700  -43.5619 C   0  0  0  0  0  0  0  0  0  0  0  0
   -2.2175  -33.1657  -44.5961 C   0  0  0  0  0  0  0  0  0  0  0  0
   -2.5208  -33.3000  -45.7557 O   0  0  0  0  0  0  0  0  0  0  0  0
   -4.4323  -34.1747  -43.5186 C   0  0  0  0  0  0  0  0  0  0  0  0
   -4.7520  -34.3135  -42.2197 C   0  0  0  0  0  0  0  0  0  0  0  0
   -3.7188  -33.8428  -41.4369 N   0  0  0  0  0  0  0  0  0  0  0  0
   -5.2753  -34.5731  -44.7028 C   0  0  0  0  0  0  0  0  0  0  0  0
   -5.9743  -35.8365  -44.3918 N   0  0  0  0  0  0  0  0  0  0  0  0
  1  2  1  0  0  0  0
  1  7  1  0  0  0  0
  2  3  1  0  0  0  0
  2  4  2  0  0  0  0
  4  5  1  0  0  0  0
  5  6  2  0  0  0  0
  5 11  1  0  0  0  0
  6  7  1  0  0  0  0
  6  9  1  0  0  0  0
  7  8  2  0  0  0  0
  9 10  2  0  0  0  0
  9 12  1  0  0  0  0
 10 11  1  0  0  0  0
 12 13  1  0  0  0  0
M  END
>  <CHROM.1>
141.83643140,-2.85879354,-33.53816970,-43.44333735,-0.18369853,-0.48417169
-1.59882500

>  <Name>
ligand

>  <RI>
0

>  <Rbt.Current_Directory>
/home/itssahil/PROJECTS/Mol_Feturizer/Test_systems_manuscript/rnas/3fu2

>  <Rbt.Executable>
rbdock ($Id: //depot/dev/client3/rdock/2013.1/src/exe/rbdock.cxx#4 $)

>  <Rbt.Library>
libRbt.so (2013.1, Build901 2013/11/27)

>  <Rbt.Parameter_File>
/export/apps/rDock/src/rDock_2013.1_src/data/scripts/dock_solv.prm

>  <Rbt.Receptor>
prm/pocket_docking_8.prm

>  <SCORE>
-16.0361

>  <SCORE.INTER>
-15.7755

>  <SCORE.INTER.CONST>
1

>  <SCORE.INTER.POLAR>
0

>  <SCORE.INTER.ROT>
1

>  <SCORE.INTER.SOLV>
17.2841

>  <SCORE.INTER.VDW>
-20.5451

>  <SCORE.INTER.norm>
-1.2135

>  <SCORE.INTRA>
-0.260507

>  <SCORE.INTRA.DIHEDRAL>
0.0307395

>  <SCORE.INTRA.DIHEDRAL.0>
1.66609

>  <SCORE.INTRA.POLAR>
0

>  <SCORE.INTRA.POLAR.0>
0

>  <SCORE.INTRA.REPUL>
0

>  <SCORE.INTRA.REPUL.0>
0

>  <SCORE.INTRA.SOLV>
-0.986418

>  <SCORE.INTRA.SOLV.lig_0>
-45.868

>  <SCORE.INTRA.VDW>
0.217333

>  <SCORE.INTRA.VDW.0>
-0.397919

>  <SCORE.INTRA.norm>
-0.020039

>  <SCORE.RESTR>
0

>  <SCORE.RESTR.CAVITY>
0

>  <SCORE.RESTR.norm>
0

>  <SCORE.SYSTEM>
0

>  <SCORE.SYSTEM.CONST>
0

>  <SCORE.SYSTEM.DIHEDRAL>
0

>  <SCORE.SYSTEM.SOLV>
0

>  <SCORE.SYSTEM.norm>
0

>  <SCORE.heavy>
13

>  <SCORE.norm>
-1.23354

>  <RMSD>
4.156

$$$$
ligand
 OpenBabel02271912143D
libRbt.so/2013.1/901 2013/11/27
 13 14  0  0  0  0  0  0  0  0999 V2000
   -1.0058  -32.6265  -44.2701 N   0  0  0  0  0  0  0  0  0  0  0  0
   -0.6596  -32.4609  -42.9557 C   0  0  0  0  0  0  0  0  0  0  0  0
    0.5576  -31.9120  -42.6570 N   0  0  0  0  0  0  0  0  0  0  0  0
   -1.4826  -32.8213  -41.9705 N   0  0  0  0  0  0  0  0  0  0  0  0
   -2.7007  -33.3710  -42.2324 C   0  0  0  0  0  0  0  0  0  0  0  0
   -3.0993  -33.5645  -43.5732 C   0  0  0  0  0  0  0  0  0  0  0  0
   -2.2083  -33.1704  -44.6081 C   0  0  0  0  0  0  0  0  0  0  0  0
   -2.5085  -33.3135  -45.7675 O   0  0  0  0  0  0  0  0  0  0  0  0
   -4.4281  -34.1664  -43.5289 C   0  0  0  0  0  0  0  0  0  0  0  0
   -4.7518  -34.2941  -42.2298 C   0  0  0  0  0  0  0  0  0  0  0  0
   -3.7200  -33.8190  -41.4478 N   0  0  0  0  0  0  0  0  0  0  0  0
   -5.2684  -34.5729  -44.7122 C   0  0  0  0  0  0  0  0  0  0  0  0
   -5.9721  -35.8315  -44.3924 N   0  0  0  0  0  0  0  0  0  0  0  0
  1  2  1  0  0  0  0
  1  7  1  0  0  0  0
  2  3  1  0  0  0  0
  2  4  2  0  0  0  0
  4  5  1  0  0  0  0
  5  6  2  0  0  0  0
  5 11  1  0  0  0  0
  6  7  1  0  0  0  0
  6  9  1  0  0  0  0
  7  8  2  0  0  0  0
  9 10  2  0  0  0  0
  9 12  1  0  0  0  0
 10 11  1  0  0  0  0
 12 13  1  0  0  0  0
M  END
>  <CHROM.1>
141.90949641,-2.85373219,-33.53215102,-43.45415859,-0.18678526,-0.48213344
-1.60835963

>  <Name>
ligand

>  <RI>
0

>  <Rbt.Current_Directory>
/home/itssahil/PROJECTS/Mol_Feturizer/Test_systems_manuscript/rnas/3fu2

>  <Rbt.Executable>
rbdock ($Id: //depot/dev/client3/rdock/2013.1/src/exe/rbdock.cxx#4 $)

>  <Rbt.Library>
libRbt.so (2013.1, Build901 2013/11/27)

>  <Rbt.Parameter_File>
/export/apps/rDock/src/rDock_2013.1_src/data/scripts/dock_solv.prm

>  <Rbt.Receptor>
prm/blind_docking_100.prm

>  <SCORE>
-16.034

>  <SCORE.INTER>
-15.7739

>  <SCORE.INTER.CONST>
1

>  <SCORE.INTER.POLAR>
0

>  <SCORE.INTER.ROT>
1

>  <SCORE.INTER.SOLV>
17.3689

>  <SCORE.INTER.VDW>
-20.5722

>  <SCORE.INTER.norm>
-1.21338

>  <SCORE.INTRA>
-0.260135

>  <SCORE.INTRA.DIHEDRAL>
0.0307679

>  <SCORE.INTRA.DIHEDRAL.0>
1.66609

>  <SCORE.INTRA.POLAR>
0

>  <SCORE.INTRA.POLAR.0>
0

>  <SCORE.INTRA.REPUL>
0

>  <SCORE.INTRA.REPUL.0>
0

>  <SCORE.INTRA.SOLV>
-0.986393

>  <SCORE.INTRA.SOLV.lig_0>
-45.868

>  <SCORE.INTRA.VDW>
0.217678

>  <SCORE.INTRA.VDW.0>
-0.397919

>  <SCORE.INTRA.norm>
-0.0200104

>  <SCORE.RESTR>
0

>  <SCORE.RESTR.CAVITY>
0

>  <SCORE.RESTR.norm>
0

>  <SCORE.SYSTEM>
0

>  <SCORE.SYSTEM.CONST>
0

>  <SCORE.SYSTEM.DIHEDRAL>
0

>  <SCORE.SYSTEM.SOLV>
0

>  <SCORE.SYSTEM.norm>
0

>  <SCORE.heavy>
13

>  <SCORE.norm>
-1.23339

>  <RMSD>
4.157

$$$$
ligand
 OpenBabel02271912143D
libRbt.so/2013.1/901 2013/11/27
 13 14  0  0  0  0  0  0  0  0999 V2000
   -0.9576  -32.5982  -44.2225 N   0  0  0  0  0  0  0  0  0  0  0  0
   -0.6173  -32.4305  -42.9068 C   0  0  0  0  0  0  0  0  0  0  0  0
    0.5966  -31.8768  -42.6035 N   0  0  0  0  0  0  0  0  0  0  0  0
   -1.4429  -32.7935  -41.9247 N   0  0  0  0  0  0  0  0  0  0  0  0
   -2.6577  -33.3481  -42.1912 C   0  0  0  0  0  0  0  0  0  0  0  0
   -3.0501  -33.5439  -43.5335 C   0  0  0  0  0  0  0  0  0  0  0  0
   -2.1566  -33.1469  -44.5650 C   0  0  0  0  0  0  0  0  0  0  0  0
   -2.4515  -33.2918  -45.7255 O   0  0  0  0  0  0  0  0  0  0  0  0
   -4.3768  -34.1509  -43.4942 C   0  0  0  0  0  0  0  0  0  0  0  0
   -4.7052  -34.2791  -42.1964 C   0  0  0  0  0  0  0  0  0  0  0  0
   -3.6785  -33.7995  -41.4105 N   0  0  0  0  0  0  0  0  0  0  0  0
   -5.2108  -34.5613  -44.6807 C   0  0  0  0  0  0  0  0  0  0  0  0
   -5.9386  -35.8032  -44.3500 N   0  0  0  0  0  0  0  0  0  0  0  0
  1  2  1  0  0  0  0
  1  7  1  0  0  0  0
  2  3  1  0  0  0  0
  2  4  2  0  0  0  0
  4  5  1  0  0  0  0
  5  6  2  0  0  0  0
  5 11  1  0  0  0  0
  6  7  1  0  0  0  0
  6  9  1  0  0  0  0
  7  8  2  0  0  0  0
  9 10  2  0  0  0  0
  9 12  1  0  0  0  0
 10 11  1  0  0  0  0
 12 13  1  0  0  0  0
M  END
>  <CHROM.1>
143.39333875,-2.80747714,-33.50894849,-43.41243089,-0.18918396,-0.48409796
-1.60966136

>  <Name>
ligand

>  <RI>
0

>  <Rbt.Current_Directory>
/home/itssahil/PROJECTS/Mol_Feturizer/Test_systems_manuscript/rnas/3fu2

>  <Rbt.Executable>
rbdock ($Id: //depot/dev/client3/rdock/2013.1/src/exe/rbdock.cxx#4 $)

>  <Rbt.Library>
libRbt.so (2013.1, Build901 2013/11/27)

>  <Rbt.Parameter_File>
/export/apps/rDock/src/rDock_2013.1_src/data/scripts/dock_solv.prm

>  <Rbt.Receptor>
prm/blind_docking_60.prm

>  <SCORE>
-16.033

>  <SCORE.INTER>
-15.7804

>  <SCORE.INTER.CONST>
1

>  <SCORE.INTER.POLAR>
0

>  <SCORE.INTER.ROT>
1

>  <SCORE.INTER.SOLV>
17.1236

>  <SCORE.INTER.VDW>
-20.4948

>  <SCORE.INTER.norm>
-1.21388

>  <SCORE.INTRA>
-0.252569

>  <SCORE.INTRA.DIHEDRAL>
0.0312898

>  <SCORE.INTRA.DIHEDRAL.0>
1.66609

>  <SCORE.INTRA.POLAR>
0

>  <SCORE.INTRA.POLAR.0>
0

>  <SCORE.INTRA.REPUL>
0

>  <SCORE.INTRA.REPUL.0>
0

>  <SCORE.INTRA.SOLV>
-0.985886

>  <SCORE.INTRA.SOLV.lig_0>
-45.868

>  <SCORE.INTRA.VDW>
0.224729

>  <SCORE.INTRA.VDW.0>
-0.397919

>  <SCORE.INTRA.norm>
-0.0194284

>  <SCORE.RESTR>
0

>  <SCORE.RESTR.CAVITY>
0

>  <SCORE.RESTR.norm>
0

>  <SCORE.SYSTEM>
0

>  <SCORE.SYSTEM.CONST>
0

>  <SCORE.SYSTEM.DIHEDRAL>
0

>  <SCORE.SYSTEM.SOLV>
0

>  <SCORE.SYSTEM.norm>
0

>  <SCORE.heavy>
13

>  <SCORE.norm>
-1.23331

>  <RMSD>
4.157

$$$$
ligand
 OpenBabel02271912143D
libRbt.so/2013.1/901 2013/11/27
 13 14  0  0  0  0  0  0  0  0999 V2000
   -1.0272  -32.6196  -44.4052 N   0  0  0  0  0  0  0  0  0  0  0  0
   -0.6275  -32.4643  -43.1049 C   0  0  0  0  0  0  0  0  0  0  0  0
    0.5996  -31.9145  -42.8518 N   0  0  0  0  0  0  0  0  0  0  0  0
   -1.4083  -32.8355  -42.0898 N   0  0  0  0  0  0  0  0  0  0  0  0
   -2.6347  -33.3865  -42.3060 C   0  0  0  0  0  0  0  0  0  0  0  0
   -3.0877  -33.5697  -43.6309 C   0  0  0  0  0  0  0  0  0  0  0  0
   -2.2412  -33.1641  -44.6981 C   0  0  0  0  0  0  0  0  0  0  0  0
   -2.5885  -33.2981  -45.8454 O   0  0  0  0  0  0  0  0  0  0  0  0
   -4.4120  -34.1758  -43.5371 C   0  0  0  0  0  0  0  0  0  0  0  0
   -4.6815  -34.3155  -42.2270 C   0  0  0  0  0  0  0  0  0  0  0  0
   -3.6196  -33.8441  -41.4841 N   0  0  0  0  0  0  0  0  0  0  0  0
   -5.2994  -34.5745  -44.6883 C   0  0  0  0  0  0  0  0  0  0  0  0
   -5.9556  -35.8582  -44.3671 N   0  0  0  0  0  0  0  0  0  0  0  0
  1  2  1  0  0  0  0
  1  7  1  0  0  0  0
  2  3  1  0  0  0  0
  2  4  2  0  0  0  0
  4  5  1  0  0  0  0
  5  6  2  0  0  0  0
  5 11  1  0  0  0  0
  6  7  1  0  0  0  0
  6  9  1  0  0  0  0
  7  8  2  0  0  0  0
  9 10  2  0  0  0  0
  9 12  1  0  0  0  0
 10 11  1  0  0  0  0
 12 13  1  0  0  0  0
M  END
>  <CHROM.1>
140.26426942,-2.83506030,-33.53925182,-43.52313656,-0.14291903,-0.48772540
-1.57967853

>  <Name>
ligand

>  <RI>
0

>  <Rbt.Current_Directory>
/home/itssahil/PROJECTS/Mol_Feturizer/Test_systems_manuscript/rnas/3fu2

>  <Rbt.Executable>
rbdock ($Id: //depot/dev/client3/rdock/2013.1/src/exe/rbdock.cxx#4 $)

>  <Rbt.Library>
libRbt.so (2013.1, Build901 2013/11/27)

>  <Rbt.Parameter_File>
/export/apps/rDock/src/rDock_2013.1_src/data/scripts/dock_solv.prm

>  <Rbt.Receptor>
prm/pocket_docking_4.prm

>  <SCORE>
-16.0207

>  <SCORE.INTER>
-15.7522

>  <SCORE.INTER.CONST>
1

>  <SCORE.INTER.POLAR>
0

>  <SCORE.INTER.ROT>
1

>  <SCORE.INTER.SOLV>
18.3046

>  <SCORE.INTER.VDW>
-20.8696

>  <SCORE.INTER.norm>
-1.21171

>  <SCORE.INTRA>
-0.268493

>  <SCORE.INTRA.DIHEDRAL>
0.0300704

>  <SCORE.INTRA.DIHEDRAL.0>
1.66609

>  <SCORE.INTRA.POLAR>
0

>  <SCORE.INTRA.POLAR.0>
0

>  <SCORE.INTRA.REPUL>
0

>  <SCORE.INTRA.REPUL.0>
0

>  <SCORE.INTRA.SOLV>
-0.986958

>  <SCORE.INTRA.SOLV.lig_0>
-45.868

>  <SCORE.INTRA.VDW>
0.209951

>  <SCORE.INTRA.VDW.0>
-0.397919

>  <SCORE.INTRA.norm>
-0.0206533

>  <SCORE.RESTR>
0

>  <SCORE.RESTR.CAVITY>
0

>  <SCORE.RESTR.norm>
0

>  <SCORE.SYSTEM>
0

>  <SCORE.SYSTEM.CONST>
0

>  <SCORE.SYSTEM.DIHEDRAL>
0

>  <SCORE.SYSTEM.SOLV>
0

>  <SCORE.SYSTEM.norm>
0

>  <SCORE.heavy>
13

>  <SCORE.norm>
-1.23236

>  <RMSD>
4.157

$$$$
ligand
 OpenBabel02271912143D
libRbt.so/2013.1/901 2013/11/27
 13 14  0  0  0  0  0  0  0  0999 V2000
   -1.0245  -32.6153  -44.4408 N   0  0  0  0  0  0  0  0  0  0  0  0
   -0.6270  -32.4369  -43.1428 C   0  0  0  0  0  0  0  0  0  0  0  0
    0.6022  -31.8883  -42.8974 N   0  0  0  0  0  0  0  0  0  0  0  0
   -1.4120  -32.7845  -42.1225 N   0  0  0  0  0  0  0  0  0  0  0  0
   -2.6406  -33.3336  -42.3311 C   0  0  0  0  0  0  0  0  0  0  0  0
   -3.0914  -33.5401  -43.6533 C   0  0  0  0  0  0  0  0  0  0  0  0
   -2.2405  -33.1594  -44.7261 C   0  0  0  0  0  0  0  0  0  0  0  0
   -2.5858  -33.3139  -45.8713 O   0  0  0  0  0  0  0  0  0  0  0  0
   -4.4190  -34.1378  -43.5509 C   0  0  0  0  0  0  0  0  0  0  0  0
   -4.6922  -34.2509  -42.2390 C   0  0  0  0  0  0  0  0  0  0  0  0
   -3.6297  -33.7704  -41.5028 N   0  0  0  0  0  0  0  0  0  0  0  0
   -5.3056  -34.5543  -44.6964 C   0  0  0  0  0  0  0  0  0  0  0  0
   -5.9192  -35.8599  -44.3790 N   0  0  0  0  0  0  0  0  0  0  0  0
  1  2  1  0  0  0  0
  1  7  1  0  0  0  0
  2  3  1  0  0  0  0
  2  4  2  0  0  0  0
  4  5  1  0  0  0  0
  5  6  2  0  0  0  0
  5 11  1  0  0  0  0
  6  7  1  0  0  0  0
  6  9  1  0  0  0  0
  7  8  2  0  0  0  0
  9 10  2  0  0  0  0
  9 12  1  0  0  0  0
 10 11  1  0  0  0  0
 12 13  1  0  0  0  0
M  END
>  <CHROM.1>
137.60774862,-2.83486706,-33.51141658,-43.54767695,-0.14990154,-0.48572121
-1.60286376

>  <Name>
ligand

>  <RI>
0

>  <Rbt.Current_Directory>
/home/itssahil/PROJECTS/Mol_Feturizer/Test_systems_manuscript/rnas/3fu2

>  <Rbt.Executable>
rbdock ($Id: //depot/dev/client3/rdock/2013.1/src/exe/rbdock.cxx#4 $)

>  <Rbt.Library>
libRbt.so (2013.1, Build901 2013/11/27)

>  <Rbt.Parameter_File>
/export/apps/rDock/src/rDock_2013.1_src/data/scripts/dock_solv.prm

>  <Rbt.Receptor>
prm/pocket_docking_5.prm

>  <SCORE>
-16.0114

>  <SCORE.INTER>
-15.7296

>  <SCORE.INTER.CONST>
1

>  <SCORE.INTER.POLAR>
0

>  <SCORE.INTER.ROT>
1

>  <SCORE.INTER.SOLV>
18.5146

>  <SCORE.INTER.VDW>
-20.9246

>  <SCORE.INTER.norm>
-1.20997

>  <SCORE.INTRA>
-0.281854

>  <SCORE.INTRA.DIHEDRAL>
0.0286938

>  <SCORE.INTRA.DIHEDRAL.0>
1.66609

>  <SCORE.INTRA.POLAR>
0

>  <SCORE.INTRA.POLAR.0>
0

>  <SCORE.INTRA.REPUL>
0

>  <SCORE.INTRA.REPUL.0>
0

>  <SCORE.INTRA.SOLV>
-0.987868

>  <SCORE.INTRA.SOLV.lig_0>
-45.868

>  <SCORE.INTRA.VDW>
0.197733

>  <SCORE.INTRA.VDW.0>
-0.397919

>  <SCORE.INTRA.norm>
-0.0216811

>  <SCORE.RESTR>
0

>  <SCORE.RESTR.CAVITY>
0

>  <SCORE.RESTR.norm>
0

>  <SCORE.SYSTEM>
0

>  <SCORE.SYSTEM.CONST>
0

>  <SCORE.SYSTEM.DIHEDRAL>
0

>  <SCORE.SYSTEM.SOLV>
0

>  <SCORE.SYSTEM.norm>
0

>  <SCORE.heavy>
13

>  <SCORE.norm>
-1.23165

>  <RMSD>
4.157

$$$$
ligand
 OpenBabel02271912143D
libRbt.so/2013.1/901 2013/11/27
 13 14  0  0  0  0  0  0  0  0999 V2000
   -1.0351  -32.6032  -44.4253 N   0  0  0  0  0  0  0  0  0  0  0  0
   -0.6331  -32.4366  -43.1271 C   0  0  0  0  0  0  0  0  0  0  0  0
    0.5940  -31.8835  -42.8810 N   0  0  0  0  0  0  0  0  0  0  0  0
   -1.4115  -32.8002  -42.1074 N   0  0  0  0  0  0  0  0  0  0  0  0
   -2.6378  -33.3542  -42.3166 C   0  0  0  0  0  0  0  0  0  0  0  0
   -3.0932  -33.5488  -43.6391 C   0  0  0  0  0  0  0  0  0  0  0  0
   -2.2492  -33.1512  -44.7113 C   0  0  0  0  0  0  0  0  0  0  0  0
   -2.5985  -33.2952  -45.8567 O   0  0  0  0  0  0  0  0  0  0  0  0
   -4.4167  -34.1554  -43.5376 C   0  0  0  0  0  0  0  0  0  0  0  0
   -4.6835  -34.2846  -42.2259 C   0  0  0  0  0  0  0  0  0  0  0  0
   -3.6207  -33.8059  -41.4890 N   0  0  0  0  0  0  0  0  0  0  0  0
   -5.3059  -34.5647  -44.6838 C   0  0  0  0  0  0  0  0  0  0  0  0
   -5.9624  -35.8448  -44.3494 N   0  0  0  0  0  0  0  0  0  0  0  0
  1  2  1  0  0  0  0
  1  7  1  0  0  0  0
  2  3  1  0  0  0  0
  2  4  2  0  0  0  0
  4  5  1  0  0  0  0
  5  6  2  0  0  0  0
  5 11  1  0  0  0  0
  6  7  1  0  0  0  0
  6  9  1  0  0  0  0
  7  8  2  0  0  0  0
  9 10  2  0  0  0  0
  9 12  1  0  0  0  0
 10 11  1  0  0  0  0
 12 13  1  0  0  0  0
M  END
>  <CHROM.1>
140.38456080,-2.84055187,-33.51713265,-43.53196375,-0.14054121,-0.48862632
-1.58685776

>  <Name>
ligand

>  <RI>
0

>  <Rbt.Current_Directory>
/home/itssahil/PROJECTS/Mol_Feturizer/Test_systems_manuscript/rnas/3fu2

>  <Rbt.Executable>
rbdock ($Id: //depot/dev/client3/rdock/2013.1/src/exe/rbdock.cxx#4 $)

>  <Rbt.Library>
libRbt.so (2013.1, Build901 2013/11/27)

>  <Rbt.Parameter_File>
/export/apps/rDock/src/rDock_2013.1_src/data/scripts/dock_solv.prm

>  <Rbt.Receptor>
prm/pocket_docking_5.prm

>  <SCORE>
-16.0333

>  <SCORE.INTER>
-15.7654

>  <SCORE.INTER.CONST>
1

>  <SCORE.INTER.POLAR>
0

>  <SCORE.INTER.ROT>
1

>  <SCORE.INTER.SOLV>
18.3725

>  <SCORE.INTER.VDW>
-20.9011

>  <SCORE.INTER.norm>
-1.21272

>  <SCORE.INTRA>
-0.267884

>  <SCORE.INTRA.DIHEDRAL>
0.0301255

>  <SCORE.INTRA.DIHEDRAL.0>
1.66609

>  <SCORE.INTRA.POLAR>
0

>  <SCORE.INTRA.POLAR.0>
0

>  <SCORE.INTRA.REPUL>
0

>  <SCORE.INTRA.REPUL.0>
0

>  <SCORE.INTRA.SOLV>
-0.986917

>  <SCORE.INTRA.SOLV.lig_0>
-45.868

>  <SCORE.INTRA.VDW>
0.210512

>  <SCORE.INTRA.VDW.0>
-0.397919

>  <SCORE.INTRA.norm>
-0.0206064

>  <SCORE.RESTR>
0

>  <SCORE.RESTR.CAVITY>
0

>  <SCORE.RESTR.norm>
0

>  <SCORE.SYSTEM>
0

>  <SCORE.SYSTEM.CONST>
0

>  <SCORE.SYSTEM.DIHEDRAL>
0

>  <SCORE.SYSTEM.SOLV>
0

>  <SCORE.SYSTEM.norm>
0

>  <SCORE.heavy>
13

>  <SCORE.norm>
-1.23333

>  <RMSD>
4.157

$$$$
ligand
 OpenBabel02271912143D
libRbt.so/2013.1/901 2013/11/27
 13 14  0  0  0  0  0  0  0  0999 V2000
   -1.0283  -32.6156  -44.4128 N   0  0  0  0  0  0  0  0  0  0  0  0
   -0.6329  -32.4459  -43.1129 C   0  0  0  0  0  0  0  0  0  0  0  0
    0.5937  -31.8942  -42.8617 N   0  0  0  0  0  0  0  0  0  0  0  0
   -1.4175  -32.8052  -42.0964 N   0  0  0  0  0  0  0  0  0  0  0  0
   -2.6436  -33.3576  -42.3106 C   0  0  0  0  0  0  0  0  0  0  0  0
   -3.0922  -33.5553  -43.6350 C   0  0  0  0  0  0  0  0  0  0  0  0
   -2.2417  -33.1623  -44.7037 C   0  0  0  0  0  0  0  0  0  0  0  0
   -2.5851  -33.3090  -45.8506 O   0  0  0  0  0  0  0  0  0  0  0  0
   -4.4173  -34.1594  -43.5389 C   0  0  0  0  0  0  0  0  0  0  0  0
   -4.6914  -34.2842  -42.2282 C   0  0  0  0  0  0  0  0  0  0  0  0
   -3.6317  -33.8053  -41.4870 N   0  0  0  0  0  0  0  0  0  0  0  0
   -5.3010  -34.5704  -44.6886 C   0  0  0  0  0  0  0  0  0  0  0  0
   -5.9293  -35.8689  -44.3715 N   0  0  0  0  0  0  0  0  0  0  0  0
  1  2  1  0  0  0  0
  1  7  1  0  0  0  0
  2  3  1  0  0  0  0
  2  4  2  0  0  0  0
  4  5  1  0  0  0  0
  5  6  2  0  0  0  0
  5 11  1  0  0  0  0
  6  7  1  0  0  0  0
  6  9  1  0  0  0  0
  7  8  2  0  0  0  0
  9 10  2  0  0  0  0
  9 12  1  0  0  0  0
 10 11  1  0  0  0  0
 12 13  1  0  0  0  0
M  END
>  <CHROM.1>
138.66297481,-2.83745305,-33.52544420,-43.52796225,-0.14944916,-0.48872994
-1.59431419

>  <Name>
ligand

>  <RI>
0

>  <Rbt.Current_Directory>
/home/itssahil/PROJECTS/Mol_Feturizer/Test_systems_manuscript/rnas/3fu2

>  <Rbt.Executable>
rbdock ($Id: //depot/dev/client3/rdock/2013.1/src/exe/rbdock.cxx#4 $)

>  <Rbt.Library>
libRbt.so (2013.1, Build901 2013/11/27)

>  <Rbt.Parameter_File>
/export/apps/rDock/src/rDock_2013.1_src/data/scripts/dock_solv.prm

>  <Rbt.Receptor>
prm/pocket_docking_6.prm

>  <SCORE>
-16.0379

>  <SCORE.INTER>
-15.7613

>  <SCORE.INTER.CONST>
1

>  <SCORE.INTER.POLAR>
0

>  <SCORE.INTER.ROT>
1

>  <SCORE.INTER.SOLV>
18.3313

>  <SCORE.INTER.VDW>
-20.8846

>  <SCORE.INTER.norm>
-1.21241

>  <SCORE.INTRA>
-0.276572

>  <SCORE.INTRA.DIHEDRAL>
0.0292764

>  <SCORE.INTRA.DIHEDRAL.0>
1.66609

>  <SCORE.INTRA.POLAR>
0

>  <SCORE.INTRA.POLAR.0>
0

>  <SCORE.INTRA.REPUL>
0

>  <SCORE.INTRA.REPUL.0>
0

>  <SCORE.INTRA.SOLV>
-0.987508

>  <SCORE.INTRA.SOLV.lig_0>
-45.868

>  <SCORE.INTRA.VDW>
0.202544

>  <SCORE.INTRA.VDW.0>
-0.397919

>  <SCORE.INTRA.norm>
-0.0212748

>  <SCORE.RESTR>
0

>  <SCORE.RESTR.CAVITY>
0

>  <SCORE.RESTR.norm>
0

>  <SCORE.SYSTEM>
0

>  <SCORE.SYSTEM.CONST>
0

>  <SCORE.SYSTEM.DIHEDRAL>
0

>  <SCORE.SYSTEM.SOLV>
0

>  <SCORE.SYSTEM.norm>
0

>  <SCORE.heavy>
13

>  <SCORE.norm>
-1.23368

>  <RMSD>
4.157

$$$$
ligand
 OpenBabel02271912143D
libRbt.so/2013.1/901 2013/11/27
 13 14  0  0  0  0  0  0  0  0999 V2000
   -1.0250  -32.5685  -44.4249 N   0  0  0  0  0  0  0  0  0  0  0  0
   -0.6248  -32.4041  -43.1258 C   0  0  0  0  0  0  0  0  0  0  0  0
    0.6001  -31.8474  -42.8770 N   0  0  0  0  0  0  0  0  0  0  0  0
   -1.4029  -32.7732  -42.1079 N   0  0  0  0  0  0  0  0  0  0  0  0
   -2.6271  -33.3309  -42.3199 C   0  0  0  0  0  0  0  0  0  0  0  0
   -3.0805  -33.5235  -43.6433 C   0  0  0  0  0  0  0  0  0  0  0  0
   -2.2369  -33.1200  -44.7136 C   0  0  0  0  0  0  0  0  0  0  0  0
   -2.5846  -33.2620  -45.8597 O   0  0  0  0  0  0  0  0  0  0  0  0
   -4.4020  -34.1350  -43.5448 C   0  0  0  0  0  0  0  0  0  0  0  0
   -4.6696  -34.2687  -42.2336 C   0  0  0  0  0  0  0  0  0  0  0  0
   -3.6091  -33.7883  -41.4944 N   0  0  0  0  0  0  0  0  0  0  0  0
   -5.2886  -34.5441  -44.6929 C   0  0  0  0  0  0  0  0  0  0  0  0
   -5.9305  -35.8342  -44.3684 N   0  0  0  0  0  0  0  0  0  0  0  0
  1  2  1  0  0  0  0
  1  7  1  0  0  0  0
  2  3  1  0  0  0  0
  2  4  2  0  0  0  0
  4  5  1  0  0  0  0
  5  6  2  0  0  0  0
  5 11  1  0  0  0  0
  6  7  1  0  0  0  0
  6  9  1  0  0  0  0
  7  8  2  0  0  0  0
  9 10  2  0  0  0  0
  9 12  1  0  0  0  0
 10 11  1  0  0  0  0
 12 13  1  0  0  0  0
M  END
>  <CHROM.1>
139.82118320,-2.82723652,-33.49174632,-43.53629773,-0.14260125,-0.49274839
-1.58519535

>  <Name>
ligand

>  <RI>
0

>  <Rbt.Current_Directory>
/home/itssahil/PROJECTS/Mol_Feturizer/Test_systems_manuscript/rnas/3fu2

>  <Rbt.Executable>
rbdock ($Id: //depot/dev/client3/rdock/2013.1/src/exe/rbdock.cxx#4 $)

>  <Rbt.Library>
libRbt.so (2013.1, Build901 2013/11/27)

>  <Rbt.Parameter_File>
/export/apps/rDock/src/rDock_2013.1_src/data/scripts/dock_solv.prm

>  <Rbt.Receptor>
prm/pocket_docking_7.prm

>  <SCORE>
-16.0077

>  <SCORE.INTER>
-15.737

>  <SCORE.INTER.CONST>
1

>  <SCORE.INTER.POLAR>
0

>  <SCORE.INTER.ROT>
1

>  <SCORE.INTER.SOLV>
18.2718

>  <SCORE.INTER.VDW>
-20.8486

>  <SCORE.INTER.norm>
-1.21054

>  <SCORE.INTRA>
-0.270735

>  <SCORE.INTRA.DIHEDRAL>
0.0298618

>  <SCORE.INTRA.DIHEDRAL.0>
1.66609

>  <SCORE.INTRA.POLAR>
0

>  <SCORE.INTRA.POLAR.0>
0

>  <SCORE.INTRA.REPUL>
0

>  <SCORE.INTRA.REPUL.0>
0

>  <SCORE.INTRA.SOLV>
-0.987111

>  <SCORE.INTRA.SOLV.lig_0>
-45.868

>  <SCORE.INTRA.VDW>
0.207889

>  <SCORE.INTRA.VDW.0>
-0.397919

>  <SCORE.INTRA.norm>
-0.0208258

>  <SCORE.RESTR>
0

>  <SCORE.RESTR.CAVITY>
0

>  <SCORE.RESTR.norm>
0

>  <SCORE.SYSTEM>
0

>  <SCORE.SYSTEM.CONST>
0

>  <SCORE.SYSTEM.DIHEDRAL>
0

>  <SCORE.SYSTEM.SOLV>
0

>  <SCORE.SYSTEM.norm>
0

>  <SCORE.heavy>
13

>  <SCORE.norm>
-1.23136

>  <RMSD>
4.157

$$$$
ligand
 OpenBabel02271912143D
libRbt.so/2013.1/901 2013/11/27
 13 14  0  0  0  0  0  0  0  0999 V2000
   -1.0243  -32.6217  -44.4107 N   0  0  0  0  0  0  0  0  0  0  0  0
   -0.6303  -32.4511  -43.1105 C   0  0  0  0  0  0  0  0  0  0  0  0
    0.5968  -31.9008  -42.8585 N   0  0  0  0  0  0  0  0  0  0  0  0
   -1.4165  -32.8081  -42.0945 N   0  0  0  0  0  0  0  0  0  0  0  0
   -2.6431  -33.3591  -42.3096 C   0  0  0  0  0  0  0  0  0  0  0  0
   -3.0904  -33.5577  -43.6342 C   0  0  0  0  0  0  0  0  0  0  0  0
   -2.2382  -33.1671  -44.7024 C   0  0  0  0  0  0  0  0  0  0  0  0
   -2.5805  -33.3146  -45.8495 O   0  0  0  0  0  0  0  0  0  0  0  0
   -4.4165  -34.1598  -43.5390 C   0  0  0  0  0  0  0  0  0  0  0  0
   -4.6923  -34.2828  -42.2285 C   0  0  0  0  0  0  0  0  0  0  0  0
   -3.6328  -33.8045  -41.4866 N   0  0  0  0  0  0  0  0  0  0  0  0
   -5.2994  -34.5709  -44.6893 C   0  0  0  0  0  0  0  0  0  0  0  0
   -5.9401  -35.8618  -44.3659 N   0  0  0  0  0  0  0  0  0  0  0  0
  1  2  1  0  0  0  0
  1  7  1  0  0  0  0
  2  3  1  0  0  0  0
  2  4  2  0  0  0  0
  4  5  1  0  0  0  0
  5  6  2  0  0  0  0
  5 11  1  0  0  0  0
  6  7  1  0  0  0  0
  6  9  1  0  0  0  0
  7  8  2  0  0  0  0
  9 10  2  0  0  0  0
  9 12  1  0  0  0  0
 10 11  1  0  0  0  0
 12 13  1  0  0  0  0
M  END
>  <CHROM.1>
139.20893492,-2.83664327,-33.52753812,-43.52649121,-0.14982889,-0.48672377
-1.59550636

>  <Name>
ligand

>  <RI>
0

>  <Rbt.Current_Directory>
/home/itssahil/PROJECTS/Mol_Feturizer/Test_systems_manuscript/rnas/3fu2

>  <Rbt.Executable>
rbdock ($Id: //depot/dev/client3/rdock/2013.1/src/exe/rbdock.cxx#4 $)

>  <Rbt.Library>
libRbt.so (2013.1, Build901 2013/11/27)

>  <Rbt.Parameter_File>
/export/apps/rDock/src/rDock_2013.1_src/data/scripts/dock_solv.prm

>  <Rbt.Receptor>
prm/pocket_docking_8.prm

>  <SCORE>
-16.0379

>  <SCORE.INTER>
-15.7641

>  <SCORE.INTER.CONST>
1

>  <SCORE.INTER.POLAR>
0

>  <SCORE.INTER.ROT>
1

>  <SCORE.INTER.SOLV>
18.3407

>  <SCORE.INTER.VDW>
-20.8896

>  <SCORE.INTER.norm>
-1.21262

>  <SCORE.INTRA>
-0.273825

>  <SCORE.INTRA.DIHEDRAL>
0.0295595

>  <SCORE.INTRA.DIHEDRAL.0>
1.66609

>  <SCORE.INTRA.POLAR>
0

>  <SCORE.INTRA.POLAR.0>
0

>  <SCORE.INTRA.REPUL>
0

>  <SCORE.INTRA.REPUL.0>
0

>  <SCORE.INTRA.SOLV>
-0.987321

>  <SCORE.INTRA.SOLV.lig_0>
-45.868

>  <SCORE.INTRA.VDW>
0.205055

>  <SCORE.INTRA.VDW.0>
-0.397919

>  <SCORE.INTRA.norm>
-0.0210635

>  <SCORE.RESTR>
0

>  <SCORE.RESTR.CAVITY>
0

>  <SCORE.RESTR.norm>
0

>  <SCORE.SYSTEM>
0

>  <SCORE.SYSTEM.CONST>
0

>  <SCORE.SYSTEM.DIHEDRAL>
0

>  <SCORE.SYSTEM.SOLV>
0

>  <SCORE.SYSTEM.norm>
0

>  <SCORE.heavy>
13

>  <SCORE.norm>
-1.23368

>  <RMSD>
4.157

$$$$
ligand
 OpenBabel02271912143D
libRbt.so/2013.1/901 2013/11/27
 13 14  0  0  0  0  0  0  0  0999 V2000
   -1.0140  -32.6014  -44.4583 N   0  0  0  0  0  0  0  0  0  0  0  0
   -0.5998  -32.4507  -43.1620 C   0  0  0  0  0  0  0  0  0  0  0  0
    0.6330  -31.9083  -42.9209 N   0  0  0  0  0  0  0  0  0  0  0  0
   -1.3720  -32.8193  -42.1394 N   0  0  0  0  0  0  0  0  0  0  0  0
   -2.6037  -33.3629  -42.3436 C   0  0  0  0  0  0  0  0  0  0  0  0
   -3.0717  -33.5411  -43.6640 C   0  0  0  0  0  0  0  0  0  0  0  0
   -2.2342  -33.1384  -44.7394 C   0  0  0  0  0  0  0  0  0  0  0  0
   -2.5943  -33.2684  -45.8831 O   0  0  0  0  0  0  0  0  0  0  0  0
   -4.3984  -34.1398  -43.5573 C   0  0  0  0  0  0  0  0  0  0  0  0
   -4.6549  -34.2805  -42.2447 C   0  0  0  0  0  0  0  0  0  0  0  0
   -3.5826  -33.8164  -41.5122 N   0  0  0  0  0  0  0  0  0  0  0  0
   -5.3001  -34.5314  -44.6998 C   0  0  0  0  0  0  0  0  0  0  0  0
   -5.9357  -35.8277  -44.3879 N   0  0  0  0  0  0  0  0  0  0  0  0
  1  2  1  0  0  0  0
  1  7  1  0  0  0  0
  2  3  1  0  0  0  0
  2  4  2  0  0  0  0
  4  5  1  0  0  0  0
  5  6  2  0  0  0  0
  5 11  1  0  0  0  0
  6  7  1  0  0  0  0
  6  9  1  0  0  0  0
  7  8  2  0  0  0  0
  9 10  2  0  0  0  0
  9 12  1  0  0  0  0
 10 11  1  0  0  0  0
 12 13  1  0  0  0  0
M  END
>  <CHROM.1>
138.94039780,-2.81578301,-33.51361519,-43.55997878,-0.13314004,-0.48360253
-1.57361251

>  <Name>
ligand

>  <RI>
0

>  <Rbt.Current_Directory>
/home/itssahil/PROJECTS/Mol_Feturizer/Test_systems_manuscript/rnas/3fu2

>  <Rbt.Executable>
rbdock ($Id: //depot/dev/client3/rdock/2013.1/src/exe/rbdock.cxx#4 $)

>  <Rbt.Library>
libRbt.so (2013.1, Build901 2013/11/27)

>  <Rbt.Parameter_File>
/export/apps/rDock/src/rDock_2013.1_src/data/scripts/dock_solv.prm

>  <Rbt.Receptor>
prm/pocket_docking_8.prm

>  <SCORE>
-15.981

>  <SCORE.INTER>
-15.7058

>  <SCORE.INTER.CONST>
1

>  <SCORE.INTER.POLAR>
0

>  <SCORE.INTER.ROT>
1

>  <SCORE.INTER.SOLV>
18.6417

>  <SCORE.INTER.VDW>
-20.9511

>  <SCORE.INTER.norm>
-1.20814

>  <SCORE.INTRA>
-0.275177

>  <SCORE.INTRA.DIHEDRAL>
0.0294218

>  <SCORE.INTRA.DIHEDRAL.0>
1.66609

>  <SCORE.INTRA.POLAR>
0

>  <SCORE.INTRA.POLAR.0>
0

>  <SCORE.INTRA.REPUL>
0

>  <SCORE.INTRA.REPUL.0>
0

>  <SCORE.INTRA.SOLV>
-0.987413

>  <SCORE.INTRA.SOLV.lig_0>
-45.868

>  <SCORE.INTRA.VDW>
0.203818

>  <SCORE.INTRA.VDW.0>
-0.397919

>  <SCORE.INTRA.norm>
-0.0211675

>  <SCORE.RESTR>
0

>  <SCORE.RESTR.CAVITY>
0

>  <SCORE.RESTR.norm>
0

>  <SCORE.SYSTEM>
0

>  <SCORE.SYSTEM.CONST>
0

>  <SCORE.SYSTEM.DIHEDRAL>
0

>  <SCORE.SYSTEM.SOLV>
0

>  <SCORE.SYSTEM.norm>
0

>  <SCORE.heavy>
13

>  <SCORE.norm>
-1.22931

>  <RMSD>
4.157

$$$$
ligand
 OpenBabel02271912143D
libRbt.so/2013.1/901 2013/11/27
 13 14  0  0  0  0  0  0  0  0999 V2000
   -1.0251  -32.6164  -44.4404 N   0  0  0  0  0  0  0  0  0  0  0  0
   -0.6288  -32.4378  -43.1419 C   0  0  0  0  0  0  0  0  0  0  0  0
    0.5995  -31.8878  -42.8955 N   0  0  0  0  0  0  0  0  0  0  0  0
   -1.4141  -32.7868  -42.1224 N   0  0  0  0  0  0  0  0  0  0  0  0
   -2.6419  -33.3373  -42.3320 C   0  0  0  0  0  0  0  0  0  0  0  0
   -3.0915  -33.5440  -43.6547 C   0  0  0  0  0  0  0  0  0  0  0  0
   -2.2402  -33.1618  -44.7267 C   0  0  0  0  0  0  0  0  0  0  0  0
   -2.5844  -33.3164  -45.8723 O   0  0  0  0  0  0  0  0  0  0  0  0
   -4.4184  -34.1433  -43.5535 C   0  0  0  0  0  0  0  0  0  0  0  0
   -4.6925  -34.2571  -42.2418 C   0  0  0  0  0  0  0  0  0  0  0  0
   -3.6311  -33.7756  -41.5047 N   0  0  0  0  0  0  0  0  0  0  0  0
   -5.3036  -34.5606  -44.6998 C   0  0  0  0  0  0  0  0  0  0  0  0
   -5.9319  -35.8572  -44.3745 N   0  0  0  0  0  0  0  0  0  0  0  0
  1  2  1  0  0  0  0
  1  7  1  0  0  0  0
  2  3  1  0  0  0  0
  2  4  2  0  0  0  0
  4  5  1  0  0  0  0
  5  6  2  0  0  0  0
  5 11  1  0  0  0  0
  6  7  1  0  0  0  0
  6  9  1  0  0  0  0
  7  8  2  0  0  0  0
  9 10  2  0  0  0  0
  9 12  1  0  0  0  0
 10 11  1  0  0  0  0
 12 13  1  0  0  0  0
M  END
>  <CHROM.1>
138.45786966,-2.83636424,-33.51418530,-43.54814558,-0.14936488,-0.48600258
-1.60210631

>  <Name>
ligand

>  <RI>
0

>  <Rbt.Current_Directory>
/home/itssahil/PROJECTS/Mol_Feturizer/Test_systems_manuscript/rnas/3fu2

>  <Rbt.Executable>
rbdock ($Id: //depot/dev/client3/rdock/2013.1/src/exe/rbdock.cxx#4 $)

>  <Rbt.Library>
libRbt.so (2013.1, Build901 2013/11/27)

>  <Rbt.Parameter_File>
/export/apps/rDock/src/rDock_2013.1_src/data/scripts/dock_solv.prm

>  <Rbt.Receptor>
prm/blind_docking_100.prm

>  <SCORE>
-16.0137

>  <SCORE.INTER>
-15.7361

>  <SCORE.INTER.CONST>
1

>  <SCORE.INTER.POLAR>
0

>  <SCORE.INTER.ROT>
1

>  <SCORE.INTER.SOLV>
18.5039

>  <SCORE.INTER.VDW>
-20.9254

>  <SCORE.INTER.norm>
-1.21047

>  <SCORE.INTRA>
-0.277602

>  <SCORE.INTRA.DIHEDRAL>
0.0291668

>  <SCORE.INTRA.DIHEDRAL.0>
1.66609

>  <SCORE.INTRA.POLAR>
0

>  <SCORE.INTRA.POLAR.0>
0

>  <SCORE.INTRA.REPUL>
0

>  <SCORE.INTRA.REPUL.0>
0

>  <SCORE.INTRA.SOLV>
-0.987578

>  <SCORE.INTRA.SOLV.lig_0>
-45.868

>  <SCORE.INTRA.VDW>
0.201604

>  <SCORE.INTRA.VDW.0>
-0.397919

>  <SCORE.INTRA.norm>
-0.021354

>  <SCORE.RESTR>
0

>  <SCORE.RESTR.CAVITY>
0

>  <SCORE.RESTR.norm>
0

>  <SCORE.SYSTEM>
0

>  <SCORE.SYSTEM.CONST>
0

>  <SCORE.SYSTEM.DIHEDRAL>
0

>  <SCORE.SYSTEM.SOLV>
0

>  <SCORE.SYSTEM.norm>
0

>  <SCORE.heavy>
13

>  <SCORE.norm>
-1.23182

>  <RMSD>
4.158

$$$$
ligand
 OpenBabel02271912143D
libRbt.so/2013.1/901 2013/11/27
 13 14  0  0  0  0  0  0  0  0999 V2000
   -1.0386  -32.5877  -44.4255 N   0  0  0  0  0  0  0  0  0  0  0  0
   -0.6398  -32.4158  -43.1269 C   0  0  0  0  0  0  0  0  0  0  0  0
    0.5839  -31.8558  -42.8799 N   0  0  0  0  0  0  0  0  0  0  0  0
   -1.4183  -32.7808  -42.1078 N   0  0  0  0  0  0  0  0  0  0  0  0
   -2.6413  -33.3417  -42.3179 C   0  0  0  0  0  0  0  0  0  0  0  0
   -3.0932  -33.5420  -43.6408 C   0  0  0  0  0  0  0  0  0  0  0  0
   -2.2492  -33.1428  -44.7123 C   0  0  0  0  0  0  0  0  0  0  0  0
   -2.5957  -33.2914  -45.8580 O   0  0  0  0  0  0  0  0  0  0  0  0
   -4.4137  -34.1552  -43.5402 C   0  0  0  0  0  0  0  0  0  0  0  0
   -4.6824  -34.2824  -42.2287 C   0  0  0  0  0  0  0  0  0  0  0  0
   -3.6234  -33.7964  -41.4910 N   0  0  0  0  0  0  0  0  0  0  0  0
   -5.2986  -34.5718  -44.6870 C   0  0  0  0  0  0  0  0  0  0  0  0
   -5.9604  -35.8472  -44.3447 N   0  0  0  0  0  0  0  0  0  0  0  0
  1  2  1  0  0  0  0
  1  7  1  0  0  0  0
  2  3  1  0  0  0  0
  2  4  2  0  0  0  0
  4  5  1  0  0  0  0
  5  6  2  0  0  0  0
  5 11  1  0  0  0  0
  6  7  1  0  0  0  0
  6  9  1  0  0  0  0
  7  8  2  0  0  0  0
  9 10  2  0  0  0  0
  9 12  1  0  0  0  0
 10 11  1  0  0  0  0
 12 13  1  0  0  0  0
M  END
>  <CHROM.1>
140.98527181,-2.84183925,-33.50813604,-43.53272330,-0.14180175,-0.49304518
-1.58984034

>  <Name>
ligand

>  <RI>
0

>  <Rbt.Current_Directory>
/home/itssahil/PROJECTS/Mol_Feturizer/Test_systems_manuscript/rnas/3fu2

>  <Rbt.Executable>
rbdock ($Id: //depot/dev/client3/rdock/2013.1/src/exe/rbdock.cxx#4 $)

>  <Rbt.Library>
libRbt.so (2013.1, Build901 2013/11/27)

>  <Rbt.Parameter_File>
/export/apps/rDock/src/rDock_2013.1_src/data/scripts/dock_solv.prm

>  <Rbt.Receptor>
prm/pocket_docking_5.prm

>  <SCORE>
-16.0113

>  <SCORE.INTER>
-15.7465

>  <SCORE.INTER.CONST>
1

>  <SCORE.INTER.POLAR>
0

>  <SCORE.INTER.ROT>
1

>  <SCORE.INTER.SOLV>
18.302

>  <SCORE.INTER.VDW>
-20.865

>  <SCORE.INTER.norm>
-1.21127

>  <SCORE.INTRA>
-0.264836

>  <SCORE.INTRA.DIHEDRAL>
0.0303911

>  <SCORE.INTRA.DIHEDRAL.0>
1.66609

>  <SCORE.INTRA.POLAR>
0

>  <SCORE.INTRA.POLAR.0>
0

>  <SCORE.INTRA.REPUL>
0

>  <SCORE.INTRA.REPUL.0>
0

>  <SCORE.INTRA.SOLV>
-0.986711

>  <SCORE.INTRA.SOLV.lig_0>
-45.868

>  <SCORE.INTRA.VDW>
0.213324

>  <SCORE.INTRA.VDW.0>
-0.397919

>  <SCORE.INTRA.norm>
-0.020372

>  <SCORE.RESTR>
0

>  <SCORE.RESTR.CAVITY>
0

>  <SCORE.RESTR.norm>
0

>  <SCORE.SYSTEM>
0

>  <SCORE.SYSTEM.CONST>
0

>  <SCORE.SYSTEM.DIHEDRAL>
0

>  <SCORE.SYSTEM.SOLV>
0

>  <SCORE.SYSTEM.norm>
0

>  <SCORE.heavy>
13

>  <SCORE.norm>
-1.23164

>  <RMSD>
4.158

$$$$
ligand
 OpenBabel02271912143D
libRbt.so/2013.1/901 2013/11/27
 13 14  0  0  0  0  0  0  0  0999 V2000
   -1.0295  -32.6100  -44.4165 N   0  0  0  0  0  0  0  0  0  0  0  0
   -0.6339  -32.4384  -43.1169 C   0  0  0  0  0  0  0  0  0  0  0  0
    0.5916  -31.8836  -42.8669 N   0  0  0  0  0  0  0  0  0  0  0  0
   -1.4171  -32.7987  -42.0997 N   0  0  0  0  0  0  0  0  0  0  0  0
   -2.6420  -33.3543  -42.3130 C   0  0  0  0  0  0  0  0  0  0  0  0
   -3.0908  -33.5540  -43.6369 C   0  0  0  0  0  0  0  0  0  0  0  0
   -2.2418  -33.1598  -44.7064 C   0  0  0  0  0  0  0  0  0  0  0  0
   -2.5855  -33.3082  -45.8530 O   0  0  0  0  0  0  0  0  0  0  0  0
   -4.4145  -34.1611  -43.5397 C   0  0  0  0  0  0  0  0  0  0  0  0
   -4.6876  -34.2856  -42.2288 C   0  0  0  0  0  0  0  0  0  0  0  0
   -3.6286  -33.8036  -41.4885 N   0  0  0  0  0  0  0  0  0  0  0  0
   -5.2978  -34.5750  -44.6886 C   0  0  0  0  0  0  0  0  0  0  0  0
   -5.9637  -35.8487  -44.3483 N   0  0  0  0  0  0  0  0  0  0  0  0
  1  2  1  0  0  0  0
  1  7  1  0  0  0  0
  2  3  1  0  0  0  0
  2  4  2  0  0  0  0
  4  5  1  0  0  0  0
  5  6  2  0  0  0  0
  5 11  1  0  0  0  0
  6  7  1  0  0  0  0
  6  9  1  0  0  0  0
  7  8  2  0  0  0  0
  9 10  2  0  0  0  0
  9 12  1  0  0  0  0
 10 11  1  0  0  0  0
 12 13  1  0  0  0  0
M  END
>  <CHROM.1>
140.84369049,-2.83943897,-33.52131763,-43.52827172,-0.14532947,-0.48861218
-1.59264797

>  <Name>
ligand

>  <RI>
0

>  <Rbt.Current_Directory>
/home/itssahil/PROJECTS/Mol_Feturizer/Test_systems_manuscript/rnas/3fu2

>  <Rbt.Executable>
rbdock ($Id: //depot/dev/client3/rdock/2013.1/src/exe/rbdock.cxx#4 $)

>  <Rbt.Library>
libRbt.so (2013.1, Build901 2013/11/27)

>  <Rbt.Parameter_File>
/export/apps/rDock/src/rDock_2013.1_src/data/scripts/dock_solv.prm

>  <Rbt.Receptor>
prm/pocket_docking_5.prm

>  <SCORE>
-16.0463

>  <SCORE.INTER>
-15.7807

>  <SCORE.INTER.CONST>
1

>  <SCORE.INTER.POLAR>
0

>  <SCORE.INTER.ROT>
1

>  <SCORE.INTER.SOLV>
18.3278

>  <SCORE.INTER.VDW>
-20.8964

>  <SCORE.INTER.norm>
-1.2139

>  <SCORE.INTRA>
-0.265555

>  <SCORE.INTRA.DIHEDRAL>
0.03033

>  <SCORE.INTRA.DIHEDRAL.0>
1.66609

>  <SCORE.INTRA.POLAR>
0

>  <SCORE.INTRA.POLAR.0>
0

>  <SCORE.INTRA.REPUL>
0

>  <SCORE.INTRA.REPUL.0>
0

>  <SCORE.INTRA.SOLV>
-0.986759

>  <SCORE.INTRA.SOLV.lig_0>
-45.868

>  <SCORE.INTRA.VDW>
0.21266

>  <SCORE.INTRA.VDW.0>
-0.397919

>  <SCORE.INTRA.norm>
-0.0204273

>  <SCORE.RESTR>
0

>  <SCORE.RESTR.CAVITY>
0

>  <SCORE.RESTR.norm>
0

>  <SCORE.SYSTEM>
0

>  <SCORE.SYSTEM.CONST>
0

>  <SCORE.SYSTEM.DIHEDRAL>
0

>  <SCORE.SYSTEM.SOLV>
0

>  <SCORE.SYSTEM.norm>
0

>  <SCORE.heavy>
13

>  <SCORE.norm>
-1.23433

>  <RMSD>
4.158

$$$$
ligand
 OpenBabel02271912143D
libRbt.so/2013.1/901 2013/11/27
 13 14  0  0  0  0  0  0  0  0999 V2000
   -1.0526  -32.5548  -44.4592 N   0  0  0  0  0  0  0  0  0  0  0  0
   -0.6459  -32.3790  -43.1636 C   0  0  0  0  0  0  0  0  0  0  0  0
    0.5752  -31.8093  -42.9258 N   0  0  0  0  0  0  0  0  0  0  0  0
   -1.4141  -32.7494  -42.1387 N   0  0  0  0  0  0  0  0  0  0  0  0
   -2.6342  -33.3198  -42.3396 C   0  0  0  0  0  0  0  0  0  0  0  0
   -3.0941  -33.5245  -43.6590 C   0  0  0  0  0  0  0  0  0  0  0  0
   -2.2610  -33.1194  -44.7369 C   0  0  0  0  0  0  0  0  0  0  0  0
   -2.6146  -33.2715  -45.8800 O   0  0  0  0  0  0  0  0  0  0  0  0
   -4.4091  -34.1478  -43.5486 C   0  0  0  0  0  0  0  0  0  0  0  0
   -4.6672  -34.2763  -42.2350 C   0  0  0  0  0  0  0  0  0  0  0  0
   -3.6067  -33.7816  -41.5053 N   0  0  0  0  0  0  0  0  0  0  0  0
   -5.2990  -34.5721  -44.6886 C   0  0  0  0  0  0  0  0  0  0  0  0
   -5.9598  -35.8447  -44.3347 N   0  0  0  0  0  0  0  0  0  0  0  0
  1  2  1  0  0  0  0
  1  7  1  0  0  0  0
  2  3  1  0  0  0  0
  2  4  2  0  0  0  0
  4  5  1  0  0  0  0
  5  6  2  0  0  0  0
  5 11  1  0  0  0  0
  6  7  1  0  0  0  0
  6  9  1  0  0  0  0
  7  8  2  0  0  0  0
  9 10  2  0  0  0  0
  9 12  1  0  0  0  0
 10 11  1  0  0  0  0
 12 13  1  0  0  0  0
M  END
>  <CHROM.1>
141.60261331,-2.84315157,-33.48799309,-43.55233459,-0.13272911,-0.50018330
-1.58601647

>  <Name>
ligand

>  <RI>
0

>  <Rbt.Current_Directory>
/home/itssahil/PROJECTS/Mol_Feturizer/Test_systems_manuscript/rnas/3fu2

>  <Rbt.Executable>
rbdock ($Id: //depot/dev/client3/rdock/2013.1/src/exe/rbdock.cxx#4 $)

>  <Rbt.Library>
libRbt.so (2013.1, Build901 2013/11/27)

>  <Rbt.Parameter_File>
/export/apps/rDock/src/rDock_2013.1_src/data/scripts/dock_solv.prm

>  <Rbt.Receptor>
prm/pocket_docking_4.prm

>  <SCORE>
-16.0288

>  <SCORE.INTER>
-15.7671

>  <SCORE.INTER.CONST>
1

>  <SCORE.INTER.POLAR>
0

>  <SCORE.INTER.ROT>
1

>  <SCORE.INTER.SOLV>
18.3917

>  <SCORE.INTER.VDW>
-20.9086

>  <SCORE.INTER.norm>
-1.21285

>  <SCORE.INTRA>
-0.261697

>  <SCORE.INTRA.DIHEDRAL>
0.0306471

>  <SCORE.INTRA.DIHEDRAL.0>
1.66609

>  <SCORE.INTRA.POLAR>
0

>  <SCORE.INTRA.POLAR.0>
0

>  <SCORE.INTRA.REPUL>
0

>  <SCORE.INTRA.REPUL.0>
0

>  <SCORE.INTRA.SOLV>
-0.986499

>  <SCORE.INTRA.SOLV.lig_0>
-45.868

>  <SCORE.INTRA.VDW>
0.216229

>  <SCORE.INTRA.VDW.0>
-0.397919

>  <SCORE.INTRA.norm>
-0.0201305

>  <SCORE.RESTR>
0

>  <SCORE.RESTR.CAVITY>
0

>  <SCORE.RESTR.norm>
0

>  <SCORE.SYSTEM>
0

>  <SCORE.SYSTEM.CONST>
0

>  <SCORE.SYSTEM.DIHEDRAL>
0

>  <SCORE.SYSTEM.SOLV>
0

>  <SCORE.SYSTEM.norm>
0

>  <SCORE.heavy>
13

>  <SCORE.norm>
-1.23299

>  <RMSD>
4.159

$$$$
ligand
 OpenBabel02271912143D
libRbt.so/2013.1/901 2013/11/27
 13 14  0  0  0  0  0  0  0  0999 V2000
   -1.0144  -32.6241  -44.4367 N   0  0  0  0  0  0  0  0  0  0  0  0
   -0.6181  -32.4417  -43.1389 C   0  0  0  0  0  0  0  0  0  0  0  0
    0.6110  -31.8925  -42.8941 N   0  0  0  0  0  0  0  0  0  0  0  0
   -1.4040  -32.7860  -42.1183 N   0  0  0  0  0  0  0  0  0  0  0  0
   -2.6325  -33.3355  -42.3261 C   0  0  0  0  0  0  0  0  0  0  0  0
   -3.0823  -33.5461  -43.6481 C   0  0  0  0  0  0  0  0  0  0  0  0
   -2.2303  -33.1688  -44.7213 C   0  0  0  0  0  0  0  0  0  0  0  0
   -2.5746  -33.3268  -45.8664 O   0  0  0  0  0  0  0  0  0  0  0  0
   -4.4100  -34.1432  -43.5451 C   0  0  0  0  0  0  0  0  0  0  0  0
   -4.6844  -34.2522  -42.2330 C   0  0  0  0  0  0  0  0  0  0  0  0
   -3.6224  -33.7696  -41.4974 N   0  0  0  0  0  0  0  0  0  0  0  0
   -5.2957  -34.5631  -44.6900 C   0  0  0  0  0  0  0  0  0  0  0  0
   -5.9476  -35.8438  -44.3486 N   0  0  0  0  0  0  0  0  0  0  0  0
  1  2  1  0  0  0  0
  1  7  1  0  0  0  0
  2  3  1  0  0  0  0
  2  4  2  0  0  0  0
  4  5  1  0  0  0  0
  5  6  2  0  0  0  0
  5 11  1  0  0  0  0
  6  7  1  0  0  0  0
  6  9  1  0  0  0  0
  7  8  2  0  0  0  0
  9 10  2  0  0  0  0
  9 12  1  0  0  0  0
 10 11  1  0  0  0  0
 12 13  1  0  0  0  0
M  END
>  <CHROM.1>
139.62417969,-2.82885389,-33.51515201,-43.54069689,-0.14749591,-0.48328210
-1.60437820

>  <Name>
ligand

>  <RI>
0

>  <Rbt.Current_Directory>
/home/itssahil/PROJECTS/Mol_Feturizer/Test_systems_manuscript/rnas/3fu2

>  <Rbt.Executable>
rbdock ($Id: //depot/dev/client3/rdock/2013.1/src/exe/rbdock.cxx#4 $)

>  <Rbt.Library>
libRbt.so (2013.1, Build901 2013/11/27)

>  <Rbt.Parameter_File>
/export/apps/rDock/src/rDock_2013.1_src/data/scripts/dock_solv.prm

>  <Rbt.Receptor>
prm/pocket_docking_4.prm

>  <SCORE>
-16.0211

>  <SCORE.INTER>
-15.7494

>  <SCORE.INTER.CONST>
1

>  <SCORE.INTER.POLAR>
0

>  <SCORE.INTER.ROT>
1

>  <SCORE.INTER.SOLV>
18.5438

>  <SCORE.INTER.VDW>
-20.9475

>  <SCORE.INTER.norm>
-1.21149

>  <SCORE.INTRA>
-0.27173

>  <SCORE.INTRA.DIHEDRAL>
0.0297663

>  <SCORE.INTRA.DIHEDRAL.0>
1.66609

>  <SCORE.INTRA.POLAR>
0

>  <SCORE.INTRA.POLAR.0>
0

>  <SCORE.INTRA.REPUL>
0

>  <SCORE.INTRA.REPUL.0>
0

>  <SCORE.INTRA.SOLV>
-0.987178

>  <SCORE.INTRA.SOLV.lig_0>
-45.868

>  <SCORE.INTRA.VDW>
0.206975

>  <SCORE.INTRA.VDW.0>
-0.397919

>  <SCORE.INTRA.norm>
-0.0209023

>  <SCORE.RESTR>
0

>  <SCORE.RESTR.CAVITY>
0

>  <SCORE.RESTR.norm>
0

>  <SCORE.SYSTEM>
0

>  <SCORE.SYSTEM.CONST>
0

>  <SCORE.SYSTEM.DIHEDRAL>
0

>  <SCORE.SYSTEM.SOLV>
0

>  <SCORE.SYSTEM.norm>
0

>  <SCORE.heavy>
13

>  <SCORE.norm>
-1.23239

>  <RMSD>
4.159

$$$$
ligand
 OpenBabel02271912143D
libRbt.so/2013.1/901 2013/11/27
 13 14  0  0  0  0  0  0  0  0999 V2000
   -1.0486  -32.5581  -44.4568 N   0  0  0  0  0  0  0  0  0  0  0  0
   -0.6478  -32.3748  -43.1604 C   0  0  0  0  0  0  0  0  0  0  0  0
    0.5719  -31.8029  -42.9202 N   0  0  0  0  0  0  0  0  0  0  0  0
   -1.4203  -32.7399  -42.1369 N   0  0  0  0  0  0  0  0  0  0  0  0
   -2.6392  -33.3123  -42.3402 C   0  0  0  0  0  0  0  0  0  0  0  0
   -3.0929  -33.5246  -43.6605 C   0  0  0  0  0  0  0  0  0  0  0  0
   -2.2553  -33.1250  -44.7368 C   0  0  0  0  0  0  0  0  0  0  0  0
   -2.6036  -33.2837  -45.8806 O   0  0  0  0  0  0  0  0  0  0  0  0
   -4.4080  -34.1482  -43.5525 C   0  0  0  0  0  0  0  0  0  0  0  0
   -4.6720  -34.2696  -42.2394 C   0  0  0  0  0  0  0  0  0  0  0  0
   -3.6152  -33.7701  -41.5077 N   0  0  0  0  0  0  0  0  0  0  0  0
   -5.2925  -34.5794  -44.6942 C   0  0  0  0  0  0  0  0  0  0  0  0
   -5.9554  -35.8496  -44.3354 N   0  0  0  0  0  0  0  0  0  0  0  0
  1  2  1  0  0  0  0
  1  7  1  0  0  0  0
  2  3  1  0  0  0  0
  2  4  2  0  0  0  0
  4  5  1  0  0  0  0
  5  6  2  0  0  0  0
  5 11  1  0  0  0  0
  6  7  1  0  0  0  0
  6  9  1  0  0  0  0
  7  8  2  0  0  0  0
  9 10  2  0  0  0  0
  9 12  1  0  0  0  0
 10 11  1  0  0  0  0
 12 13  1  0  0  0  0
M  END
>  <CHROM.1>
141.67823362,-2.84264672,-33.48730261,-43.55279897,-0.13778231,-0.50067845
-1.59398874

>  <Name>
ligand

>  <RI>
0

>  <Rbt.Current_Directory>
/home/itssahil/PROJECTS/Mol_Feturizer/Test_systems_manuscript/rnas/3fu2

>  <Rbt.Executable>
rbdock ($Id: //depot/dev/client3/rdock/2013.1/src/exe/rbdock.cxx#4 $)

>  <Rbt.Library>
libRbt.so (2013.1, Build901 2013/11/27)

>  <Rbt.Parameter_File>
/export/apps/rDock/src/rDock_2013.1_src/data/scripts/dock_solv.prm

>  <Rbt.Receptor>
prm/pocket_docking_5.prm

>  <SCORE>
-16.0402

>  <SCORE.INTER>
-15.7789

>  <SCORE.INTER.CONST>
1

>  <SCORE.INTER.POLAR>
0

>  <SCORE.INTER.ROT>
1

>  <SCORE.INTER.SOLV>
18.373

>  <SCORE.INTER.VDW>
-20.9103

>  <SCORE.INTER.norm>
-1.21376

>  <SCORE.INTRA>
-0.261312

>  <SCORE.INTRA.DIHEDRAL>
0.0306773

>  <SCORE.INTRA.DIHEDRAL.0>
1.66609

>  <SCORE.INTRA.POLAR>
0

>  <SCORE.INTRA.POLAR.0>
0

>  <SCORE.INTRA.REPUL>
0

>  <SCORE.INTRA.REPUL.0>
0

>  <SCORE.INTRA.SOLV>
-0.986473

>  <SCORE.INTRA.SOLV.lig_0>
-45.868

>  <SCORE.INTRA.VDW>
0.216586

>  <SCORE.INTRA.VDW.0>
-0.397919

>  <SCORE.INTRA.norm>
-0.0201009

>  <SCORE.RESTR>
0

>  <SCORE.RESTR.CAVITY>
0

>  <SCORE.RESTR.norm>
0

>  <SCORE.SYSTEM>
0

>  <SCORE.SYSTEM.CONST>
0

>  <SCORE.SYSTEM.DIHEDRAL>
0

>  <SCORE.SYSTEM.SOLV>
0

>  <SCORE.SYSTEM.norm>
0

>  <SCORE.heavy>
13

>  <SCORE.norm>
-1.23386

>  <RMSD>
4.160

$$$$
ligand
 OpenBabel02271912143D
libRbt.so/2013.1/901 2013/11/27
 13 14  0  0  0  0  0  0  0  0999 V2000
   -1.0547  -32.5548  -44.4585 N   0  0  0  0  0  0  0  0  0  0  0  0
   -0.6533  -32.3716  -43.1623 C   0  0  0  0  0  0  0  0  0  0  0  0
    0.5662  -31.7993  -42.9227 N   0  0  0  0  0  0  0  0  0  0  0  0
   -1.4252  -32.7372  -42.1384 N   0  0  0  0  0  0  0  0  0  0  0  0
   -2.6439  -33.3101  -42.3411 C   0  0  0  0  0  0  0  0  0  0  0  0
   -3.0983  -33.5224  -43.6612 C   0  0  0  0  0  0  0  0  0  0  0  0
   -2.2613  -33.1222  -44.7380 C   0  0  0  0  0  0  0  0  0  0  0  0
   -2.6102  -33.2809  -45.8816 O   0  0  0  0  0  0  0  0  0  0  0  0
   -4.4130  -34.1465  -43.5527 C   0  0  0  0  0  0  0  0  0  0  0  0
   -4.6763  -34.2682  -42.2395 C   0  0  0  0  0  0  0  0  0  0  0  0
   -3.6192  -33.7684  -41.5082 N   0  0  0  0  0  0  0  0  0  0  0  0
   -5.2979  -34.5779  -44.6940 C   0  0  0  0  0  0  0  0  0  0  0  0
   -5.9558  -35.8513  -44.3373 N   0  0  0  0  0  0  0  0  0  0  0  0
  1  2  1  0  0  0  0
  1  7  1  0  0  0  0
  2  3  1  0  0  0  0
  2  4  2  0  0  0  0
  4  5  1  0  0  0  0
  5  6  2  0  0  0  0
  5 11  1  0  0  0  0
  6  7  1  0  0  0  0
  6  9  1  0  0  0  0
  7  8  2  0  0  0  0
  9 10  2  0  0  0  0
  9 12  1  0  0  0  0
 10 11  1  0  0  0  0
 12 13  1  0  0  0  0
M  END
>  <CHROM.1>
141.44572155,-2.84757674,-33.48519696,-43.55387291,-0.13755707,-0.50137821
-1.59376644

>  <Name>
ligand

>  <RI>
0

>  <Rbt.Current_Directory>
/home/itssahil/PROJECTS/Mol_Feturizer/Test_systems_manuscript/rnas/3fu2

>  <Rbt.Executable>
rbdock ($Id: //depot/dev/client3/rdock/2013.1/src/exe/rbdock.cxx#4 $)

>  <Rbt.Library>
libRbt.so (2013.1, Build901 2013/11/27)

>  <Rbt.Parameter_File>
/export/apps/rDock/src/rDock_2013.1_src/data/scripts/dock_solv.prm

>  <Rbt.Receptor>
prm/pocket_docking_5.prm

>  <SCORE>
-16.043

>  <SCORE.INTER>
-15.7806

>  <SCORE.INTER.CONST>
1

>  <SCORE.INTER.POLAR>
0

>  <SCORE.INTER.ROT>
1

>  <SCORE.INTER.SOLV>
18.361

>  <SCORE.INTER.VDW>
-20.9074

>  <SCORE.INTER.norm>
-1.21389

>  <SCORE.INTRA>
-0.262495

>  <SCORE.INTRA.DIHEDRAL>
0.0305837

>  <SCORE.INTRA.DIHEDRAL.0>
1.66609

>  <SCORE.INTRA.POLAR>
0

>  <SCORE.INTRA.POLAR.0>
0

>  <SCORE.INTRA.REPUL>
0

>  <SCORE.INTRA.REPUL.0>
0

>  <SCORE.INTRA.SOLV>
-0.986553

>  <SCORE.INTRA.SOLV.lig_0>
-45.868

>  <SCORE.INTRA.VDW>
0.215489

>  <SCORE.INTRA.VDW.0>
-0.397919

>  <SCORE.INTRA.norm>
-0.0201919

>  <SCORE.RESTR>
0

>  <SCORE.RESTR.CAVITY>
0

>  <SCORE.RESTR.norm>
0

>  <SCORE.SYSTEM>
0

>  <SCORE.SYSTEM.CONST>
0

>  <SCORE.SYSTEM.DIHEDRAL>
0

>  <SCORE.SYSTEM.SOLV>
0

>  <SCORE.SYSTEM.norm>
0

>  <SCORE.heavy>
13

>  <SCORE.norm>
-1.23408

>  <RMSD>
4.160

$$$$
ligand
 OpenBabel02271912143D
libRbt.so/2013.1/901 2013/11/27
 13 14  0  0  0  0  0  0  0  0999 V2000
   -1.0448  -32.5646  -44.4548 N   0  0  0  0  0  0  0  0  0  0  0  0
   -0.6458  -32.3832  -43.1576 C   0  0  0  0  0  0  0  0  0  0  0  0
    0.5763  -31.8178  -42.9149 N   0  0  0  0  0  0  0  0  0  0  0  0
   -1.4226  -32.7440  -42.1356 N   0  0  0  0  0  0  0  0  0  0  0  0
   -2.6440  -33.3099  -42.3414 C   0  0  0  0  0  0  0  0  0  0  0  0
   -3.0960  -33.5201  -43.6627 C   0  0  0  0  0  0  0  0  0  0  0  0
   -2.2539  -33.1251  -44.7373 C   0  0  0  0  0  0  0  0  0  0  0  0
   -2.6006  -33.2822  -45.8818 O   0  0  0  0  0  0  0  0  0  0  0  0
   -4.4147  -34.1366  -43.5574 C   0  0  0  0  0  0  0  0  0  0  0  0
   -4.6821  -34.2562  -42.2449 C   0  0  0  0  0  0  0  0  0  0  0  0
   -3.6242  -33.7623  -41.5110 N   0  0  0  0  0  0  0  0  0  0  0  0
   -5.2989  -34.5633  -44.7010 C   0  0  0  0  0  0  0  0  0  0  0  0
   -5.9499  -35.8429  -44.3536 N   0  0  0  0  0  0  0  0  0  0  0  0
  1  2  1  0  0  0  0
  1  7  1  0  0  0  0
  2  3  1  0  0  0  0
  2  4  2  0  0  0  0
  4  5  1  0  0  0  0
  5  6  2  0  0  0  0
  5 11  1  0  0  0  0
  6  7  1  0  0  0  0
  6  9  1  0  0  0  0
  7  8  2  0  0  0  0
  9 10  2  0  0  0  0
  9 12  1  0  0  0  0
 10 11  1  0  0  0  0
 12 13  1  0  0  0  0
M  END
>  <CHROM.1>
140.62539563,-2.84417962,-33.48509159,-43.55531386,-0.14178013,-0.49652940
-1.59631827

>  <Name>
ligand

>  <RI>
0

>  <Rbt.Current_Directory>
/home/itssahil/PROJECTS/Mol_Feturizer/Test_systems_manuscript/rnas/3fu2

>  <Rbt.Executable>
rbdock ($Id: //depot/dev/client3/rdock/2013.1/src/exe/rbdock.cxx#4 $)

>  <Rbt.Library>
libRbt.so (2013.1, Build901 2013/11/27)

>  <Rbt.Parameter_File>
/export/apps/rDock/src/rDock_2013.1_src/data/scripts/dock_solv.prm

>  <Rbt.Receptor>
prm/pocket_docking_7.prm

>  <SCORE>
-16.0259

>  <SCORE.INTER>
-15.7592

>  <SCORE.INTER.CONST>
1

>  <SCORE.INTER.POLAR>
0

>  <SCORE.INTER.ROT>
1

>  <SCORE.INTER.SOLV>
18.3825

>  <SCORE.INTER.VDW>
-20.9003

>  <SCORE.INTER.norm>
-1.21225

>  <SCORE.INTRA>
-0.266663

>  <SCORE.INTRA.DIHEDRAL>
0.0302339

>  <SCORE.INTRA.DIHEDRAL.0>
1.66609

>  <SCORE.INTRA.POLAR>
0

>  <SCORE.INTRA.POLAR.0>
0

>  <SCORE.INTRA.REPUL>
0

>  <SCORE.INTRA.REPUL.0>
0

>  <SCORE.INTRA.SOLV>
-0.986834

>  <SCORE.INTRA.SOLV.lig_0>
-45.868

>  <SCORE.INTRA.VDW>
0.211638

>  <SCORE.INTRA.VDW.0>
-0.397919

>  <SCORE.INTRA.norm>
-0.0205125

>  <SCORE.RESTR>
0

>  <SCORE.RESTR.CAVITY>
0

>  <SCORE.RESTR.norm>
0

>  <SCORE.SYSTEM>
0

>  <SCORE.SYSTEM.CONST>
0

>  <SCORE.SYSTEM.DIHEDRAL>
0

>  <SCORE.SYSTEM.SOLV>
0

>  <SCORE.SYSTEM.norm>
0

>  <SCORE.heavy>
13

>  <SCORE.norm>
-1.23276

>  <RMSD>
4.160

$$$$
ligand
 OpenBabel02271912143D
libRbt.so/2013.1/901 2013/11/27
 13 14  0  0  0  0  0  0  0  0999 V2000
   -1.0516  -32.5571  -44.4574 N   0  0  0  0  0  0  0  0  0  0  0  0
   -0.6493  -32.3763  -43.1611 C   0  0  0  0  0  0  0  0  0  0  0  0
    0.5711  -31.8061  -42.9212 N   0  0  0  0  0  0  0  0  0  0  0  0
   -1.4213  -32.7424  -42.1374 N   0  0  0  0  0  0  0  0  0  0  0  0
   -2.6409  -33.3132  -42.3405 C   0  0  0  0  0  0  0  0  0  0  0  0
   -3.0962  -33.5229  -43.6607 C   0  0  0  0  0  0  0  0  0  0  0  0
   -2.2591  -33.1224  -44.7372 C   0  0  0  0  0  0  0  0  0  0  0  0
   -2.6087  -33.2788  -45.8809 O   0  0  0  0  0  0  0  0  0  0  0  0
   -4.4118  -34.1453  -43.5525 C   0  0  0  0  0  0  0  0  0  0  0  0
   -4.6747  -34.2685  -42.2393 C   0  0  0  0  0  0  0  0  0  0  0  0
   -3.6166  -33.7714  -41.5078 N   0  0  0  0  0  0  0  0  0  0  0  0
   -5.2978  -34.5738  -44.6940 C   0  0  0  0  0  0  0  0  0  0  0  0
   -5.9599  -35.8450  -44.3376 N   0  0  0  0  0  0  0  0  0  0  0  0
  1  2  1  0  0  0  0
  1  7  1  0  0  0  0
  2  3  1  0  0  0  0
  2  4  2  0  0  0  0
  4  5  1  0  0  0  0
  5  6  2  0  0  0  0
  5 11  1  0  0  0  0
  6  7  1  0  0  0  0
  6  9  1  0  0  0  0
  7  8  2  0  0  0  0
  9 10  2  0  0  0  0
  9 12  1  0  0  0  0
 10 11  1  0  0  0  0
 12 13  1  0  0  0  0
M  END
>  <CHROM.1>
141.58314150,-2.84559266,-33.48609628,-43.55326317,-0.13681311,-0.49979554
-1.59191708

>  <Name>
ligand

>  <RI>
0

>  <Rbt.Current_Directory>
/home/itssahil/PROJECTS/Mol_Feturizer/Test_systems_manuscript/rnas/3fu2

>  <Rbt.Executable>
rbdock ($Id: //depot/dev/client3/rdock/2013.1/src/exe/rbdock.cxx#4 $)

>  <Rbt.Library>
libRbt.so (2013.1, Build901 2013/11/27)

>  <Rbt.Parameter_File>
/export/apps/rDock/src/rDock_2013.1_src/data/scripts/dock_solv.prm

>  <Rbt.Receptor>
prm/pocket_docking_8.prm

>  <SCORE>
-16.0372

>  <SCORE.INTER>
-15.7754

>  <SCORE.INTER.CONST>
1

>  <SCORE.INTER.POLAR>
0

>  <SCORE.INTER.ROT>
1

>  <SCORE.INTER.SOLV>
18.3713

>  <SCORE.INTER.VDW>
-20.9074

>  <SCORE.INTER.norm>
-1.21349

>  <SCORE.INTRA>
-0.261796

>  <SCORE.INTRA.DIHEDRAL>
0.0306393

>  <SCORE.INTRA.DIHEDRAL.0>
1.66609

>  <SCORE.INTRA.POLAR>
0

>  <SCORE.INTRA.POLAR.0>
0

>  <SCORE.INTRA.REPUL>
0

>  <SCORE.INTRA.REPUL.0>
0

>  <SCORE.INTRA.SOLV>
-0.986505

>  <SCORE.INTRA.SOLV.lig_0>
-45.868

>  <SCORE.INTRA.VDW>
0.216137

>  <SCORE.INTRA.VDW.0>
-0.397919

>  <SCORE.INTRA.norm>
-0.0201382

>  <SCORE.RESTR>
0

>  <SCORE.RESTR.CAVITY>
0

>  <SCORE.RESTR.norm>
0

>  <SCORE.SYSTEM>
0

>  <SCORE.SYSTEM.CONST>
0

>  <SCORE.SYSTEM.DIHEDRAL>
0

>  <SCORE.SYSTEM.SOLV>
0

>  <SCORE.SYSTEM.norm>
0

>  <SCORE.heavy>
13

>  <SCORE.norm>
-1.23363

>  <RMSD>
4.160

$$$$
ligand
 OpenBabel02271912143D
libRbt.so/2013.1/901 2013/11/27
 13 14  0  0  0  0  0  0  0  0999 V2000
   -2.2385  -33.6205  -41.1059 N   0  0  0  0  0  0  0  0  0  0  0  0
   -1.0455  -33.1527  -41.5881 C   0  0  0  0  0  0  0  0  0  0  0  0
   -0.0398  -32.8716  -40.7039 N   0  0  0  0  0  0  0  0  0  0  0  0
   -0.8487  -32.9694  -42.8941 N   0  0  0  0  0  0  0  0  0  0  0  0
   -1.8281  -33.2383  -43.8012 C   0  0  0  0  0  0  0  0  0  0  0  0
   -3.0769  -33.7191  -43.3499 C   0  0  0  0  0  0  0  0  0  0  0  0
   -3.2644  -33.9106  -41.9541 C   0  0  0  0  0  0  0  0  0  0  0  0
   -4.3131  -34.3229  -41.5240 O   0  0  0  0  0  0  0  0  0  0  0  0
   -3.9044  -33.9046  -44.5376 C   0  0  0  0  0  0  0  0  0  0  0  0
   -3.1506  -33.5505  -45.5935 C   0  0  0  0  0  0  0  0  0  0  0  0
   -1.9049  -33.1501  -45.1582 N   0  0  0  0  0  0  0  0  0  0  0  0
   -5.3307  -34.3909  -44.5698 C   0  0  0  0  0  0  0  0  0  0  0  0
   -5.4285  -35.6448  -43.7953 N   0  0  0  0  0  0  0  0  0  0  0  0
  1  2  1  0  0  0  0
  1  7  1  0  0  0  0
  2  3  1  0  0  0  0
  2  4  2  0  0  0  0
  4  5  1  0  0  0  0
  5  6  2  0  0  0  0
  5 11  1  0  0  0  0
  6  7  1  0  0  0  0
  6  9  1  0  0  0  0
  7  8  2  0  0  0  0
  9 10  2  0  0  0  0
  9 12  1  0  0  0  0
 10 11  1  0  0  0  0
 12 13  1  0  0  0  0
M  END
>  <CHROM.1>
-51.32937675,-2.82185847,-33.74383976,-43.07855332,0.57498546,0.42882992
1.67858935

>  <Name>
ligand

>  <RI>
0

>  <Rbt.Current_Directory>
/home/itssahil/PROJECTS/Mol_Feturizer/Test_systems_manuscript/rnas/3fu2

>  <Rbt.Executable>
rbdock ($Id: //depot/dev/client3/rdock/2013.1/src/exe/rbdock.cxx#4 $)

>  <Rbt.Library>
libRbt.so (2013.1, Build901 2013/11/27)

>  <Rbt.Parameter_File>
/export/apps/rDock/src/rDock_2013.1_src/data/scripts/dock_solv.prm

>  <Rbt.Receptor>
prm/pocket_docking_7.prm

>  <SCORE>
-15.5871

>  <SCORE.INTER>
-15.9544

>  <SCORE.INTER.CONST>
1

>  <SCORE.INTER.POLAR>
0

>  <SCORE.INTER.ROT>
1

>  <SCORE.INTER.SOLV>
15.9596

>  <SCORE.INTER.VDW>
-20.2228

>  <SCORE.INTER.norm>
-1.22726

>  <SCORE.INTRA>
0.367335

>  <SCORE.INTRA.DIHEDRAL>
0.00565942

>  <SCORE.INTRA.DIHEDRAL.0>
1.66609

>  <SCORE.INTRA.POLAR>
0

>  <SCORE.INTRA.POLAR.0>
0

>  <SCORE.INTRA.REPUL>
0

>  <SCORE.INTRA.REPUL.0>
0

>  <SCORE.INTRA.SOLV>
0.745402

>  <SCORE.INTRA.SOLV.lig_0>
-45.868

>  <SCORE.INTRA.VDW>
-0.00819529

>  <SCORE.INTRA.VDW.0>
-0.397919

>  <SCORE.INTRA.norm>
0.0282566

>  <SCORE.RESTR>
0

>  <SCORE.RESTR.CAVITY>
0

>  <SCORE.RESTR.norm>
0

>  <SCORE.SYSTEM>
0

>  <SCORE.SYSTEM.CONST>
0

>  <SCORE.SYSTEM.DIHEDRAL>
0

>  <SCORE.SYSTEM.SOLV>
0

>  <SCORE.SYSTEM.norm>
0

>  <SCORE.heavy>
13

>  <SCORE.norm>
-1.19901

>  <RMSD>
4.605

$$$$
ligand
 OpenBabel02271912143D
libRbt.so/2013.1/901 2013/11/27
 13 14  0  0  0  0  0  0  0  0999 V2000
   -2.2820  -33.5665  -41.1422 N   0  0  0  0  0  0  0  0  0  0  0  0
   -1.0944  -33.0987  -41.6377 C   0  0  0  0  0  0  0  0  0  0  0  0
   -0.0863  -32.7971  -40.7630 N   0  0  0  0  0  0  0  0  0  0  0  0
   -0.9051  -32.9349  -42.9473 N   0  0  0  0  0  0  0  0  0  0  0  0
   -1.8872  -33.2245  -43.8452 C   0  0  0  0  0  0  0  0  0  0  0  0
   -3.1305  -33.7062  -43.3802 C   0  0  0  0  0  0  0  0  0  0  0  0
   -3.3101  -33.8767  -41.9807 C   0  0  0  0  0  0  0  0  0  0  0  0
   -4.3540  -34.2890  -41.5389 O   0  0  0  0  0  0  0  0  0  0  0  0
   -3.9626  -33.9159  -44.5607 C   0  0  0  0  0  0  0  0  0  0  0  0
   -3.2162  -33.5737  -45.6258 C   0  0  0  0  0  0  0  0  0  0  0  0
   -1.9710  -33.1584  -45.2030 N   0  0  0  0  0  0  0  0  0  0  0  0
   -5.3857  -34.4120  -44.5782 C   0  0  0  0  0  0  0  0  0  0  0  0
   -5.4818  -35.6262  -43.7427 N   0  0  0  0  0  0  0  0  0  0  0  0
  1  2  1  0  0  0  0
  1  7  1  0  0  0  0
  2  3  1  0  0  0  0
  2  4  2  0  0  0  0
  4  5  1  0  0  0  0
  5  6  2  0  0  0  0
  5 11  1  0  0  0  0
  6  7  1  0  0  0  0
  6  9  1  0  0  0  0
  7  8  2  0  0  0  0
  9 10  2  0  0  0  0
  9 12  1  0  0  0  0
 10 11  1  0  0  0  0
 12 13  1  0  0  0  0
M  END
>  <CHROM.1>
-49.26472671,-2.87487853,-33.72272942,-43.10644675,0.56660756,0.43224322
1.66568960

>  <Name>
ligand

>  <RI>
0

>  <Rbt.Current_Directory>
/home/itssahil/PROJECTS/Mol_Feturizer/Test_systems_manuscript/rnas/3fu2

>  <Rbt.Executable>
rbdock ($Id: //depot/dev/client3/rdock/2013.1/src/exe/rbdock.cxx#4 $)

>  <Rbt.Library>
libRbt.so (2013.1, Build901 2013/11/27)

>  <Rbt.Parameter_File>
/export/apps/rDock/src/rDock_2013.1_src/data/scripts/dock_solv.prm

>  <Rbt.Receptor>
prm/blind_docking_100.prm

>  <SCORE>
-15.6123

>  <SCORE.INTER>
-16.0275

>  <SCORE.INTER.CONST>
1

>  <SCORE.INTER.POLAR>
0

>  <SCORE.INTER.ROT>
1

>  <SCORE.INTER.SOLV>
16.2747

>  <SCORE.INTER.VDW>
-20.3766

>  <SCORE.INTER.norm>
-1.23289

>  <SCORE.INTRA>
0.415231

>  <SCORE.INTRA.DIHEDRAL>
0.00393287

>  <SCORE.INTRA.DIHEDRAL.0>
1.66609

>  <SCORE.INTRA.POLAR>
0

>  <SCORE.INTRA.POLAR.0>
0

>  <SCORE.INTRA.REPUL>
0

>  <SCORE.INTRA.REPUL.0>
0

>  <SCORE.INTRA.SOLV>
0.801054

>  <SCORE.INTRA.SOLV.lig_0>
-45.868

>  <SCORE.INTRA.VDW>
0.0127374

>  <SCORE.INTRA.VDW.0>
-0.397919

>  <SCORE.INTRA.norm>
0.0319408

>  <SCORE.RESTR>
0

>  <SCORE.RESTR.CAVITY>
0

>  <SCORE.RESTR.norm>
0

>  <SCORE.SYSTEM>
0

>  <SCORE.SYSTEM.CONST>
0

>  <SCORE.SYSTEM.DIHEDRAL>
0

>  <SCORE.SYSTEM.SOLV>
0

>  <SCORE.SYSTEM.norm>
0

>  <SCORE.heavy>
13

>  <SCORE.norm>
-1.20095

>  <RMSD>
4.607

$$$$
ligand
 OpenBabel02271912143D
libRbt.so/2013.1/901 2013/11/27
 13 14  0  0  0  0  0  0  0  0999 V2000
   -2.2964  -33.5696  -41.0737 N   0  0  0  0  0  0  0  0  0  0  0  0
   -1.1095  -33.0983  -41.5678 C   0  0  0  0  0  0  0  0  0  0  0  0
   -0.1056  -32.7877  -40.6916 N   0  0  0  0  0  0  0  0  0  0  0  0
   -0.9171  -32.9398  -42.8777 N   0  0  0  0  0  0  0  0  0  0  0  0
   -1.8950  -33.2384  -43.7771 C   0  0  0  0  0  0  0  0  0  0  0  0
   -3.1374  -33.7240  -43.3135 C   0  0  0  0  0  0  0  0  0  0  0  0
   -3.3204  -33.8887  -41.9138 C   0  0  0  0  0  0  0  0  0  0  0  0
   -4.3636  -34.3039  -41.4732 O   0  0  0  0  0  0  0  0  0  0  0  0
   -3.9649  -33.9433  -44.4955 C   0  0  0  0  0  0  0  0  0  0  0  0
   -3.2170  -33.6025  -45.5600 C   0  0  0  0  0  0  0  0  0  0  0  0
   -1.9751  -33.1792  -45.1355 N   0  0  0  0  0  0  0  0  0  0  0  0
   -5.3856  -34.4463  -44.5149 C   0  0  0  0  0  0  0  0  0  0  0  0
   -5.4638  -35.6957  -43.7310 N   0  0  0  0  0  0  0  0  0  0  0  0
  1  2  1  0  0  0  0
  1  7  1  0  0  0  0
  2  3  1  0  0  0  0
  2  4  2  0  0  0  0
  4  5  1  0  0  0  0
  5  6  2  0  0  0  0
  5 11  1  0  0  0  0
  6  7  1  0  0  0  0
  6  9  1  0  0  0  0
  7  8  2  0  0  0  0
  9 10  2  0  0  0  0
  9 12  1  0  0  0  0
 10 11  1  0  0  0  0
 12 13  1  0  0  0  0
M  END
>  <CHROM.1>
-52.15394720,-2.88136123,-33.74109807,-43.04359269,0.57268995,0.44095427
1.65914445

>  <Name>
ligand

>  <RI>
0

>  <Rbt.Current_Directory>
/home/itssahil/PROJECTS/Mol_Feturizer/Test_systems_manuscript/rnas/3fu2

>  <Rbt.Executable>
rbdock ($Id: //depot/dev/client3/rdock/2013.1/src/exe/rbdock.cxx#4 $)

>  <Rbt.Library>
libRbt.so (2013.1, Build901 2013/11/27)

>  <Rbt.Parameter_File>
/export/apps/rDock/src/rDock_2013.1_src/data/scripts/dock_solv.prm

>  <Rbt.Receptor>
prm/pocket_docking_4.prm

>  <SCORE>
-15.5437

>  <SCORE.INTER>
-15.8935

>  <SCORE.INTER.CONST>
1

>  <SCORE.INTER.POLAR>
0

>  <SCORE.INTER.ROT>
1

>  <SCORE.INTER.SOLV>
16.6865

>  <SCORE.INTER.VDW>
-20.4245

>  <SCORE.INTER.norm>
-1.22258

>  <SCORE.INTRA>
0.34978

>  <SCORE.INTRA.DIHEDRAL>
0.00637705

>  <SCORE.INTRA.DIHEDRAL.0>
1.66609

>  <SCORE.INTRA.POLAR>
0

>  <SCORE.INTRA.POLAR.0>
0

>  <SCORE.INTRA.REPUL>
0

>  <SCORE.INTRA.REPUL.0>
0

>  <SCORE.INTRA.SOLV>
0.722869

>  <SCORE.INTRA.SOLV.lig_0>
-45.868

>  <SCORE.INTRA.VDW>
-0.0148431

>  <SCORE.INTRA.VDW.0>
-0.397919

>  <SCORE.INTRA.norm>
0.0269062

>  <SCORE.RESTR>
0

>  <SCORE.RESTR.CAVITY>
0

>  <SCORE.RESTR.norm>
0

>  <SCORE.SYSTEM>
0

>  <SCORE.SYSTEM.CONST>
0

>  <SCORE.SYSTEM.DIHEDRAL>
0

>  <SCORE.SYSTEM.SOLV>
0

>  <SCORE.SYSTEM.norm>
0

>  <SCORE.heavy>
13

>  <SCORE.norm>
-1.19567

>  <RMSD>
4.612

$$$$
ligand
 OpenBabel02271912143D
libRbt.so/2013.1/901 2013/11/27
 13 14  0  0  0  0  0  0  0  0999 V2000
   -2.2543  -33.6298  -41.0777 N   0  0  0  0  0  0  0  0  0  0  0  0
   -1.0697  -33.1609  -41.5792 C   0  0  0  0  0  0  0  0  0  0  0  0
   -0.0554  -32.8639  -40.7102 N   0  0  0  0  0  0  0  0  0  0  0  0
   -0.8893  -32.9916  -42.8894 N   0  0  0  0  0  0  0  0  0  0  0  0
   -1.8777  -33.2766  -43.7818 C   0  0  0  0  0  0  0  0  0  0  0  0
   -3.1182  -33.7593  -43.3103 C   0  0  0  0  0  0  0  0  0  0  0  0
   -3.2883  -33.9356  -41.9104 C   0  0  0  0  0  0  0  0  0  0  0  0
   -4.3295  -34.3489  -41.4632 O   0  0  0  0  0  0  0  0  0  0  0  0
   -3.9585  -33.9633  -44.4860 C   0  0  0  0  0  0  0  0  0  0  0  0
   -3.2192  -33.6172  -45.5547 C   0  0  0  0  0  0  0  0  0  0  0  0
   -1.9707  -33.2047  -45.1387 N   0  0  0  0  0  0  0  0  0  0  0  0
   -5.3822  -34.4581  -44.4958 C   0  0  0  0  0  0  0  0  0  0  0  0
   -5.4603  -35.7127  -43.7203 N   0  0  0  0  0  0  0  0  0  0  0  0
  1  2  1  0  0  0  0
  1  7  1  0  0  0  0
  2  3  1  0  0  0  0
  2  4  2  0  0  0  0
  4  5  1  0  0  0  0
  5  6  2  0  0  0  0
  5 11  1  0  0  0  0
  6  7  1  0  0  0  0
  6  9  1  0  0  0  0
  7  8  2  0  0  0  0
  9 10  2  0  0  0  0
  9 12  1  0  0  0  0
 10 11  1  0  0  0  0
 12 13  1  0  0  0  0
M  END
>  <CHROM.1>
-52.04800102,-2.85963782,-33.78018364,-43.04292676,0.56233770,0.43422558
1.67248662

>  <Name>
ligand

>  <RI>
0

>  <Rbt.Current_Directory>
/home/itssahil/PROJECTS/Mol_Feturizer/Test_systems_manuscript/rnas/3fu2

>  <Rbt.Executable>
rbdock ($Id: //depot/dev/client3/rdock/2013.1/src/exe/rbdock.cxx#4 $)

>  <Rbt.Library>
libRbt.so (2013.1, Build901 2013/11/27)

>  <Rbt.Parameter_File>
/export/apps/rDock/src/rDock_2013.1_src/data/scripts/dock_solv.prm

>  <Rbt.Receptor>
prm/pocket_docking_4.prm

>  <SCORE>
-15.5835

>  <SCORE.INTER>
-15.9355

>  <SCORE.INTER.CONST>
1

>  <SCORE.INTER.POLAR>
0

>  <SCORE.INTER.ROT>
1

>  <SCORE.INTER.SOLV>
16.2008

>  <SCORE.INTER.VDW>
-20.2906

>  <SCORE.INTER.norm>
-1.22581

>  <SCORE.INTRA>
0.35199

>  <SCORE.INTRA.DIHEDRAL>
0.00628403

>  <SCORE.INTRA.DIHEDRAL.0>
1.66609

>  <SCORE.INTRA.POLAR>
0

>  <SCORE.INTRA.POLAR.0>
0

>  <SCORE.INTRA.REPUL>
0

>  <SCORE.INTRA.REPUL.0>
0

>  <SCORE.INTRA.SOLV>
0.725774

>  <SCORE.INTRA.SOLV.lig_0>
-45.868

>  <SCORE.INTRA.VDW>
-0.0140391

>  <SCORE.INTRA.VDW.0>
-0.397919

>  <SCORE.INTRA.norm>
0.0270761

>  <SCORE.RESTR>
0

>  <SCORE.RESTR.CAVITY>
0

>  <SCORE.RESTR.norm>
0

>  <SCORE.SYSTEM>
0

>  <SCORE.SYSTEM.CONST>
0

>  <SCORE.SYSTEM.DIHEDRAL>
0

>  <SCORE.SYSTEM.SOLV>
0

>  <SCORE.SYSTEM.norm>
0

>  <SCORE.heavy>
13

>  <SCORE.norm>
-1.19873

>  <RMSD>
4.617

$$$$
ligand
 OpenBabel02271912143D
libRbt.so/2013.1/901 2013/11/27
 13 14  0  0  0  0  0  0  0  0999 V2000
   -2.1206  -33.6696  -41.1584 N   0  0  0  0  0  0  0  0  0  0  0  0
   -0.9615  -33.1715  -41.6905 C   0  0  0  0  0  0  0  0  0  0  0  0
    0.0797  -32.8813  -40.8514 N   0  0  0  0  0  0  0  0  0  0  0  0
   -0.8312  -32.9676  -43.0017 N   0  0  0  0  0  0  0  0  0  0  0  0
   -1.8475  -33.2448  -43.8646 C   0  0  0  0  0  0  0  0  0  0  0  0
   -3.0635  -33.7567  -43.3610 C   0  0  0  0  0  0  0  0  0  0  0  0
   -3.1801  -33.9697  -41.9606 C   0  0  0  0  0  0  0  0  0  0  0  0
   -4.1986  -34.4087  -41.4867 O   0  0  0  0  0  0  0  0  0  0  0  0
   -3.9432  -33.9438  -44.5103 C   0  0  0  0  0  0  0  0  0  0  0  0
   -3.2480  -33.5610  -45.5960 C   0  0  0  0  0  0  0  0  0  0  0  0
   -1.9909  -33.1409  -45.2151 N   0  0  0  0  0  0  0  0  0  0  0  0
   -5.3595  -34.4587  -44.4811 C   0  0  0  0  0  0  0  0  0  0  0  0
   -5.4084  -35.6847  -43.6589 N   0  0  0  0  0  0  0  0  0  0  0  0
  1  2  1  0  0  0  0
  1  7  1  0  0  0  0
  2  3  1  0  0  0  0
  2  4  2  0  0  0  0
  4  5  1  0  0  0  0
  5  6  2  0  0  0  0
  5 11  1  0  0  0  0
  6  7  1  0  0  0  0
  6  9  1  0  0  0  0
  7  8  2  0  0  0  0
  9 10  2  0  0  0  0
  9 12  1  0  0  0  0
 10 11  1  0  0  0  0
 12 13  1  0  0  0  0
M  END
>  <CHROM.1>
-48.29457306,-2.79636025,-33.77647395,-43.09749211,0.51661139,0.43882507
1.71545859

>  <Name>
ligand

>  <RI>
0

>  <Rbt.Current_Directory>
/home/itssahil/PROJECTS/Mol_Feturizer/Test_systems_manuscript/rnas/3fu2

>  <Rbt.Executable>
rbdock ($Id: //depot/dev/client3/rdock/2013.1/src/exe/rbdock.cxx#4 $)

>  <Rbt.Library>
libRbt.so (2013.1, Build901 2013/11/27)

>  <Rbt.Parameter_File>
/export/apps/rDock/src/rDock_2013.1_src/data/scripts/dock_solv.prm

>  <Rbt.Receptor>
prm/pocket_docking_4.prm

>  <SCORE>
-15.5603

>  <SCORE.INTER>
-16.0003

>  <SCORE.INTER.CONST>
1

>  <SCORE.INTER.POLAR>
0

>  <SCORE.INTER.ROT>
1

>  <SCORE.INTER.SOLV>
15.1588

>  <SCORE.INTER.VDW>
-19.9864

>  <SCORE.INTER.norm>
-1.23079

>  <SCORE.INTRA>
0.439934

>  <SCORE.INTRA.DIHEDRAL>
0.00316063

>  <SCORE.INTRA.DIHEDRAL.0>
1.66609

>  <SCORE.INTRA.POLAR>
0

>  <SCORE.INTRA.POLAR.0>
0

>  <SCORE.INTRA.REPUL>
0

>  <SCORE.INTRA.REPUL.0>
0

>  <SCORE.INTRA.SOLV>
0.826803

>  <SCORE.INTRA.SOLV.lig_0>
-45.868

>  <SCORE.INTRA.VDW>
0.0249525

>  <SCORE.INTRA.VDW.0>
-0.397919

>  <SCORE.INTRA.norm>
0.0338411

>  <SCORE.RESTR>
0

>  <SCORE.RESTR.CAVITY>
0

>  <SCORE.RESTR.norm>
0

>  <SCORE.SYSTEM>
0

>  <SCORE.SYSTEM.CONST>
0

>  <SCORE.SYSTEM.DIHEDRAL>
0

>  <SCORE.SYSTEM.SOLV>
0

>  <SCORE.SYSTEM.norm>
0

>  <SCORE.heavy>
13

>  <SCORE.norm>
-1.19695

>  <RMSD>
4.628

$$$$
ligand
 OpenBabel02271912143D
libRbt.so/2013.1/901 2013/11/27
 13 14  0  0  0  0  0  0  0  0999 V2000
   -2.1035  -33.4043  -41.1920 N   0  0  0  0  0  0  0  0  0  0  0  0
   -0.9458  -32.9479  -41.7634 C   0  0  0  0  0  0  0  0  0  0  0  0
    0.0977  -32.5957  -40.9516 N   0  0  0  0  0  0  0  0  0  0  0  0
   -0.8193  -32.8433  -43.0866 N   0  0  0  0  0  0  0  0  0  0  0  0
   -1.8381  -33.1845  -43.9234 C   0  0  0  0  0  0  0  0  0  0  0  0
   -3.0526  -33.6567  -43.3791 C   0  0  0  0  0  0  0  0  0  0  0  0
   -3.1652  -33.7637  -41.9664 C   0  0  0  0  0  0  0  0  0  0  0  0
   -4.1824  -34.1655  -41.4579 O   0  0  0  0  0  0  0  0  0  0  0  0
   -3.9356  -33.9297  -44.5086 C   0  0  0  0  0  0  0  0  0  0  0  0
   -3.2435  -33.6298  -45.6220 C   0  0  0  0  0  0  0  0  0  0  0  0
   -1.9853  -33.1825  -45.2774 N   0  0  0  0  0  0  0  0  0  0  0  0
   -5.3518  -34.4405  -44.4367 C   0  0  0  0  0  0  0  0  0  0  0  0
   -5.3828  -35.6542  -43.5956 N   0  0  0  0  0  0  0  0  0  0  0  0
  1  2  1  0  0  0  0
  1  7  1  0  0  0  0
  2  3  1  0  0  0  0
  2  4  2  0  0  0  0
  4  5  1  0  0  0  0
  5  6  2  0  0  0  0
  5 11  1  0  0  0  0
  6  7  1  0  0  0  0
  6  9  1  0  0  0  0
  7  8  2  0  0  0  0
  9 10  2  0  0  0  0
  9 12  1  0  0  0  0
 10 11  1  0  0  0  0
 12 13  1  0  0  0  0
M  END
>  <CHROM.1>
-51.99514138,-2.78345463,-33.66098987,-43.12146484,0.51750249,0.44310887
1.64097667

>  <Name>
ligand

>  <RI>
0

>  <Rbt.Current_Directory>
/home/itssahil/PROJECTS/Mol_Feturizer/Test_systems_manuscript/rnas/3fu2

>  <Rbt.Executable>
rbdock ($Id: //depot/dev/client3/rdock/2013.1/src/exe/rbdock.cxx#4 $)

>  <Rbt.Library>
libRbt.so (2013.1, Build901 2013/11/27)

>  <Rbt.Parameter_File>
/export/apps/rDock/src/rDock_2013.1_src/data/scripts/dock_solv.prm

>  <Rbt.Receptor>
prm/blind_docking_100.prm

>  <SCORE>
-15.6508

>  <SCORE.INTER>
-16.0039

>  <SCORE.INTER.CONST>
1

>  <SCORE.INTER.POLAR>
0

>  <SCORE.INTER.ROT>
1

>  <SCORE.INTER.SOLV>
15.7705

>  <SCORE.INTER.VDW>
-20.1927

>  <SCORE.INTER.norm>
-1.23107

>  <SCORE.INTRA>
0.353097

>  <SCORE.INTRA.DIHEDRAL>
0.00623771

>  <SCORE.INTRA.DIHEDRAL.0>
1.66609

>  <SCORE.INTRA.POLAR>
0

>  <SCORE.INTRA.POLAR.0>
0

>  <SCORE.INTRA.REPUL>
0

>  <SCORE.INTRA.REPUL.0>
0

>  <SCORE.INTRA.SOLV>
0.727222

>  <SCORE.INTRA.SOLV.lig_0>
-45.868

>  <SCORE.INTRA.VDW>
-0.0136325

>  <SCORE.INTRA.VDW.0>
-0.397919

>  <SCORE.INTRA.norm>
0.0271613

>  <SCORE.RESTR>
0

>  <SCORE.RESTR.CAVITY>
0

>  <SCORE.RESTR.norm>
0

>  <SCORE.SYSTEM>
0

>  <SCORE.SYSTEM.CONST>
0

>  <SCORE.SYSTEM.DIHEDRAL>
0

>  <SCORE.SYSTEM.SOLV>
0

>  <SCORE.SYSTEM.norm>
0

>  <SCORE.heavy>
13

>  <SCORE.norm>
-1.2039

>  <RMSD>
4.639

$$$$
ligand
 OpenBabel02271912143D
libRbt.so/2013.1/901 2013/11/27
 13 14  0  0  0  0  0  0  0  0999 V2000
   -2.0922  -33.3599  -41.1691 N   0  0  0  0  0  0  0  0  0  0  0  0
   -0.9342  -32.9112  -41.7456 C   0  0  0  0  0  0  0  0  0  0  0  0
    0.1091  -32.5490  -40.9378 N   0  0  0  0  0  0  0  0  0  0  0  0
   -0.8069  -32.8236  -43.0700 N   0  0  0  0  0  0  0  0  0  0  0  0
   -1.8253  -33.1750  -43.9029 C   0  0  0  0  0  0  0  0  0  0  0  0
   -3.0403  -33.6399  -43.3533 C   0  0  0  0  0  0  0  0  0  0  0  0
   -3.1537  -33.7288  -41.9394 C   0  0  0  0  0  0  0  0  0  0  0  0
   -4.1713  -34.1238  -41.4263 O   0  0  0  0  0  0  0  0  0  0  0  0
   -3.9228  -33.9269  -44.4797 C   0  0  0  0  0  0  0  0  0  0  0  0
   -3.2300  -33.6415  -45.5965 C   0  0  0  0  0  0  0  0  0  0  0  0
   -1.9719  -33.1903  -45.2569 N   0  0  0  0  0  0  0  0  0  0  0  0
   -5.3392  -34.4363  -44.4021 C   0  0  0  0  0  0  0  0  0  0  0  0
   -5.3710  -35.6395  -43.5459 N   0  0  0  0  0  0  0  0  0  0  0  0
  1  2  1  0  0  0  0
  1  7  1  0  0  0  0
  2  3  1  0  0  0  0
  2  4  2  0  0  0  0
  4  5  1  0  0  0  0
  5  6  2  0  0  0  0
  5 11  1  0  0  0  0
  6  7  1  0  0  0  0
  6  9  1  0  0  0  0
  7  8  2  0  0  0  0
  9 10  2  0  0  0  0
  9 12  1  0  0  0  0
 10 11  1  0  0  0  0
 12 13  1  0  0  0  0
M  END
>  <CHROM.1>
-52.01549282,-2.77128855,-33.64099164,-43.09550393,0.51813123,0.44283456
1.62796416

>  <Name>
ligand

>  <RI>
0

>  <Rbt.Current_Directory>
/home/itssahil/PROJECTS/Mol_Feturizer/Test_systems_manuscript/rnas/3fu2

>  <Rbt.Executable>
rbdock ($Id: //depot/dev/client3/rdock/2013.1/src/exe/rbdock.cxx#4 $)

>  <Rbt.Library>
libRbt.so (2013.1, Build901 2013/11/27)

>  <Rbt.Parameter_File>
/export/apps/rDock/src/rDock_2013.1_src/data/scripts/dock_solv.prm

>  <Rbt.Receptor>
prm/blind_docking_60.prm

>  <SCORE>
-15.6457

>  <SCORE.INTER>
-15.9983

>  <SCORE.INTER.CONST>
1

>  <SCORE.INTER.POLAR>
0

>  <SCORE.INTER.ROT>
1

>  <SCORE.INTER.SOLV>
15.8872

>  <SCORE.INTER.VDW>
-20.228

>  <SCORE.INTER.norm>
-1.23064

>  <SCORE.INTRA>
0.352671

>  <SCORE.INTRA.DIHEDRAL>
0.00625554

>  <SCORE.INTRA.DIHEDRAL.0>
1.66609

>  <SCORE.INTRA.POLAR>
0

>  <SCORE.INTRA.POLAR.0>
0

>  <SCORE.INTRA.REPUL>
0

>  <SCORE.INTRA.REPUL.0>
0

>  <SCORE.INTRA.SOLV>
0.726665

>  <SCORE.INTRA.SOLV.lig_0>
-45.868

>  <SCORE.INTRA.VDW>
-0.0137895

>  <SCORE.INTRA.VDW.0>
-0.397919

>  <SCORE.INTRA.norm>
0.0271285

>  <SCORE.RESTR>
0

>  <SCORE.RESTR.CAVITY>
0

>  <SCORE.RESTR.norm>
0

>  <SCORE.SYSTEM>
0

>  <SCORE.SYSTEM.CONST>
0

>  <SCORE.SYSTEM.DIHEDRAL>
0

>  <SCORE.SYSTEM.SOLV>
0

>  <SCORE.SYSTEM.norm>
0

>  <SCORE.heavy>
13

>  <SCORE.norm>
-1.20351

>  <RMSD>
4.641

$$$$
ligand
 OpenBabel02271912143D
libRbt.so/2013.1/901 2013/11/27
 13 14  0  0  0  0  0  0  0  0999 V2000
   -2.0875  -33.4165  -41.1808 N   0  0  0  0  0  0  0  0  0  0  0  0
   -0.9349  -32.9555  -41.7587 C   0  0  0  0  0  0  0  0  0  0  0  0
    0.1125  -32.6010  -40.9529 N   0  0  0  0  0  0  0  0  0  0  0  0
   -0.8169  -32.8487  -43.0825 N   0  0  0  0  0  0  0  0  0  0  0  0
   -1.8397  -33.1921  -43.9134 C   0  0  0  0  0  0  0  0  0  0  0  0
   -3.0493  -33.6691  -43.3623 C   0  0  0  0  0  0  0  0  0  0  0  0
   -3.1528  -33.7784  -41.9491 C   0  0  0  0  0  0  0  0  0  0  0  0
   -4.1655  -34.1843  -41.4348 O   0  0  0  0  0  0  0  0  0  0  0  0
   -3.9384  -33.9434  -44.4867 C   0  0  0  0  0  0  0  0  0  0  0  0
   -3.2542  -33.6398  -45.6040 C   0  0  0  0  0  0  0  0  0  0  0  0
   -1.9954  -33.1888  -45.2665 N   0  0  0  0  0  0  0  0  0  0  0  0
   -5.3524  -34.4590  -44.4068 C   0  0  0  0  0  0  0  0  0  0  0  0
   -5.3798  -35.6543  -43.5395 N   0  0  0  0  0  0  0  0  0  0  0  0
  1  2  1  0  0  0  0
  1  7  1  0  0  0  0
  2  3  1  0  0  0  0
  2  4  2  0  0  0  0
  4  5  1  0  0  0  0
  5  6  2  0  0  0  0
  5 11  1  0  0  0  0
  6  7  1  0  0  0  0
  6  9  1  0  0  0  0
  7  8  2  0  0  0  0
  9 10  2  0  0  0  0
  9 12  1  0  0  0  0
 10 11  1  0  0  0  0
 12 13  1  0  0  0  0
M  END
>  <CHROM.1>
-50.58411473,-2.77901647,-33.67124508,-43.10410482,0.50881515,0.44420627
1.64561678

>  <Name>
ligand

>  <RI>
0

>  <Rbt.Current_Directory>
/home/itssahil/PROJECTS/Mol_Feturizer/Test_systems_manuscript/rnas/3fu2

>  <Rbt.Executable>
rbdock ($Id: //depot/dev/client3/rdock/2013.1/src/exe/rbdock.cxx#4 $)

>  <Rbt.Library>
libRbt.so (2013.1, Build901 2013/11/27)

>  <Rbt.Parameter_File>
/export/apps/rDock/src/rDock_2013.1_src/data/scripts/dock_solv.prm

>  <Rbt.Receptor>
prm/pocket_docking_7.prm

>  <SCORE>
-15.6538

>  <SCORE.INTER>
-16.0378

>  <SCORE.INTER.CONST>
1

>  <SCORE.INTER.POLAR>
0

>  <SCORE.INTER.ROT>
1

>  <SCORE.INTER.SOLV>
15.6379

>  <SCORE.INTER.VDW>
-20.1711

>  <SCORE.INTER.norm>
-1.23367

>  <SCORE.INTRA>
0.383942

>  <SCORE.INTRA.DIHEDRAL>
0.00502401

>  <SCORE.INTRA.DIHEDRAL.0>
1.66609

>  <SCORE.INTRA.POLAR>
0

>  <SCORE.INTRA.POLAR.0>
0

>  <SCORE.INTRA.REPUL>
0

>  <SCORE.INTRA.REPUL.0>
0

>  <SCORE.INTRA.SOLV>
0.76562

>  <SCORE.INTRA.SOLV.lig_0>
-45.868

>  <SCORE.INTRA.VDW>
-0.00138044

>  <SCORE.INTRA.VDW.0>
-0.397919

>  <SCORE.INTRA.norm>
0.029534

>  <SCORE.RESTR>
0

>  <SCORE.RESTR.CAVITY>
0

>  <SCORE.RESTR.norm>
0

>  <SCORE.SYSTEM>
0

>  <SCORE.SYSTEM.CONST>
0

>  <SCORE.SYSTEM.DIHEDRAL>
0

>  <SCORE.SYSTEM.SOLV>
0

>  <SCORE.SYSTEM.norm>
0

>  <SCORE.heavy>
13

>  <SCORE.norm>
-1.20414

>  <RMSD>
4.642

$$$$
ligand
 OpenBabel02271912143D
libRbt.so/2013.1/901 2013/11/27
 13 14  0  0  0  0  0  0  0  0999 V2000
   -2.0641  -33.4284  -41.2028 N   0  0  0  0  0  0  0  0  0  0  0  0
   -0.9119  -32.9722  -41.7851 C   0  0  0  0  0  0  0  0  0  0  0  0
    0.1394  -32.6202  -40.9831 N   0  0  0  0  0  0  0  0  0  0  0  0
   -0.7978  -32.8674  -43.1094 N   0  0  0  0  0  0  0  0  0  0  0  0
   -1.8246  -33.2083  -43.9365 C   0  0  0  0  0  0  0  0  0  0  0  0
   -3.0339  -33.6804  -43.3809 C   0  0  0  0  0  0  0  0  0  0  0  0
   -3.1332  -33.7876  -41.9672 C   0  0  0  0  0  0  0  0  0  0  0  0
   -4.1456  -34.1894  -41.4491 O   0  0  0  0  0  0  0  0  0  0  0  0
   -3.9276  -33.9531  -44.5020 C   0  0  0  0  0  0  0  0  0  0  0  0
   -3.2461  -33.6532  -45.6219 C   0  0  0  0  0  0  0  0  0  0  0  0
   -1.9846  -33.2062  -45.2891 N   0  0  0  0  0  0  0  0  0  0  0  0
   -5.3432  -34.4637  -44.4168 C   0  0  0  0  0  0  0  0  0  0  0  0
   -5.3718  -35.6580  -43.5482 N   0  0  0  0  0  0  0  0  0  0  0  0
  1  2  1  0  0  0  0
  1  7  1  0  0  0  0
  2  3  1  0  0  0  0
  2  4  2  0  0  0  0
  4  5  1  0  0  0  0
  5  6  2  0  0  0  0
  5 11  1  0  0  0  0
  6  7  1  0  0  0  0
  6  9  1  0  0  0  0
  7  8  2  0  0  0  0
  9 10  2  0  0  0  0
  9 12  1  0  0  0  0
 10 11  1  0  0  0  0
 12 13  1  0  0  0  0
M  END
>  <CHROM.1>
-50.59916660,-2.76281821,-33.68319420,-43.12355335,0.50550308,0.44054690
1.64578660

>  <Name>
ligand

>  <RI>
0

>  <Rbt.Current_Directory>
/home/itssahil/PROJECTS/Mol_Feturizer/Test_systems_manuscript/rnas/3fu2

>  <Rbt.Executable>
rbdock ($Id: //depot/dev/client3/rdock/2013.1/src/exe/rbdock.cxx#4 $)

>  <Rbt.Library>
libRbt.so (2013.1, Build901 2013/11/27)

>  <Rbt.Parameter_File>
/export/apps/rDock/src/rDock_2013.1_src/data/scripts/dock_solv.prm

>  <Rbt.Receptor>
prm/blind_docking_80.prm

>  <SCORE>
-15.6435

>  <SCORE.INTER>
-16.0271

>  <SCORE.INTER.CONST>
1

>  <SCORE.INTER.POLAR>
0

>  <SCORE.INTER.ROT>
1

>  <SCORE.INTER.SOLV>
15.3907

>  <SCORE.INTER.VDW>
-20.0816

>  <SCORE.INTER.norm>
-1.23285

>  <SCORE.INTRA>
0.383599

>  <SCORE.INTRA.DIHEDRAL>
0.00503671

>  <SCORE.INTRA.DIHEDRAL.0>
1.66609

>  <SCORE.INTRA.POLAR>
0

>  <SCORE.INTRA.POLAR.0>
0

>  <SCORE.INTRA.REPUL>
0

>  <SCORE.INTRA.REPUL.0>
0

>  <SCORE.INTRA.SOLV>
0.765213

>  <SCORE.INTRA.SOLV.lig_0>
-45.868

>  <SCORE.INTRA.VDW>
-0.00152603

>  <SCORE.INTRA.VDW.0>
-0.397919

>  <SCORE.INTRA.norm>
0.0295076

>  <SCORE.RESTR>
0

>  <SCORE.RESTR.CAVITY>
0

>  <SCORE.RESTR.norm>
0

>  <SCORE.SYSTEM>
0

>  <SCORE.SYSTEM.CONST>
0

>  <SCORE.SYSTEM.DIHEDRAL>
0

>  <SCORE.SYSTEM.SOLV>
0

>  <SCORE.SYSTEM.norm>
0

>  <SCORE.heavy>
13

>  <SCORE.norm>
-1.20334

>  <RMSD>
4.644

$$$$
ligand
 OpenBabel02271912143D
libRbt.so/2013.1/901 2013/11/27
 13 14  0  0  0  0  0  0  0  0999 V2000
   -2.0942  -33.4453  -41.2001 N   0  0  0  0  0  0  0  0  0  0  0  0
   -0.9454  -32.9750  -41.7778 C   0  0  0  0  0  0  0  0  0  0  0  0
    0.1015  -32.6185  -40.9721 N   0  0  0  0  0  0  0  0  0  0  0  0
   -0.8304  -32.8610  -43.1013 N   0  0  0  0  0  0  0  0  0  0  0  0
   -1.8528  -33.2061  -43.9320 C   0  0  0  0  0  0  0  0  0  0  0  0
   -3.0586  -33.6926  -43.3810 C   0  0  0  0  0  0  0  0  0  0  0  0
   -3.1589  -33.8094  -41.9681 C   0  0  0  0  0  0  0  0  0  0  0  0
   -4.1683  -34.2236  -41.4540 O   0  0  0  0  0  0  0  0  0  0  0  0
   -3.9483  -33.9664  -44.5051 C   0  0  0  0  0  0  0  0  0  0  0  0
   -3.2679  -33.6534  -45.6221 C   0  0  0  0  0  0  0  0  0  0  0  0
   -2.0110  -33.1970  -45.2848 N   0  0  0  0  0  0  0  0  0  0  0  0
   -5.3592  -34.4904  -44.4251 C   0  0  0  0  0  0  0  0  0  0  0  0
   -5.3721  -35.7113  -43.5939 N   0  0  0  0  0  0  0  0  0  0  0  0
  1  2  1  0  0  0  0
  1  7  1  0  0  0  0
  2  3  1  0  0  0  0
  2  4  2  0  0  0  0
  4  5  1  0  0  0  0
  5  6  2  0  0  0  0
  5 11  1  0  0  0  0
  6  7  1  0  0  0  0
  6  9  1  0  0  0  0
  7  8  2  0  0  0  0
  9 10  2  0  0  0  0
  9 12  1  0  0  0  0
 10 11  1  0  0  0  0
 12 13  1  0  0  0  0
M  END
>  <CHROM.1>
-52.11941886,-2.78737443,-33.69621199,-43.12577525,0.50799725,0.45160728
1.65142448

>  <Name>
ligand

>  <RI>
0

>  <Rbt.Current_Directory>
/home/itssahil/PROJECTS/Mol_Feturizer/Test_systems_manuscript/rnas/3fu2

>  <Rbt.Executable>
rbdock ($Id: //depot/dev/client3/rdock/2013.1/src/exe/rbdock.cxx#4 $)

>  <Rbt.Library>
libRbt.so (2013.1, Build901 2013/11/27)

>  <Rbt.Parameter_File>
/export/apps/rDock/src/rDock_2013.1_src/data/scripts/dock_solv.prm

>  <Rbt.Receptor>
prm/blind_docking_80.prm

>  <SCORE>
-15.6492

>  <SCORE.INTER>
-15.9997

>  <SCORE.INTER.CONST>
1

>  <SCORE.INTER.POLAR>
0

>  <SCORE.INTER.ROT>
1

>  <SCORE.INTER.SOLV>
15.6995

>  <SCORE.INTER.VDW>
-20.1663

>  <SCORE.INTER.norm>
-1.23074

>  <SCORE.INTRA>
0.350499

>  <SCORE.INTRA.DIHEDRAL>
0.00634671

>  <SCORE.INTRA.DIHEDRAL.0>
1.66609

>  <SCORE.INTRA.POLAR>
0

>  <SCORE.INTRA.POLAR.0>
0

>  <SCORE.INTRA.REPUL>
0

>  <SCORE.INTRA.REPUL.0>
0

>  <SCORE.INTRA.SOLV>
0.723816

>  <SCORE.INTRA.SOLV.lig_0>
-45.868

>  <SCORE.INTRA.VDW>
-0.0145827

>  <SCORE.INTRA.VDW.0>
-0.397919

>  <SCORE.INTRA.norm>
0.0269614

>  <SCORE.RESTR>
0

>  <SCORE.RESTR.CAVITY>
0

>  <SCORE.RESTR.norm>
0

>  <SCORE.SYSTEM>
0

>  <SCORE.SYSTEM.CONST>
0

>  <SCORE.SYSTEM.DIHEDRAL>
0

>  <SCORE.SYSTEM.SOLV>
0

>  <SCORE.SYSTEM.norm>
0

>  <SCORE.heavy>
13

>  <SCORE.norm>
-1.20378

>  <RMSD>
4.645

$$$$
ligand
 OpenBabel02271912143D
libRbt.so/2013.1/901 2013/11/27
 13 14  0  0  0  0  0  0  0  0999 V2000
   -1.9018  -33.4386  -41.1954 N   0  0  0  0  0  0  0  0  0  0  0  0
   -0.7560  -32.9697  -41.7803 C   0  0  0  0  0  0  0  0  0  0  0  0
    0.3081  -32.6460  -40.9834 N   0  0  0  0  0  0  0  0  0  0  0  0
   -0.6604  -32.8258  -43.1024 N   0  0  0  0  0  0  0  0  0  0  0  0
   -1.7004  -33.1377  -43.9245 C   0  0  0  0  0  0  0  0  0  0  0  0
   -2.9037  -33.6215  -43.3658 C   0  0  0  0  0  0  0  0  0  0  0  0
   -2.9832  -33.7705  -41.9546 C   0  0  0  0  0  0  0  0  0  0  0  0
   -3.9899  -34.1836  -41.4343 O   0  0  0  0  0  0  0  0  0  0  0  0
   -3.8145  -33.8569  -44.4816 C   0  0  0  0  0  0  0  0  0  0  0  0
   -3.1477  -33.5263  -45.6017 C   0  0  0  0  0  0  0  0  0  0  0  0
   -1.8797  -33.0944  -45.2740 N   0  0  0  0  0  0  0  0  0  0  0  0
   -5.2309  -34.3642  -44.3913 C   0  0  0  0  0  0  0  0  0  0  0  0
   -5.2592  -35.5585  -43.5226 N   0  0  0  0  0  0  0  0  0  0  0  0
  1  2  1  0  0  0  0
  1  7  1  0  0  0  0
  2  3  1  0  0  0  0
  2  4  2  0  0  0  0
  4  5  1  0  0  0  0
  5  6  2  0  0  0  0
  5 11  1  0  0  0  0
  6  7  1  0  0  0  0
  6  9  1  0  0  0  0
  7  8  2  0  0  0  0
  9 10  2  0  0  0  0
  9 12  1  0  0  0  0
 10 11  1  0  0  0  0
 12 13  1  0  0  0  0
M  END
>  <CHROM.1>
-48.77641638,-2.62951808,-33.63092811,-43.10971317,0.48823396,0.43270812
1.68235192

>  <Name>
ligand

>  <RI>
0

>  <Rbt.Current_Directory>
/home/itssahil/PROJECTS/Mol_Feturizer/Test_systems_manuscript/rnas/3fu2

>  <Rbt.Executable>
rbdock ($Id: //depot/dev/client3/rdock/2013.1/src/exe/rbdock.cxx#4 $)

>  <Rbt.Library>
libRbt.so (2013.1, Build901 2013/11/27)

>  <Rbt.Parameter_File>
/export/apps/rDock/src/rDock_2013.1_src/data/scripts/dock_solv.prm

>  <Rbt.Receptor>
prm/pocket_docking_4.prm

>  <SCORE>
-15.6184

>  <SCORE.INTER>
-16.0458

>  <SCORE.INTER.CONST>
1

>  <SCORE.INTER.POLAR>
0

>  <SCORE.INTER.ROT>
1

>  <SCORE.INTER.SOLV>
14.2014

>  <SCORE.INTER.VDW>
-19.6977

>  <SCORE.INTER.norm>
-1.2343

>  <SCORE.INTRA>
0.427475

>  <SCORE.INTRA.DIHEDRAL>
0.00354084

>  <SCORE.INTRA.DIHEDRAL.0>
1.66609

>  <SCORE.INTRA.POLAR>
0

>  <SCORE.INTRA.POLAR.0>
0

>  <SCORE.INTRA.REPUL>
0

>  <SCORE.INTRA.REPUL.0>
0

>  <SCORE.INTRA.SOLV>
0.814048

>  <SCORE.INTRA.SOLV.lig_0>
-45.868

>  <SCORE.INTRA.VDW>
0.0186809

>  <SCORE.INTRA.VDW.0>
-0.397919

>  <SCORE.INTRA.norm>
0.0328827

>  <SCORE.RESTR>
0

>  <SCORE.RESTR.CAVITY>
0

>  <SCORE.RESTR.norm>
0

>  <SCORE.SYSTEM>
0

>  <SCORE.SYSTEM.CONST>
0

>  <SCORE.SYSTEM.DIHEDRAL>
0

>  <SCORE.SYSTEM.SOLV>
0

>  <SCORE.SYSTEM.norm>
0

>  <SCORE.heavy>
13

>  <SCORE.norm>
-1.20141

>  <RMSD>
4.648

$$$$
ligand
 OpenBabel02271912143D
libRbt.so/2013.1/901 2013/11/27
 13 14  0  0  0  0  0  0  0  0999 V2000
   -2.0155  -33.3218  -41.1584 N   0  0  0  0  0  0  0  0  0  0  0  0
   -0.8688  -32.8648  -41.7508 C   0  0  0  0  0  0  0  0  0  0  0  0
    0.1841  -32.4982  -40.9575 N   0  0  0  0  0  0  0  0  0  0  0  0
   -0.7615  -32.7731  -43.0767 N   0  0  0  0  0  0  0  0  0  0  0  0
   -1.7900  -33.1287  -43.8954 C   0  0  0  0  0  0  0  0  0  0  0  0
   -2.9939  -33.6022  -43.3292 C   0  0  0  0  0  0  0  0  0  0  0  0
   -3.0859  -33.6953  -41.9140 C   0  0  0  0  0  0  0  0  0  0  0  0
   -4.0935  -34.0977  -41.3870 O   0  0  0  0  0  0  0  0  0  0  0  0
   -3.8912  -33.8918  -44.4432 C   0  0  0  0  0  0  0  0  0  0  0  0
   -3.2167  -33.5995  -45.5693 C   0  0  0  0  0  0  0  0  0  0  0  0
   -1.9564  -33.1416  -45.2471 N   0  0  0  0  0  0  0  0  0  0  0  0
   -5.3032  -34.4100  -44.3460 C   0  0  0  0  0  0  0  0  0  0  0  0
   -5.3148  -35.6168  -43.4945 N   0  0  0  0  0  0  0  0  0  0  0  0
  1  2  1  0  0  0  0
  1  7  1  0  0  0  0
  2  3  1  0  0  0  0
  2  4  2  0  0  0  0
  4  5  1  0  0  0  0
  5  6  2  0  0  0  0
  5 11  1  0  0  0  0
  6  7  1  0  0  0  0
  6  9  1  0  0  0  0
  7  8  2  0  0  0  0
  9 10  2  0  0  0  0
  9 12  1  0  0  0  0
 10 11  1  0  0  0  0
 12 13  1  0  0  0  0
M  END
>  <CHROM.1>
-52.11695924,-2.72114104,-33.60244088,-43.07550881,0.50156254,0.44806107
1.63761703

>  <Name>
ligand

>  <RI>
0

>  <Rbt.Current_Directory>
/home/itssahil/PROJECTS/Mol_Feturizer/Test_systems_manuscript/rnas/3fu2

>  <Rbt.Executable>
rbdock ($Id: //depot/dev/client3/rdock/2013.1/src/exe/rbdock.cxx#4 $)

>  <Rbt.Library>
libRbt.so (2013.1, Build901 2013/11/27)

>  <Rbt.Parameter_File>
/export/apps/rDock/src/rDock_2013.1_src/data/scripts/dock_solv.prm

>  <Rbt.Receptor>
prm/pocket_docking_8.prm

>  <SCORE>
-15.6509

>  <SCORE.INTER>
-16.0015

>  <SCORE.INTER.CONST>
1

>  <SCORE.INTER.POLAR>
0

>  <SCORE.INTER.ROT>
1

>  <SCORE.INTER.SOLV>
15.5613

>  <SCORE.INTER.VDW>
-20.1214

>  <SCORE.INTER.norm>
-1.23088

>  <SCORE.INTRA>
0.35055

>  <SCORE.INTRA.DIHEDRAL>
0.00634455

>  <SCORE.INTRA.DIHEDRAL.0>
1.66609

>  <SCORE.INTRA.POLAR>
0

>  <SCORE.INTRA.POLAR.0>
0

>  <SCORE.INTRA.REPUL>
0

>  <SCORE.INTRA.REPUL.0>
0

>  <SCORE.INTRA.SOLV>
0.723884

>  <SCORE.INTRA.SOLV.lig_0>
-45.868

>  <SCORE.INTRA.VDW>
-0.0145641

>  <SCORE.INTRA.VDW.0>
-0.397919

>  <SCORE.INTRA.norm>
0.0269654

>  <SCORE.RESTR>
0

>  <SCORE.RESTR.CAVITY>
0

>  <SCORE.RESTR.norm>
0

>  <SCORE.SYSTEM>
0

>  <SCORE.SYSTEM.CONST>
0

>  <SCORE.SYSTEM.DIHEDRAL>
0

>  <SCORE.SYSTEM.SOLV>
0

>  <SCORE.SYSTEM.norm>
0

>  <SCORE.heavy>
13

>  <SCORE.norm>
-1.20392

>  <RMSD>
4.649

$$$$
ligand
 OpenBabel02271912143D
libRbt.so/2013.1/901 2013/11/27
 13 14  0  0  0  0  0  0  0  0999 V2000
   -1.9897  -33.3700  -41.2425 N   0  0  0  0  0  0  0  0  0  0  0  0
   -0.8494  -32.9127  -41.8470 C   0  0  0  0  0  0  0  0  0  0  0  0
    0.2147  -32.5537  -41.0653 N   0  0  0  0  0  0  0  0  0  0  0  0
   -0.7591  -32.8135  -43.1736 N   0  0  0  0  0  0  0  0  0  0  0  0
   -1.7991  -33.1614  -43.9809 C   0  0  0  0  0  0  0  0  0  0  0  0
   -2.9969  -33.6349  -43.4019 C   0  0  0  0  0  0  0  0  0  0  0  0
   -3.0708  -33.7360  -41.9862 C   0  0  0  0  0  0  0  0  0  0  0  0
   -4.0726  -34.1387  -41.4485 O   0  0  0  0  0  0  0  0  0  0  0  0
   -3.9094  -33.9155  -44.5058 C   0  0  0  0  0  0  0  0  0  0  0  0
   -3.2487  -33.6185  -45.6389 C   0  0  0  0  0  0  0  0  0  0  0  0
   -1.9830  -33.1659  -45.3305 N   0  0  0  0  0  0  0  0  0  0  0  0
   -5.3215  -34.4303  -44.3934 C   0  0  0  0  0  0  0  0  0  0  0  0
   -5.3253  -35.6425  -43.5495 N   0  0  0  0  0  0  0  0  0  0  0  0
  1  2  1  0  0  0  0
  1  7  1  0  0  0  0
  2  3  1  0  0  0  0
  2  4  2  0  0  0  0
  4  5  1  0  0  0  0
  5  6  2  0  0  0  0
  5 11  1  0  0  0  0
  6  7  1  0  0  0  0
  6  9  1  0  0  0  0
  7  8  2  0  0  0  0
  9 10  2  0  0  0  0
  9 12  1  0  0  0  0
 10 11  1  0  0  0  0
 12 13  1  0  0  0  0
M  END
>  <CHROM.1>
-52.14952384,-2.72085542,-33.63743719,-43.15185803,0.48748198,0.44435878
1.64955484

>  <Name>
ligand

>  <RI>
0

>  <Rbt.Current_Directory>
/home/itssahil/PROJECTS/Mol_Feturizer/Test_systems_manuscript/rnas/3fu2

>  <Rbt.Executable>
rbdock ($Id: //depot/dev/client3/rdock/2013.1/src/exe/rbdock.cxx#4 $)

>  <Rbt.Library>
libRbt.so (2013.1, Build901 2013/11/27)

>  <Rbt.Parameter_File>
/export/apps/rDock/src/rDock_2013.1_src/data/scripts/dock_solv.prm

>  <Rbt.Receptor>
prm/pocket_docking_3.prm

>  <SCORE>
-15.6411

>  <SCORE.INTER>
-15.991

>  <SCORE.INTER.CONST>
1

>  <SCORE.INTER.POLAR>
0

>  <SCORE.INTER.ROT>
1

>  <SCORE.INTER.SOLV>
15.0177

>  <SCORE.INTER.VDW>
-19.9332

>  <SCORE.INTER.norm>
-1.23008

>  <SCORE.INTRA>
0.349872

>  <SCORE.INTRA.DIHEDRAL>
0.00637316

>  <SCORE.INTRA.DIHEDRAL.0>
1.66609

>  <SCORE.INTRA.POLAR>
0

>  <SCORE.INTRA.POLAR.0>
0

>  <SCORE.INTRA.REPUL>
0

>  <SCORE.INTRA.REPUL.0>
0

>  <SCORE.INTRA.SOLV>
0.722991

>  <SCORE.INTRA.SOLV.lig_0>
-45.868

>  <SCORE.INTRA.VDW>
-0.0148099

>  <SCORE.INTRA.VDW.0>
-0.397919

>  <SCORE.INTRA.norm>
0.0269132

>  <SCORE.RESTR>
0

>  <SCORE.RESTR.CAVITY>
0

>  <SCORE.RESTR.norm>
0

>  <SCORE.SYSTEM>
0

>  <SCORE.SYSTEM.CONST>
0

>  <SCORE.SYSTEM.DIHEDRAL>
0

>  <SCORE.SYSTEM.SOLV>
0

>  <SCORE.SYSTEM.norm>
0

>  <SCORE.heavy>
13

>  <SCORE.norm>
-1.20316

>  <RMSD>
4.653

$$$$
ligand
 OpenBabel02271912143D
libRbt.so/2013.1/901 2013/11/27
 13 14  0  0  0  0  0  0  0  0999 V2000
   -1.9718  -33.3582  -41.2383 N   0  0  0  0  0  0  0  0  0  0  0  0
   -0.8353  -32.9018  -41.8506 C   0  0  0  0  0  0  0  0  0  0  0  0
    0.2309  -32.5344  -41.0757 N   0  0  0  0  0  0  0  0  0  0  0  0
   -0.7506  -32.8116  -43.1782 N   0  0  0  0  0  0  0  0  0  0  0  0
   -1.7928  -33.1681  -43.9788 C   0  0  0  0  0  0  0  0  0  0  0  0
   -2.9869  -33.6410  -43.3917 C   0  0  0  0  0  0  0  0  0  0  0  0
   -3.0549  -33.7325  -41.9750 C   0  0  0  0  0  0  0  0  0  0  0  0
   -4.0533  -34.1342  -41.4305 O   0  0  0  0  0  0  0  0  0  0  0  0
   -3.9030  -33.9318  -44.4900 C   0  0  0  0  0  0  0  0  0  0  0  0
   -3.2477  -33.6408  -45.6277 C   0  0  0  0  0  0  0  0  0  0  0  0
   -1.9822  -33.1825  -45.3276 N   0  0  0  0  0  0  0  0  0  0  0  0
   -5.3132  -34.4499  -44.3682 C   0  0  0  0  0  0  0  0  0  0  0  0
   -5.3120  -35.6489  -43.5057 N   0  0  0  0  0  0  0  0  0  0  0  0
  1  2  1  0  0  0  0
  1  7  1  0  0  0  0
  2  3  1  0  0  0  0
  2  4  2  0  0  0  0
  4  5  1  0  0  0  0
  5  6  2  0  0  0  0
  5 11  1  0  0  0  0
  6  7  1  0  0  0  0
  6  9  1  0  0  0  0
  7  8  2  0  0  0  0
  9 10  2  0  0  0  0
  9 12  1  0  0  0  0
 10 11  1  0  0  0  0
 12 13  1  0  0  0  0
M  END
>  <CHROM.1>
-51.62826981,-2.71001941,-33.64037988,-43.14194561,0.48218743,0.44626053
1.64470766

>  <Name>
ligand

>  <RI>
0

>  <Rbt.Current_Directory>
/home/itssahil/PROJECTS/Mol_Feturizer/Test_systems_manuscript/rnas/3fu2

>  <Rbt.Executable>
rbdock ($Id: //depot/dev/client3/rdock/2013.1/src/exe/rbdock.cxx#4 $)

>  <Rbt.Library>
libRbt.so (2013.1, Build901 2013/11/27)

>  <Rbt.Parameter_File>
/export/apps/rDock/src/rDock_2013.1_src/data/scripts/dock_solv.prm

>  <Rbt.Receptor>
prm/pocket_docking_6.prm

>  <SCORE>
-15.6843

>  <SCORE.INTER>
-16.0452

>  <SCORE.INTER.CONST>
1

>  <SCORE.INTER.POLAR>
0

>  <SCORE.INTER.ROT>
1

>  <SCORE.INTER.SOLV>
14.9593

>  <SCORE.INTER.VDW>
-19.9499

>  <SCORE.INTER.norm>
-1.23425

>  <SCORE.INTRA>
0.360876

>  <SCORE.INTRA.DIHEDRAL>
0.00591784

>  <SCORE.INTRA.DIHEDRAL.0>
1.66609

>  <SCORE.INTRA.POLAR>
0

>  <SCORE.INTRA.POLAR.0>
0

>  <SCORE.INTRA.REPUL>
0

>  <SCORE.INTRA.REPUL.0>
0

>  <SCORE.INTRA.SOLV>
0.737254

>  <SCORE.INTRA.SOLV.lig_0>
-45.868

>  <SCORE.INTRA.VDW>
-0.0107098

>  <SCORE.INTRA.VDW.0>
-0.397919

>  <SCORE.INTRA.norm>
0.0277597

>  <SCORE.RESTR>
0

>  <SCORE.RESTR.CAVITY>
0

>  <SCORE.RESTR.norm>
0

>  <SCORE.SYSTEM>
0

>  <SCORE.SYSTEM.CONST>
0

>  <SCORE.SYSTEM.DIHEDRAL>
0

>  <SCORE.SYSTEM.SOLV>
0

>  <SCORE.SYSTEM.norm>
0

>  <SCORE.heavy>
13

>  <SCORE.norm>
-1.20649

>  <RMSD>
4.656

$$$$
ligand
 OpenBabel02271912143D
libRbt.so/2013.1/901 2013/11/27
 13 14  0  0  0  0  0  0  0  0999 V2000
   -1.9700  -33.3622  -41.2370 N   0  0  0  0  0  0  0  0  0  0  0  0
   -0.8354  -32.9008  -41.8491 C   0  0  0  0  0  0  0  0  0  0  0  0
    0.2305  -32.5325  -41.0741 N   0  0  0  0  0  0  0  0  0  0  0  0
   -0.7522  -32.8067  -43.1765 N   0  0  0  0  0  0  0  0  0  0  0  0
   -1.7942  -33.1640  -43.9772 C   0  0  0  0  0  0  0  0  0  0  0  0
   -2.9864  -33.6419  -43.3903 C   0  0  0  0  0  0  0  0  0  0  0  0
   -3.0527  -33.7375  -41.9738 C   0  0  0  0  0  0  0  0  0  0  0  0
   -4.0495  -34.1437  -41.4295 O   0  0  0  0  0  0  0  0  0  0  0  0
   -3.9026  -33.9324  -44.4885 C   0  0  0  0  0  0  0  0  0  0  0  0
   -3.2492  -33.6363  -45.6260 C   0  0  0  0  0  0  0  0  0  0  0  0
   -1.9847  -33.1752  -45.3258 N   0  0  0  0  0  0  0  0  0  0  0  0
   -5.3112  -34.4548  -44.3669 C   0  0  0  0  0  0  0  0  0  0  0  0
   -5.3046  -35.6608  -43.5142 N   0  0  0  0  0  0  0  0  0  0  0  0
  1  2  1  0  0  0  0
  1  7  1  0  0  0  0
  2  3  1  0  0  0  0
  2  4  2  0  0  0  0
  4  5  1  0  0  0  0
  5  6  2  0  0  0  0
  5 11  1  0  0  0  0
  6  7  1  0  0  0  0
  6  9  1  0  0  0  0
  7  8  2  0  0  0  0
  9 10  2  0  0  0  0
  9 12  1  0  0  0  0
 10 11  1  0  0  0  0
 12 13  1  0  0  0  0
M  END
>  <CHROM.1>
-51.95940938,-2.70912360,-33.64158183,-43.14130060,0.48129833,0.44946253
1.64798373

>  <Name>
ligand

>  <RI>
0

>  <Rbt.Current_Directory>
/home/itssahil/PROJECTS/Mol_Feturizer/Test_systems_manuscript/rnas/3fu2

>  <Rbt.Executable>
rbdock ($Id: //depot/dev/client3/rdock/2013.1/src/exe/rbdock.cxx#4 $)

>  <Rbt.Library>
libRbt.so (2013.1, Build901 2013/11/27)

>  <Rbt.Parameter_File>
/export/apps/rDock/src/rDock_2013.1_src/data/scripts/dock_solv.prm

>  <Rbt.Receptor>
prm/blind_docking_80.prm

>  <SCORE>
-15.6856

>  <SCORE.INTER>
-16.0395

>  <SCORE.INTER.CONST>
1

>  <SCORE.INTER.POLAR>
0

>  <SCORE.INTER.ROT>
1

>  <SCORE.INTER.SOLV>
14.9854

>  <SCORE.INTER.VDW>
-19.9548

>  <SCORE.INTER.norm>
-1.23381

>  <SCORE.INTRA>
0.353848

>  <SCORE.INTRA.DIHEDRAL>
0.00620643

>  <SCORE.INTRA.DIHEDRAL.0>
1.66609

>  <SCORE.INTRA.POLAR>
0

>  <SCORE.INTRA.POLAR.0>
0

>  <SCORE.INTRA.REPUL>
0

>  <SCORE.INTRA.REPUL.0>
0

>  <SCORE.INTRA.SOLV>
0.728201

>  <SCORE.INTRA.SOLV.lig_0>
-45.868

>  <SCORE.INTRA.VDW>
-0.0133556

>  <SCORE.INTRA.VDW.0>
-0.397919

>  <SCORE.INTRA.norm>
0.0272191

>  <SCORE.RESTR>
0

>  <SCORE.RESTR.CAVITY>
0

>  <SCORE.RESTR.norm>
0

>  <SCORE.SYSTEM>
0

>  <SCORE.SYSTEM.CONST>
0

>  <SCORE.SYSTEM.DIHEDRAL>
0

>  <SCORE.SYSTEM.SOLV>
0

>  <SCORE.SYSTEM.norm>
0

>  <SCORE.heavy>
13

>  <SCORE.norm>
-1.20659

>  <RMSD>
4.657

$$$$
ligand
 OpenBabel02271912143D
libRbt.so/2013.1/901 2013/11/27
 13 14  0  0  0  0  0  0  0  0999 V2000
   -1.9740  -33.3897  -41.1930 N   0  0  0  0  0  0  0  0  0  0  0  0
   -0.8305  -32.9451  -41.8009 C   0  0  0  0  0  0  0  0  0  0  0  0
    0.2429  -32.6064  -41.0228 N   0  0  0  0  0  0  0  0  0  0  0  0
   -0.7458  -32.8390  -43.1273 N   0  0  0  0  0  0  0  0  0  0  0  0
   -1.7951  -33.1668  -43.9311 C   0  0  0  0  0  0  0  0  0  0  0  0
   -2.9965  -33.6266  -43.3485 C   0  0  0  0  0  0  0  0  0  0  0  0
   -3.0643  -33.7354  -41.9330 C   0  0  0  0  0  0  0  0  0  0  0  0
   -4.0689  -34.1270  -41.3924 O   0  0  0  0  0  0  0  0  0  0  0  0
   -3.9188  -33.8871  -44.4491 C   0  0  0  0  0  0  0  0  0  0  0  0
   -3.2600  -33.5926  -45.5839 C   0  0  0  0  0  0  0  0  0  0  0  0
   -1.9863  -33.1602  -45.2796 N   0  0  0  0  0  0  0  0  0  0  0  0
   -5.3376  -34.3822  -44.3321 C   0  0  0  0  0  0  0  0  0  0  0  0
   -5.3366  -35.6832  -43.6329 N   0  0  0  0  0  0  0  0  0  0  0  0
  1  2  1  0  0  0  0
  1  7  1  0  0  0  0
  2  3  1  0  0  0  0
  2  4  2  0  0  0  0
  4  5  1  0  0  0  0
  5  6  2  0  0  0  0
  5 11  1  0  0  0  0
  6  7  1  0  0  0  0
  6  9  1  0  0  0  0
  7  8  2  0  0  0  0
  9 10  2  0  0  0  0
  9 12  1  0  0  0  0
 10 11  1  0  0  0  0
 12 13  1  0  0  0  0
M  END
>  <CHROM.1>
-58.78801126,-2.71772281,-33.64146448,-43.11112675,0.49123650,0.43684849
1.65597300

>  <Name>
ligand

>  <RI>
0

>  <Rbt.Current_Directory>
/home/itssahil/PROJECTS/Mol_Feturizer/Test_systems_manuscript/rnas/3fu2

>  <Rbt.Executable>
rbdock ($Id: //depot/dev/client3/rdock/2013.1/src/exe/rbdock.cxx#4 $)

>  <Rbt.Library>
libRbt.so (2013.1, Build901 2013/11/27)

>  <Rbt.Parameter_File>
/export/apps/rDock/src/rDock_2013.1_src/data/scripts/dock_solv.prm

>  <Rbt.Receptor>
prm/pocket_docking_8.prm

>  <SCORE>
-15.6219

>  <SCORE.INTER>
-15.8685

>  <SCORE.INTER.CONST>
1

>  <SCORE.INTER.POLAR>
0

>  <SCORE.INTER.ROT>
1

>  <SCORE.INTER.SOLV>
15.0601

>  <SCORE.INTER.VDW>
-19.8657

>  <SCORE.INTER.norm>
-1.22066

>  <SCORE.INTRA>
0.246633

>  <SCORE.INTRA.DIHEDRAL>
0.0125424

>  <SCORE.INTRA.DIHEDRAL.0>
1.66609

>  <SCORE.INTRA.POLAR>
0

>  <SCORE.INTRA.POLAR.0>
0

>  <SCORE.INTRA.REPUL>
0

>  <SCORE.INTRA.REPUL.0>
0

>  <SCORE.INTRA.SOLV>
0.536139

>  <SCORE.INTRA.SOLV.lig_0>
-45.868

>  <SCORE.INTRA.VDW>
-0.0277074

>  <SCORE.INTRA.VDW.0>
-0.397919

>  <SCORE.INTRA.norm>
0.0189718

>  <SCORE.RESTR>
0

>  <SCORE.RESTR.CAVITY>
0

>  <SCORE.RESTR.norm>
0

>  <SCORE.SYSTEM>
0

>  <SCORE.SYSTEM.CONST>
0

>  <SCORE.SYSTEM.DIHEDRAL>
0

>  <SCORE.SYSTEM.SOLV>
0

>  <SCORE.SYSTEM.norm>
0

>  <SCORE.heavy>
13

>  <SCORE.norm>
-1.20169

>  <RMSD>
4.658

$$$$
ligand
 OpenBabel02271912143D
libRbt.so/2013.1/901 2013/11/27
 13 14  0  0  0  0  0  0  0  0999 V2000
   -1.9022  -33.2574  -41.2657 N   0  0  0  0  0  0  0  0  0  0  0  0
   -0.7762  -32.8073  -41.9017 C   0  0  0  0  0  0  0  0  0  0  0  0
    0.3008  -32.4266  -41.1485 N   0  0  0  0  0  0  0  0  0  0  0  0
   -0.7120  -32.7357  -43.2316 N   0  0  0  0  0  0  0  0  0  0  0  0
   -1.7656  -33.1058  -44.0111 C   0  0  0  0  0  0  0  0  0  0  0  0
   -2.9494  -33.5728  -43.3992 C   0  0  0  0  0  0  0  0  0  0  0  0
   -2.9955  -33.6444  -41.9805 C   0  0  0  0  0  0  0  0  0  0  0  0
   -3.9846  -34.0406  -41.4151 O   0  0  0  0  0  0  0  0  0  0  0  0
   -3.8815  -33.8812  -44.4791 C   0  0  0  0  0  0  0  0  0  0  0  0
   -3.2443  -33.6049  -45.6307 C   0  0  0  0  0  0  0  0  0  0  0  0
   -1.9754  -33.1396  -45.3565 N   0  0  0  0  0  0  0  0  0  0  0  0
   -5.2884  -34.4005  -44.3285 C   0  0  0  0  0  0  0  0  0  0  0  0
   -5.2625  -35.6270  -43.5059 N   0  0  0  0  0  0  0  0  0  0  0  0
  1  2  1  0  0  0  0
  1  7  1  0  0  0  0
  2  3  1  0  0  0  0
  2  4  2  0  0  0  0
  4  5  1  0  0  0  0
  5  6  2  0  0  0  0
  5 11  1  0  0  0  0
  6  7  1  0  0  0  0
  6  9  1  0  0  0  0
  7  8  2  0  0  0  0
  9 10  2  0  0  0  0
  9 12  1  0  0  0  0
 10 11  1  0  0  0  0
 12 13  1  0  0  0  0
M  END
>  <CHROM.1>
-54.49384719,-2.66802023,-33.57132953,-43.15832699,0.46845126,0.45085449
1.63750446

>  <Name>
ligand

>  <RI>
0

>  <Rbt.Current_Directory>
/home/itssahil/PROJECTS/Mol_Feturizer/Test_systems_manuscript/rnas/3fu2

>  <Rbt.Executable>
rbdock ($Id: //depot/dev/client3/rdock/2013.1/src/exe/rbdock.cxx#4 $)

>  <Rbt.Library>
libRbt.so (2013.1, Build901 2013/11/27)

>  <Rbt.Parameter_File>
/export/apps/rDock/src/rDock_2013.1_src/data/scripts/dock_solv.prm

>  <Rbt.Receptor>
prm/pocket_docking_5.prm

>  <SCORE>
-15.6976

>  <SCORE.INTER>
-16.017

>  <SCORE.INTER.CONST>
1

>  <SCORE.INTER.POLAR>
0

>  <SCORE.INTER.ROT>
1

>  <SCORE.INTER.SOLV>
14.7989

>  <SCORE.INTER.VDW>
-19.8776

>  <SCORE.INTER.norm>
-1.23208

>  <SCORE.INTRA>
0.319399

>  <SCORE.INTRA.DIHEDRAL>
0.00848537

>  <SCORE.INTRA.DIHEDRAL.0>
1.66609

>  <SCORE.INTRA.POLAR>
0

>  <SCORE.INTRA.POLAR.0>
0

>  <SCORE.INTRA.REPUL>
0

>  <SCORE.INTRA.REPUL.0>
0

>  <SCORE.INTRA.SOLV>
0.658051

>  <SCORE.INTRA.SOLV.lig_0>
-45.868

>  <SCORE.INTRA.VDW>
-0.0138695

>  <SCORE.INTRA.VDW.0>
-0.397919

>  <SCORE.INTRA.norm>
0.0245691

>  <SCORE.RESTR>
0

>  <SCORE.RESTR.CAVITY>
0

>  <SCORE.RESTR.norm>
0

>  <SCORE.SYSTEM>
0

>  <SCORE.SYSTEM.CONST>
0

>  <SCORE.SYSTEM.DIHEDRAL>
0

>  <SCORE.SYSTEM.SOLV>
0

>  <SCORE.SYSTEM.norm>
0

>  <SCORE.heavy>
13

>  <SCORE.norm>
-1.20751

>  <RMSD>
4.667

$$$$
ligand
 OpenBabel02271912143D
libRbt.so/2013.1/901 2013/11/27
 13 14  0  0  0  0  0  0  0  0999 V2000
   -1.8931  -33.2615  -41.2612 N   0  0  0  0  0  0  0  0  0  0  0  0
   -0.7681  -32.8166  -41.9026 C   0  0  0  0  0  0  0  0  0  0  0  0
    0.3124  -32.4359  -41.1544 N   0  0  0  0  0  0  0  0  0  0  0  0
   -0.7082  -32.7501  -43.2330 N   0  0  0  0  0  0  0  0  0  0  0  0
   -1.7653  -33.1203  -44.0076 C   0  0  0  0  0  0  0  0  0  0  0  0
   -2.9482  -33.5821  -43.3900 C   0  0  0  0  0  0  0  0  0  0  0  0
   -2.9898  -33.6483  -41.9709 C   0  0  0  0  0  0  0  0  0  0  0  0
   -3.9779  -34.0399  -41.4008 O   0  0  0  0  0  0  0  0  0  0  0  0
   -3.8847  -33.8920  -44.4657 C   0  0  0  0  0  0  0  0  0  0  0  0
   -3.2507  -33.6215  -45.6204 C   0  0  0  0  0  0  0  0  0  0  0  0
   -1.9797  -33.1585  -45.3521 N   0  0  0  0  0  0  0  0  0  0  0  0
   -5.2924  -34.4071  -44.3085 C   0  0  0  0  0  0  0  0  0  0  0  0
   -5.2629  -35.6513  -43.5130 N   0  0  0  0  0  0  0  0  0  0  0  0
  1  2  1  0  0  0  0
  1  7  1  0  0  0  0
  2  3  1  0  0  0  0
  2  4  2  0  0  0  0
  4  5  1  0  0  0  0
  5  6  2  0  0  0  0
  5 11  1  0  0  0  0
  6  7  1  0  0  0  0
  6  9  1  0  0  0  0
  7  8  2  0  0  0  0
  9 10  2  0  0  0  0
  9 12  1  0  0  0  0
 10 11  1  0  0  0  0
 12 13  1  0  0  0  0
M  END
>  <CHROM.1>
-56.04799802,-2.66571320,-33.58206911,-43.15268501,0.46687642,0.44982197
1.63501089

>  <Name>
ligand

>  <RI>
0

>  <Rbt.Current_Directory>
/home/itssahil/PROJECTS/Mol_Feturizer/Test_systems_manuscript/rnas/3fu2

>  <Rbt.Executable>
rbdock ($Id: //depot/dev/client3/rdock/2013.1/src/exe/rbdock.cxx#4 $)

>  <Rbt.Library>
libRbt.so (2013.1, Build901 2013/11/27)

>  <Rbt.Parameter_File>
/export/apps/rDock/src/rDock_2013.1_src/data/scripts/dock_solv.prm

>  <Rbt.Receptor>
prm/blind_docking_100.prm

>  <SCORE>
-15.6898

>  <SCORE.INTER>
-15.9813

>  <SCORE.INTER.CONST>
1

>  <SCORE.INTER.POLAR>
0

>  <SCORE.INTER.ROT>
1

>  <SCORE.INTER.SOLV>
14.7921

>  <SCORE.INTER.VDW>
-19.8516

>  <SCORE.INTER.norm>
-1.22933

>  <SCORE.INTRA>
0.291479

>  <SCORE.INTRA.DIHEDRAL>
0.00993267

>  <SCORE.INTRA.DIHEDRAL.0>
1.66609

>  <SCORE.INTRA.POLAR>
0

>  <SCORE.INTRA.POLAR.0>
0

>  <SCORE.INTRA.REPUL>
0

>  <SCORE.INTRA.REPUL.0>
0

>  <SCORE.INTRA.SOLV>
0.614339

>  <SCORE.INTRA.SOLV.lig_0>
-45.868

>  <SCORE.INTRA.VDW>
-0.0206571

>  <SCORE.INTRA.VDW.0>
-0.397919

>  <SCORE.INTRA.norm>
0.0224214

>  <SCORE.RESTR>
0

>  <SCORE.RESTR.CAVITY>
0

>  <SCORE.RESTR.norm>
0

>  <SCORE.SYSTEM>
0

>  <SCORE.SYSTEM.CONST>
0

>  <SCORE.SYSTEM.DIHEDRAL>
0

>  <SCORE.SYSTEM.SOLV>
0

>  <SCORE.SYSTEM.norm>
0

>  <SCORE.heavy>
13

>  <SCORE.norm>
-1.20691

>  <RMSD>
4.670

$$$$
ligand
 OpenBabel02271912143D
libRbt.so/2013.1/901 2013/11/27
 13 14  0  0  0  0  0  0  0  0999 V2000
   -0.9024  -32.5713  -41.7852 N   0  0  0  0  0  0  0  0  0  0  0  0
   -0.1994  -32.0258  -42.8259 C   0  0  0  0  0  0  0  0  0  0  0  0
    0.9475  -31.3301  -42.5561 N   0  0  0  0  0  0  0  0  0  0  0  0
   -0.6097  -32.1614  -44.0873 N   0  0  0  0  0  0  0  0  0  0  0  0
   -1.7467  -32.8467  -44.3910 C   0  0  0  0  0  0  0  0  0  0  0  0
   -2.5066  -33.4235  -43.3499 C   0  0  0  0  0  0  0  0  0  0  0  0
   -2.0496  -33.2699  -42.0129 C   0  0  0  0  0  0  0  0  0  0  0  0
   -2.6647  -33.7488  -41.0925 O   0  0  0  0  0  0  0  0  0  0  0  0
   -3.6495  -34.0750  -43.9816 C   0  0  0  0  0  0  0  0  0  0  0  0
   -3.5259  -33.8747  -45.3057 C   0  0  0  0  0  0  0  0  0  0  0  0
   -2.3869  -33.1389  -45.5571 N   0  0  0  0  0  0  0  0  0  0  0  0
   -4.7570  -34.8200  -43.2814 C   0  0  0  0  0  0  0  0  0  0  0  0
   -5.0367  -34.1618  -41.9891 N   0  0  0  0  0  0  0  0  0  0  0  0
  1  2  1  0  0  0  0
  1  7  1  0  0  0  0
  2  3  1  0  0  0  0
  2  4  2  0  0  0  0
  4  5  1  0  0  0  0
  5  6  2  0  0  0  0
  5 11  1  0  0  0  0
  6  7  1  0  0  0  0
  6  9  1  0  0  0  0
  7  8  2  0  0  0  0
  9 10  2  0  0  0  0
  9 12  1  0  0  0  0
 10 11  1  0  0  0  0
 12 13  1  0  0  0  0
M  END
>  <CHROM.1>
34.94588895,-2.23980795,-33.19049714,-43.19477442,0.07138623,0.50482149,1.60814539

>  <Name>
ligand

>  <RI>
0

>  <Rbt.Current_Directory>
/home/itssahil/PROJECTS/Mol_Feturizer/Test_systems_manuscript/rnas/3fu2

>  <Rbt.Executable>
rbdock ($Id: //depot/dev/client3/rdock/2013.1/src/exe/rbdock.cxx#4 $)

>  <Rbt.Library>
libRbt.so (2013.1, Build901 2013/11/27)

>  <Rbt.Parameter_File>
/export/apps/rDock/src/rDock_2013.1_src/data/scripts/dock_solv.prm

>  <Rbt.Receptor>
prm/blind_docking_60.prm

>  <SCORE>
-14.8878

>  <SCORE.INTER>
-15.8578

>  <SCORE.INTER.CONST>
1

>  <SCORE.INTER.POLAR>
0

>  <SCORE.INTER.ROT>
1

>  <SCORE.INTER.SOLV>
13.3073

>  <SCORE.INTER.VDW>
-19.2743

>  <SCORE.INTER.norm>
-1.21983

>  <SCORE.INTRA>
0.970036

>  <SCORE.INTRA.DIHEDRAL>
0.0316463

>  <SCORE.INTRA.DIHEDRAL.0>
1.66609

>  <SCORE.INTRA.POLAR>
0

>  <SCORE.INTRA.POLAR.0>
0

>  <SCORE.INTRA.REPUL>
0

>  <SCORE.INTRA.REPUL.0>
0

>  <SCORE.INTRA.SOLV>
1.13301

>  <SCORE.INTRA.SOLV.lig_0>
-45.868

>  <SCORE.INTRA.VDW>
0.38771

>  <SCORE.INTRA.VDW.0>
-0.397919

>  <SCORE.INTRA.norm>
0.0746182

>  <SCORE.RESTR>
0

>  <SCORE.RESTR.CAVITY>
0

>  <SCORE.RESTR.norm>
0

>  <SCORE.SYSTEM>
0

>  <SCORE.SYSTEM.CONST>
0

>  <SCORE.SYSTEM.DIHEDRAL>
0

>  <SCORE.SYSTEM.SOLV>
0

>  <SCORE.SYSTEM.norm>
0

>  <SCORE.heavy>
13

>  <SCORE.norm>
-1.14521

>  <RMSD>
4.736

$$$$
ligand
 OpenBabel02271912143D
libRbt.so/2013.1/901 2013/11/27
 13 14  0  0  0  0  0  0  0  0999 V2000
   -0.8475  -32.7017  -41.7747 N   0  0  0  0  0  0  0  0  0  0  0  0
   -0.1374  -32.1472  -42.8058 C   0  0  0  0  0  0  0  0  0  0  0  0
    1.0310  -31.4922  -42.5266 N   0  0  0  0  0  0  0  0  0  0  0  0
   -0.5614  -32.2356  -44.0669 N   0  0  0  0  0  0  0  0  0  0  0  0
   -1.7198  -32.8796  -44.3798 C   0  0  0  0  0  0  0  0  0  0  0  0
   -2.4876  -33.4637  -43.3486 C   0  0  0  0  0  0  0  0  0  0  0  0
   -2.0159  -33.3609  -42.0118 C   0  0  0  0  0  0  0  0  0  0  0  0
   -2.6372  -33.8479  -41.0999 O   0  0  0  0  0  0  0  0  0  0  0  0
   -3.6537  -34.0646  -43.9884 C   0  0  0  0  0  0  0  0  0  0  0  0
   -3.5348  -33.8306  -45.3073 C   0  0  0  0  0  0  0  0  0  0  0  0
   -2.3773  -33.1205  -45.5480 N   0  0  0  0  0  0  0  0  0  0  0  0
   -4.7764  -34.7973  -43.2996 C   0  0  0  0  0  0  0  0  0  0  0  0
   -5.0194  -34.1753  -41.9822 N   0  0  0  0  0  0  0  0  0  0  0  0
  1  2  1  0  0  0  0
  1  7  1  0  0  0  0
  2  3  1  0  0  0  0
  2  4  2  0  0  0  0
  4  5  1  0  0  0  0
  5  6  2  0  0  0  0
  5 11  1  0  0  0  0
  6  7  1  0  0  0  0
  6  9  1  0  0  0  0
  7  8  2  0  0  0  0
  9 10  2  0  0  0  0
  9 12  1  0  0  0  0
 10 11  1  0  0  0  0
 12 13  1  0  0  0  0
M  END
>  <CHROM.1>
34.46905277,-2.21249717,-33.24342344,-43.18896577,0.06315323,0.47663839,1.64034418

>  <Name>
ligand

>  <RI>
0

>  <Rbt.Current_Directory>
/home/itssahil/PROJECTS/Mol_Feturizer/Test_systems_manuscript/rnas/3fu2

>  <Rbt.Executable>
rbdock ($Id: //depot/dev/client3/rdock/2013.1/src/exe/rbdock.cxx#4 $)

>  <Rbt.Library>
libRbt.so (2013.1, Build901 2013/11/27)

>  <Rbt.Parameter_File>
/export/apps/rDock/src/rDock_2013.1_src/data/scripts/dock_solv.prm

>  <Rbt.Receptor>
prm/blind_docking_100.prm

>  <SCORE>
-14.8746

>  <SCORE.INTER>
-15.8742

>  <SCORE.INTER.CONST>
1

>  <SCORE.INTER.POLAR>
0

>  <SCORE.INTER.ROT>
1

>  <SCORE.INTER.SOLV>
13.3589

>  <SCORE.INTER.VDW>
-19.3025

>  <SCORE.INTER.norm>
-1.22109

>  <SCORE.INTRA>
0.999599

>  <SCORE.INTRA.DIHEDRAL>
0.0317633

>  <SCORE.INTRA.DIHEDRAL.0>
1.66609

>  <SCORE.INTRA.POLAR>
0

>  <SCORE.INTRA.POLAR.0>
0

>  <SCORE.INTRA.REPUL>
0

>  <SCORE.INTRA.REPUL.0>
0

>  <SCORE.INTRA.SOLV>
1.14333

>  <SCORE.INTRA.SOLV.lig_0>
-45.868

>  <SCORE.INTRA.VDW>
0.412052

>  <SCORE.INTRA.VDW.0>
-0.397919

>  <SCORE.INTRA.norm>
0.0768922

>  <SCORE.RESTR>
0

>  <SCORE.RESTR.CAVITY>
0

>  <SCORE.RESTR.norm>
0

>  <SCORE.SYSTEM>
0

>  <SCORE.SYSTEM.CONST>
0

>  <SCORE.SYSTEM.DIHEDRAL>
0

>  <SCORE.SYSTEM.SOLV>
0

>  <SCORE.SYSTEM.norm>
0

>  <SCORE.heavy>
13

>  <SCORE.norm>
-1.1442

>  <RMSD>
4.738

$$$$
ligand
 OpenBabel02271912143D
libRbt.so/2013.1/901 2013/11/27
 13 14  0  0  0  0  0  0  0  0999 V2000
   -0.8224  -32.7232  -41.7407 N   0  0  0  0  0  0  0  0  0  0  0  0
   -0.1086  -32.1633  -42.7662 C   0  0  0  0  0  0  0  0  0  0  0  0
    1.0626  -31.5163  -42.4802 N   0  0  0  0  0  0  0  0  0  0  0  0
   -0.5315  -32.2388  -44.0285 N   0  0  0  0  0  0  0  0  0  0  0  0
   -1.6926  -32.8745  -44.3481 C   0  0  0  0  0  0  0  0  0  0  0  0
   -2.4644  -33.4638  -43.3228 C   0  0  0  0  0  0  0  0  0  0  0  0
   -1.9937  -33.3748  -41.9848 C   0  0  0  0  0  0  0  0  0  0  0  0
   -2.6183  -33.8666  -41.0777 O   0  0  0  0  0  0  0  0  0  0  0  0
   -3.6326  -34.0536  -43.9690 C   0  0  0  0  0  0  0  0  0  0  0  0
   -3.5111  -33.8088  -45.2858 C   0  0  0  0  0  0  0  0  0  0  0  0
   -2.3500  -33.1023  -45.5191 N   0  0  0  0  0  0  0  0  0  0  0  0
   -4.7596  -34.7868  -43.2878 C   0  0  0  0  0  0  0  0  0  0  0  0
   -5.0161  -34.1607  -41.9749 N   0  0  0  0  0  0  0  0  0  0  0  0
  1  2  1  0  0  0  0
  1  7  1  0  0  0  0
  2  3  1  0  0  0  0
  2  4  2  0  0  0  0
  4  5  1  0  0  0  0
  5  6  2  0  0  0  0
  5 11  1  0  0  0  0
  6  7  1  0  0  0  0
  6  9  1  0  0  0  0
  7  8  2  0  0  0  0
  9 10  2  0  0  0  0
  9 12  1  0  0  0  0
 10 11  1  0  0  0  0
 12 13  1  0  0  0  0
M  END
>  <CHROM.1>
35.40919045,-2.18962779,-33.24508476,-43.16182176,0.06591843,0.47066232,1.64717668

>  <Name>
ligand

>  <RI>
0

>  <Rbt.Current_Directory>
/home/itssahil/PROJECTS/Mol_Feturizer/Test_systems_manuscript/rnas/3fu2

>  <Rbt.Executable>
rbdock ($Id: //depot/dev/client3/rdock/2013.1/src/exe/rbdock.cxx#4 $)

>  <Rbt.Library>
libRbt.so (2013.1, Build901 2013/11/27)

>  <Rbt.Parameter_File>
/export/apps/rDock/src/rDock_2013.1_src/data/scripts/dock_solv.prm

>  <Rbt.Receptor>
prm/blind_docking_100.prm

>  <SCORE>
-14.853

>  <SCORE.INTER>
-15.7952

>  <SCORE.INTER.CONST>
1

>  <SCORE.INTER.POLAR>
0

>  <SCORE.INTER.ROT>
1

>  <SCORE.INTER.SOLV>
13.2094

>  <SCORE.INTER.VDW>
-19.1999

>  <SCORE.INTER.norm>
-1.21501

>  <SCORE.INTRA>
0.942168

>  <SCORE.INTRA.DIHEDRAL>
0.0315221

>  <SCORE.INTRA.DIHEDRAL.0>
1.66609

>  <SCORE.INTRA.POLAR>
0

>  <SCORE.INTRA.POLAR.0>
0

>  <SCORE.INTRA.REPUL>
0

>  <SCORE.INTRA.REPUL.0>
0

>  <SCORE.INTRA.SOLV>
1.12288

>  <SCORE.INTRA.SOLV.lig_0>
-45.868

>  <SCORE.INTRA.VDW>
0.364968

>  <SCORE.INTRA.VDW.0>
-0.397919

>  <SCORE.INTRA.norm>
0.0724745

>  <SCORE.RESTR>
0

>  <SCORE.RESTR.CAVITY>
0

>  <SCORE.RESTR.norm>
0

>  <SCORE.SYSTEM>
0

>  <SCORE.SYSTEM.CONST>
0

>  <SCORE.SYSTEM.DIHEDRAL>
0

>  <SCORE.SYSTEM.SOLV>
0

>  <SCORE.SYSTEM.norm>
0

>  <SCORE.heavy>
13

>  <SCORE.norm>
-1.14254

>  <RMSD>
4.742

$$$$
ligand
 OpenBabel02271912143D
libRbt.so/2013.1/901 2013/11/27
 13 14  0  0  0  0  0  0  0  0999 V2000
   -1.9182  -33.1007  -41.4802 N   0  0  0  0  0  0  0  0  0  0  0  0
   -1.0445  -32.6218  -42.4194 C   0  0  0  0  0  0  0  0  0  0  0  0
    0.1018  -32.0029  -42.0009 N   0  0  0  0  0  0  0  0  0  0  0  0
   -1.2896  -32.7487  -43.7238 N   0  0  0  0  0  0  0  0  0  0  0  0
   -2.4208  -33.3584  -44.1746 C   0  0  0  0  0  0  0  0  0  0  0  0
   -3.3530  -33.8646  -43.2425 C   0  0  0  0  0  0  0  0  0  0  0  0
   -3.0708  -33.7218  -41.8569 C   0  0  0  0  0  0  0  0  0  0  0  0
   -3.8367  -34.1423  -41.0253 O   0  0  0  0  0  0  0  0  0  0  0  0
   -4.4435  -34.4455  -44.0192 C   0  0  0  0  0  0  0  0  0  0  0  0
   -4.1286  -34.2752  -45.3156 C   0  0  0  0  0  0  0  0  0  0  0  0
   -2.9170  -33.6241  -45.4149 N   0  0  0  0  0  0  0  0  0  0  0  0
   -5.6852  -35.1007  -43.4710 C   0  0  0  0  0  0  0  0  0  0  0  0
   -6.4707  -35.6556  -44.5919 N   0  0  0  0  0  0  0  0  0  0  0  0
  1  2  1  0  0  0  0
  1  7  1  0  0  0  0
  2  3  1  0  0  0  0
  2  4  2  0  0  0  0
  4  5  1  0  0  0  0
  5  6  2  0  0  0  0
  5 11  1  0  0  0  0
  6  7  1  0  0  0  0
  6  9  1  0  0  0  0
  7  8  2  0  0  0  0
  9 10  2  0  0  0  0
  9 12  1  0  0  0  0
 10 11  1  0  0  0  0
 12 13  1  0  0  0  0
M  END
>  <CHROM.1>
-175.13230160,-3.12481983,-33.75003504,-43.24610121,0.38029450,0.50099069
1.57341868

>  <Name>
ligand

>  <RI>
0

>  <Rbt.Current_Directory>
/home/itssahil/PROJECTS/Mol_Feturizer/Test_systems_manuscript/rnas/3fu2

>  <Rbt.Executable>
rbdock ($Id: //depot/dev/client3/rdock/2013.1/src/exe/rbdock.cxx#4 $)

>  <Rbt.Library>
libRbt.so (2013.1, Build901 2013/11/27)

>  <Rbt.Parameter_File>
/export/apps/rDock/src/rDock_2013.1_src/data/scripts/dock_solv.prm

>  <Rbt.Receptor>
prm/pocket_docking_2.prm

>  <SCORE>
-14.8055

>  <SCORE.INTER>
-14.6802

>  <SCORE.INTER.CONST>
1

>  <SCORE.INTER.POLAR>
0

>  <SCORE.INTER.ROT>
1

>  <SCORE.INTER.SOLV>
17.6386

>  <SCORE.INTER.VDW>
-19.933

>  <SCORE.INTER.norm>
-1.12924

>  <SCORE.INTRA>
-0.127154

>  <SCORE.INTRA.DIHEDRAL>
0.00907612

>  <SCORE.INTRA.DIHEDRAL.0>
1.66609

>  <SCORE.INTRA.POLAR>
0

>  <SCORE.INTRA.POLAR.0>
0

>  <SCORE.INTRA.REPUL>
0

>  <SCORE.INTRA.REPUL.0>
0

>  <SCORE.INTRA.SOLV>
-0.979314

>  <SCORE.INTRA.SOLV.lig_0>
-45.868

>  <SCORE.INTRA.VDW>
0.357965

>  <SCORE.INTRA.VDW.0>
-0.397919

>  <SCORE.INTRA.norm>
-0.00978104

>  <SCORE.RESTR>
0.00182433

>  <SCORE.RESTR.CAVITY>
0.00182433

>  <SCORE.RESTR.norm>
0.000140333

>  <SCORE.SYSTEM>
0

>  <SCORE.SYSTEM.CONST>
0

>  <SCORE.SYSTEM.DIHEDRAL>
0

>  <SCORE.SYSTEM.SOLV>
0

>  <SCORE.SYSTEM.norm>
0

>  <SCORE.heavy>
13

>  <SCORE.norm>
-1.13888

>  <RMSD>
4.799

$$$$
ligand
 OpenBabel02271912143D
libRbt.so/2013.1/901 2013/11/27
 13 14  0  0  0  0  0  0  0  0999 V2000
   -1.9062  -33.1333  -41.4842 N   0  0  0  0  0  0  0  0  0  0  0  0
   -1.0431  -32.6311  -42.4211 C   0  0  0  0  0  0  0  0  0  0  0  0
    0.1002  -32.0085  -42.0001 N   0  0  0  0  0  0  0  0  0  0  0  0
   -1.2956  -32.7392  -43.7259 N   0  0  0  0  0  0  0  0  0  0  0  0
   -2.4242  -33.3519  -44.1792 C   0  0  0  0  0  0  0  0  0  0  0  0
   -3.3456  -33.8818  -43.2494 C   0  0  0  0  0  0  0  0  0  0  0  0
   -3.0555  -33.7588  -41.8635 C   0  0  0  0  0  0  0  0  0  0  0  0
   -3.8120  -34.1998  -41.0340 O   0  0  0  0  0  0  0  0  0  0  0  0
   -4.4358  -34.4600  -44.0285 C   0  0  0  0  0  0  0  0  0  0  0  0
   -4.1310  -34.2659  -45.3238 C   0  0  0  0  0  0  0  0  0  0  0  0
   -2.9261  -33.6020  -45.4204 N   0  0  0  0  0  0  0  0  0  0  0  0
   -5.6678  -35.1356  -43.4829 C   0  0  0  0  0  0  0  0  0  0  0  0
   -6.4670  -35.6598  -44.6089 N   0  0  0  0  0  0  0  0  0  0  0  0
  1  2  1  0  0  0  0
  1  7  1  0  0  0  0
  2  3  1  0  0  0  0
  2  4  2  0  0  0  0
  4  5  1  0  0  0  0
  5  6  2  0  0  0  0
  5 11  1  0  0  0  0
  6  7  1  0  0  0  0
  6  9  1  0  0  0  0
  7  8  2  0  0  0  0
  9 10  2  0  0  0  0
  9 12  1  0  0  0  0
 10 11  1  0  0  0  0
 12 13  1  0  0  0  0
M  END
>  <CHROM.1>
-176.06716507,-3.11937952,-33.76342868,-43.25275291,0.37263584,0.50852767
1.59376205

>  <Name>
ligand

>  <RI>
0

>  <Rbt.Current_Directory>
/home/itssahil/PROJECTS/Mol_Feturizer/Test_systems_manuscript/rnas/3fu2

>  <Rbt.Executable>
rbdock ($Id: //depot/dev/client3/rdock/2013.1/src/exe/rbdock.cxx#4 $)

>  <Rbt.Library>
libRbt.so (2013.1, Build901 2013/11/27)

>  <Rbt.Parameter_File>
/export/apps/rDock/src/rDock_2013.1_src/data/scripts/dock_solv.prm

>  <Rbt.Receptor>
prm/pocket_docking_2.prm

>  <SCORE>
-14.7833

>  <SCORE.INTER>
-14.6579

>  <SCORE.INTER.CONST>
1

>  <SCORE.INTER.POLAR>
0

>  <SCORE.INTER.ROT>
1

>  <SCORE.INTER.SOLV>
17.5723

>  <SCORE.INTER.VDW>
-19.8961

>  <SCORE.INTER.norm>
-1.12753

>  <SCORE.INTRA>
-0.125579

>  <SCORE.INTRA.DIHEDRAL>
0.0099507

>  <SCORE.INTRA.DIHEDRAL.0>
1.66609

>  <SCORE.INTRA.POLAR>
0

>  <SCORE.INTRA.POLAR.0>
0

>  <SCORE.INTRA.REPUL>
0

>  <SCORE.INTRA.REPUL.0>
0

>  <SCORE.INTRA.SOLV>
-0.979211

>  <SCORE.INTRA.SOLV.lig_0>
-45.868

>  <SCORE.INTRA.VDW>
0.359052

>  <SCORE.INTRA.VDW.0>
-0.397919

>  <SCORE.INTRA.norm>
-0.00965989

>  <SCORE.RESTR>
0.000239035

>  <SCORE.RESTR.CAVITY>
0.000239035

>  <SCORE.RESTR.norm>
1.83873e-05

>  <SCORE.SYSTEM>
0

>  <SCORE.SYSTEM.CONST>
0

>  <SCORE.SYSTEM.DIHEDRAL>
0

>  <SCORE.SYSTEM.SOLV>
0

>  <SCORE.SYSTEM.norm>
0

>  <SCORE.heavy>
13

>  <SCORE.norm>
-1.13718

>  <RMSD>
4.800

$$$$
ligand
 OpenBabel02271912143D
libRbt.so/2013.1/901 2013/11/27
 13 14  0  0  0  0  0  0  0  0999 V2000
   -1.3271  -32.7013  -41.7713 N   0  0  0  0  0  0  0  0  0  0  0  0
   -0.5368  -32.2646  -42.8006 C   0  0  0  0  0  0  0  0  0  0  0  0
    0.6293  -31.6115  -42.5073 N   0  0  0  0  0  0  0  0  0  0  0  0
   -0.8811  -32.4647  -44.0731 N   0  0  0  0  0  0  0  0  0  0  0  0
   -2.0347  -33.1101  -44.4001 C   0  0  0  0  0  0  0  0  0  0  0  0
   -2.8835  -33.5751  -43.3718 C   0  0  0  0  0  0  0  0  0  0  0  0
   -2.4961  -33.3543  -42.0223 C   0  0  0  0  0  0  0  0  0  0  0  0
   -3.1882  -33.7374  -41.1118 O   0  0  0  0  0  0  0  0  0  0  0  0
   -4.0226  -34.2090  -44.0282 C   0  0  0  0  0  0  0  0  0  0  0  0
   -3.8125  -34.1059  -45.3525 C   0  0  0  0  0  0  0  0  0  0  0  0
   -2.6223  -33.4480  -45.5815 N   0  0  0  0  0  0  0  0  0  0  0  0
   -5.2076  -34.8470  -43.3496 C   0  0  0  0  0  0  0  0  0  0  0  0
   -5.8524  -35.7854  -44.2904 N   0  0  0  0  0  0  0  0  0  0  0  0
  1  2  1  0  0  0  0
  1  7  1  0  0  0  0
  2  3  1  0  0  0  0
  2  4  2  0  0  0  0
  4  5  1  0  0  0  0
  5  6  2  0  0  0  0
  5 11  1  0  0  0  0
  6  7  1  0  0  0  0
  6  9  1  0  0  0  0
  7  8  2  0  0  0  0
  9 10  2  0  0  0  0
  9 12  1  0  0  0  0
 10 11  1  0  0  0  0
 12 13  1  0  0  0  0
M  END
>  <CHROM.1>
-159.00090261,-2.64038927,-33.48406485,-43.39271206,0.28510570,0.54132266
1.55981293

>  <Name>
ligand

>  <RI>
0

>  <Rbt.Current_Directory>
/home/itssahil/PROJECTS/Mol_Feturizer/Test_systems_manuscript/rnas/3fu2

>  <Rbt.Executable>
rbdock ($Id: //depot/dev/client3/rdock/2013.1/src/exe/rbdock.cxx#4 $)

>  <Rbt.Library>
libRbt.so (2013.1, Build901 2013/11/27)

>  <Rbt.Parameter_File>
/export/apps/rDock/src/rDock_2013.1_src/data/scripts/dock_solv.prm

>  <Rbt.Receptor>
prm/blind_docking_60.prm

>  <SCORE>
-16.2113

>  <SCORE.INTER>
-16.03

>  <SCORE.INTER.CONST>
1

>  <SCORE.INTER.POLAR>
0

>  <SCORE.INTER.ROT>
1

>  <SCORE.INTER.SOLV>
16.1262

>  <SCORE.INTER.VDW>
-20.3287

>  <SCORE.INTER.norm>
-1.23308

>  <SCORE.INTRA>
-0.181287

>  <SCORE.INTRA.DIHEDRAL>
-0.00257608

>  <SCORE.INTRA.DIHEDRAL.0>
1.66609

>  <SCORE.INTRA.POLAR>
0

>  <SCORE.INTRA.POLAR.0>
0

>  <SCORE.INTRA.REPUL>
0

>  <SCORE.INTRA.REPUL.0>
0

>  <SCORE.INTRA.SOLV>
-0.982959

>  <SCORE.INTRA.SOLV.lig_0>
-45.868

>  <SCORE.INTRA.VDW>
0.31148

>  <SCORE.INTRA.VDW.0>
-0.397919

>  <SCORE.INTRA.norm>
-0.0139452

>  <SCORE.RESTR>
0

>  <SCORE.RESTR.CAVITY>
0

>  <SCORE.RESTR.norm>
0

>  <SCORE.SYSTEM>
0

>  <SCORE.SYSTEM.CONST>
0

>  <SCORE.SYSTEM.DIHEDRAL>
0

>  <SCORE.SYSTEM.SOLV>
0

>  <SCORE.SYSTEM.norm>
0

>  <SCORE.heavy>
13

>  <SCORE.norm>
-1.24702

>  <RMSD>
4.818

$$$$
ligand
 OpenBabel02271912143D
libRbt.so/2013.1/901 2013/11/27
 13 14  0  0  0  0  0  0  0  0999 V2000
   -1.3009  -32.6776  -41.7525 N   0  0  0  0  0  0  0  0  0  0  0  0
   -0.5075  -32.2454  -42.7813 C   0  0  0  0  0  0  0  0  0  0  0  0
    0.6621  -31.5991  -42.4874 N   0  0  0  0  0  0  0  0  0  0  0  0
   -0.8523  -32.4435  -44.0540 N   0  0  0  0  0  0  0  0  0  0  0  0
   -2.0094  -33.0823  -44.3818 C   0  0  0  0  0  0  0  0  0  0  0  0
   -2.8615  -33.5424  -43.3539 C   0  0  0  0  0  0  0  0  0  0  0  0
   -2.4735  -33.3239  -42.0042 C   0  0  0  0  0  0  0  0  0  0  0  0
   -3.1683  -33.7030  -41.0941 O   0  0  0  0  0  0  0  0  0  0  0  0
   -4.0038  -34.1697  -44.0110 C   0  0  0  0  0  0  0  0  0  0  0  0
   -3.7923  -34.0678  -45.3352 C   0  0  0  0  0  0  0  0  0  0  0  0
   -2.5983  -33.4167  -45.5635 N   0  0  0  0  0  0  0  0  0  0  0  0
   -5.1928  -34.8010  -43.3331 C   0  0  0  0  0  0  0  0  0  0  0  0
   -5.8307  -35.7504  -44.2676 N   0  0  0  0  0  0  0  0  0  0  0  0
  1  2  1  0  0  0  0
  1  7  1  0  0  0  0
  2  3  1  0  0  0  0
  2  4  2  0  0  0  0
  4  5  1  0  0  0  0
  5  6  2  0  0  0  0
  5 11  1  0  0  0  0
  6  7  1  0  0  0  0
  6  9  1  0  0  0  0
  7  8  2  0  0  0  0
  9 10  2  0  0  0  0
  9 12  1  0  0  0  0
 10 11  1  0  0  0  0
 12 13  1  0  0  0  0
M  END
>  <CHROM.1>
-158.18055150,-2.61684861,-33.45397736,-43.37415416,0.28515249,0.53691900
1.55947754

>  <Name>
ligand

>  <RI>
0

>  <Rbt.Current_Directory>
/home/itssahil/PROJECTS/Mol_Feturizer/Test_systems_manuscript/rnas/3fu2

>  <Rbt.Executable>
rbdock ($Id: //depot/dev/client3/rdock/2013.1/src/exe/rbdock.cxx#4 $)

>  <Rbt.Library>
libRbt.so (2013.1, Build901 2013/11/27)

>  <Rbt.Parameter_File>
/export/apps/rDock/src/rDock_2013.1_src/data/scripts/dock_solv.prm

>  <Rbt.Receptor>
prm/pocket_docking_8.prm

>  <SCORE>
-16.2109

>  <SCORE.INTER>
-16.0259

>  <SCORE.INTER.CONST>
1

>  <SCORE.INTER.POLAR>
0

>  <SCORE.INTER.ROT>
1

>  <SCORE.INTER.SOLV>
16.0494

>  <SCORE.INTER.VDW>
-20.3004

>  <SCORE.INTER.norm>
-1.23276

>  <SCORE.INTRA>
-0.184999

>  <SCORE.INTRA.DIHEDRAL>
-0.00291191

>  <SCORE.INTRA.DIHEDRAL.0>
1.66609

>  <SCORE.INTRA.POLAR>
0

>  <SCORE.INTRA.POLAR.0>
0

>  <SCORE.INTRA.REPUL>
0

>  <SCORE.INTRA.REPUL.0>
0

>  <SCORE.INTRA.SOLV>
-0.983226

>  <SCORE.INTRA.SOLV.lig_0>
-45.868

>  <SCORE.INTRA.VDW>
0.30807

>  <SCORE.INTRA.VDW.0>
-0.397919

>  <SCORE.INTRA.norm>
-0.0142307

>  <SCORE.RESTR>
0

>  <SCORE.RESTR.CAVITY>
0

>  <SCORE.RESTR.norm>
0

>  <SCORE.SYSTEM>
0

>  <SCORE.SYSTEM.CONST>
0

>  <SCORE.SYSTEM.DIHEDRAL>
0

>  <SCORE.SYSTEM.SOLV>
0

>  <SCORE.SYSTEM.norm>
0

>  <SCORE.heavy>
13

>  <SCORE.norm>
-1.24699

>  <RMSD>
4.818

$$$$
ligand
 OpenBabel02271912143D
libRbt.so/2013.1/901 2013/11/27
 13 14  0  0  0  0  0  0  0  0999 V2000
   -1.2967  -32.6369  -41.7113 N   0  0  0  0  0  0  0  0  0  0  0  0
   -0.4860  -32.1842  -42.7175 C   0  0  0  0  0  0  0  0  0  0  0  0
    0.6724  -31.5333  -42.3907 N   0  0  0  0  0  0  0  0  0  0  0  0
   -0.8032  -32.3668  -43.9997 N   0  0  0  0  0  0  0  0  0  0  0  0
   -1.9484  -33.0095  -44.3600 C   0  0  0  0  0  0  0  0  0  0  0  0
   -2.8176  -33.4906  -43.3563 C   0  0  0  0  0  0  0  0  0  0  0  0
   -2.4588  -33.2884  -41.9961 C   0  0  0  0  0  0  0  0  0  0  0  0
   -3.1691  -33.6856  -41.1058 O   0  0  0  0  0  0  0  0  0  0  0  0
   -3.9413  -34.1171  -44.0453 C   0  0  0  0  0  0  0  0  0  0  0  0
   -3.7038  -33.9948  -45.3634 C   0  0  0  0  0  0  0  0  0  0  0  0
   -2.5104  -33.3316  -45.5581 N   0  0  0  0  0  0  0  0  0  0  0  0
   -5.1389  -34.7668  -43.4009 C   0  0  0  0  0  0  0  0  0  0  0  0
   -5.8547  -35.5678  -44.4146 N   0  0  0  0  0  0  0  0  0  0  0  0
  1  2  1  0  0  0  0
  1  7  1  0  0  0  0
  2  3  1  0  0  0  0
  2  4  2  0  0  0  0
  4  5  1  0  0  0  0
  5  6  2  0  0  0  0
  5 11  1  0  0  0  0
  6  7  1  0  0  0  0
  6  9  1  0  0  0  0
  7  8  2  0  0  0  0
  9 10  2  0  0  0  0
  9 12  1  0  0  0  0
 10 11  1  0  0  0  0
 12 13  1  0  0  0  0
M  END
>  <CHROM.1>
-165.67088025,-2.58176534,-33.38868328,-43.37462483,0.31275301,0.53199204
1.56278212

>  <Name>
ligand

>  <RI>
0

>  <Rbt.Current_Directory>
/home/itssahil/PROJECTS/Mol_Feturizer/Test_systems_manuscript/rnas/3fu2

>  <Rbt.Executable>
rbdock ($Id: //depot/dev/client3/rdock/2013.1/src/exe/rbdock.cxx#4 $)

>  <Rbt.Library>
libRbt.so (2013.1, Build901 2013/11/27)

>  <Rbt.Parameter_File>
/export/apps/rDock/src/rDock_2013.1_src/data/scripts/dock_solv.prm

>  <Rbt.Receptor>
prm/pocket_docking_5.prm

>  <SCORE>
-16.2277

>  <SCORE.INTER>
-16.074

>  <SCORE.INTER.CONST>
1

>  <SCORE.INTER.POLAR>
0

>  <SCORE.INTER.ROT>
1

>  <SCORE.INTER.SOLV>
15.9763

>  <SCORE.INTER.VDW>
-20.3081

>  <SCORE.INTER.norm>
-1.23646

>  <SCORE.INTRA>
-0.153713

>  <SCORE.INTRA.DIHEDRAL>
0.00121653

>  <SCORE.INTRA.DIHEDRAL.0>
1.66609

>  <SCORE.INTRA.POLAR>
0

>  <SCORE.INTRA.POLAR.0>
0

>  <SCORE.INTRA.REPUL>
0

>  <SCORE.INTRA.REPUL.0>
0

>  <SCORE.INTRA.SOLV>
-0.981053

>  <SCORE.INTRA.SOLV.lig_0>
-45.868

>  <SCORE.INTRA.VDW>
0.336205

>  <SCORE.INTRA.VDW.0>
-0.397919

>  <SCORE.INTRA.norm>
-0.0118241

>  <SCORE.RESTR>
0

>  <SCORE.RESTR.CAVITY>
0

>  <SCORE.RESTR.norm>
0

>  <SCORE.SYSTEM>
0

>  <SCORE.SYSTEM.CONST>
0

>  <SCORE.SYSTEM.DIHEDRAL>
0

>  <SCORE.SYSTEM.SOLV>
0

>  <SCORE.SYSTEM.norm>
0

>  <SCORE.heavy>
13

>  <SCORE.norm>
-1.24828

>  <RMSD>
4.819

$$$$
ligand
 OpenBabel02271912143D
libRbt.so/2013.1/901 2013/11/27
 13 14  0  0  0  0  0  0  0  0999 V2000
   -1.2910  -32.6939  -41.7556 N   0  0  0  0  0  0  0  0  0  0  0  0
   -0.4714  -32.2567  -42.7616 C   0  0  0  0  0  0  0  0  0  0  0  0
    0.6959  -31.6223  -42.4344 N   0  0  0  0  0  0  0  0  0  0  0  0
   -0.7886  -32.4388  -44.0438 N   0  0  0  0  0  0  0  0  0  0  0  0
   -1.9426  -33.0655  -44.4045 C   0  0  0  0  0  0  0  0  0  0  0  0
   -2.8210  -33.5301  -43.4011 C   0  0  0  0  0  0  0  0  0  0  0  0
   -2.4622  -33.3288  -42.0408 C   0  0  0  0  0  0  0  0  0  0  0  0
   -3.1802  -33.7123  -41.1507 O   0  0  0  0  0  0  0  0  0  0  0  0
   -3.9526  -34.1419  -44.0905 C   0  0  0  0  0  0  0  0  0  0  0  0
   -3.7105  -34.0275  -45.4084 C   0  0  0  0  0  0  0  0  0  0  0  0
   -2.5069  -33.3830  -45.6027 N   0  0  0  0  0  0  0  0  0  0  0  0
   -5.1612  -34.7714  -43.4465 C   0  0  0  0  0  0  0  0  0  0  0  0
   -5.8316  -35.6434  -44.4323 N   0  0  0  0  0  0  0  0  0  0  0  0
  1  2  1  0  0  0  0
  1  7  1  0  0  0  0
  2  3  1  0  0  0  0
  2  4  2  0  0  0  0
  4  5  1  0  0  0  0
  5  6  2  0  0  0  0
  5 11  1  0  0  0  0
  6  7  1  0  0  0  0
  6  9  1  0  0  0  0
  7  8  2  0  0  0  0
  9 10  2  0  0  0  0
  9 12  1  0  0  0  0
 10 11  1  0  0  0  0
 12 13  1  0  0  0  0
M  END
>  <CHROM.1>
-161.58136345,-2.57918414,-33.43816917,-43.41706497,0.31328858,0.52375052
1.55739273

>  <Name>
ligand

>  <RI>
0

>  <Rbt.Current_Directory>
/home/itssahil/PROJECTS/Mol_Feturizer/Test_systems_manuscript/rnas/3fu2

>  <Rbt.Executable>
rbdock ($Id: //depot/dev/client3/rdock/2013.1/src/exe/rbdock.cxx#4 $)

>  <Rbt.Library>
libRbt.so (2013.1, Build901 2013/11/27)

>  <Rbt.Parameter_File>
/export/apps/rDock/src/rDock_2013.1_src/data/scripts/dock_solv.prm

>  <Rbt.Receptor>
prm/blind_docking_100.prm

>  <SCORE>
-16.3004

>  <SCORE.INTER>
-16.1304

>  <SCORE.INTER.CONST>
1

>  <SCORE.INTER.POLAR>
0

>  <SCORE.INTER.ROT>
1

>  <SCORE.INTER.SOLV>
15.9972

>  <SCORE.INTER.VDW>
-20.3526

>  <SCORE.INTER.norm>
-1.2408

>  <SCORE.INTRA>
-0.170001

>  <SCORE.INTRA.DIHEDRAL>
-0.00132462

>  <SCORE.INTRA.DIHEDRAL.0>
1.66609

>  <SCORE.INTRA.POLAR>
0

>  <SCORE.INTRA.POLAR.0>
0

>  <SCORE.INTRA.REPUL>
0

>  <SCORE.INTRA.REPUL.0>
0

>  <SCORE.INTRA.SOLV>
-0.982163

>  <SCORE.INTRA.SOLV.lig_0>
-45.868

>  <SCORE.INTRA.VDW>
0.321742

>  <SCORE.INTRA.VDW.0>
-0.397919

>  <SCORE.INTRA.norm>
-0.013077

>  <SCORE.RESTR>
0

>  <SCORE.RESTR.CAVITY>
0

>  <SCORE.RESTR.norm>
0

>  <SCORE.SYSTEM>
0

>  <SCORE.SYSTEM.CONST>
0

>  <SCORE.SYSTEM.DIHEDRAL>
0

>  <SCORE.SYSTEM.SOLV>
0

>  <SCORE.SYSTEM.norm>
0

>  <SCORE.heavy>
13

>  <SCORE.norm>
-1.25388

>  <RMSD>
4.821

$$$$
ligand
 OpenBabel02271912143D
libRbt.so/2013.1/901 2013/11/27
 13 14  0  0  0  0  0  0  0  0999 V2000
   -1.2874  -32.6804  -41.7714 N   0  0  0  0  0  0  0  0  0  0  0  0
   -0.4805  -32.2416  -42.7869 C   0  0  0  0  0  0  0  0  0  0  0  0
    0.6850  -31.5970  -42.4735 N   0  0  0  0  0  0  0  0  0  0  0  0
   -0.8084  -32.4317  -44.0653 N   0  0  0  0  0  0  0  0  0  0  0  0
   -1.9610  -33.0685  -44.4124 C   0  0  0  0  0  0  0  0  0  0  0  0
   -2.8264  -33.5353  -43.3988 C   0  0  0  0  0  0  0  0  0  0  0  0
   -2.4564  -33.3253  -42.0427 C   0  0  0  0  0  0  0  0  0  0  0  0
   -3.1631  -33.7101  -41.1443 O   0  0  0  0  0  0  0  0  0  0  0  0
   -3.9598  -34.1586  -44.0748 C   0  0  0  0  0  0  0  0  0  0  0  0
   -3.7309  -34.0482  -45.3955 C   0  0  0  0  0  0  0  0  0  0  0  0
   -2.5341  -33.3956  -45.6039 N   0  0  0  0  0  0  0  0  0  0  0  0
   -5.1575  -34.7942  -43.4167 C   0  0  0  0  0  0  0  0  0  0  0  0
   -5.8589  -35.6369  -44.4064 N   0  0  0  0  0  0  0  0  0  0  0  0
  1  2  1  0  0  0  0
  1  7  1  0  0  0  0
  2  3  1  0  0  0  0
  2  4  2  0  0  0  0
  4  5  1  0  0  0  0
  5  6  2  0  0  0  0
  5 11  1  0  0  0  0
  6  7  1  0  0  0  0
  6  9  1  0  0  0  0
  7  8  2  0  0  0  0
  9 10  2  0  0  0  0
  9 12  1  0  0  0  0
 10 11  1  0  0  0  0
 12 13  1  0  0  0  0
M  END
>  <CHROM.1>
-163.62702039,-2.58775323,-33.43846705,-43.41855709,0.30351275,0.52794862
1.55879881

>  <Name>
ligand

>  <RI>
0

>  <Rbt.Current_Directory>
/home/itssahil/PROJECTS/Mol_Feturizer/Test_systems_manuscript/rnas/3fu2

>  <Rbt.Executable>
rbdock ($Id: //depot/dev/client3/rdock/2013.1/src/exe/rbdock.cxx#4 $)

>  <Rbt.Library>
libRbt.so (2013.1, Build901 2013/11/27)

>  <Rbt.Parameter_File>
/export/apps/rDock/src/rDock_2013.1_src/data/scripts/dock_solv.prm

>  <Rbt.Receptor>
prm/blind_docking_60.prm

>  <SCORE>
-16.2018

>  <SCORE.INTER>
-16.0402

>  <SCORE.INTER.CONST>
1

>  <SCORE.INTER.POLAR>
0

>  <SCORE.INTER.ROT>
1

>  <SCORE.INTER.SOLV>
16.0305

>  <SCORE.INTER.VDW>
-20.3037

>  <SCORE.INTER.norm>
-1.23386

>  <SCORE.INTRA>
-0.161573

>  <SCORE.INTRA.DIHEDRAL>
-0.000133906

>  <SCORE.INTRA.DIHEDRAL.0>
1.66609

>  <SCORE.INTRA.POLAR>
0

>  <SCORE.INTRA.POLAR.0>
0

>  <SCORE.INTRA.REPUL>
0

>  <SCORE.INTRA.REPUL.0>
0

>  <SCORE.INTRA.SOLV>
-0.981583

>  <SCORE.INTRA.SOLV.lig_0>
-45.868

>  <SCORE.INTRA.VDW>
0.329286

>  <SCORE.INTRA.VDW.0>
-0.397919

>  <SCORE.INTRA.norm>
-0.0124287

>  <SCORE.RESTR>
0

>  <SCORE.RESTR.CAVITY>
0

>  <SCORE.RESTR.norm>
0

>  <SCORE.SYSTEM>
0

>  <SCORE.SYSTEM.CONST>
0

>  <SCORE.SYSTEM.DIHEDRAL>
0

>  <SCORE.SYSTEM.SOLV>
0

>  <SCORE.SYSTEM.norm>
0

>  <SCORE.heavy>
13

>  <SCORE.norm>
-1.24629

>  <RMSD>
4.821

$$$$
ligand
 OpenBabel02271912143D
libRbt.so/2013.1/901 2013/11/27
 13 14  0  0  0  0  0  0  0  0999 V2000
   -1.2974  -32.7174  -41.7429 N   0  0  0  0  0  0  0  0  0  0  0  0
   -0.4724  -32.2651  -42.7377 C   0  0  0  0  0  0  0  0  0  0  0  0
    0.6917  -31.6332  -42.3946 N   0  0  0  0  0  0  0  0  0  0  0  0
   -0.7814  -32.4301  -44.0242 N   0  0  0  0  0  0  0  0  0  0  0  0
   -1.9321  -33.0537  -44.4005 C   0  0  0  0  0  0  0  0  0  0  0  0
   -2.8158  -33.5336  -43.4090 C   0  0  0  0  0  0  0  0  0  0  0  0
   -2.4657  -33.3504  -42.0439 C   0  0  0  0  0  0  0  0  0  0  0  0
   -3.1884  -33.7473  -41.1636 O   0  0  0  0  0  0  0  0  0  0  0  0
   -3.9420  -34.1378  -44.1137 C   0  0  0  0  0  0  0  0  0  0  0  0
   -3.6921  -34.0049  -45.4284 C   0  0  0  0  0  0  0  0  0  0  0  0
   -2.4885  -33.3557  -45.6065 N   0  0  0  0  0  0  0  0  0  0  0  0
   -5.1534  -34.7782  -43.4858 C   0  0  0  0  0  0  0  0  0  0  0  0
   -5.8144  -35.6403  -44.4866 N   0  0  0  0  0  0  0  0  0  0  0  0
  1  2  1  0  0  0  0
  1  7  1  0  0  0  0
  2  3  1  0  0  0  0
  2  4  2  0  0  0  0
  4  5  1  0  0  0  0
  5  6  2  0  0  0  0
  5 11  1  0  0  0  0
  6  7  1  0  0  0  0
  6  9  1  0  0  0  0
  7  8  2  0  0  0  0
  9 10  2  0  0  0  0
  9 12  1  0  0  0  0
 10 11  1  0  0  0  0
 12 13  1  0  0  0  0
M  END
>  <CHROM.1>
-161.44382926,-2.57388973,-33.44124109,-43.42214771,0.32032130,0.52567009
1.56753140

>  <Name>
ligand

>  <RI>
0

>  <Rbt.Current_Directory>
/home/itssahil/PROJECTS/Mol_Feturizer/Test_systems_manuscript/rnas/3fu2

>  <Rbt.Executable>
rbdock ($Id: //depot/dev/client3/rdock/2013.1/src/exe/rbdock.cxx#4 $)

>  <Rbt.Library>
libRbt.so (2013.1, Build901 2013/11/27)

>  <Rbt.Parameter_File>
/export/apps/rDock/src/rDock_2013.1_src/data/scripts/dock_solv.prm

>  <Rbt.Receptor>
prm/pocket_docking_3.prm

>  <SCORE>
-16.2971

>  <SCORE.INTER>
-16.1266

>  <SCORE.INTER.CONST>
1

>  <SCORE.INTER.POLAR>
0

>  <SCORE.INTER.ROT>
1

>  <SCORE.INTER.SOLV>
15.9615

>  <SCORE.INTER.VDW>
-20.3382

>  <SCORE.INTER.norm>
-1.2405

>  <SCORE.INTRA>
-0.170586

>  <SCORE.INTRA.DIHEDRAL>
-0.00139856

>  <SCORE.INTRA.DIHEDRAL.0>
1.66609

>  <SCORE.INTRA.POLAR>
0

>  <SCORE.INTRA.POLAR.0>
0

>  <SCORE.INTRA.REPUL>
0

>  <SCORE.INTRA.REPUL.0>
0

>  <SCORE.INTRA.SOLV>
-0.982204

>  <SCORE.INTRA.SOLV.lig_0>
-45.868

>  <SCORE.INTRA.VDW>
0.321215

>  <SCORE.INTRA.VDW.0>
-0.397919

>  <SCORE.INTRA.norm>
-0.013122

>  <SCORE.RESTR>
0

>  <SCORE.RESTR.CAVITY>
0

>  <SCORE.RESTR.norm>
0

>  <SCORE.SYSTEM>
0

>  <SCORE.SYSTEM.CONST>
0

>  <SCORE.SYSTEM.DIHEDRAL>
0

>  <SCORE.SYSTEM.SOLV>
0

>  <SCORE.SYSTEM.norm>
0

>  <SCORE.heavy>
13

>  <SCORE.norm>
-1.25363

>  <RMSD>
4.821

$$$$
ligand
 OpenBabel02271912143D
libRbt.so/2013.1/901 2013/11/27
 13 14  0  0  0  0  0  0  0  0999 V2000
   -1.3017  -32.7040  -41.7556 N   0  0  0  0  0  0  0  0  0  0  0  0
   -0.4815  -32.2558  -42.7562 C   0  0  0  0  0  0  0  0  0  0  0  0
    0.6840  -31.6220  -42.4213 N   0  0  0  0  0  0  0  0  0  0  0  0
   -0.7964  -32.4265  -44.0405 N   0  0  0  0  0  0  0  0  0  0  0  0
   -1.9485  -33.0521  -44.4088 C   0  0  0  0  0  0  0  0  0  0  0  0
   -2.8275  -33.5279  -43.4112 C   0  0  0  0  0  0  0  0  0  0  0  0
   -2.4711  -33.3386  -42.0485 C   0  0  0  0  0  0  0  0  0  0  0  0
   -3.1897  -33.7319  -41.1631 O   0  0  0  0  0  0  0  0  0  0  0  0
   -3.9567  -34.1356  -44.1080 C   0  0  0  0  0  0  0  0  0  0  0  0
   -3.7129  -34.0084  -45.4244 C   0  0  0  0  0  0  0  0  0  0  0  0
   -2.5103  -33.3596  -45.6109 N   0  0  0  0  0  0  0  0  0  0  0  0
   -5.1650  -34.7736  -43.4718 C   0  0  0  0  0  0  0  0  0  0  0  0
   -5.8203  -35.6538  -44.4604 N   0  0  0  0  0  0  0  0  0  0  0  0
  1  2  1  0  0  0  0
  1  7  1  0  0  0  0
  2  3  1  0  0  0  0
  2  4  2  0  0  0  0
  4  5  1  0  0  0  0
  5  6  2  0  0  0  0
  5 11  1  0  0  0  0
  6  7  1  0  0  0  0
  6  9  1  0  0  0  0
  7  8  2  0  0  0  0
  9 10  2  0  0  0  0
  9 12  1  0  0  0  0
 10 11  1  0  0  0  0
 12 13  1  0  0  0  0
M  END
>  <CHROM.1>
-160.72220441,-2.58485682,-33.43667983,-43.42540200,0.31462634,0.52720523
1.56568698

>  <Name>
ligand

>  <RI>
0

>  <Rbt.Current_Directory>
/home/itssahil/PROJECTS/Mol_Feturizer/Test_systems_manuscript/rnas/3fu2

>  <Rbt.Executable>
rbdock ($Id: //depot/dev/client3/rdock/2013.1/src/exe/rbdock.cxx#4 $)

>  <Rbt.Library>
libRbt.so (2013.1, Build901 2013/11/27)

>  <Rbt.Parameter_File>
/export/apps/rDock/src/rDock_2013.1_src/data/scripts/dock_solv.prm

>  <Rbt.Receptor>
prm/pocket_docking_7.prm

>  <SCORE>
-16.3002

>  <SCORE.INTER>
-16.1265

>  <SCORE.INTER.CONST>
1

>  <SCORE.INTER.POLAR>
0

>  <SCORE.INTER.ROT>
1

>  <SCORE.INTER.SOLV>
15.9891

>  <SCORE.INTER.VDW>
-20.3474

>  <SCORE.INTER.norm>
-1.2405

>  <SCORE.INTRA>
-0.173686

>  <SCORE.INTRA.DIHEDRAL>
-0.00177336

>  <SCORE.INTRA.DIHEDRAL.0>
1.66609

>  <SCORE.INTRA.POLAR>
0

>  <SCORE.INTRA.POLAR.0>
0

>  <SCORE.INTRA.REPUL>
0

>  <SCORE.INTRA.REPUL.0>
0

>  <SCORE.INTRA.SOLV>
-0.982421

>  <SCORE.INTRA.SOLV.lig_0>
-45.868

>  <SCORE.INTRA.VDW>
0.318411

>  <SCORE.INTRA.VDW.0>
-0.397919

>  <SCORE.INTRA.norm>
-0.0133605

>  <SCORE.RESTR>
0

>  <SCORE.RESTR.CAVITY>
0

>  <SCORE.RESTR.norm>
0

>  <SCORE.SYSTEM>
0

>  <SCORE.SYSTEM.CONST>
0

>  <SCORE.SYSTEM.DIHEDRAL>
0

>  <SCORE.SYSTEM.SOLV>
0

>  <SCORE.SYSTEM.norm>
0

>  <SCORE.heavy>
13

>  <SCORE.norm>
-1.25386

>  <RMSD>
4.821

$$$$
ligand
 OpenBabel02271912143D
libRbt.so/2013.1/901 2013/11/27
 13 14  0  0  0  0  0  0  0  0999 V2000
   -1.2859  -32.6872  -41.7608 N   0  0  0  0  0  0  0  0  0  0  0  0
   -0.4649  -32.2555  -42.7679 C   0  0  0  0  0  0  0  0  0  0  0  0
    0.7032  -31.6216  -42.4425 N   0  0  0  0  0  0  0  0  0  0  0  0
   -0.7815  -32.4422  -44.0496 N   0  0  0  0  0  0  0  0  0  0  0  0
   -1.9362  -33.0685  -44.4086 C   0  0  0  0  0  0  0  0  0  0  0  0
   -2.8161  -33.5277  -43.4040 C   0  0  0  0  0  0  0  0  0  0  0  0
   -2.4579  -33.3215  -42.0442 C   0  0  0  0  0  0  0  0  0  0  0  0
   -3.1771  -33.7002  -41.1531 O   0  0  0  0  0  0  0  0  0  0  0  0
   -3.9481  -34.1405  -44.0917 C   0  0  0  0  0  0  0  0  0  0  0  0
   -3.7049  -34.0319  -45.4099 C   0  0  0  0  0  0  0  0  0  0  0  0
   -2.5002  -33.3900  -45.6059 N   0  0  0  0  0  0  0  0  0  0  0  0
   -5.1582  -34.7655  -43.4460 C   0  0  0  0  0  0  0  0  0  0  0  0
   -5.8210  -35.6518  -44.4241 N   0  0  0  0  0  0  0  0  0  0  0  0
  1  2  1  0  0  0  0
  1  7  1  0  0  0  0
  2  3  1  0  0  0  0
  2  4  2  0  0  0  0
  4  5  1  0  0  0  0
  5  6  2  0  0  0  0
  5 11  1  0  0  0  0
  6  7  1  0  0  0  0
  6  9  1  0  0  0  0
  7  8  2  0  0  0  0
  9 10  2  0  0  0  0
  9 12  1  0  0  0  0
 10 11  1  0  0  0  0
 12 13  1  0  0  0  0
M  END
>  <CHROM.1>
-160.97443866,-2.57342677,-33.43714472,-43.41973673,0.31374807,0.52314397
1.55283278

>  <Name>
ligand

>  <RI>
0

>  <Rbt.Current_Directory>
/home/itssahil/PROJECTS/Mol_Feturizer/Test_systems_manuscript/rnas/3fu2

>  <Rbt.Executable>
rbdock ($Id: //depot/dev/client3/rdock/2013.1/src/exe/rbdock.cxx#4 $)

>  <Rbt.Library>
libRbt.so (2013.1, Build901 2013/11/27)

>  <Rbt.Parameter_File>
/export/apps/rDock/src/rDock_2013.1_src/data/scripts/dock_solv.prm

>  <Rbt.Receptor>
prm/pocket_docking_8.prm

>  <SCORE>
-16.3273

>  <SCORE.INTER>
-16.1547

>  <SCORE.INTER.CONST>
1

>  <SCORE.INTER.POLAR>
0

>  <SCORE.INTER.ROT>
1

>  <SCORE.INTER.SOLV>
16.0065

>  <SCORE.INTER.VDW>
-20.3719

>  <SCORE.INTER.norm>
-1.24267

>  <SCORE.INTRA>
-0.172596

>  <SCORE.INTRA.DIHEDRAL>
-0.00164487

>  <SCORE.INTRA.DIHEDRAL.0>
1.66609

>  <SCORE.INTRA.POLAR>
0

>  <SCORE.INTRA.POLAR.0>
0

>  <SCORE.INTRA.REPUL>
0

>  <SCORE.INTRA.REPUL.0>
0

>  <SCORE.INTRA.SOLV>
-0.982344

>  <SCORE.INTRA.SOLV.lig_0>
-45.868

>  <SCORE.INTRA.VDW>
0.319398

>  <SCORE.INTRA.VDW.0>
-0.397919

>  <SCORE.INTRA.norm>
-0.0132766

>  <SCORE.RESTR>
0

>  <SCORE.RESTR.CAVITY>
0

>  <SCORE.RESTR.norm>
0

>  <SCORE.SYSTEM>
0

>  <SCORE.SYSTEM.CONST>
0

>  <SCORE.SYSTEM.DIHEDRAL>
0

>  <SCORE.SYSTEM.SOLV>
0

>  <SCORE.SYSTEM.norm>
0

>  <SCORE.heavy>
13

>  <SCORE.norm>
-1.25594

>  <RMSD>
4.821

$$$$
ligand
 OpenBabel02271912143D
libRbt.so/2013.1/901 2013/11/27
 13 14  0  0  0  0  0  0  0  0999 V2000
   -1.2861  -32.6615  -41.7685 N   0  0  0  0  0  0  0  0  0  0  0  0
   -0.4771  -32.2176  -42.7801 C   0  0  0  0  0  0  0  0  0  0  0  0
    0.6856  -31.5707  -42.4609 N   0  0  0  0  0  0  0  0  0  0  0  0
   -0.8001  -32.4051  -44.0600 N   0  0  0  0  0  0  0  0  0  0  0  0
   -1.9498  -33.0441  -44.4127 C   0  0  0  0  0  0  0  0  0  0  0  0
   -2.8173  -33.5161  -43.4034 C   0  0  0  0  0  0  0  0  0  0  0  0
   -2.4524  -33.3089  -42.0455 C   0  0  0  0  0  0  0  0  0  0  0  0
   -3.1611  -33.6982  -41.1505 O   0  0  0  0  0  0  0  0  0  0  0  0
   -3.9467  -34.1406  -44.0850 C   0  0  0  0  0  0  0  0  0  0  0  0
   -3.7137  -34.0260  -45.4045 C   0  0  0  0  0  0  0  0  0  0  0  0
   -2.5179  -33.3695  -45.6071 N   0  0  0  0  0  0  0  0  0  0  0  0
   -5.1448  -34.7814  -43.4327 C   0  0  0  0  0  0  0  0  0  0  0  0
   -5.8241  -35.6459  -44.4190 N   0  0  0  0  0  0  0  0  0  0  0  0
  1  2  1  0  0  0  0
  1  7  1  0  0  0  0
  2  3  1  0  0  0  0
  2  4  2  0  0  0  0
  4  5  1  0  0  0  0
  5  6  2  0  0  0  0
  5 11  1  0  0  0  0
  6  7  1  0  0  0  0
  6  9  1  0  0  0  0
  7  8  2  0  0  0  0
  9 10  2  0  0  0  0
  9 12  1  0  0  0  0
 10 11  1  0  0  0  0
 12 13  1  0  0  0  0
M  END
>  <CHROM.1>
-162.43644545,-2.57750599,-33.42041827,-43.42142280,0.30689602,0.53267348
1.55936112

>  <Name>
ligand

>  <RI>
0

>  <Rbt.Current_Directory>
/home/itssahil/PROJECTS/Mol_Feturizer/Test_systems_manuscript/rnas/3fu2

>  <Rbt.Executable>
rbdock ($Id: //depot/dev/client3/rdock/2013.1/src/exe/rbdock.cxx#4 $)

>  <Rbt.Library>
libRbt.so (2013.1, Build901 2013/11/27)

>  <Rbt.Parameter_File>
/export/apps/rDock/src/rDock_2013.1_src/data/scripts/dock_solv.prm

>  <Rbt.Receptor>
prm/blind_docking_100.prm

>  <SCORE>
-16.3434

>  <SCORE.INTER>
-16.177

>  <SCORE.INTER.CONST>
1

>  <SCORE.INTER.POLAR>
0

>  <SCORE.INTER.ROT>
1

>  <SCORE.INTER.SOLV>
16.0045

>  <SCORE.INTER.VDW>
-20.3862

>  <SCORE.INTER.norm>
-1.24439

>  <SCORE.INTRA>
-0.166416

>  <SCORE.INTRA.DIHEDRAL>
-0.000847405

>  <SCORE.INTRA.DIHEDRAL.0>
1.66609

>  <SCORE.INTRA.POLAR>
0

>  <SCORE.INTRA.POLAR.0>
0

>  <SCORE.INTRA.REPUL>
0

>  <SCORE.INTRA.REPUL.0>
0

>  <SCORE.INTRA.SOLV>
-0.981915

>  <SCORE.INTRA.SOLV.lig_0>
-45.868

>  <SCORE.INTRA.VDW>
0.324965

>  <SCORE.INTRA.VDW.0>
-0.397919

>  <SCORE.INTRA.norm>
-0.0128012

>  <SCORE.RESTR>
0

>  <SCORE.RESTR.CAVITY>
0

>  <SCORE.RESTR.norm>
0

>  <SCORE.SYSTEM>
0

>  <SCORE.SYSTEM.CONST>
0

>  <SCORE.SYSTEM.DIHEDRAL>
0

>  <SCORE.SYSTEM.SOLV>
0

>  <SCORE.SYSTEM.norm>
0

>  <SCORE.heavy>
13

>  <SCORE.norm>
-1.25719

>  <RMSD>
4.822

$$$$
ligand
 OpenBabel02271912143D
libRbt.so/2013.1/901 2013/11/27
 13 14  0  0  0  0  0  0  0  0999 V2000
   -1.2843  -32.6883  -41.7658 N   0  0  0  0  0  0  0  0  0  0  0  0
   -0.4669  -32.2516  -42.7737 C   0  0  0  0  0  0  0  0  0  0  0  0
    0.7024  -31.6195  -42.4494 N   0  0  0  0  0  0  0  0  0  0  0  0
   -0.7882  -32.4319  -44.0552 N   0  0  0  0  0  0  0  0  0  0  0  0
   -1.9444  -33.0562  -44.4130 C   0  0  0  0  0  0  0  0  0  0  0  0
   -2.8206  -33.5203  -43.4076 C   0  0  0  0  0  0  0  0  0  0  0  0
   -2.4574  -33.3209  -42.0480 C   0  0  0  0  0  0  0  0  0  0  0  0
   -3.1735  -33.7040  -41.1562 O   0  0  0  0  0  0  0  0  0  0  0  0
   -3.9553  -34.1295  -44.0942 C   0  0  0  0  0  0  0  0  0  0  0  0
   -3.7169  -34.0143  -45.4127 C   0  0  0  0  0  0  0  0  0  0  0  0
   -2.5128  -33.3717  -45.6099 N   0  0  0  0  0  0  0  0  0  0  0  0
   -5.1631  -34.7576  -43.4472 C   0  0  0  0  0  0  0  0  0  0  0  0
   -5.8251  -35.6450  -44.4248 N   0  0  0  0  0  0  0  0  0  0  0  0
  1  2  1  0  0  0  0
  1  7  1  0  0  0  0
  2  3  1  0  0  0  0
  2  4  2  0  0  0  0
  4  5  1  0  0  0  0
  5  6  2  0  0  0  0
  5 11  1  0  0  0  0
  6  7  1  0  0  0  0
  6  9  1  0  0  0  0
  7  8  2  0  0  0  0
  9 10  2  0  0  0  0
  9 12  1  0  0  0  0
 10 11  1  0  0  0  0
 12 13  1  0  0  0  0
M  END
>  <CHROM.1>
-160.64729712,-2.57764218,-33.43022471,-43.42354667,0.30935637,0.52359700
1.55988937

>  <Name>
ligand

>  <RI>
0

>  <Rbt.Current_Directory>
/home/itssahil/PROJECTS/Mol_Feturizer/Test_systems_manuscript/rnas/3fu2

>  <Rbt.Executable>
rbdock ($Id: //depot/dev/client3/rdock/2013.1/src/exe/rbdock.cxx#4 $)

>  <Rbt.Library>
libRbt.so (2013.1, Build901 2013/11/27)

>  <Rbt.Parameter_File>
/export/apps/rDock/src/rDock_2013.1_src/data/scripts/dock_solv.prm

>  <Rbt.Receptor>
prm/blind_docking_100.prm

>  <SCORE>
-16.3515

>  <SCORE.INTER>
-16.1775

>  <SCORE.INTER.CONST>
1

>  <SCORE.INTER.POLAR>
0

>  <SCORE.INTER.ROT>
1

>  <SCORE.INTER.SOLV>
15.9934

>  <SCORE.INTER.VDW>
-20.3828

>  <SCORE.INTER.norm>
-1.24442

>  <SCORE.INTRA>
-0.174011

>  <SCORE.INTRA.DIHEDRAL>
-0.001811

>  <SCORE.INTRA.DIHEDRAL.0>
1.66609

>  <SCORE.INTRA.POLAR>
0

>  <SCORE.INTRA.POLAR.0>
0

>  <SCORE.INTRA.REPUL>
0

>  <SCORE.INTRA.REPUL.0>
0

>  <SCORE.INTRA.SOLV>
-0.982443

>  <SCORE.INTRA.SOLV.lig_0>
-45.868

>  <SCORE.INTRA.VDW>
0.318116

>  <SCORE.INTRA.VDW.0>
-0.397919

>  <SCORE.INTRA.norm>
-0.0133855

>  <SCORE.RESTR>
0

>  <SCORE.RESTR.CAVITY>
0

>  <SCORE.RESTR.norm>
0

>  <SCORE.SYSTEM>
0

>  <SCORE.SYSTEM.CONST>
0

>  <SCORE.SYSTEM.DIHEDRAL>
0

>  <SCORE.SYSTEM.SOLV>
0

>  <SCORE.SYSTEM.norm>
0

>  <SCORE.heavy>
13

>  <SCORE.norm>
-1.25781

>  <RMSD>
4.822

$$$$
ligand
 OpenBabel02271912143D
libRbt.so/2013.1/901 2013/11/27
 13 14  0  0  0  0  0  0  0  0999 V2000
   -1.2892  -32.6525  -41.7681 N   0  0  0  0  0  0  0  0  0  0  0  0
   -0.4807  -32.2084  -42.7799 C   0  0  0  0  0  0  0  0  0  0  0  0
    0.6803  -31.5581  -42.4612 N   0  0  0  0  0  0  0  0  0  0  0  0
   -0.8025  -32.3986  -44.0598 N   0  0  0  0  0  0  0  0  0  0  0  0
   -1.9504  -33.0410  -44.4121 C   0  0  0  0  0  0  0  0  0  0  0  0
   -2.8174  -33.5134  -43.4025 C   0  0  0  0  0  0  0  0  0  0  0  0
   -2.4538  -33.3031  -42.0447 C   0  0  0  0  0  0  0  0  0  0  0  0
   -3.1620  -33.6927  -41.1495 O   0  0  0  0  0  0  0  0  0  0  0  0
   -3.9449  -34.1417  -44.0837 C   0  0  0  0  0  0  0  0  0  0  0  0
   -3.7114  -34.0287  -45.4033 C   0  0  0  0  0  0  0  0  0  0  0  0
   -2.5171  -33.3696  -45.6062 N   0  0  0  0  0  0  0  0  0  0  0  0
   -5.1419  -34.7843  -43.4310 C   0  0  0  0  0  0  0  0  0  0  0  0
   -5.8104  -35.6629  -44.4123 N   0  0  0  0  0  0  0  0  0  0  0  0
  1  2  1  0  0  0  0
  1  7  1  0  0  0  0
  2  3  1  0  0  0  0
  2  4  2  0  0  0  0
  4  5  1  0  0  0  0
  5  6  2  0  0  0  0
  5 11  1  0  0  0  0
  6  7  1  0  0  0  0
  6  9  1  0  0  0  0
  7  8  2  0  0  0  0
  9 10  2  0  0  0  0
  9 12  1  0  0  0  0
 10 11  1  0  0  0  0
 12 13  1  0  0  0  0
M  END
>  <CHROM.1>
-161.85665922,-2.57716550,-33.41807793,-43.42018731,0.30730302,0.53600355
1.55728445

>  <Name>
ligand

>  <RI>
0

>  <Rbt.Current_Directory>
/home/itssahil/PROJECTS/Mol_Feturizer/Test_systems_manuscript/rnas/3fu2

>  <Rbt.Executable>
rbdock ($Id: //depot/dev/client3/rdock/2013.1/src/exe/rbdock.cxx#4 $)

>  <Rbt.Library>
libRbt.so (2013.1, Build901 2013/11/27)

>  <Rbt.Parameter_File>
/export/apps/rDock/src/rDock_2013.1_src/data/scripts/dock_solv.prm

>  <Rbt.Receptor>
prm/blind_docking_60.prm

>  <SCORE>
-16.3417

>  <SCORE.INTER>
-16.1728

>  <SCORE.INTER.CONST>
1

>  <SCORE.INTER.POLAR>
0

>  <SCORE.INTER.ROT>
1

>  <SCORE.INTER.SOLV>
16.0158

>  <SCORE.INTER.VDW>
-20.3871

>  <SCORE.INTER.norm>
-1.24406

>  <SCORE.INTRA>
-0.168838

>  <SCORE.INTRA.DIHEDRAL>
-0.00117427

>  <SCORE.INTRA.DIHEDRAL.0>
1.66609

>  <SCORE.INTRA.POLAR>
0

>  <SCORE.INTRA.POLAR.0>
0

>  <SCORE.INTRA.REPUL>
0

>  <SCORE.INTRA.REPUL.0>
0

>  <SCORE.INTRA.SOLV>
-0.982082

>  <SCORE.INTRA.SOLV.lig_0>
-45.868

>  <SCORE.INTRA.VDW>
0.32279

>  <SCORE.INTRA.VDW.0>
-0.397919

>  <SCORE.INTRA.norm>
-0.0129875

>  <SCORE.RESTR>
0

>  <SCORE.RESTR.CAVITY>
0

>  <SCORE.RESTR.norm>
0

>  <SCORE.SYSTEM>
0

>  <SCORE.SYSTEM.CONST>
0

>  <SCORE.SYSTEM.DIHEDRAL>
0

>  <SCORE.SYSTEM.SOLV>
0

>  <SCORE.SYSTEM.norm>
0

>  <SCORE.heavy>
13

>  <SCORE.norm>
-1.25705

>  <RMSD>
4.822

$$$$
ligand
 OpenBabel02271912143D
libRbt.so/2013.1/901 2013/11/27
 13 14  0  0  0  0  0  0  0  0999 V2000
   -1.2875  -32.6489  -41.7709 N   0  0  0  0  0  0  0  0  0  0  0  0
   -0.4812  -32.2036  -42.7841 C   0  0  0  0  0  0  0  0  0  0  0  0
    0.6789  -31.5511  -42.4672 N   0  0  0  0  0  0  0  0  0  0  0  0
   -0.8045  -32.3948  -44.0634 N   0  0  0  0  0  0  0  0  0  0  0  0
   -1.9518  -33.0395  -44.4139 C   0  0  0  0  0  0  0  0  0  0  0  0
   -2.8164  -33.5132  -43.4029 C   0  0  0  0  0  0  0  0  0  0  0  0
   -2.4512  -33.3018  -42.0457 C   0  0  0  0  0  0  0  0  0  0  0  0
   -3.1575  -33.6925  -41.1494 O   0  0  0  0  0  0  0  0  0  0  0  0
   -3.9437  -34.1438  -44.0823 C   0  0  0  0  0  0  0  0  0  0  0  0
   -3.7123  -34.0307  -45.4022 C   0  0  0  0  0  0  0  0  0  0  0  0
   -2.5196  -33.3695  -45.6071 N   0  0  0  0  0  0  0  0  0  0  0  0
   -5.1386  -34.7885  -43.4277 C   0  0  0  0  0  0  0  0  0  0  0  0
   -5.8205  -35.6502  -44.4146 N   0  0  0  0  0  0  0  0  0  0  0  0
  1  2  1  0  0  0  0
  1  7  1  0  0  0  0
  2  3  1  0  0  0  0
  2  4  2  0  0  0  0
  4  5  1  0  0  0  0
  5  6  2  0  0  0  0
  5 11  1  0  0  0  0
  6  7  1  0  0  0  0
  6  9  1  0  0  0  0
  7  8  2  0  0  0  0
  9 10  2  0  0  0  0
  9 12  1  0  0  0  0
 10 11  1  0  0  0  0
 12 13  1  0  0  0  0
M  END
>  <CHROM.1>
-162.83647122,-2.57749596,-33.41590727,-43.42153622,0.30613944,0.53627800
1.55800979

>  <Name>
ligand

>  <RI>
0

>  <Rbt.Current_Directory>
/home/itssahil/PROJECTS/Mol_Feturizer/Test_systems_manuscript/rnas/3fu2

>  <Rbt.Executable>
rbdock ($Id: //depot/dev/client3/rdock/2013.1/src/exe/rbdock.cxx#4 $)

>  <Rbt.Library>
libRbt.so (2013.1, Build901 2013/11/27)

>  <Rbt.Parameter_File>
/export/apps/rDock/src/rDock_2013.1_src/data/scripts/dock_solv.prm

>  <Rbt.Receptor>
prm/blind_docking_60.prm

>  <SCORE>
-16.3488

>  <SCORE.INTER>
-16.184

>  <SCORE.INTER.CONST>
1

>  <SCORE.INTER.POLAR>
0

>  <SCORE.INTER.ROT>
1

>  <SCORE.INTER.SOLV>
16.0122

>  <SCORE.INTER.VDW>
-20.3934

>  <SCORE.INTER.norm>
-1.24492

>  <SCORE.INTRA>
-0.164768

>  <SCORE.INTRA.DIHEDRAL>
-0.000613936

>  <SCORE.INTRA.DIHEDRAL.0>
1.66609

>  <SCORE.INTRA.POLAR>
0

>  <SCORE.INTRA.POLAR.0>
0

>  <SCORE.INTRA.REPUL>
0

>  <SCORE.INTRA.REPUL.0>
0

>  <SCORE.INTRA.SOLV>
-0.981802

>  <SCORE.INTRA.SOLV.lig_0>
-45.868

>  <SCORE.INTRA.VDW>
0.326439

>  <SCORE.INTRA.VDW.0>
-0.397919

>  <SCORE.INTRA.norm>
-0.0126745

>  <SCORE.RESTR>
0

>  <SCORE.RESTR.CAVITY>
0

>  <SCORE.RESTR.norm>
0

>  <SCORE.SYSTEM>
0

>  <SCORE.SYSTEM.CONST>
0

>  <SCORE.SYSTEM.DIHEDRAL>
0

>  <SCORE.SYSTEM.SOLV>
0

>  <SCORE.SYSTEM.norm>
0

>  <SCORE.heavy>
13

>  <SCORE.norm>
-1.2576

>  <RMSD>
4.822

$$$$
ligand
 OpenBabel02271912143D
libRbt.so/2013.1/901 2013/11/27
 13 14  0  0  0  0  0  0  0  0999 V2000
   -1.2843  -32.6949  -41.7697 N   0  0  0  0  0  0  0  0  0  0  0  0
   -0.4700  -32.2525  -42.7777 C   0  0  0  0  0  0  0  0  0  0  0  0
    0.6975  -31.6170  -42.4533 N   0  0  0  0  0  0  0  0  0  0  0  0
   -0.7925  -32.4305  -44.0591 N   0  0  0  0  0  0  0  0  0  0  0  0
   -1.9468  -33.0580  -44.4170 C   0  0  0  0  0  0  0  0  0  0  0  0
   -2.8200  -33.5280  -43.4116 C   0  0  0  0  0  0  0  0  0  0  0  0
   -2.4555  -33.3310  -42.0520 C   0  0  0  0  0  0  0  0  0  0  0  0
   -3.1689  -33.7191  -41.1603 O   0  0  0  0  0  0  0  0  0  0  0  0
   -3.9534  -34.1394  -44.0982 C   0  0  0  0  0  0  0  0  0  0  0  0
   -3.7173  -34.0198  -45.4168 C   0  0  0  0  0  0  0  0  0  0  0  0
   -2.5158  -33.3723  -45.6140 N   0  0  0  0  0  0  0  0  0  0  0  0
   -5.1580  -34.7736  -43.4512 C   0  0  0  0  0  0  0  0  0  0  0  0
   -5.8320  -35.6421  -44.4377 N   0  0  0  0  0  0  0  0  0  0  0  0
  1  2  1  0  0  0  0
  1  7  1  0  0  0  0
  2  3  1  0  0  0  0
  2  4  2  0  0  0  0
  4  5  1  0  0  0  0
  5  6  2  0  0  0  0
  5 11  1  0  0  0  0
  6  7  1  0  0  0  0
  6  9  1  0  0  0  0
  7  8  2  0  0  0  0
  9 10  2  0  0  0  0
  9 12  1  0  0  0  0
 10 11  1  0  0  0  0
 12 13  1  0  0  0  0
M  END
>  <CHROM.1>
-161.64638143,-2.57845685,-33.43544686,-43.42825926,0.30827416,0.52558543
1.56358770

>  <Name>
ligand

>  <RI>
0

>  <Rbt.Current_Directory>
/home/itssahil/PROJECTS/Mol_Feturizer/Test_systems_manuscript/rnas/3fu2

>  <Rbt.Executable>
rbdock ($Id: //depot/dev/client3/rdock/2013.1/src/exe/rbdock.cxx#4 $)

>  <Rbt.Library>
libRbt.so (2013.1, Build901 2013/11/27)

>  <Rbt.Parameter_File>
/export/apps/rDock/src/rDock_2013.1_src/data/scripts/dock_solv.prm

>  <Rbt.Receptor>
prm/blind_docking_60.prm

>  <SCORE>
-16.3303

>  <SCORE.INTER>
-16.1606

>  <SCORE.INTER.CONST>
1

>  <SCORE.INTER.POLAR>
0

>  <SCORE.INTER.ROT>
1

>  <SCORE.INTER.SOLV>
15.9912

>  <SCORE.INTER.VDW>
-20.3708

>  <SCORE.INTER.norm>
-1.24312

>  <SCORE.INTRA>
-0.169726

>  <SCORE.INTRA.DIHEDRAL>
-0.0012894

>  <SCORE.INTRA.DIHEDRAL.0>
1.66609

>  <SCORE.INTRA.POLAR>
0

>  <SCORE.INTRA.POLAR.0>
0

>  <SCORE.INTRA.REPUL>
0

>  <SCORE.INTRA.REPUL.0>
0

>  <SCORE.INTRA.SOLV>
-0.982144

>  <SCORE.INTRA.SOLV.lig_0>
-45.868

>  <SCORE.INTRA.VDW>
0.321991

>  <SCORE.INTRA.VDW.0>
-0.397919

>  <SCORE.INTRA.norm>
-0.0130558

>  <SCORE.RESTR>
0

>  <SCORE.RESTR.CAVITY>
0

>  <SCORE.RESTR.norm>
0

>  <SCORE.SYSTEM>
0

>  <SCORE.SYSTEM.CONST>
0

>  <SCORE.SYSTEM.DIHEDRAL>
0

>  <SCORE.SYSTEM.SOLV>
0

>  <SCORE.SYSTEM.norm>
0

>  <SCORE.heavy>
13

>  <SCORE.norm>
-1.25618

>  <RMSD>
4.822

$$$$
ligand
 OpenBabel02271912143D
libRbt.so/2013.1/901 2013/11/27
 13 14  0  0  0  0  0  0  0  0999 V2000
   -1.2816  -32.6564  -41.7836 N   0  0  0  0  0  0  0  0  0  0  0  0
   -0.4680  -32.2244  -42.7966 C   0  0  0  0  0  0  0  0  0  0  0  0
    0.6972  -31.5809  -42.4796 N   0  0  0  0  0  0  0  0  0  0  0  0
   -0.7890  -32.4199  -44.0759 N   0  0  0  0  0  0  0  0  0  0  0  0
   -1.9410  -33.0558  -44.4265 C   0  0  0  0  0  0  0  0  0  0  0  0
   -2.8133  -33.5157  -43.4156 C   0  0  0  0  0  0  0  0  0  0  0  0
   -2.4505  -33.3000  -42.0585 C   0  0  0  0  0  0  0  0  0  0  0  0
   -3.1632  -33.6789  -41.1623 O   0  0  0  0  0  0  0  0  0  0  0  0
   -3.9442  -34.1397  -44.0951 C   0  0  0  0  0  0  0  0  0  0  0  0
   -3.7076  -34.0362  -45.4149 C   0  0  0  0  0  0  0  0  0  0  0  0
   -2.5081  -33.3873  -45.6196 N   0  0  0  0  0  0  0  0  0  0  0  0
   -5.1472  -34.7694  -43.4408 C   0  0  0  0  0  0  0  0  0  0  0  0
   -5.8433  -35.6174  -44.4297 N   0  0  0  0  0  0  0  0  0  0  0  0
  1  2  1  0  0  0  0
  1  7  1  0  0  0  0
  2  3  1  0  0  0  0
  2  4  2  0  0  0  0
  4  5  1  0  0  0  0
  5  6  2  0  0  0  0
  5 11  1  0  0  0  0
  6  7  1  0  0  0  0
  6  9  1  0  0  0  0
  7  8  2  0  0  0  0
  9 10  2  0  0  0  0
  9 12  1  0  0  0  0
 10 11  1  0  0  0  0
 12 13  1  0  0  0  0
M  END
>  <CHROM.1>
-163.51913371,-2.57418772,-33.41968987,-43.43441509,0.31001802,0.52576167
1.55066452

>  <Name>
ligand

>  <RI>
0

>  <Rbt.Current_Directory>
/home/itssahil/PROJECTS/Mol_Feturizer/Test_systems_manuscript/rnas/3fu2

>  <Rbt.Executable>
rbdock ($Id: //depot/dev/client3/rdock/2013.1/src/exe/rbdock.cxx#4 $)

>  <Rbt.Library>
libRbt.so (2013.1, Build901 2013/11/27)

>  <Rbt.Parameter_File>
/export/apps/rDock/src/rDock_2013.1_src/data/scripts/dock_solv.prm

>  <Rbt.Receptor>
prm/blind_docking_60.prm

>  <SCORE>
-16.3187

>  <SCORE.INTER>
-16.1567

>  <SCORE.INTER.CONST>
1

>  <SCORE.INTER.POLAR>
0

>  <SCORE.INTER.ROT>
1

>  <SCORE.INTER.SOLV>
16.0338

>  <SCORE.INTER.VDW>
-20.3824

>  <SCORE.INTER.norm>
-1.24282

>  <SCORE.INTRA>
-0.162004

>  <SCORE.INTRA.DIHEDRAL>
-0.000200852

>  <SCORE.INTRA.DIHEDRAL.0>
1.66609

>  <SCORE.INTRA.POLAR>
0

>  <SCORE.INTRA.POLAR.0>
0

>  <SCORE.INTRA.REPUL>
0

>  <SCORE.INTRA.REPUL.0>
0

>  <SCORE.INTRA.SOLV>
-0.981613

>  <SCORE.INTRA.SOLV.lig_0>
-45.868

>  <SCORE.INTRA.VDW>
0.328903

>  <SCORE.INTRA.VDW.0>
-0.397919

>  <SCORE.INTRA.norm>
-0.0124618

>  <SCORE.RESTR>
0

>  <SCORE.RESTR.CAVITY>
0

>  <SCORE.RESTR.norm>
0

>  <SCORE.SYSTEM>
0

>  <SCORE.SYSTEM.CONST>
0

>  <SCORE.SYSTEM.DIHEDRAL>
0

>  <SCORE.SYSTEM.SOLV>
0

>  <SCORE.SYSTEM.norm>
0

>  <SCORE.heavy>
13

>  <SCORE.norm>
-1.25529

>  <RMSD>
4.822

$$$$
ligand
 OpenBabel02271912143D
libRbt.so/2013.1/901 2013/11/27
 13 14  0  0  0  0  0  0  0  0999 V2000
   -1.2853  -32.6626  -41.7695 N   0  0  0  0  0  0  0  0  0  0  0  0
   -0.4753  -32.2209  -42.7812 C   0  0  0  0  0  0  0  0  0  0  0  0
    0.6881  -31.5752  -42.4623 N   0  0  0  0  0  0  0  0  0  0  0  0
   -0.7981  -32.4093  -44.0611 N   0  0  0  0  0  0  0  0  0  0  0  0
   -1.9484  -33.0472  -44.4136 C   0  0  0  0  0  0  0  0  0  0  0  0
   -2.8170  -33.5169  -43.4041 C   0  0  0  0  0  0  0  0  0  0  0  0
   -2.4524  -33.3087  -42.0463 C   0  0  0  0  0  0  0  0  0  0  0  0
   -3.1619  -33.6961  -41.1512 O   0  0  0  0  0  0  0  0  0  0  0  0
   -3.9469  -34.1406  -44.0855 C   0  0  0  0  0  0  0  0  0  0  0  0
   -3.7133  -34.0277  -45.4050 C   0  0  0  0  0  0  0  0  0  0  0  0
   -2.5166  -33.3730  -45.6078 N   0  0  0  0  0  0  0  0  0  0  0  0
   -5.1462  -34.7791  -43.4330 C   0  0  0  0  0  0  0  0  0  0  0  0
   -5.8220  -35.6495  -44.4166 N   0  0  0  0  0  0  0  0  0  0  0  0
  1  2  1  0  0  0  0
  1  7  1  0  0  0  0
  2  3  1  0  0  0  0
  2  4  2  0  0  0  0
  4  5  1  0  0  0  0
  5  6  2  0  0  0  0
  5 11  1  0  0  0  0
  6  7  1  0  0  0  0
  6  9  1  0  0  0  0
  7  8  2  0  0  0  0
  9 10  2  0  0  0  0
  9 12  1  0  0  0  0
 10 11  1  0  0  0  0
 12 13  1  0  0  0  0
M  END
>  <CHROM.1>
-162.12646199,-2.57673036,-33.42201578,-43.42197483,0.30719258,0.53182893
1.55801581

>  <Name>
ligand

>  <RI>
0

>  <Rbt.Current_Directory>
/home/itssahil/PROJECTS/Mol_Feturizer/Test_systems_manuscript/rnas/3fu2

>  <Rbt.Executable>
rbdock ($Id: //depot/dev/client3/rdock/2013.1/src/exe/rbdock.cxx#4 $)

>  <Rbt.Library>
libRbt.so (2013.1, Build901 2013/11/27)

>  <Rbt.Parameter_File>
/export/apps/rDock/src/rDock_2013.1_src/data/scripts/dock_solv.prm

>  <Rbt.Receptor>
prm/blind_docking_60.prm

>  <SCORE>
-16.3426

>  <SCORE.INTER>
-16.1749

>  <SCORE.INTER.CONST>
1

>  <SCORE.INTER.POLAR>
0

>  <SCORE.INTER.ROT>
1

>  <SCORE.INTER.SOLV>
16.0081

>  <SCORE.INTER.VDW>
-20.3859

>  <SCORE.INTER.norm>
-1.24422

>  <SCORE.INTRA>
-0.167706

>  <SCORE.INTRA.DIHEDRAL>
-0.00102388

>  <SCORE.INTRA.DIHEDRAL.0>
1.66609

>  <SCORE.INTRA.POLAR>
0

>  <SCORE.INTRA.POLAR.0>
0

>  <SCORE.INTRA.REPUL>
0

>  <SCORE.INTRA.REPUL.0>
0

>  <SCORE.INTRA.SOLV>
-0.982004

>  <SCORE.INTRA.SOLV.lig_0>
-45.868

>  <SCORE.INTRA.VDW>
0.323808

>  <SCORE.INTRA.VDW.0>
-0.397919

>  <SCORE.INTRA.norm>
-0.0129005

>  <SCORE.RESTR>
0

>  <SCORE.RESTR.CAVITY>
0

>  <SCORE.RESTR.norm>
0

>  <SCORE.SYSTEM>
0

>  <SCORE.SYSTEM.CONST>
0

>  <SCORE.SYSTEM.DIHEDRAL>
0

>  <SCORE.SYSTEM.SOLV>
0

>  <SCORE.SYSTEM.norm>
0

>  <SCORE.heavy>
13

>  <SCORE.norm>
-1.25712

>  <RMSD>
4.822

$$$$
ligand
 OpenBabel02271912143D
libRbt.so/2013.1/901 2013/11/27
 13 14  0  0  0  0  0  0  0  0999 V2000
   -1.2773  -32.6945  -41.7698 N   0  0  0  0  0  0  0  0  0  0  0  0
   -0.4487  -32.2685  -42.7732 C   0  0  0  0  0  0  0  0  0  0  0  0
    0.7222  -31.6425  -42.4424 N   0  0  0  0  0  0  0  0  0  0  0  0
   -0.7607  -32.4533  -44.0563 N   0  0  0  0  0  0  0  0  0  0  0  0
   -1.9180  -33.0718  -44.4205 C   0  0  0  0  0  0  0  0  0  0  0  0
   -2.8056  -33.5247  -43.4199 C   0  0  0  0  0  0  0  0  0  0  0  0
   -2.4523  -33.3207  -42.0585 C   0  0  0  0  0  0  0  0  0  0  0  0
   -3.1782  -33.6944  -41.1706 O   0  0  0  0  0  0  0  0  0  0  0  0
   -3.9386  -34.1299  -44.1127 C   0  0  0  0  0  0  0  0  0  0  0  0
   -3.6886  -34.0232  -45.4298 C   0  0  0  0  0  0  0  0  0  0  0  0
   -2.4786  -33.3896  -45.6204 N   0  0  0  0  0  0  0  0  0  0  0  0
   -5.1559  -34.7465  -43.4725 C   0  0  0  0  0  0  0  0  0  0  0  0
   -5.8381  -35.6034  -44.4634 N   0  0  0  0  0  0  0  0  0  0  0  0
  1  2  1  0  0  0  0
  1  7  1  0  0  0  0
  2  3  1  0  0  0  0
  2  4  2  0  0  0  0
  4  5  1  0  0  0  0
  5  6  2  0  0  0  0
  5 11  1  0  0  0  0
  6  7  1  0  0  0  0
  6  9  1  0  0  0  0
  7  8  2  0  0  0  0
  9 10  2  0  0  0  0
  9 12  1  0  0  0  0
 10 11  1  0  0  0  0
 12 13  1  0  0  0  0
M  END
>  <CHROM.1>
-162.29948310,-2.56370299,-33.43381050,-43.43533990,0.31958374,0.51403924
1.55038669

>  <Name>
ligand

>  <RI>
0

>  <Rbt.Current_Directory>
/home/itssahil/PROJECTS/Mol_Feturizer/Test_systems_manuscript/rnas/3fu2

>  <Rbt.Executable>
rbdock ($Id: //depot/dev/client3/rdock/2013.1/src/exe/rbdock.cxx#4 $)

>  <Rbt.Library>
libRbt.so (2013.1, Build901 2013/11/27)

>  <Rbt.Parameter_File>
/export/apps/rDock/src/rDock_2013.1_src/data/scripts/dock_solv.prm

>  <Rbt.Receptor>
prm/blind_docking_60.prm

>  <SCORE>
-16.2669

>  <SCORE.INTER>
-16.0999

>  <SCORE.INTER.CONST>
1

>  <SCORE.INTER.POLAR>
0

>  <SCORE.INTER.ROT>
1

>  <SCORE.INTER.SOLV>
15.9985

>  <SCORE.INTER.VDW>
-20.3327

>  <SCORE.INTER.norm>
-1.23845

>  <SCORE.INTRA>
-0.166984

>  <SCORE.INTRA.DIHEDRAL>
-0.000925859

>  <SCORE.INTRA.DIHEDRAL.0>
1.66609

>  <SCORE.INTRA.POLAR>
0

>  <SCORE.INTRA.POLAR.0>
0

>  <SCORE.INTRA.REPUL>
0

>  <SCORE.INTRA.REPUL.0>
0

>  <SCORE.INTRA.SOLV>
-0.981954

>  <SCORE.INTRA.SOLV.lig_0>
-45.868

>  <SCORE.INTRA.VDW>
0.324456

>  <SCORE.INTRA.VDW.0>
-0.397919

>  <SCORE.INTRA.norm>
-0.012845

>  <SCORE.RESTR>
0

>  <SCORE.RESTR.CAVITY>
0

>  <SCORE.RESTR.norm>
0

>  <SCORE.SYSTEM>
0

>  <SCORE.SYSTEM.CONST>
0

>  <SCORE.SYSTEM.DIHEDRAL>
0

>  <SCORE.SYSTEM.SOLV>
0

>  <SCORE.SYSTEM.norm>
0

>  <SCORE.heavy>
13

>  <SCORE.norm>
-1.2513

>  <RMSD>
4.822

$$$$
ligand
 OpenBabel02271912143D
libRbt.so/2013.1/901 2013/11/27
 13 14  0  0  0  0  0  0  0  0999 V2000
   -1.2793  -32.6837  -41.7647 N   0  0  0  0  0  0  0  0  0  0  0  0
   -0.4580  -32.2576  -42.7739 C   0  0  0  0  0  0  0  0  0  0  0  0
    0.7133  -31.6279  -42.4515 N   0  0  0  0  0  0  0  0  0  0  0  0
   -0.7772  -32.4457  -44.0547 N   0  0  0  0  0  0  0  0  0  0  0  0
   -1.9351  -33.0678  -44.4107 C   0  0  0  0  0  0  0  0  0  0  0  0
   -2.8155  -33.5212  -43.4038 C   0  0  0  0  0  0  0  0  0  0  0  0
   -2.4544  -33.3136  -42.0450 C   0  0  0  0  0  0  0  0  0  0  0  0
   -3.1739  -33.6874  -41.1521 O   0  0  0  0  0  0  0  0  0  0  0  0
   -3.9511  -34.1306  -44.0886 C   0  0  0  0  0  0  0  0  0  0  0  0
   -3.7094  -34.0258  -45.4074 C   0  0  0  0  0  0  0  0  0  0  0  0
   -2.5022  -33.3895  -45.6065 N   0  0  0  0  0  0  0  0  0  0  0  0
   -5.1628  -34.7491  -43.4398 C   0  0  0  0  0  0  0  0  0  0  0  0
   -5.7877  -35.6922  -44.3893 N   0  0  0  0  0  0  0  0  0  0  0  0
  1  2  1  0  0  0  0
  1  7  1  0  0  0  0
  2  3  1  0  0  0  0
  2  4  2  0  0  0  0
  4  5  1  0  0  0  0
  5  6  2  0  0  0  0
  5 11  1  0  0  0  0
  6  7  1  0  0  0  0
  6  9  1  0  0  0  0
  7  8  2  0  0  0  0
  9 10  2  0  0  0  0
  9 12  1  0  0  0  0
 10 11  1  0  0  0  0
 12 13  1  0  0  0  0
M  END
>  <CHROM.1>
-157.83646346,-2.56891828,-33.43634349,-43.41804865,0.31010731,0.52406984
1.55112509

>  <Name>
ligand

>  <RI>
0

>  <Rbt.Current_Directory>
/home/itssahil/PROJECTS/Mol_Feturizer/Test_systems_manuscript/rnas/3fu2

>  <Rbt.Executable>
rbdock ($Id: //depot/dev/client3/rdock/2013.1/src/exe/rbdock.cxx#4 $)

>  <Rbt.Library>
libRbt.so (2013.1, Build901 2013/11/27)

>  <Rbt.Parameter_File>
/export/apps/rDock/src/rDock_2013.1_src/data/scripts/dock_solv.prm

>  <Rbt.Receptor>
prm/blind_docking_60.prm

>  <SCORE>
-16.2741

>  <SCORE.INTER>
-16.0876

>  <SCORE.INTER.CONST>
1

>  <SCORE.INTER.POLAR>
0

>  <SCORE.INTER.ROT>
1

>  <SCORE.INTER.SOLV>
16.0199

>  <SCORE.INTER.VDW>
-20.3317

>  <SCORE.INTER.norm>
-1.2375

>  <SCORE.INTRA>
-0.18657

>  <SCORE.INTRA.DIHEDRAL>
-0.00304357

>  <SCORE.INTRA.DIHEDRAL.0>
1.66609

>  <SCORE.INTRA.POLAR>
0

>  <SCORE.INTRA.POLAR.0>
0

>  <SCORE.INTRA.REPUL>
0

>  <SCORE.INTRA.REPUL.0>
0

>  <SCORE.INTRA.SOLV>
-0.98334

>  <SCORE.INTRA.SOLV.lig_0>
-45.868

>  <SCORE.INTRA.VDW>
0.306622

>  <SCORE.INTRA.VDW.0>
-0.397919

>  <SCORE.INTRA.norm>
-0.0143516

>  <SCORE.RESTR>
0

>  <SCORE.RESTR.CAVITY>
0

>  <SCORE.RESTR.norm>
0

>  <SCORE.SYSTEM>
0

>  <SCORE.SYSTEM.CONST>
0

>  <SCORE.SYSTEM.DIHEDRAL>
0

>  <SCORE.SYSTEM.SOLV>
0

>  <SCORE.SYSTEM.norm>
0

>  <SCORE.heavy>
13

>  <SCORE.norm>
-1.25186

>  <RMSD>
4.822

$$$$
ligand
 OpenBabel02271912143D
libRbt.so/2013.1/901 2013/11/27
 13 14  0  0  0  0  0  0  0  0999 V2000
   -1.2816  -32.6882  -41.7671 N   0  0  0  0  0  0  0  0  0  0  0  0
   -0.4667  -32.2505  -42.7766 C   0  0  0  0  0  0  0  0  0  0  0  0
    0.7026  -31.6172  -42.4545 N   0  0  0  0  0  0  0  0  0  0  0  0
   -0.7904  -32.4309  -44.0574 N   0  0  0  0  0  0  0  0  0  0  0  0
   -1.9466  -33.0564  -44.4131 C   0  0  0  0  0  0  0  0  0  0  0  0
   -2.8203  -33.5216  -43.4059 C   0  0  0  0  0  0  0  0  0  0  0  0
   -2.4546  -33.3220  -42.0471 C   0  0  0  0  0  0  0  0  0  0  0  0
   -3.1685  -33.7060  -41.1540 O   0  0  0  0  0  0  0  0  0  0  0  0
   -3.9557  -34.1319  -44.0904 C   0  0  0  0  0  0  0  0  0  0  0  0
   -3.7200  -34.0162  -45.4094 C   0  0  0  0  0  0  0  0  0  0  0  0
   -2.5170  -33.3722  -45.6089 N   0  0  0  0  0  0  0  0  0  0  0  0
   -5.1615  -34.7613  -43.4411 C   0  0  0  0  0  0  0  0  0  0  0  0
   -5.8221  -35.6525  -44.4163 N   0  0  0  0  0  0  0  0  0  0  0  0
  1  2  1  0  0  0  0
  1  7  1  0  0  0  0
  2  3  1  0  0  0  0
  2  4  2  0  0  0  0
  4  5  1  0  0  0  0
  5  6  2  0  0  0  0
  5 11  1  0  0  0  0
  6  7  1  0  0  0  0
  6  9  1  0  0  0  0
  7  8  2  0  0  0  0
  9 10  2  0  0  0  0
  9 12  1  0  0  0  0
 10 11  1  0  0  0  0
 12 13  1  0  0  0  0
M  END
>  <CHROM.1>
-160.47285800,-2.57726088,-33.43147025,-43.42230110,0.30697626,0.52495841
1.56117698

>  <Name>
ligand

>  <RI>
0

>  <Rbt.Current_Directory>
/home/itssahil/PROJECTS/Mol_Feturizer/Test_systems_manuscript/rnas/3fu2

>  <Rbt.Executable>
rbdock ($Id: //depot/dev/client3/rdock/2013.1/src/exe/rbdock.cxx#4 $)

>  <Rbt.Library>
libRbt.so (2013.1, Build901 2013/11/27)

>  <Rbt.Parameter_File>
/export/apps/rDock/src/rDock_2013.1_src/data/scripts/dock_solv.prm

>  <Rbt.Receptor>
prm/blind_docking_80.prm

>  <SCORE>
-16.3585

>  <SCORE.INTER>
-16.1837

>  <SCORE.INTER.CONST>
1

>  <SCORE.INTER.POLAR>
0

>  <SCORE.INTER.ROT>
1

>  <SCORE.INTER.SOLV>
15.9932

>  <SCORE.INTER.VDW>
-20.3869

>  <SCORE.INTER.norm>
-1.2449

>  <SCORE.INTRA>
-0.17477

>  <SCORE.INTRA.DIHEDRAL>
-0.0018977

>  <SCORE.INTRA.DIHEDRAL.0>
1.66609

>  <SCORE.INTRA.POLAR>
0

>  <SCORE.INTRA.POLAR.0>
0

>  <SCORE.INTRA.REPUL>
0

>  <SCORE.INTRA.REPUL.0>
0

>  <SCORE.INTRA.SOLV>
-0.982497

>  <SCORE.INTRA.SOLV.lig_0>
-45.868

>  <SCORE.INTRA.VDW>
0.317427

>  <SCORE.INTRA.VDW.0>
-0.397919

>  <SCORE.INTRA.norm>
-0.0134439

>  <SCORE.RESTR>
0

>  <SCORE.RESTR.CAVITY>
0

>  <SCORE.RESTR.norm>
0

>  <SCORE.SYSTEM>
0

>  <SCORE.SYSTEM.CONST>
0

>  <SCORE.SYSTEM.DIHEDRAL>
0

>  <SCORE.SYSTEM.SOLV>
0

>  <SCORE.SYSTEM.norm>
0

>  <SCORE.heavy>
13

>  <SCORE.norm>
-1.25834

>  <RMSD>
4.822

$$$$
ligand
 OpenBabel02271912143D
libRbt.so/2013.1/901 2013/11/27
 13 14  0  0  0  0  0  0  0  0999 V2000
   -1.2812  -32.6851  -41.7692 N   0  0  0  0  0  0  0  0  0  0  0  0
   -0.4652  -32.2497  -42.7788 C   0  0  0  0  0  0  0  0  0  0  0  0
    0.7038  -31.6158  -42.4569 N   0  0  0  0  0  0  0  0  0  0  0  0
   -0.7875  -32.4330  -44.0596 N   0  0  0  0  0  0  0  0  0  0  0  0
   -1.9434  -33.0593  -44.4150 C   0  0  0  0  0  0  0  0  0  0  0  0
   -2.8183  -33.5221  -43.4077 C   0  0  0  0  0  0  0  0  0  0  0  0
   -2.4540  -33.3194  -42.0490 C   0  0  0  0  0  0  0  0  0  0  0  0
   -3.1688  -33.7013  -41.1557 O   0  0  0  0  0  0  0  0  0  0  0  0
   -3.9530  -34.1338  -44.0920 C   0  0  0  0  0  0  0  0  0  0  0  0
   -3.7159  -34.0212  -45.4110 C   0  0  0  0  0  0  0  0  0  0  0  0
   -2.5126  -33.3778  -45.6107 N   0  0  0  0  0  0  0  0  0  0  0  0
   -5.1595  -34.7617  -43.4425 C   0  0  0  0  0  0  0  0  0  0  0  0
   -5.8204  -35.6534  -44.4170 N   0  0  0  0  0  0  0  0  0  0  0  0
  1  2  1  0  0  0  0
  1  7  1  0  0  0  0
  2  3  1  0  0  0  0
  2  4  2  0  0  0  0
  4  5  1  0  0  0  0
  5  6  2  0  0  0  0
  5 11  1  0  0  0  0
  6  7  1  0  0  0  0
  6  9  1  0  0  0  0
  7  8  2  0  0  0  0
  9 10  2  0  0  0  0
  9 12  1  0  0  0  0
 10 11  1  0  0  0  0
 12 13  1  0  0  0  0
M  END
>  <CHROM.1>
-160.56137182,-2.57527892,-33.43188973,-43.42408393,0.30823572,0.52472419
1.55828185

>  <Name>
ligand

>  <RI>
0

>  <Rbt.Current_Directory>
/home/itssahil/PROJECTS/Mol_Feturizer/Test_systems_manuscript/rnas/3fu2

>  <Rbt.Executable>
rbdock ($Id: //depot/dev/client3/rdock/2013.1/src/exe/rbdock.cxx#4 $)

>  <Rbt.Library>
libRbt.so (2013.1, Build901 2013/11/27)

>  <Rbt.Parameter_File>
/export/apps/rDock/src/rDock_2013.1_src/data/scripts/dock_solv.prm

>  <Rbt.Receptor>
prm/blind_docking_80.prm

>  <SCORE>
-16.3604

>  <SCORE.INTER>
-16.186

>  <SCORE.INTER.CONST>
1

>  <SCORE.INTER.POLAR>
0

>  <SCORE.INTER.ROT>
1

>  <SCORE.INTER.SOLV>
16.0005

>  <SCORE.INTER.VDW>
-20.3908

>  <SCORE.INTER.norm>
-1.24508

>  <SCORE.INTRA>
-0.174385

>  <SCORE.INTRA.DIHEDRAL>
-0.00185387

>  <SCORE.INTRA.DIHEDRAL.0>
1.66609

>  <SCORE.INTRA.POLAR>
0

>  <SCORE.INTRA.POLAR.0>
0

>  <SCORE.INTRA.REPUL>
0

>  <SCORE.INTRA.REPUL.0>
0

>  <SCORE.INTRA.SOLV>
-0.98247

>  <SCORE.INTRA.SOLV.lig_0>
-45.868

>  <SCORE.INTRA.VDW>
0.317777

>  <SCORE.INTRA.VDW.0>
-0.397919

>  <SCORE.INTRA.norm>
-0.0134142

>  <SCORE.RESTR>
0

>  <SCORE.RESTR.CAVITY>
0

>  <SCORE.RESTR.norm>
0

>  <SCORE.SYSTEM>
0

>  <SCORE.SYSTEM.CONST>
0

>  <SCORE.SYSTEM.DIHEDRAL>
0

>  <SCORE.SYSTEM.SOLV>
0

>  <SCORE.SYSTEM.norm>
0

>  <SCORE.heavy>
13

>  <SCORE.norm>
-1.25849

>  <RMSD>
4.822

$$$$
ligand
 OpenBabel02271912143D
libRbt.so/2013.1/901 2013/11/27
 13 14  0  0  0  0  0  0  0  0999 V2000
   -1.2833  -32.6690  -41.7687 N   0  0  0  0  0  0  0  0  0  0  0  0
   -0.4688  -32.2342  -42.7798 C   0  0  0  0  0  0  0  0  0  0  0  0
    0.6977  -31.5945  -42.4599 N   0  0  0  0  0  0  0  0  0  0  0  0
   -0.7901  -32.4234  -44.0599 N   0  0  0  0  0  0  0  0  0  0  0  0
   -1.9434  -33.0554  -44.4134 C   0  0  0  0  0  0  0  0  0  0  0  0
   -2.8167  -33.5180  -43.4046 C   0  0  0  0  0  0  0  0  0  0  0  0
   -2.4535  -33.3090  -42.0465 C   0  0  0  0  0  0  0  0  0  0  0  0
   -3.1671  -33.6904  -41.1520 O   0  0  0  0  0  0  0  0  0  0  0  0
   -3.9488  -34.1366  -44.0869 C   0  0  0  0  0  0  0  0  0  0  0  0
   -3.7119  -34.0279  -45.4062 C   0  0  0  0  0  0  0  0  0  0  0  0
   -2.5111  -33.3805  -45.6080 N   0  0  0  0  0  0  0  0  0  0  0  0
   -5.1531  -34.7668  -43.4354 C   0  0  0  0  0  0  0  0  0  0  0  0
   -5.8249  -35.6449  -44.4147 N   0  0  0  0  0  0  0  0  0  0  0  0
  1  2  1  0  0  0  0
  1  7  1  0  0  0  0
  2  3  1  0  0  0  0
  2  4  2  0  0  0  0
  4  5  1  0  0  0  0
  5  6  2  0  0  0  0
  5 11  1  0  0  0  0
  6  7  1  0  0  0  0
  6  9  1  0  0  0  0
  7  8  2  0  0  0  0
  9 10  2  0  0  0  0
  9 12  1  0  0  0  0
 10 11  1  0  0  0  0
 12 13  1  0  0  0  0
M  END
>  <CHROM.1>
-161.61964207,-2.57524861,-33.42528537,-43.42186532,0.30913859,0.52687204
1.55466270

>  <Name>
ligand

>  <RI>
0

>  <Rbt.Current_Directory>
/home/itssahil/PROJECTS/Mol_Feturizer/Test_systems_manuscript/rnas/3fu2

>  <Rbt.Executable>
rbdock ($Id: //depot/dev/client3/rdock/2013.1/src/exe/rbdock.cxx#4 $)

>  <Rbt.Library>
libRbt.so (2013.1, Build901 2013/11/27)

>  <Rbt.Parameter_File>
/export/apps/rDock/src/rDock_2013.1_src/data/scripts/dock_solv.prm

>  <Rbt.Receptor>
prm/blind_docking_80.prm

>  <SCORE>
-16.3346

>  <SCORE.INTER>
-16.1648

>  <SCORE.INTER.CONST>
1

>  <SCORE.INTER.POLAR>
0

>  <SCORE.INTER.ROT>
1

>  <SCORE.INTER.SOLV>
16.0112

>  <SCORE.INTER.VDW>
-20.3803

>  <SCORE.INTER.norm>
-1.24345

>  <SCORE.INTRA>
-0.169839

>  <SCORE.INTRA.DIHEDRAL>
-0.00130391

>  <SCORE.INTRA.DIHEDRAL.0>
1.66609

>  <SCORE.INTRA.POLAR>
0

>  <SCORE.INTRA.POLAR.0>
0

>  <SCORE.INTRA.REPUL>
0

>  <SCORE.INTRA.REPUL.0>
0

>  <SCORE.INTRA.SOLV>
-0.982152

>  <SCORE.INTRA.SOLV.lig_0>
-45.868

>  <SCORE.INTRA.VDW>
0.321889

>  <SCORE.INTRA.VDW.0>
-0.397919

>  <SCORE.INTRA.norm>
-0.0130646

>  <SCORE.RESTR>
0

>  <SCORE.RESTR.CAVITY>
0

>  <SCORE.RESTR.norm>
0

>  <SCORE.SYSTEM>
0

>  <SCORE.SYSTEM.CONST>
0

>  <SCORE.SYSTEM.DIHEDRAL>
0

>  <SCORE.SYSTEM.SOLV>
0

>  <SCORE.SYSTEM.norm>
0

>  <SCORE.heavy>
13

>  <SCORE.norm>
-1.25651

>  <RMSD>
4.822

$$$$
ligand
 OpenBabel02271912143D
libRbt.so/2013.1/901 2013/11/27
 13 14  0  0  0  0  0  0  0  0999 V2000
   -1.2872  -32.6588  -41.7686 N   0  0  0  0  0  0  0  0  0  0  0  0
   -0.4749  -32.2205  -42.7799 C   0  0  0  0  0  0  0  0  0  0  0  0
    0.6886  -31.5751  -42.4605 N   0  0  0  0  0  0  0  0  0  0  0  0
   -0.7955  -32.4119  -44.0599 N   0  0  0  0  0  0  0  0  0  0  0  0
   -1.9458  -33.0496  -44.4129 C   0  0  0  0  0  0  0  0  0  0  0  0
   -2.8167  -33.5159  -43.4038 C   0  0  0  0  0  0  0  0  0  0  0  0
   -2.4543  -33.3045  -42.0459 C   0  0  0  0  0  0  0  0  0  0  0  0
   -3.1659  -33.6890  -41.1511 O   0  0  0  0  0  0  0  0  0  0  0  0
   -3.9460  -34.1403  -44.0856 C   0  0  0  0  0  0  0  0  0  0  0  0
   -3.7097  -34.0310  -45.4050 C   0  0  0  0  0  0  0  0  0  0  0  0
   -2.5121  -33.3780  -45.6073 N   0  0  0  0  0  0  0  0  0  0  0  0
   -5.1471  -34.7759  -43.4337 C   0  0  0  0  0  0  0  0  0  0  0  0
   -5.8254  -35.6434  -44.4180 N   0  0  0  0  0  0  0  0  0  0  0  0
  1  2  1  0  0  0  0
  1  7  1  0  0  0  0
  2  3  1  0  0  0  0
  2  4  2  0  0  0  0
  4  5  1  0  0  0  0
  5  6  2  0  0  0  0
  5 11  1  0  0  0  0
  6  7  1  0  0  0  0
  6  9  1  0  0  0  0
  7  8  2  0  0  0  0
  9 10  2  0  0  0  0
  9 12  1  0  0  0  0
 10 11  1  0  0  0  0
 12 13  1  0  0  0  0
M  END
>  <CHROM.1>
-162.38597802,-2.57657397,-33.42088393,-43.42158755,0.30943293,0.53041597
1.55440318

>  <Name>
ligand

>  <RI>
0

>  <Rbt.Current_Directory>
/home/itssahil/PROJECTS/Mol_Feturizer/Test_systems_manuscript/rnas/3fu2

>  <Rbt.Executable>
rbdock ($Id: //depot/dev/client3/rdock/2013.1/src/exe/rbdock.cxx#4 $)

>  <Rbt.Library>
libRbt.so (2013.1, Build901 2013/11/27)

>  <Rbt.Parameter_File>
/export/apps/rDock/src/rDock_2013.1_src/data/scripts/dock_solv.prm

>  <Rbt.Receptor>
prm/blind_docking_80.prm

>  <SCORE>
-16.3401

>  <SCORE.INTER>
-16.1735

>  <SCORE.INTER.CONST>
1

>  <SCORE.INTER.POLAR>
0

>  <SCORE.INTER.ROT>
1

>  <SCORE.INTER.SOLV>
16.0153

>  <SCORE.INTER.VDW>
-20.3874

>  <SCORE.INTER.norm>
-1.24412

>  <SCORE.INTRA>
-0.166625

>  <SCORE.INTRA.DIHEDRAL>
-0.000876402

>  <SCORE.INTRA.DIHEDRAL.0>
1.66609

>  <SCORE.INTRA.POLAR>
0

>  <SCORE.INTRA.POLAR.0>
0

>  <SCORE.INTRA.REPUL>
0

>  <SCORE.INTRA.REPUL.0>
0

>  <SCORE.INTRA.SOLV>
-0.981929

>  <SCORE.INTRA.SOLV.lig_0>
-45.868

>  <SCORE.INTRA.VDW>
0.324778

>  <SCORE.INTRA.VDW.0>
-0.397919

>  <SCORE.INTRA.norm>
-0.0128173

>  <SCORE.RESTR>
0

>  <SCORE.RESTR.CAVITY>
0

>  <SCORE.RESTR.norm>
0

>  <SCORE.SYSTEM>
0

>  <SCORE.SYSTEM.CONST>
0

>  <SCORE.SYSTEM.DIHEDRAL>
0

>  <SCORE.SYSTEM.SOLV>
0

>  <SCORE.SYSTEM.norm>
0

>  <SCORE.heavy>
13

>  <SCORE.norm>
-1.25693

>  <RMSD>
4.822

$$$$
ligand
 OpenBabel02271912143D
libRbt.so/2013.1/901 2013/11/27
 13 14  0  0  0  0  0  0  0  0999 V2000
   -1.2855  -32.6565  -41.7695 N   0  0  0  0  0  0  0  0  0  0  0  0
   -0.4739  -32.2176  -42.7811 C   0  0  0  0  0  0  0  0  0  0  0  0
    0.6889  -31.5708  -42.4622 N   0  0  0  0  0  0  0  0  0  0  0  0
   -0.7946  -32.4098  -44.0610 N   0  0  0  0  0  0  0  0  0  0  0  0
   -1.9443  -33.0489  -44.4135 C   0  0  0  0  0  0  0  0  0  0  0  0
   -2.8144  -33.5158  -43.4041 C   0  0  0  0  0  0  0  0  0  0  0  0
   -2.4520  -33.3036  -42.0463 C   0  0  0  0  0  0  0  0  0  0  0  0
   -3.1630  -33.6885  -41.1512 O   0  0  0  0  0  0  0  0  0  0  0  0
   -3.9431  -34.1417  -44.0855 C   0  0  0  0  0  0  0  0  0  0  0  0
   -3.7073  -34.0326  -45.4050 C   0  0  0  0  0  0  0  0  0  0  0  0
   -2.5104  -33.3783  -45.6077 N   0  0  0  0  0  0  0  0  0  0  0  0
   -5.1434  -34.7785  -43.4331 C   0  0  0  0  0  0  0  0  0  0  0  0
   -5.8284  -35.6368  -44.4208 N   0  0  0  0  0  0  0  0  0  0  0  0
  1  2  1  0  0  0  0
  1  7  1  0  0  0  0
  2  3  1  0  0  0  0
  2  4  2  0  0  0  0
  4  5  1  0  0  0  0
  5  6  2  0  0  0  0
  5 11  1  0  0  0  0
  6  7  1  0  0  0  0
  6  9  1  0  0  0  0
  7  8  2  0  0  0  0
  9 10  2  0  0  0  0
  9 12  1  0  0  0  0
 10 11  1  0  0  0  0
 12 13  1  0  0  0  0
M  END
>  <CHROM.1>
-162.92816280,-2.57501963,-33.41972538,-43.42227808,0.30946895,0.53063037
1.55428835

>  <Name>
ligand

>  <RI>
0

>  <Rbt.Current_Directory>
/home/itssahil/PROJECTS/Mol_Feturizer/Test_systems_manuscript/rnas/3fu2

>  <Rbt.Executable>
rbdock ($Id: //depot/dev/client3/rdock/2013.1/src/exe/rbdock.cxx#4 $)

>  <Rbt.Library>
libRbt.so (2013.1, Build901 2013/11/27)

>  <Rbt.Parameter_File>
/export/apps/rDock/src/rDock_2013.1_src/data/scripts/dock_solv.prm

>  <Rbt.Receptor>
prm/pocket_docking_3.prm

>  <SCORE>
-16.3425

>  <SCORE.INTER>
-16.1782

>  <SCORE.INTER.CONST>
1

>  <SCORE.INTER.POLAR>
0

>  <SCORE.INTER.ROT>
1

>  <SCORE.INTER.SOLV>
16.0151

>  <SCORE.INTER.VDW>
-20.3905

>  <SCORE.INTER.norm>
-1.24447

>  <SCORE.INTRA>
-0.164394

>  <SCORE.INTRA.DIHEDRAL>
-0.00055952

>  <SCORE.INTRA.DIHEDRAL.0>
1.66609

>  <SCORE.INTRA.POLAR>
0

>  <SCORE.INTRA.POLAR.0>
0

>  <SCORE.INTRA.REPUL>
0

>  <SCORE.INTRA.REPUL.0>
0

>  <SCORE.INTRA.SOLV>
-0.981776

>  <SCORE.INTRA.SOLV.lig_0>
-45.868

>  <SCORE.INTRA.VDW>
0.326774

>  <SCORE.INTRA.VDW.0>
-0.397919

>  <SCORE.INTRA.norm>
-0.0126457

>  <SCORE.RESTR>
0

>  <SCORE.RESTR.CAVITY>
0

>  <SCORE.RESTR.norm>
0

>  <SCORE.SYSTEM>
0

>  <SCORE.SYSTEM.CONST>
0

>  <SCORE.SYSTEM.DIHEDRAL>
0

>  <SCORE.SYSTEM.SOLV>
0

>  <SCORE.SYSTEM.norm>
0

>  <SCORE.heavy>
13

>  <SCORE.norm>
-1.25712

>  <RMSD>
4.822

$$$$
ligand
 OpenBabel02271912143D
libRbt.so/2013.1/901 2013/11/27
 13 14  0  0  0  0  0  0  0  0999 V2000
   -1.2846  -32.6973  -41.7601 N   0  0  0  0  0  0  0  0  0  0  0  0
   -0.4680  -32.2537  -42.7658 C   0  0  0  0  0  0  0  0  0  0  0  0
    0.6998  -31.6204  -42.4381 N   0  0  0  0  0  0  0  0  0  0  0  0
   -0.7886  -32.4285  -44.0482 N   0  0  0  0  0  0  0  0  0  0  0  0
   -1.9432  -33.0538  -44.4093 C   0  0  0  0  0  0  0  0  0  0  0  0
   -2.8186  -33.5249  -43.4063 C   0  0  0  0  0  0  0  0  0  0  0  0
   -2.4561  -33.3313  -42.0458 C   0  0  0  0  0  0  0  0  0  0  0  0
   -3.1715  -33.7204  -41.1560 O   0  0  0  0  0  0  0  0  0  0  0  0
   -3.9516  -34.1334  -44.0962 C   0  0  0  0  0  0  0  0  0  0  0  0
   -3.7132  -34.0112  -45.4140 C   0  0  0  0  0  0  0  0  0  0  0  0
   -2.5106  -33.3647  -45.6079 N   0  0  0  0  0  0  0  0  0  0  0  0
   -5.1580  -34.7674  -43.4525 C   0  0  0  0  0  0  0  0  0  0  0  0
   -5.8034  -35.6708  -44.4267 N   0  0  0  0  0  0  0  0  0  0  0  0
  1  2  1  0  0  0  0
  1  7  1  0  0  0  0
  2  3  1  0  0  0  0
  2  4  2  0  0  0  0
  4  5  1  0  0  0  0
  5  6  2  0  0  0  0
  5 11  1  0  0  0  0
  6  7  1  0  0  0  0
  6  9  1  0  0  0  0
  7  8  2  0  0  0  0
  9 10  2  0  0  0  0
  9 12  1  0  0  0  0
 10 11  1  0  0  0  0
 12 13  1  0  0  0  0
M  END
>  <CHROM.1>
-159.61242655,-2.57461839,-33.43567441,-43.42116536,0.30905062,0.52765495
1.56447179

>  <Name>
ligand

>  <RI>
0

>  <Rbt.Current_Directory>
/home/itssahil/PROJECTS/Mol_Feturizer/Test_systems_manuscript/rnas/3fu2

>  <Rbt.Executable>
rbdock ($Id: //depot/dev/client3/rdock/2013.1/src/exe/rbdock.cxx#4 $)

>  <Rbt.Library>
libRbt.so (2013.1, Build901 2013/11/27)

>  <Rbt.Parameter_File>
/export/apps/rDock/src/rDock_2013.1_src/data/scripts/dock_solv.prm

>  <Rbt.Receptor>
prm/pocket_docking_3.prm

>  <SCORE>
-16.3186

>  <SCORE.INTER>
-16.1401

>  <SCORE.INTER.CONST>
1

>  <SCORE.INTER.POLAR>
0

>  <SCORE.INTER.ROT>
1

>  <SCORE.INTER.SOLV>
15.9889

>  <SCORE.INTER.VDW>
-20.3564

>  <SCORE.INTER.norm>
-1.24155

>  <SCORE.INTRA>
-0.178556

>  <SCORE.INTRA.DIHEDRAL>
-0.00230591

>  <SCORE.INTRA.DIHEDRAL.0>
1.66609

>  <SCORE.INTRA.POLAR>
0

>  <SCORE.INTRA.POLAR.0>
0

>  <SCORE.INTRA.REPUL>
0

>  <SCORE.INTRA.REPUL.0>
0

>  <SCORE.INTRA.SOLV>
-0.982764

>  <SCORE.INTRA.SOLV.lig_0>
-45.868

>  <SCORE.INTRA.VDW>
0.313979

>  <SCORE.INTRA.VDW.0>
-0.397919

>  <SCORE.INTRA.norm>
-0.0137351

>  <SCORE.RESTR>
0

>  <SCORE.RESTR.CAVITY>
0

>  <SCORE.RESTR.norm>
0

>  <SCORE.SYSTEM>
0

>  <SCORE.SYSTEM.CONST>
0

>  <SCORE.SYSTEM.DIHEDRAL>
0

>  <SCORE.SYSTEM.SOLV>
0

>  <SCORE.SYSTEM.norm>
0

>  <SCORE.heavy>
13

>  <SCORE.norm>
-1.25528

>  <RMSD>
4.822

$$$$
ligand
 OpenBabel02271912143D
libRbt.so/2013.1/901 2013/11/27
 13 14  0  0  0  0  0  0  0  0999 V2000
   -1.2840  -32.6602  -41.7692 N   0  0  0  0  0  0  0  0  0  0  0  0
   -0.4686  -32.2271  -42.7802 C   0  0  0  0  0  0  0  0  0  0  0  0
    0.6963  -31.5844  -42.4604 N   0  0  0  0  0  0  0  0  0  0  0  0
   -0.7874  -32.4207  -44.0603 N   0  0  0  0  0  0  0  0  0  0  0  0
   -1.9391  -33.0558  -44.4137 C   0  0  0  0  0  0  0  0  0  0  0  0
   -2.8133  -33.5167  -43.4050 C   0  0  0  0  0  0  0  0  0  0  0  0
   -2.4527  -33.3030  -42.0469 C   0  0  0  0  0  0  0  0  0  0  0  0
   -3.1671  -33.6830  -41.1524 O   0  0  0  0  0  0  0  0  0  0  0  0
   -3.9432  -34.1394  -44.0872 C   0  0  0  0  0  0  0  0  0  0  0  0
   -3.7043  -34.0342  -45.4065 C   0  0  0  0  0  0  0  0  0  0  0  0
   -2.5042  -33.3854  -45.6083 N   0  0  0  0  0  0  0  0  0  0  0  0
   -5.1475  -34.7696  -43.4358 C   0  0  0  0  0  0  0  0  0  0  0  0
   -5.8422  -35.6160  -44.4271 N   0  0  0  0  0  0  0  0  0  0  0  0
  1  2  1  0  0  0  0
  1  7  1  0  0  0  0
  2  3  1  0  0  0  0
  2  4  2  0  0  0  0
  4  5  1  0  0  0  0
  5  6  2  0  0  0  0
  5 11  1  0  0  0  0
  6  7  1  0  0  0  0
  6  9  1  0  0  0  0
  7  8  2  0  0  0  0
  9 10  2  0  0  0  0
  9 12  1  0  0  0  0
 10 11  1  0  0  0  0
 12 13  1  0  0  0  0
M  END
>  <CHROM.1>
-163.52094244,-2.57407565,-33.42078654,-43.42321571,0.31197155,0.52539290
1.55106808

>  <Name>
ligand

>  <RI>
0

>  <Rbt.Current_Directory>
/home/itssahil/PROJECTS/Mol_Feturizer/Test_systems_manuscript/rnas/3fu2

>  <Rbt.Executable>
rbdock ($Id: //depot/dev/client3/rdock/2013.1/src/exe/rbdock.cxx#4 $)

>  <Rbt.Library>
libRbt.so (2013.1, Build901 2013/11/27)

>  <Rbt.Parameter_File>
/export/apps/rDock/src/rDock_2013.1_src/data/scripts/dock_solv.prm

>  <Rbt.Receptor>
prm/pocket_docking_3.prm

>  <SCORE>
-16.3327

>  <SCORE.INTER>
-16.1707

>  <SCORE.INTER.CONST>
1

>  <SCORE.INTER.POLAR>
0

>  <SCORE.INTER.ROT>
1

>  <SCORE.INTER.SOLV>
16.0224

>  <SCORE.INTER.VDW>
-20.3879

>  <SCORE.INTER.norm>
-1.2439

>  <SCORE.INTRA>
-0.161997

>  <SCORE.INTRA.DIHEDRAL>
-0.000199734

>  <SCORE.INTRA.DIHEDRAL.0>
1.66609

>  <SCORE.INTRA.POLAR>
0

>  <SCORE.INTRA.POLAR.0>
0

>  <SCORE.INTRA.REPUL>
0

>  <SCORE.INTRA.REPUL.0>
0

>  <SCORE.INTRA.SOLV>
-0.981612

>  <SCORE.INTRA.SOLV.lig_0>
-45.868

>  <SCORE.INTRA.VDW>
0.328909

>  <SCORE.INTRA.VDW.0>
-0.397919

>  <SCORE.INTRA.norm>
-0.0124613

>  <SCORE.RESTR>
0

>  <SCORE.RESTR.CAVITY>
0

>  <SCORE.RESTR.norm>
0

>  <SCORE.SYSTEM>
0

>  <SCORE.SYSTEM.CONST>
0

>  <SCORE.SYSTEM.DIHEDRAL>
0

>  <SCORE.SYSTEM.SOLV>
0

>  <SCORE.SYSTEM.norm>
0

>  <SCORE.heavy>
13

>  <SCORE.norm>
-1.25636

>  <RMSD>
4.822

$$$$
ligand
 OpenBabel02271912143D
libRbt.so/2013.1/901 2013/11/27
 13 14  0  0  0  0  0  0  0  0999 V2000
   -1.2873  -32.6540  -41.7717 N   0  0  0  0  0  0  0  0  0  0  0  0
   -0.4798  -32.2096  -42.7843 C   0  0  0  0  0  0  0  0  0  0  0  0
    0.6811  -31.5587  -42.4667 N   0  0  0  0  0  0  0  0  0  0  0  0
   -0.8026  -32.4004  -44.0639 N   0  0  0  0  0  0  0  0  0  0  0  0
   -1.9505  -33.0434  -44.4151 C   0  0  0  0  0  0  0  0  0  0  0  0
   -2.8164  -33.5161  -43.4047 C   0  0  0  0  0  0  0  0  0  0  0  0
   -2.4517  -33.3052  -42.0473 C   0  0  0  0  0  0  0  0  0  0  0  0
   -3.1590  -33.6950  -41.1514 O   0  0  0  0  0  0  0  0  0  0  0  0
   -3.9441  -34.1451  -44.0848 C   0  0  0  0  0  0  0  0  0  0  0  0
   -3.7118  -34.0322  -45.4046 C   0  0  0  0  0  0  0  0  0  0  0  0
   -2.5180  -33.3726  -45.6087 N   0  0  0  0  0  0  0  0  0  0  0  0
   -5.1402  -34.7882  -43.4310 C   0  0  0  0  0  0  0  0  0  0  0  0
   -5.8235  -35.6479  -44.4187 N   0  0  0  0  0  0  0  0  0  0  0  0
  1  2  1  0  0  0  0
  1  7  1  0  0  0  0
  2  3  1  0  0  0  0
  2  4  2  0  0  0  0
  4  5  1  0  0  0  0
  5  6  2  0  0  0  0
  5 11  1  0  0  0  0
  6  7  1  0  0  0  0
  6  9  1  0  0  0  0
  7  8  2  0  0  0  0
  9 10  2  0  0  0  0
  9 12  1  0  0  0  0
 10 11  1  0  0  0  0
 12 13  1  0  0  0  0
M  END
>  <CHROM.1>
-162.89300952,-2.57738515,-33.41900455,-43.42318682,0.30684178,0.53482847
1.55774247

>  <Name>
ligand

>  <RI>
0

>  <Rbt.Current_Directory>
/home/itssahil/PROJECTS/Mol_Feturizer/Test_systems_manuscript/rnas/3fu2

>  <Rbt.Executable>
rbdock ($Id: //depot/dev/client3/rdock/2013.1/src/exe/rbdock.cxx#4 $)

>  <Rbt.Library>
libRbt.so (2013.1, Build901 2013/11/27)

>  <Rbt.Parameter_File>
/export/apps/rDock/src/rDock_2013.1_src/data/scripts/dock_solv.prm

>  <Rbt.Receptor>
prm/pocket_docking_4.prm

>  <SCORE>
-16.3474

>  <SCORE.INTER>
-16.1829

>  <SCORE.INTER.CONST>
1

>  <SCORE.INTER.POLAR>
0

>  <SCORE.INTER.ROT>
1

>  <SCORE.INTER.SOLV>
16.0125

>  <SCORE.INTER.VDW>
-20.3928

>  <SCORE.INTER.norm>
-1.24484

>  <SCORE.INTRA>
-0.164537

>  <SCORE.INTRA.DIHEDRAL>
-0.000580422

>  <SCORE.INTRA.DIHEDRAL.0>
1.66609

>  <SCORE.INTRA.POLAR>
0

>  <SCORE.INTRA.POLAR.0>
0

>  <SCORE.INTRA.REPUL>
0

>  <SCORE.INTRA.REPUL.0>
0

>  <SCORE.INTRA.SOLV>
-0.981786

>  <SCORE.INTRA.SOLV.lig_0>
-45.868

>  <SCORE.INTRA.VDW>
0.326646

>  <SCORE.INTRA.VDW.0>
-0.397919

>  <SCORE.INTRA.norm>
-0.0126567

>  <SCORE.RESTR>
0

>  <SCORE.RESTR.CAVITY>
0

>  <SCORE.RESTR.norm>
0

>  <SCORE.SYSTEM>
0

>  <SCORE.SYSTEM.CONST>
0

>  <SCORE.SYSTEM.DIHEDRAL>
0

>  <SCORE.SYSTEM.SOLV>
0

>  <SCORE.SYSTEM.norm>
0

>  <SCORE.heavy>
13

>  <SCORE.norm>
-1.2575

>  <RMSD>
4.822

$$$$
ligand
 OpenBabel02271912143D
libRbt.so/2013.1/901 2013/11/27
 13 14  0  0  0  0  0  0  0  0999 V2000
   -1.2861  -32.6606  -41.7709 N   0  0  0  0  0  0  0  0  0  0  0  0
   -0.4747  -32.2202  -42.7822 C   0  0  0  0  0  0  0  0  0  0  0  0
    0.6874  -31.5725  -42.4625 N   0  0  0  0  0  0  0  0  0  0  0  0
   -0.7949  -32.4118  -44.0622 N   0  0  0  0  0  0  0  0  0  0  0  0
   -1.9439  -33.0518  -44.4154 C   0  0  0  0  0  0  0  0  0  0  0  0
   -2.8138  -33.5203  -43.4065 C   0  0  0  0  0  0  0  0  0  0  0  0
   -2.4519  -33.3087  -42.0485 C   0  0  0  0  0  0  0  0  0  0  0  0
   -3.1626  -33.6949  -41.1538 O   0  0  0  0  0  0  0  0  0  0  0  0
   -3.9417  -34.1469  -44.0885 C   0  0  0  0  0  0  0  0  0  0  0  0
   -3.7057  -34.0366  -45.4079 C   0  0  0  0  0  0  0  0  0  0  0  0
   -2.5094  -33.3810  -45.6099 N   0  0  0  0  0  0  0  0  0  0  0  0
   -5.1415  -34.7853  -43.4368 C   0  0  0  0  0  0  0  0  0  0  0  0
   -5.8244  -35.6451  -44.4247 N   0  0  0  0  0  0  0  0  0  0  0  0
  1  2  1  0  0  0  0
  1  7  1  0  0  0  0
  2  3  1  0  0  0  0
  2  4  2  0  0  0  0
  4  5  1  0  0  0  0
  5  6  2  0  0  0  0
  5 11  1  0  0  0  0
  6  7  1  0  0  0  0
  6  9  1  0  0  0  0
  7  8  2  0  0  0  0
  9 10  2  0  0  0  0
  9 12  1  0  0  0  0
 10 11  1  0  0  0  0
 12 13  1  0  0  0  0
M  END
>  <CHROM.1>
-162.84624967,-2.57438084,-33.42409919,-43.42449909,0.30969027,0.53175733
1.55482588

>  <Name>
ligand

>  <RI>
0

>  <Rbt.Current_Directory>
/home/itssahil/PROJECTS/Mol_Feturizer/Test_systems_manuscript/rnas/3fu2

>  <Rbt.Executable>
rbdock ($Id: //depot/dev/client3/rdock/2013.1/src/exe/rbdock.cxx#4 $)

>  <Rbt.Library>
libRbt.so (2013.1, Build901 2013/11/27)

>  <Rbt.Parameter_File>
/export/apps/rDock/src/rDock_2013.1_src/data/scripts/dock_solv.prm

>  <Rbt.Receptor>
prm/pocket_docking_4.prm

>  <SCORE>
-16.3428

>  <SCORE.INTER>
-16.178

>  <SCORE.INTER.CONST>
1

>  <SCORE.INTER.POLAR>
0

>  <SCORE.INTER.ROT>
1

>  <SCORE.INTER.SOLV>
16.0147

>  <SCORE.INTER.VDW>
-20.3903

>  <SCORE.INTER.norm>
-1.24447

>  <SCORE.INTRA>
-0.164728

>  <SCORE.INTRA.DIHEDRAL>
-0.000608149

>  <SCORE.INTRA.DIHEDRAL.0>
1.66609

>  <SCORE.INTRA.POLAR>
0

>  <SCORE.INTRA.POLAR.0>
0

>  <SCORE.INTRA.REPUL>
0

>  <SCORE.INTRA.REPUL.0>
0

>  <SCORE.INTRA.SOLV>
-0.981799

>  <SCORE.INTRA.SOLV.lig_0>
-45.868

>  <SCORE.INTRA.VDW>
0.326475

>  <SCORE.INTRA.VDW.0>
-0.397919

>  <SCORE.INTRA.norm>
-0.0126714

>  <SCORE.RESTR>
0

>  <SCORE.RESTR.CAVITY>
0

>  <SCORE.RESTR.norm>
0

>  <SCORE.SYSTEM>
0

>  <SCORE.SYSTEM.CONST>
0

>  <SCORE.SYSTEM.DIHEDRAL>
0

>  <SCORE.SYSTEM.SOLV>
0

>  <SCORE.SYSTEM.norm>
0

>  <SCORE.heavy>
13

>  <SCORE.norm>
-1.25714

>  <RMSD>
4.822

$$$$
ligand
 OpenBabel02271912143D
libRbt.so/2013.1/901 2013/11/27
 13 14  0  0  0  0  0  0  0  0999 V2000
   -1.2823  -32.6859  -41.7652 N   0  0  0  0  0  0  0  0  0  0  0  0
   -0.4607  -32.2548  -42.7722 C   0  0  0  0  0  0  0  0  0  0  0  0
    0.7068  -31.6199  -42.4465 N   0  0  0  0  0  0  0  0  0  0  0  0
   -0.7762  -32.4432  -44.0539 N   0  0  0  0  0  0  0  0  0  0  0  0
   -1.9303  -33.0705  -44.4131 C   0  0  0  0  0  0  0  0  0  0  0  0
   -2.8107  -33.5290  -43.4087 C   0  0  0  0  0  0  0  0  0  0  0  0
   -2.4537  -33.3210  -42.0488 C   0  0  0  0  0  0  0  0  0  0  0  0
   -3.1735  -33.6992  -41.1579 O   0  0  0  0  0  0  0  0  0  0  0  0
   -3.9419  -34.1432  -44.0967 C   0  0  0  0  0  0  0  0  0  0  0  0
   -3.6977  -34.0359  -45.4148 C   0  0  0  0  0  0  0  0  0  0  0  0
   -2.4931  -33.3936  -45.6106 N   0  0  0  0  0  0  0  0  0  0  0  0
   -5.1522  -34.7680  -43.4512 C   0  0  0  0  0  0  0  0  0  0  0  0
   -5.8391  -35.6207  -44.4425 N   0  0  0  0  0  0  0  0  0  0  0  0
  1  2  1  0  0  0  0
  1  7  1  0  0  0  0
  2  3  1  0  0  0  0
  2  4  2  0  0  0  0
  4  5  1  0  0  0  0
  5  6  2  0  0  0  0
  5 11  1  0  0  0  0
  6  7  1  0  0  0  0
  6  9  1  0  0  0  0
  7  8  2  0  0  0  0
  9 10  2  0  0  0  0
  9 12  1  0  0  0  0
 10 11  1  0  0  0  0
 12 13  1  0  0  0  0
M  END
>  <CHROM.1>
-162.83505720,-2.57016854,-33.43547969,-43.42548917,0.31563474,0.52057848
1.55161159

>  <Name>
ligand

>  <RI>
0

>  <Rbt.Current_Directory>
/home/itssahil/PROJECTS/Mol_Feturizer/Test_systems_manuscript/rnas/3fu2

>  <Rbt.Executable>
rbdock ($Id: //depot/dev/client3/rdock/2013.1/src/exe/rbdock.cxx#4 $)

>  <Rbt.Library>
libRbt.so (2013.1, Build901 2013/11/27)

>  <Rbt.Parameter_File>
/export/apps/rDock/src/rDock_2013.1_src/data/scripts/dock_solv.prm

>  <Rbt.Receptor>
prm/pocket_docking_4.prm

>  <SCORE>
-16.3242

>  <SCORE.INTER>
-16.1594

>  <SCORE.INTER.CONST>
1

>  <SCORE.INTER.POLAR>
0

>  <SCORE.INTER.ROT>
1

>  <SCORE.INTER.SOLV>
16.0081

>  <SCORE.INTER.VDW>
-20.3757

>  <SCORE.INTER.norm>
-1.24303

>  <SCORE.INTRA>
-0.164774

>  <SCORE.INTRA.DIHEDRAL>
-0.000614773

>  <SCORE.INTRA.DIHEDRAL.0>
1.66609

>  <SCORE.INTRA.POLAR>
0

>  <SCORE.INTRA.POLAR.0>
0

>  <SCORE.INTRA.REPUL>
0

>  <SCORE.INTRA.REPUL.0>
0

>  <SCORE.INTRA.SOLV>
-0.981802

>  <SCORE.INTRA.SOLV.lig_0>
-45.868

>  <SCORE.INTRA.VDW>
0.326434

>  <SCORE.INTRA.VDW.0>
-0.397919

>  <SCORE.INTRA.norm>
-0.0126749

>  <SCORE.RESTR>
0

>  <SCORE.RESTR.CAVITY>
0

>  <SCORE.RESTR.norm>
0

>  <SCORE.SYSTEM>
0

>  <SCORE.SYSTEM.CONST>
0

>  <SCORE.SYSTEM.DIHEDRAL>
0

>  <SCORE.SYSTEM.SOLV>
0

>  <SCORE.SYSTEM.norm>
0

>  <SCORE.heavy>
13

>  <SCORE.norm>
-1.25571

>  <RMSD>
4.822

$$$$
ligand
 OpenBabel02271912143D
libRbt.so/2013.1/901 2013/11/27
 13 14  0  0  0  0  0  0  0  0999 V2000
   -1.2858  -32.6612  -41.7694 N   0  0  0  0  0  0  0  0  0  0  0  0
   -0.4769  -32.2182  -42.7814 C   0  0  0  0  0  0  0  0  0  0  0  0
    0.6861  -31.5715  -42.4629 N   0  0  0  0  0  0  0  0  0  0  0  0
   -0.8003  -32.4063  -44.0612 N   0  0  0  0  0  0  0  0  0  0  0  0
   -1.9502  -33.0452  -44.4133 C   0  0  0  0  0  0  0  0  0  0  0  0
   -2.8177  -33.5162  -43.4034 C   0  0  0  0  0  0  0  0  0  0  0  0
   -2.4524  -33.3084  -42.0458 C   0  0  0  0  0  0  0  0  0  0  0  0
   -3.1610  -33.6969  -41.1504 O   0  0  0  0  0  0  0  0  0  0  0  0
   -3.9474  -34.1408  -44.0844 C   0  0  0  0  0  0  0  0  0  0  0  0
   -3.7147  -34.0269  -45.4040 C   0  0  0  0  0  0  0  0  0  0  0  0
   -2.5188  -33.3710  -45.6073 N   0  0  0  0  0  0  0  0  0  0  0  0
   -5.1457  -34.7807  -43.4314 C   0  0  0  0  0  0  0  0  0  0  0  0
   -5.8167  -35.6574  -44.4127 N   0  0  0  0  0  0  0  0  0  0  0  0
  1  2  1  0  0  0  0
  1  7  1  0  0  0  0
  2  3  1  0  0  0  0
  2  4  2  0  0  0  0
  4  5  1  0  0  0  0
  5  6  2  0  0  0  0
  5 11  1  0  0  0  0
  6  7  1  0  0  0  0
  6  9  1  0  0  0  0
  7  8  2  0  0  0  0
  9 10  2  0  0  0  0
  9 12  1  0  0  0  0
 10 11  1  0  0  0  0
 12 13  1  0  0  0  0
M  END
>  <CHROM.1>
-161.80580106,-2.57715048,-33.42161424,-43.42122029,0.30630077,0.53335628
1.55881183

>  <Name>
ligand

>  <RI>
0

>  <Rbt.Current_Directory>
/home/itssahil/PROJECTS/Mol_Feturizer/Test_systems_manuscript/rnas/3fu2

>  <Rbt.Executable>
rbdock ($Id: //depot/dev/client3/rdock/2013.1/src/exe/rbdock.cxx#4 $)

>  <Rbt.Library>
libRbt.so (2013.1, Build901 2013/11/27)

>  <Rbt.Parameter_File>
/export/apps/rDock/src/rDock_2013.1_src/data/scripts/dock_solv.prm

>  <Rbt.Receptor>
prm/pocket_docking_4.prm

>  <SCORE>
-16.3432

>  <SCORE.INTER>
-16.1741

>  <SCORE.INTER.CONST>
1

>  <SCORE.INTER.POLAR>
0

>  <SCORE.INTER.ROT>
1

>  <SCORE.INTER.SOLV>
16.0081

>  <SCORE.INTER.VDW>
-20.3854

>  <SCORE.INTER.norm>
-1.24416

>  <SCORE.INTRA>
-0.169052

>  <SCORE.INTRA.DIHEDRAL>
-0.00120228

>  <SCORE.INTRA.DIHEDRAL.0>
1.66609

>  <SCORE.INTRA.POLAR>
0

>  <SCORE.INTRA.POLAR.0>
0

>  <SCORE.INTRA.REPUL>
0

>  <SCORE.INTRA.REPUL.0>
0

>  <SCORE.INTRA.SOLV>
-0.982097

>  <SCORE.INTRA.SOLV.lig_0>
-45.868

>  <SCORE.INTRA.VDW>
0.322598

>  <SCORE.INTRA.VDW.0>
-0.397919

>  <SCORE.INTRA.norm>
-0.013004

>  <SCORE.RESTR>
0

>  <SCORE.RESTR.CAVITY>
0

>  <SCORE.RESTR.norm>
0

>  <SCORE.SYSTEM>
0

>  <SCORE.SYSTEM.CONST>
0

>  <SCORE.SYSTEM.DIHEDRAL>
0

>  <SCORE.SYSTEM.SOLV>
0

>  <SCORE.SYSTEM.norm>
0

>  <SCORE.heavy>
13

>  <SCORE.norm>
-1.25717

>  <RMSD>
4.822

$$$$
ligand
 OpenBabel02271912143D
libRbt.so/2013.1/901 2013/11/27
 13 14  0  0  0  0  0  0  0  0999 V2000
   -1.2809  -32.6897  -41.7710 N   0  0  0  0  0  0  0  0  0  0  0  0
   -0.4603  -32.2591  -42.7789 C   0  0  0  0  0  0  0  0  0  0  0  0
    0.7085  -31.6259  -42.4547 N   0  0  0  0  0  0  0  0  0  0  0  0
   -0.7779  -32.4464  -44.0603 N   0  0  0  0  0  0  0  0  0  0  0  0
   -1.9334  -33.0721  -44.4180 C   0  0  0  0  0  0  0  0  0  0  0  0
   -2.8129  -33.5300  -43.4125 C   0  0  0  0  0  0  0  0  0  0  0  0
   -2.4535  -33.3232  -42.0531 C   0  0  0  0  0  0  0  0  0  0  0  0
   -3.1724  -33.7008  -41.1613 O   0  0  0  0  0  0  0  0  0  0  0  0
   -3.9458  -34.1424  -44.0991 C   0  0  0  0  0  0  0  0  0  0  0  0
   -3.7035  -34.0348  -45.4175 C   0  0  0  0  0  0  0  0  0  0  0  0
   -2.4984  -33.3939  -45.6148 N   0  0  0  0  0  0  0  0  0  0  0  0
   -5.1559  -34.7661  -43.4521 C   0  0  0  0  0  0  0  0  0  0  0  0
   -5.8182  -35.6550  -44.4282 N   0  0  0  0  0  0  0  0  0  0  0  0
  1  2  1  0  0  0  0
  1  7  1  0  0  0  0
  2  3  1  0  0  0  0
  2  4  2  0  0  0  0
  4  5  1  0  0  0  0
  5  6  2  0  0  0  0
  5 11  1  0  0  0  0
  6  7  1  0  0  0  0
  6  9  1  0  0  0  0
  7  8  2  0  0  0  0
  9 10  2  0  0  0  0
  9 12  1  0  0  0  0
 10 11  1  0  0  0  0
 12 13  1  0  0  0  0
M  END
>  <CHROM.1>
-160.83913618,-2.56998518,-33.43984073,-43.42844546,0.31285892,0.52264132
1.55259509

>  <Name>
ligand

>  <RI>
0

>  <Rbt.Current_Directory>
/home/itssahil/PROJECTS/Mol_Feturizer/Test_systems_manuscript/rnas/3fu2

>  <Rbt.Executable>
rbdock ($Id: //depot/dev/client3/rdock/2013.1/src/exe/rbdock.cxx#4 $)

>  <Rbt.Library>
libRbt.so (2013.1, Build901 2013/11/27)

>  <Rbt.Parameter_File>
/export/apps/rDock/src/rDock_2013.1_src/data/scripts/dock_solv.prm

>  <Rbt.Receptor>
prm/pocket_docking_4.prm

>  <SCORE>
-16.3502

>  <SCORE.INTER>
-16.177

>  <SCORE.INTER.CONST>
1

>  <SCORE.INTER.POLAR>
0

>  <SCORE.INTER.ROT>
1

>  <SCORE.INTER.SOLV>
16.0128

>  <SCORE.INTER.VDW>
-20.3889

>  <SCORE.INTER.norm>
-1.24438

>  <SCORE.INTRA>
-0.17318

>  <SCORE.INTRA.DIHEDRAL>
-0.00171414

>  <SCORE.INTRA.DIHEDRAL.0>
1.66609

>  <SCORE.INTRA.POLAR>
0

>  <SCORE.INTRA.POLAR.0>
0

>  <SCORE.INTRA.REPUL>
0

>  <SCORE.INTRA.REPUL.0>
0

>  <SCORE.INTRA.SOLV>
-0.982385

>  <SCORE.INTRA.SOLV.lig_0>
-45.868

>  <SCORE.INTRA.VDW>
0.318869

>  <SCORE.INTRA.VDW.0>
-0.397919

>  <SCORE.INTRA.norm>
-0.0133216

>  <SCORE.RESTR>
0

>  <SCORE.RESTR.CAVITY>
0

>  <SCORE.RESTR.norm>
0

>  <SCORE.SYSTEM>
0

>  <SCORE.SYSTEM.CONST>
0

>  <SCORE.SYSTEM.DIHEDRAL>
0

>  <SCORE.SYSTEM.SOLV>
0

>  <SCORE.SYSTEM.norm>
0

>  <SCORE.heavy>
13

>  <SCORE.norm>
-1.25771

>  <RMSD>
4.822

$$$$
ligand
 OpenBabel02271912143D
libRbt.so/2013.1/901 2013/11/27
 13 14  0  0  0  0  0  0  0  0999 V2000
   -1.2851  -32.6680  -41.7703 N   0  0  0  0  0  0  0  0  0  0  0  0
   -0.4751  -32.2259  -42.7818 C   0  0  0  0  0  0  0  0  0  0  0  0
    0.6892  -31.5819  -42.4625 N   0  0  0  0  0  0  0  0  0  0  0  0
   -0.7985  -32.4123  -44.0618 N   0  0  0  0  0  0  0  0  0  0  0  0
   -1.9498  -33.0485  -44.4146 C   0  0  0  0  0  0  0  0  0  0  0  0
   -2.8184  -33.5185  -43.4053 C   0  0  0  0  0  0  0  0  0  0  0  0
   -2.4530  -33.3125  -42.0474 C   0  0  0  0  0  0  0  0  0  0  0  0
   -3.1626  -33.7003  -41.1525 O   0  0  0  0  0  0  0  0  0  0  0  0
   -3.9493  -34.1402  -44.0870 C   0  0  0  0  0  0  0  0  0  0  0  0
   -3.7161  -34.0258  -45.4065 C   0  0  0  0  0  0  0  0  0  0  0  0
   -2.5188  -33.3722  -45.6090 N   0  0  0  0  0  0  0  0  0  0  0  0
   -5.1491  -34.7782  -43.4348 C   0  0  0  0  0  0  0  0  0  0  0  0
   -5.8459  -35.6195  -44.4289 N   0  0  0  0  0  0  0  0  0  0  0  0
  1  2  1  0  0  0  0
  1  7  1  0  0  0  0
  2  3  1  0  0  0  0
  2  4  2  0  0  0  0
  4  5  1  0  0  0  0
  5  6  2  0  0  0  0
  5 11  1  0  0  0  0
  6  7  1  0  0  0  0
  6  9  1  0  0  0  0
  7  8  2  0  0  0  0
  9 10  2  0  0  0  0
  9 12  1  0  0  0  0
 10 11  1  0  0  0  0
 12 13  1  0  0  0  0
M  END
>  <CHROM.1>
-163.55927793,-2.57966092,-33.42168351,-43.42396431,0.30735675,0.52836076
1.55982863

>  <Name>
ligand

>  <RI>
0

>  <Rbt.Current_Directory>
/home/itssahil/PROJECTS/Mol_Feturizer/Test_systems_manuscript/rnas/3fu2

>  <Rbt.Executable>
rbdock ($Id: //depot/dev/client3/rdock/2013.1/src/exe/rbdock.cxx#4 $)

>  <Rbt.Library>
libRbt.so (2013.1, Build901 2013/11/27)

>  <Rbt.Parameter_File>
/export/apps/rDock/src/rDock_2013.1_src/data/scripts/dock_solv.prm

>  <Rbt.Receptor>
prm/pocket_docking_5.prm

>  <SCORE>
-16.3371

>  <SCORE.INTER>
-16.1752

>  <SCORE.INTER.CONST>
1

>  <SCORE.INTER.POLAR>
0

>  <SCORE.INTER.ROT>
1

>  <SCORE.INTER.SOLV>
16.0093

>  <SCORE.INTER.VDW>
-20.3866

>  <SCORE.INTER.norm>
-1.24425

>  <SCORE.INTRA>
-0.161843

>  <SCORE.INTRA.DIHEDRAL>
-0.000175994

>  <SCORE.INTRA.DIHEDRAL.0>
1.66609

>  <SCORE.INTRA.POLAR>
0

>  <SCORE.INTRA.POLAR.0>
0

>  <SCORE.INTRA.REPUL>
0

>  <SCORE.INTRA.REPUL.0>
0

>  <SCORE.INTRA.SOLV>
-0.981602

>  <SCORE.INTRA.SOLV.lig_0>
-45.868

>  <SCORE.INTRA.VDW>
0.329046

>  <SCORE.INTRA.VDW.0>
-0.397919

>  <SCORE.INTRA.norm>
-0.0124495

>  <SCORE.RESTR>
0

>  <SCORE.RESTR.CAVITY>
0

>  <SCORE.RESTR.norm>
0

>  <SCORE.SYSTEM>
0

>  <SCORE.SYSTEM.CONST>
0

>  <SCORE.SYSTEM.DIHEDRAL>
0

>  <SCORE.SYSTEM.SOLV>
0

>  <SCORE.SYSTEM.norm>
0

>  <SCORE.heavy>
13

>  <SCORE.norm>
-1.2567

>  <RMSD>
4.822

$$$$
ligand
 OpenBabel02271912143D
libRbt.so/2013.1/901 2013/11/27
 13 14  0  0  0  0  0  0  0  0999 V2000
   -1.2836  -32.6677  -41.7672 N   0  0  0  0  0  0  0  0  0  0  0  0
   -0.4669  -32.2310  -42.7758 C   0  0  0  0  0  0  0  0  0  0  0  0
    0.6978  -31.5898  -42.4524 N   0  0  0  0  0  0  0  0  0  0  0  0
   -0.7845  -32.4198  -44.0569 N   0  0  0  0  0  0  0  0  0  0  0  0
   -1.9360  -33.0533  -44.4139 C   0  0  0  0  0  0  0  0  0  0  0  0
   -2.8113  -33.5178  -43.4078 C   0  0  0  0  0  0  0  0  0  0  0  0
   -2.4520  -33.3092  -42.0486 C   0  0  0  0  0  0  0  0  0  0  0  0
   -3.1674  -33.6923  -41.1563 O   0  0  0  0  0  0  0  0  0  0  0  0
   -3.9406  -34.1377  -44.0935 C   0  0  0  0  0  0  0  0  0  0  0  0
   -3.7003  -34.0277  -45.4121 C   0  0  0  0  0  0  0  0  0  0  0  0
   -2.4999  -33.3784  -45.6103 N   0  0  0  0  0  0  0  0  0  0  0  0
   -5.1457  -34.7701  -43.4457 C   0  0  0  0  0  0  0  0  0  0  0  0
   -5.8139  -35.6482  -44.4276 N   0  0  0  0  0  0  0  0  0  0  0  0
  1  2  1  0  0  0  0
  1  7  1  0  0  0  0
  2  3  1  0  0  0  0
  2  4  2  0  0  0  0
  4  5  1  0  0  0  0
  5  6  2  0  0  0  0
  5 11  1  0  0  0  0
  6  7  1  0  0  0  0
  6  9  1  0  0  0  0
  7  8  2  0  0  0  0
  9 10  2  0  0  0  0
  9 12  1  0  0  0  0
 10 11  1  0  0  0  0
 12 13  1  0  0  0  0
M  END
>  <CHROM.1>
-161.63898943,-2.56993211,-33.42473787,-43.42435669,0.31228308,0.52827260
1.55377816

>  <Name>
ligand

>  <RI>
0

>  <Rbt.Current_Directory>
/home/itssahil/PROJECTS/Mol_Feturizer/Test_systems_manuscript/rnas/3fu2

>  <Rbt.Executable>
rbdock ($Id: //depot/dev/client3/rdock/2013.1/src/exe/rbdock.cxx#4 $)

>  <Rbt.Library>
libRbt.so (2013.1, Build901 2013/11/27)

>  <Rbt.Parameter_File>
/export/apps/rDock/src/rDock_2013.1_src/data/scripts/dock_solv.prm

>  <Rbt.Receptor>
prm/pocket_docking_5.prm

>  <SCORE>
-16.3292

>  <SCORE.INTER>
-16.1594

>  <SCORE.INTER.CONST>
1

>  <SCORE.INTER.POLAR>
0

>  <SCORE.INTER.ROT>
1

>  <SCORE.INTER.SOLV>
16.0111

>  <SCORE.INTER.VDW>
-20.3767

>  <SCORE.INTER.norm>
-1.24303

>  <SCORE.INTRA>
-0.169757

>  <SCORE.INTRA.DIHEDRAL>
-0.00129341

>  <SCORE.INTRA.DIHEDRAL.0>
1.66609

>  <SCORE.INTRA.POLAR>
0

>  <SCORE.INTRA.POLAR.0>
0

>  <SCORE.INTRA.REPUL>
0

>  <SCORE.INTRA.REPUL.0>
0

>  <SCORE.INTRA.SOLV>
-0.982146

>  <SCORE.INTRA.SOLV.lig_0>
-45.868

>  <SCORE.INTRA.VDW>
0.321963

>  <SCORE.INTRA.VDW.0>
-0.397919

>  <SCORE.INTRA.norm>
-0.0130582

>  <SCORE.RESTR>
0

>  <SCORE.RESTR.CAVITY>
0

>  <SCORE.RESTR.norm>
0

>  <SCORE.SYSTEM>
0

>  <SCORE.SYSTEM.CONST>
0

>  <SCORE.SYSTEM.DIHEDRAL>
0

>  <SCORE.SYSTEM.SOLV>
0

>  <SCORE.SYSTEM.norm>
0

>  <SCORE.heavy>
13

>  <SCORE.norm>
-1.25609

>  <RMSD>
4.822

$$$$
ligand
 OpenBabel02271912143D
libRbt.so/2013.1/901 2013/11/27
 13 14  0  0  0  0  0  0  0  0999 V2000
   -1.2815  -32.6819  -41.7775 N   0  0  0  0  0  0  0  0  0  0  0  0
   -0.4622  -32.2510  -42.7864 C   0  0  0  0  0  0  0  0  0  0  0  0
    0.7051  -31.6143  -42.4635 N   0  0  0  0  0  0  0  0  0  0  0  0
   -0.7797  -32.4412  -44.0673 N   0  0  0  0  0  0  0  0  0  0  0  0
   -1.9337  -33.0704  -44.4237 C   0  0  0  0  0  0  0  0  0  0  0  0
   -2.8117  -33.5288  -43.4172 C   0  0  0  0  0  0  0  0  0  0  0  0
   -2.4526  -33.3188  -42.0582 C   0  0  0  0  0  0  0  0  0  0  0  0
   -3.1703  -33.6968  -41.1656 O   0  0  0  0  0  0  0  0  0  0  0  0
   -3.9434  -34.1452  -44.1024 C   0  0  0  0  0  0  0  0  0  0  0  0
   -3.7016  -34.0391  -45.4211 C   0  0  0  0  0  0  0  0  0  0  0  0
   -2.4982  -33.3956  -45.6198 N   0  0  0  0  0  0  0  0  0  0  0  0
   -5.1517  -34.7708  -43.4541 C   0  0  0  0  0  0  0  0  0  0  0  0
   -5.8327  -35.6347  -44.4398 N   0  0  0  0  0  0  0  0  0  0  0  0
  1  2  1  0  0  0  0
  1  7  1  0  0  0  0
  2  3  1  0  0  0  0
  2  4  2  0  0  0  0
  4  5  1  0  0  0  0
  5  6  2  0  0  0  0
  5 11  1  0  0  0  0
  6  7  1  0  0  0  0
  6  9  1  0  0  0  0
  7  8  2  0  0  0  0
  9 10  2  0  0  0  0
  9 12  1  0  0  0  0
 10 11  1  0  0  0  0
 12 13  1  0  0  0  0
M  END
>  <CHROM.1>
-162.34750120,-2.57078054,-33.43577286,-43.43425929,0.31337554,0.52265558
1.55135641

>  <Name>
ligand

>  <RI>
0

>  <Rbt.Current_Directory>
/home/itssahil/PROJECTS/Mol_Feturizer/Test_systems_manuscript/rnas/3fu2

>  <Rbt.Executable>
rbdock ($Id: //depot/dev/client3/rdock/2013.1/src/exe/rbdock.cxx#4 $)

>  <Rbt.Library>
libRbt.so (2013.1, Build901 2013/11/27)

>  <Rbt.Parameter_File>
/export/apps/rDock/src/rDock_2013.1_src/data/scripts/dock_solv.prm

>  <Rbt.Receptor>
prm/pocket_docking_5.prm

>  <SCORE>
-16.3422

>  <SCORE.INTER>
-16.1754

>  <SCORE.INTER.CONST>
1

>  <SCORE.INTER.POLAR>
0

>  <SCORE.INTER.ROT>
1

>  <SCORE.INTER.SOLV>
16.0189

>  <SCORE.INTER.VDW>
-20.3899

>  <SCORE.INTER.norm>
-1.24426

>  <SCORE.INTRA>
-0.166785

>  <SCORE.INTRA.DIHEDRAL>
-0.00089844

>  <SCORE.INTRA.DIHEDRAL.0>
1.66609

>  <SCORE.INTRA.POLAR>
0

>  <SCORE.INTRA.POLAR.0>
0

>  <SCORE.INTRA.REPUL>
0

>  <SCORE.INTRA.REPUL.0>
0

>  <SCORE.INTRA.SOLV>
-0.98194

>  <SCORE.INTRA.SOLV.lig_0>
-45.868

>  <SCORE.INTRA.VDW>
0.324635

>  <SCORE.INTRA.VDW.0>
-0.397919

>  <SCORE.INTRA.norm>
-0.0128296

>  <SCORE.RESTR>
0

>  <SCORE.RESTR.CAVITY>
0

>  <SCORE.RESTR.norm>
0

>  <SCORE.SYSTEM>
0

>  <SCORE.SYSTEM.CONST>
0

>  <SCORE.SYSTEM.DIHEDRAL>
0

>  <SCORE.SYSTEM.SOLV>
0

>  <SCORE.SYSTEM.norm>
0

>  <SCORE.heavy>
13

>  <SCORE.norm>
-1.25709

>  <RMSD>
4.822

$$$$
ligand
 OpenBabel02271912143D
libRbt.so/2013.1/901 2013/11/27
 13 14  0  0  0  0  0  0  0  0999 V2000
   -1.2841  -32.6602  -41.7697 N   0  0  0  0  0  0  0  0  0  0  0  0
   -0.4735  -32.2202  -42.7817 C   0  0  0  0  0  0  0  0  0  0  0  0
    0.6915  -31.5772  -42.4632 N   0  0  0  0  0  0  0  0  0  0  0  0
   -0.7972  -32.4077  -44.0615 N   0  0  0  0  0  0  0  0  0  0  0  0
   -1.9491  -33.0429  -44.4137 C   0  0  0  0  0  0  0  0  0  0  0  0
   -2.8184  -33.5108  -43.4039 C   0  0  0  0  0  0  0  0  0  0  0  0
   -2.4527  -33.3036  -42.0462 C   0  0  0  0  0  0  0  0  0  0  0  0
   -3.1628  -33.6896  -41.1509 O   0  0  0  0  0  0  0  0  0  0  0  0
   -3.9500  -34.1319  -44.0849 C   0  0  0  0  0  0  0  0  0  0  0  0
   -3.7165  -34.0193  -45.4045 C   0  0  0  0  0  0  0  0  0  0  0  0
   -2.5184  -33.3673  -45.6077 N   0  0  0  0  0  0  0  0  0  0  0  0
   -5.1505  -34.7678  -43.4320 C   0  0  0  0  0  0  0  0  0  0  0  0
   -5.8225  -35.6446  -44.4123 N   0  0  0  0  0  0  0  0  0  0  0  0
  1  2  1  0  0  0  0
  1  7  1  0  0  0  0
  2  3  1  0  0  0  0
  2  4  2  0  0  0  0
  4  5  1  0  0  0  0
  5  6  2  0  0  0  0
  5 11  1  0  0  0  0
  6  7  1  0  0  0  0
  6  9  1  0  0  0  0
  7  8  2  0  0  0  0
  9 10  2  0  0  0  0
  9 12  1  0  0  0  0
 10 11  1  0  0  0  0
 12 13  1  0  0  0  0
M  END
>  <CHROM.1>
-161.69498210,-2.57738996,-33.41715358,-43.42156658,0.30649912,0.53028735
1.55830076

>  <Name>
ligand

>  <RI>
0

>  <Rbt.Current_Directory>
/home/itssahil/PROJECTS/Mol_Feturizer/Test_systems_manuscript/rnas/3fu2

>  <Rbt.Executable>
rbdock ($Id: //depot/dev/client3/rdock/2013.1/src/exe/rbdock.cxx#4 $)

>  <Rbt.Library>
libRbt.so (2013.1, Build901 2013/11/27)

>  <Rbt.Parameter_File>
/export/apps/rDock/src/rDock_2013.1_src/data/scripts/dock_solv.prm

>  <Rbt.Receptor>
prm/pocket_docking_6.prm

>  <SCORE>
-16.3359

>  <SCORE.INTER>
-16.1663

>  <SCORE.INTER.CONST>
1

>  <SCORE.INTER.POLAR>
0

>  <SCORE.INTER.ROT>
1

>  <SCORE.INTER.SOLV>
16.006

>  <SCORE.INTER.VDW>
-20.3796

>  <SCORE.INTER.norm>
-1.24357

>  <SCORE.INTRA>
-0.16952

>  <SCORE.INTRA.DIHEDRAL>
-0.00126295

>  <SCORE.INTRA.DIHEDRAL.0>
1.66609

>  <SCORE.INTRA.POLAR>
0

>  <SCORE.INTRA.POLAR.0>
0

>  <SCORE.INTRA.REPUL>
0

>  <SCORE.INTRA.REPUL.0>
0

>  <SCORE.INTRA.SOLV>
-0.98213

>  <SCORE.INTRA.SOLV.lig_0>
-45.868

>  <SCORE.INTRA.VDW>
0.322176

>  <SCORE.INTRA.VDW.0>
-0.397919

>  <SCORE.INTRA.norm>
-0.01304

>  <SCORE.RESTR>
0

>  <SCORE.RESTR.CAVITY>
0

>  <SCORE.RESTR.norm>
0

>  <SCORE.SYSTEM>
0

>  <SCORE.SYSTEM.CONST>
0

>  <SCORE.SYSTEM.DIHEDRAL>
0

>  <SCORE.SYSTEM.SOLV>
0

>  <SCORE.SYSTEM.norm>
0

>  <SCORE.heavy>
13

>  <SCORE.norm>
-1.25661

>  <RMSD>
4.822

$$$$
ligand
 OpenBabel02271912143D
libRbt.so/2013.1/901 2013/11/27
 13 14  0  0  0  0  0  0  0  0999 V2000
   -1.2840  -32.6651  -41.7696 N   0  0  0  0  0  0  0  0  0  0  0  0
   -0.4704  -32.2287  -42.7808 C   0  0  0  0  0  0  0  0  0  0  0  0
    0.6942  -31.5856  -42.4611 N   0  0  0  0  0  0  0  0  0  0  0  0
   -0.7908  -32.4198  -44.0609 N   0  0  0  0  0  0  0  0  0  0  0  0
   -1.9423  -33.0553  -44.4141 C   0  0  0  0  0  0  0  0  0  0  0  0
   -2.8146  -33.5196  -43.4052 C   0  0  0  0  0  0  0  0  0  0  0  0
   -2.4523  -33.3085  -42.0472 C   0  0  0  0  0  0  0  0  0  0  0  0
   -3.1651  -33.6913  -41.1526 O   0  0  0  0  0  0  0  0  0  0  0  0
   -3.9448  -34.1419  -44.0873 C   0  0  0  0  0  0  0  0  0  0  0  0
   -3.7078  -34.0335  -45.4067 C   0  0  0  0  0  0  0  0  0  0  0  0
   -2.5087  -33.3829  -45.6087 N   0  0  0  0  0  0  0  0  0  0  0  0
   -5.1474  -34.7749  -43.4357 C   0  0  0  0  0  0  0  0  0  0  0  0
   -5.8257  -35.6432  -44.4194 N   0  0  0  0  0  0  0  0  0  0  0  0
  1  2  1  0  0  0  0
  1  7  1  0  0  0  0
  2  3  1  0  0  0  0
  2  4  2  0  0  0  0
  4  5  1  0  0  0  0
  5  6  2  0  0  0  0
  5 11  1  0  0  0  0
  6  7  1  0  0  0  0
  6  9  1  0  0  0  0
  7  8  2  0  0  0  0
  9 10  2  0  0  0  0
  9 12  1  0  0  0  0
 10 11  1  0  0  0  0
 12 13  1  0  0  0  0
M  END
>  <CHROM.1>
-162.28500081,-2.57411805,-33.42521262,-43.42291198,0.30982273,0.52856067
1.55386672

>  <Name>
ligand

>  <RI>
0

>  <Rbt.Current_Directory>
/home/itssahil/PROJECTS/Mol_Feturizer/Test_systems_manuscript/rnas/3fu2

>  <Rbt.Executable>
rbdock ($Id: //depot/dev/client3/rdock/2013.1/src/exe/rbdock.cxx#4 $)

>  <Rbt.Library>
libRbt.so (2013.1, Build901 2013/11/27)

>  <Rbt.Parameter_File>
/export/apps/rDock/src/rDock_2013.1_src/data/scripts/dock_solv.prm

>  <Rbt.Receptor>
prm/pocket_docking_6.prm

>  <SCORE>
-16.3394

>  <SCORE.INTER>
-16.1723

>  <SCORE.INTER.CONST>
1

>  <SCORE.INTER.POLAR>
0

>  <SCORE.INTER.ROT>
1

>  <SCORE.INTER.SOLV>
16.0139

>  <SCORE.INTER.VDW>
-20.3862

>  <SCORE.INTER.norm>
-1.24402

>  <SCORE.INTRA>
-0.167045

>  <SCORE.INTRA.DIHEDRAL>
-0.00093411

>  <SCORE.INTRA.DIHEDRAL.0>
1.66609

>  <SCORE.INTRA.POLAR>
0

>  <SCORE.INTRA.POLAR.0>
0

>  <SCORE.INTRA.REPUL>
0

>  <SCORE.INTRA.REPUL.0>
0

>  <SCORE.INTRA.SOLV>
-0.981958

>  <SCORE.INTRA.SOLV.lig_0>
-45.868

>  <SCORE.INTRA.VDW>
0.324402

>  <SCORE.INTRA.VDW.0>
-0.397919

>  <SCORE.INTRA.norm>
-0.0128496

>  <SCORE.RESTR>
0

>  <SCORE.RESTR.CAVITY>
0

>  <SCORE.RESTR.norm>
0

>  <SCORE.SYSTEM>
0

>  <SCORE.SYSTEM.CONST>
0

>  <SCORE.SYSTEM.DIHEDRAL>
0

>  <SCORE.SYSTEM.SOLV>
0

>  <SCORE.SYSTEM.norm>
0

>  <SCORE.heavy>
13

>  <SCORE.norm>
-1.25687

>  <RMSD>
4.822

$$$$
ligand
 OpenBabel02271912143D
libRbt.so/2013.1/901 2013/11/27
 13 14  0  0  0  0  0  0  0  0999 V2000
   -1.2859  -32.6569  -41.7701 N   0  0  0  0  0  0  0  0  0  0  0  0
   -0.4761  -32.2161  -42.7824 C   0  0  0  0  0  0  0  0  0  0  0  0
    0.6867  -31.5688  -42.4644 N   0  0  0  0  0  0  0  0  0  0  0  0
   -0.7985  -32.4068  -44.0621 N   0  0  0  0  0  0  0  0  0  0  0  0
   -1.9483  -33.0464  -44.4137 C   0  0  0  0  0  0  0  0  0  0  0  0
   -2.8166  -33.5152  -43.4035 C   0  0  0  0  0  0  0  0  0  0  0  0
   -2.4523  -33.3045  -42.0460 C   0  0  0  0  0  0  0  0  0  0  0  0
   -3.1616  -33.6912  -41.1504 O   0  0  0  0  0  0  0  0  0  0  0  0
   -3.9458  -34.1411  -44.0840 C   0  0  0  0  0  0  0  0  0  0  0  0
   -3.7121  -34.0301  -45.4037 C   0  0  0  0  0  0  0  0  0  0  0  0
   -2.5160  -33.3746  -45.6074 N   0  0  0  0  0  0  0  0  0  0  0  0
   -5.1446  -34.7796  -43.4306 C   0  0  0  0  0  0  0  0  0  0  0  0
   -5.8228  -35.6477  -44.4146 N   0  0  0  0  0  0  0  0  0  0  0  0
  1  2  1  0  0  0  0
  1  7  1  0  0  0  0
  2  3  1  0  0  0  0
  2  4  2  0  0  0  0
  4  5  1  0  0  0  0
  5  6  2  0  0  0  0
  5 11  1  0  0  0  0
  6  7  1  0  0  0  0
  6  9  1  0  0  0  0
  7  8  2  0  0  0  0
  9 10  2  0  0  0  0
  9 12  1  0  0  0  0
 10 11  1  0  0  0  0
 12 13  1  0  0  0  0
M  END
>  <CHROM.1>
-162.37294307,-2.57664044,-33.41980672,-43.42164528,0.30746319,0.53233810
1.55636568

>  <Name>
ligand

>  <RI>
0

>  <Rbt.Current_Directory>
/home/itssahil/PROJECTS/Mol_Feturizer/Test_systems_manuscript/rnas/3fu2

>  <Rbt.Executable>
rbdock ($Id: //depot/dev/client3/rdock/2013.1/src/exe/rbdock.cxx#4 $)

>  <Rbt.Library>
libRbt.so (2013.1, Build901 2013/11/27)

>  <Rbt.Parameter_File>
/export/apps/rDock/src/rDock_2013.1_src/data/scripts/dock_solv.prm

>  <Rbt.Receptor>
prm/pocket_docking_6.prm

>  <SCORE>
-16.3444

>  <SCORE.INTER>
-16.1777

>  <SCORE.INTER.CONST>
1

>  <SCORE.INTER.POLAR>
0

>  <SCORE.INTER.ROT>
1

>  <SCORE.INTER.SOLV>
16.0129

>  <SCORE.INTER.VDW>
-20.3895

>  <SCORE.INTER.norm>
-1.24444

>  <SCORE.INTRA>
-0.166679

>  <SCORE.INTRA.DIHEDRAL>
-0.000883875

>  <SCORE.INTRA.DIHEDRAL.0>
1.66609

>  <SCORE.INTRA.POLAR>
0

>  <SCORE.INTRA.POLAR.0>
0

>  <SCORE.INTRA.REPUL>
0

>  <SCORE.INTRA.REPUL.0>
0

>  <SCORE.INTRA.SOLV>
-0.981933

>  <SCORE.INTRA.SOLV.lig_0>
-45.868

>  <SCORE.INTRA.VDW>
0.324729

>  <SCORE.INTRA.VDW.0>
-0.397919

>  <SCORE.INTRA.norm>
-0.0128215

>  <SCORE.RESTR>
0

>  <SCORE.RESTR.CAVITY>
0

>  <SCORE.RESTR.norm>
0

>  <SCORE.SYSTEM>
0

>  <SCORE.SYSTEM.CONST>
0

>  <SCORE.SYSTEM.DIHEDRAL>
0

>  <SCORE.SYSTEM.SOLV>
0

>  <SCORE.SYSTEM.norm>
0

>  <SCORE.heavy>
13

>  <SCORE.norm>
-1.25726

>  <RMSD>
4.822

$$$$
ligand
 OpenBabel02271912143D
libRbt.so/2013.1/901 2013/11/27
 13 14  0  0  0  0  0  0  0  0999 V2000
   -1.2871  -32.6510  -41.7712 N   0  0  0  0  0  0  0  0  0  0  0  0
   -0.4820  -32.2036  -42.7844 C   0  0  0  0  0  0  0  0  0  0  0  0
    0.6791  -31.5526  -42.4675 N   0  0  0  0  0  0  0  0  0  0  0  0
   -0.8072  -32.3916  -44.0637 N   0  0  0  0  0  0  0  0  0  0  0  0
   -1.9553  -33.0346  -44.4141 C   0  0  0  0  0  0  0  0  0  0  0  0
   -2.8189  -33.5103  -43.4031 C   0  0  0  0  0  0  0  0  0  0  0  0
   -2.4516  -33.3024  -42.0459 C   0  0  0  0  0  0  0  0  0  0  0  0
   -3.1569  -33.6948  -41.1495 O   0  0  0  0  0  0  0  0  0  0  0  0
   -3.9475  -34.1385  -44.0824 C   0  0  0  0  0  0  0  0  0  0  0  0
   -3.7179  -34.0224  -45.4024 C   0  0  0  0  0  0  0  0  0  0  0  0
   -2.5251  -33.3614  -45.6074 N   0  0  0  0  0  0  0  0  0  0  0  0
   -5.1419  -34.7840  -43.4277 C   0  0  0  0  0  0  0  0  0  0  0  0
   -5.8282  -35.6396  -44.4169 N   0  0  0  0  0  0  0  0  0  0  0  0
  1  2  1  0  0  0  0
  1  7  1  0  0  0  0
  2  3  1  0  0  0  0
  2  4  2  0  0  0  0
  4  5  1  0  0  0  0
  5  6  2  0  0  0  0
  5 11  1  0  0  0  0
  6  7  1  0  0  0  0
  6  9  1  0  0  0  0
  7  8  2  0  0  0  0
  9 10  2  0  0  0  0
  9 12  1  0  0  0  0
 10 11  1  0  0  0  0
 12 13  1  0  0  0  0
M  END
>  <CHROM.1>
-163.01271347,-2.58011642,-33.41282107,-43.42191596,0.30456640,0.53536430
1.56132252

>  <Name>
ligand

>  <RI>
0

>  <Rbt.Current_Directory>
/home/itssahil/PROJECTS/Mol_Feturizer/Test_systems_manuscript/rnas/3fu2

>  <Rbt.Executable>
rbdock ($Id: //depot/dev/client3/rdock/2013.1/src/exe/rbdock.cxx#4 $)

>  <Rbt.Library>
libRbt.so (2013.1, Build901 2013/11/27)

>  <Rbt.Parameter_File>
/export/apps/rDock/src/rDock_2013.1_src/data/scripts/dock_solv.prm

>  <Rbt.Receptor>
prm/pocket_docking_6.prm

>  <SCORE>
-16.3444

>  <SCORE.INTER>
-16.1804

>  <SCORE.INTER.CONST>
1

>  <SCORE.INTER.POLAR>
0

>  <SCORE.INTER.ROT>
1

>  <SCORE.INTER.SOLV>
16.0061

>  <SCORE.INTER.VDW>
-20.389

>  <SCORE.INTER.norm>
-1.24464

>  <SCORE.INTRA>
-0.164049

>  <SCORE.INTRA.DIHEDRAL>
-0.000509047

>  <SCORE.INTRA.DIHEDRAL.0>
1.66609

>  <SCORE.INTRA.POLAR>
0

>  <SCORE.INTRA.POLAR.0>
0

>  <SCORE.INTRA.REPUL>
0

>  <SCORE.INTRA.REPUL.0>
0

>  <SCORE.INTRA.SOLV>
-0.981752

>  <SCORE.INTRA.SOLV.lig_0>
-45.868

>  <SCORE.INTRA.VDW>
0.327082

>  <SCORE.INTRA.VDW.0>
-0.397919

>  <SCORE.INTRA.norm>
-0.0126192

>  <SCORE.RESTR>
0

>  <SCORE.RESTR.CAVITY>
0

>  <SCORE.RESTR.norm>
0

>  <SCORE.SYSTEM>
0

>  <SCORE.SYSTEM.CONST>
0

>  <SCORE.SYSTEM.DIHEDRAL>
0

>  <SCORE.SYSTEM.SOLV>
0

>  <SCORE.SYSTEM.norm>
0

>  <SCORE.heavy>
13

>  <SCORE.norm>
-1.25726

>  <RMSD>
4.822

$$$$
ligand
 OpenBabel02271912143D
libRbt.so/2013.1/901 2013/11/27
 13 14  0  0  0  0  0  0  0  0999 V2000
   -1.2827  -32.6846  -41.7681 N   0  0  0  0  0  0  0  0  0  0  0  0
   -0.4614  -32.2525  -42.7749 C   0  0  0  0  0  0  0  0  0  0  0  0
    0.7066  -31.6186  -42.4490 N   0  0  0  0  0  0  0  0  0  0  0  0
   -0.7777  -32.4389  -44.0567 N   0  0  0  0  0  0  0  0  0  0  0  0
   -1.9323  -33.0652  -44.4161 C   0  0  0  0  0  0  0  0  0  0  0  0
   -2.8124  -33.5246  -43.4118 C   0  0  0  0  0  0  0  0  0  0  0  0
   -2.4545  -33.3187  -42.0519 C   0  0  0  0  0  0  0  0  0  0  0  0
   -3.1740  -33.6977  -41.1611 O   0  0  0  0  0  0  0  0  0  0  0  0
   -3.9443  -34.1373  -44.1000 C   0  0  0  0  0  0  0  0  0  0  0  0
   -3.7007  -34.0283  -45.4181 C   0  0  0  0  0  0  0  0  0  0  0  0
   -2.4960  -33.3864  -45.6137 N   0  0  0  0  0  0  0  0  0  0  0  0
   -5.1544  -34.7625  -43.4547 C   0  0  0  0  0  0  0  0  0  0  0  0
   -5.8337  -35.6255  -44.4423 N   0  0  0  0  0  0  0  0  0  0  0  0
  1  2  1  0  0  0  0
  1  7  1  0  0  0  0
  2  3  1  0  0  0  0
  2  4  2  0  0  0  0
  4  5  1  0  0  0  0
  5  6  2  0  0  0  0
  5 11  1  0  0  0  0
  6  7  1  0  0  0  0
  6  9  1  0  0  0  0
  7  8  2  0  0  0  0
  9 10  2  0  0  0  0
  9 12  1  0  0  0  0
 10 11  1  0  0  0  0
 12 13  1  0  0  0  0
M  END
>  <CHROM.1>
-162.19985967,-2.57109414,-33.43219227,-43.42825619,0.31466415,0.52115904
1.55319166

>  <Name>
ligand

>  <RI>
0

>  <Rbt.Current_Directory>
/home/itssahil/PROJECTS/Mol_Feturizer/Test_systems_manuscript/rnas/3fu2

>  <Rbt.Executable>
rbdock ($Id: //depot/dev/client3/rdock/2013.1/src/exe/rbdock.cxx#4 $)

>  <Rbt.Library>
libRbt.so (2013.1, Build901 2013/11/27)

>  <Rbt.Parameter_File>
/export/apps/rDock/src/rDock_2013.1_src/data/scripts/dock_solv.prm

>  <Rbt.Receptor>
prm/pocket_docking_6.prm

>  <SCORE>
-16.3528

>  <SCORE.INTER>
-16.1854

>  <SCORE.INTER.CONST>
1

>  <SCORE.INTER.POLAR>
0

>  <SCORE.INTER.ROT>
1

>  <SCORE.INTER.SOLV>
16.0052

>  <SCORE.INTER.VDW>
-20.392

>  <SCORE.INTER.norm>
-1.24503

>  <SCORE.INTRA>
-0.167399

>  <SCORE.INTRA.DIHEDRAL>
-0.000982445

>  <SCORE.INTRA.DIHEDRAL.0>
1.66609

>  <SCORE.INTRA.POLAR>
0

>  <SCORE.INTRA.POLAR.0>
0

>  <SCORE.INTRA.REPUL>
0

>  <SCORE.INTRA.REPUL.0>
0

>  <SCORE.INTRA.SOLV>
-0.981983

>  <SCORE.INTRA.SOLV.lig_0>
-45.868

>  <SCORE.INTRA.VDW>
0.324083

>  <SCORE.INTRA.VDW.0>
-0.397919

>  <SCORE.INTRA.norm>
-0.0128769

>  <SCORE.RESTR>
0

>  <SCORE.RESTR.CAVITY>
0

>  <SCORE.RESTR.norm>
0

>  <SCORE.SYSTEM>
0

>  <SCORE.SYSTEM.CONST>
0

>  <SCORE.SYSTEM.DIHEDRAL>
0

>  <SCORE.SYSTEM.SOLV>
0

>  <SCORE.SYSTEM.norm>
0

>  <SCORE.heavy>
13

>  <SCORE.norm>
-1.25791

>  <RMSD>
4.822

$$$$
ligand
 OpenBabel02271912143D
libRbt.so/2013.1/901 2013/11/27
 13 14  0  0  0  0  0  0  0  0999 V2000
   -1.2837  -32.6735  -41.7678 N   0  0  0  0  0  0  0  0  0  0  0  0
   -0.4720  -32.2336  -42.7789 C   0  0  0  0  0  0  0  0  0  0  0  0
    0.6944  -31.5937  -42.4591 N   0  0  0  0  0  0  0  0  0  0  0  0
   -0.7958  -32.4181  -44.0591 N   0  0  0  0  0  0  0  0  0  0  0  0
   -1.9492  -33.0502  -44.4125 C   0  0  0  0  0  0  0  0  0  0  0  0
   -2.8196  -33.5179  -43.4036 C   0  0  0  0  0  0  0  0  0  0  0  0
   -2.4537  -33.3138  -42.0456 C   0  0  0  0  0  0  0  0  0  0  0  0
   -3.1648  -33.6997  -41.1510 O   0  0  0  0  0  0  0  0  0  0  0  0
   -3.9525  -34.1353  -44.0859 C   0  0  0  0  0  0  0  0  0  0  0  0
   -3.7186  -34.0210  -45.4053 C   0  0  0  0  0  0  0  0  0  0  0  0
   -2.5190  -33.3713  -45.6072 N   0  0  0  0  0  0  0  0  0  0  0  0
   -5.1545  -34.7696  -43.4343 C   0  0  0  0  0  0  0  0  0  0  0  0
   -5.8018  -35.6788  -44.4017 N   0  0  0  0  0  0  0  0  0  0  0  0
  1  2  1  0  0  0  0
  1  7  1  0  0  0  0
  2  3  1  0  0  0  0
  2  4  2  0  0  0  0
  4  5  1  0  0  0  0
  5  6  2  0  0  0  0
  5 11  1  0  0  0  0
  6  7  1  0  0  0  0
  6  9  1  0  0  0  0
  7  8  2  0  0  0  0
  9 10  2  0  0  0  0
  9 12  1  0  0  0  0
 10 11  1  0  0  0  0
 12 13  1  0  0  0  0
M  END
>  <CHROM.1>
-159.78028775,-2.57625662,-33.42760423,-43.41995710,0.30558697,0.53120166
1.55960760

>  <Name>
ligand

>  <RI>
0

>  <Rbt.Current_Directory>
/home/itssahil/PROJECTS/Mol_Feturizer/Test_systems_manuscript/rnas/3fu2

>  <Rbt.Executable>
rbdock ($Id: //depot/dev/client3/rdock/2013.1/src/exe/rbdock.cxx#4 $)

>  <Rbt.Library>
libRbt.so (2013.1, Build901 2013/11/27)

>  <Rbt.Parameter_File>
/export/apps/rDock/src/rDock_2013.1_src/data/scripts/dock_solv.prm

>  <Rbt.Receptor>
prm/pocket_docking_6.prm

>  <SCORE>
-16.3297

>  <SCORE.INTER>
-16.1519

>  <SCORE.INTER.CONST>
1

>  <SCORE.INTER.POLAR>
0

>  <SCORE.INTER.ROT>
1

>  <SCORE.INTER.SOLV>
16.0091

>  <SCORE.INTER.VDW>
-20.3709

>  <SCORE.INTER.norm>
-1.24245

>  <SCORE.INTRA>
-0.177812

>  <SCORE.INTRA.DIHEDRAL>
-0.00222883

>  <SCORE.INTRA.DIHEDRAL.0>
1.66609

>  <SCORE.INTRA.POLAR>
0

>  <SCORE.INTRA.POLAR.0>
0

>  <SCORE.INTRA.REPUL>
0

>  <SCORE.INTRA.REPUL.0>
0

>  <SCORE.INTRA.SOLV>
-0.982712

>  <SCORE.INTRA.SOLV.lig_0>
-45.868

>  <SCORE.INTRA.VDW>
0.314658

>  <SCORE.INTRA.VDW.0>
-0.397919

>  <SCORE.INTRA.norm>
-0.0136778

>  <SCORE.RESTR>
0

>  <SCORE.RESTR.CAVITY>
0

>  <SCORE.RESTR.norm>
0

>  <SCORE.SYSTEM>
0

>  <SCORE.SYSTEM.CONST>
0

>  <SCORE.SYSTEM.DIHEDRAL>
0

>  <SCORE.SYSTEM.SOLV>
0

>  <SCORE.SYSTEM.norm>
0

>  <SCORE.heavy>
13

>  <SCORE.norm>
-1.25613

>  <RMSD>
4.822

$$$$
ligand
 OpenBabel02271912143D
libRbt.so/2013.1/901 2013/11/27
 13 14  0  0  0  0  0  0  0  0999 V2000
   -1.2832  -32.6581  -41.7601 N   0  0  0  0  0  0  0  0  0  0  0  0
   -0.4705  -32.2219  -42.7720 C   0  0  0  0  0  0  0  0  0  0  0  0
    0.6950  -31.5798  -42.4535 N   0  0  0  0  0  0  0  0  0  0  0  0
   -0.7927  -32.4121  -44.0518 N   0  0  0  0  0  0  0  0  0  0  0  0
   -1.9451  -33.0465  -44.4039 C   0  0  0  0  0  0  0  0  0  0  0  0
   -2.8165  -33.5106  -43.3942 C   0  0  0  0  0  0  0  0  0  0  0  0
   -2.4524  -33.3005  -42.0365 C   0  0  0  0  0  0  0  0  0  0  0  0
   -3.1643  -33.6831  -41.1412 O   0  0  0  0  0  0  0  0  0  0  0  0
   -3.9480  -34.1317  -44.0752 C   0  0  0  0  0  0  0  0  0  0  0  0
   -3.7126  -34.0228  -45.3948 C   0  0  0  0  0  0  0  0  0  0  0  0
   -2.5133  -33.3731  -45.5979 N   0  0  0  0  0  0  0  0  0  0  0  0
   -5.1504  -34.7641  -43.4224 C   0  0  0  0  0  0  0  0  0  0  0  0
   -5.8099  -35.6593  -44.3946 N   0  0  0  0  0  0  0  0  0  0  0  0
  1  2  1  0  0  0  0
  1  7  1  0  0  0  0
  2  3  1  0  0  0  0
  2  4  2  0  0  0  0
  4  5  1  0  0  0  0
  5  6  2  0  0  0  0
  5 11  1  0  0  0  0
  6  7  1  0  0  0  0
  6  9  1  0  0  0  0
  7  8  2  0  0  0  0
  9 10  2  0  0  0  0
  9 12  1  0  0  0  0
 10 11  1  0  0  0  0
 12 13  1  0  0  0  0
M  END
>  <CHROM.1>
-160.78418798,-2.57430015,-33.41867658,-43.41121422,0.30759751,0.53025969
1.55481440

>  <Name>
ligand

>  <RI>
0

>  <Rbt.Current_Directory>
/home/itssahil/PROJECTS/Mol_Feturizer/Test_systems_manuscript/rnas/3fu2

>  <Rbt.Executable>
rbdock ($Id: //depot/dev/client3/rdock/2013.1/src/exe/rbdock.cxx#4 $)

>  <Rbt.Library>
libRbt.so (2013.1, Build901 2013/11/27)

>  <Rbt.Parameter_File>
/export/apps/rDock/src/rDock_2013.1_src/data/scripts/dock_solv.prm

>  <Rbt.Receptor>
prm/pocket_docking_6.prm

>  <SCORE>
-16.3006

>  <SCORE.INTER>
-16.1271

>  <SCORE.INTER.CONST>
1

>  <SCORE.INTER.POLAR>
0

>  <SCORE.INTER.ROT>
1

>  <SCORE.INTER.SOLV>
16.0068

>  <SCORE.INTER.VDW>
-20.3537

>  <SCORE.INTER.norm>
-1.24055

>  <SCORE.INTRA>
-0.173418

>  <SCORE.INTRA.DIHEDRAL>
-0.00174204

>  <SCORE.INTRA.DIHEDRAL.0>
1.66609

>  <SCORE.INTRA.POLAR>
0

>  <SCORE.INTRA.POLAR.0>
0

>  <SCORE.INTRA.REPUL>
0

>  <SCORE.INTRA.REPUL.0>
0

>  <SCORE.INTRA.SOLV>
-0.982402

>  <SCORE.INTRA.SOLV.lig_0>
-45.868

>  <SCORE.INTRA.VDW>
0.318654

>  <SCORE.INTRA.VDW.0>
-0.397919

>  <SCORE.INTRA.norm>
-0.0133398

>  <SCORE.RESTR>
0

>  <SCORE.RESTR.CAVITY>
0

>  <SCORE.RESTR.norm>
0

>  <SCORE.SYSTEM>
0

>  <SCORE.SYSTEM.CONST>
0

>  <SCORE.SYSTEM.DIHEDRAL>
0

>  <SCORE.SYSTEM.SOLV>
0

>  <SCORE.SYSTEM.norm>
0

>  <SCORE.heavy>
13

>  <SCORE.norm>
-1.25389

>  <RMSD>
4.822

$$$$
ligand
 OpenBabel02271912143D
libRbt.so/2013.1/901 2013/11/27
 13 14  0  0  0  0  0  0  0  0999 V2000
   -1.2852  -32.6942  -41.7674 N   0  0  0  0  0  0  0  0  0  0  0  0
   -0.4641  -32.2559  -42.7717 C   0  0  0  0  0  0  0  0  0  0  0  0
    0.7016  -31.6198  -42.4421 N   0  0  0  0  0  0  0  0  0  0  0  0
   -0.7784  -32.4384  -44.0545 N   0  0  0  0  0  0  0  0  0  0  0  0
   -1.9308  -33.0667  -44.4175 C   0  0  0  0  0  0  0  0  0  0  0  0
   -2.8107  -33.5326  -43.4160 C   0  0  0  0  0  0  0  0  0  0  0  0
   -2.4549  -33.3307  -42.0549 C   0  0  0  0  0  0  0  0  0  0  0  0
   -3.1742  -33.7152  -41.1663 O   0  0  0  0  0  0  0  0  0  0  0  0
   -3.9400  -34.1459  -44.1077 C   0  0  0  0  0  0  0  0  0  0  0  0
   -3.6953  -34.0313  -45.4251 C   0  0  0  0  0  0  0  0  0  0  0  0
   -2.4922  -33.3851  -45.6169 N   0  0  0  0  0  0  0  0  0  0  0  0
   -5.1490  -34.7771  -43.4661 C   0  0  0  0  0  0  0  0  0  0  0  0
   -5.8227  -35.6411  -44.4567 N   0  0  0  0  0  0  0  0  0  0  0  0
  1  2  1  0  0  0  0
  1  7  1  0  0  0  0
  2  3  1  0  0  0  0
  2  4  2  0  0  0  0
  4  5  1  0  0  0  0
  5  6  2  0  0  0  0
  5 11  1  0  0  0  0
  6  7  1  0  0  0  0
  6  9  1  0  0  0  0
  7  8  2  0  0  0  0
  9 10  2  0  0  0  0
  9 12  1  0  0  0  0
 10 11  1  0  0  0  0
 12 13  1  0  0  0  0
M  END
>  <CHROM.1>
-162.05633542,-2.56944460,-33.43955892,-43.43170873,0.31590589,0.52431785
1.55628209

>  <Name>
ligand

>  <RI>
0

>  <Rbt.Current_Directory>
/home/itssahil/PROJECTS/Mol_Feturizer/Test_systems_manuscript/rnas/3fu2

>  <Rbt.Executable>
rbdock ($Id: //depot/dev/client3/rdock/2013.1/src/exe/rbdock.cxx#4 $)

>  <Rbt.Library>
libRbt.so (2013.1, Build901 2013/11/27)

>  <Rbt.Parameter_File>
/export/apps/rDock/src/rDock_2013.1_src/data/scripts/dock_solv.prm

>  <Rbt.Receptor>
prm/pocket_docking_7.prm

>  <SCORE>
-16.3463

>  <SCORE.INTER>
-16.1783

>  <SCORE.INTER.CONST>
1

>  <SCORE.INTER.POLAR>
0

>  <SCORE.INTER.ROT>
1

>  <SCORE.INTER.SOLV>
16.0012

>  <SCORE.INTER.VDW>
-20.3859

>  <SCORE.INTER.norm>
-1.24448

>  <SCORE.INTRA>
-0.167999

>  <SCORE.INTRA.DIHEDRAL>
-0.00106325

>  <SCORE.INTRA.DIHEDRAL.0>
1.66609

>  <SCORE.INTRA.POLAR>
0

>  <SCORE.INTRA.POLAR.0>
0

>  <SCORE.INTRA.REPUL>
0

>  <SCORE.INTRA.REPUL.0>
0

>  <SCORE.INTRA.SOLV>
-0.982024

>  <SCORE.INTRA.SOLV.lig_0>
-45.868

>  <SCORE.INTRA.VDW>
0.323545

>  <SCORE.INTRA.VDW.0>
-0.397919

>  <SCORE.INTRA.norm>
-0.012923

>  <SCORE.RESTR>
0

>  <SCORE.RESTR.CAVITY>
0

>  <SCORE.RESTR.norm>
0

>  <SCORE.SYSTEM>
0

>  <SCORE.SYSTEM.CONST>
0

>  <SCORE.SYSTEM.DIHEDRAL>
0

>  <SCORE.SYSTEM.SOLV>
0

>  <SCORE.SYSTEM.norm>
0

>  <SCORE.heavy>
13

>  <SCORE.norm>
-1.25741

>  <RMSD>
4.822

$$$$
ligand
 OpenBabel02271912143D
libRbt.so/2013.1/901 2013/11/27
 13 14  0  0  0  0  0  0  0  0999 V2000
   -1.2746  -32.6876  -41.7725 N   0  0  0  0  0  0  0  0  0  0  0  0
   -0.4482  -32.2662  -42.7796 C   0  0  0  0  0  0  0  0  0  0  0  0
    0.7247  -31.6411  -42.4543 N   0  0  0  0  0  0  0  0  0  0  0  0
   -0.7642  -32.4545  -44.0613 N   0  0  0  0  0  0  0  0  0  0  0  0
   -1.9236  -33.0722  -44.4201 C   0  0  0  0  0  0  0  0  0  0  0  0
   -2.8090  -33.5206  -43.4156 C   0  0  0  0  0  0  0  0  0  0  0  0
   -2.4514  -33.3128  -42.0558 C   0  0  0  0  0  0  0  0  0  0  0  0
   -3.1754  -33.6825  -41.1647 O   0  0  0  0  0  0  0  0  0  0  0  0
   -3.9450  -34.1260  -44.1032 C   0  0  0  0  0  0  0  0  0  0  0  0
   -3.6986  -34.0238  -45.4213 C   0  0  0  0  0  0  0  0  0  0  0  0
   -2.4882  -33.3929  -45.6174 N   0  0  0  0  0  0  0  0  0  0  0  0
   -5.1614  -34.7386  -43.4576 C   0  0  0  0  0  0  0  0  0  0  0  0
   -5.8156  -35.6424  -44.4254 N   0  0  0  0  0  0  0  0  0  0  0  0
  1  2  1  0  0  0  0
  1  7  1  0  0  0  0
  2  3  1  0  0  0  0
  2  4  2  0  0  0  0
  4  5  1  0  0  0  0
  5  6  2  0  0  0  0
  5 11  1  0  0  0  0
  6  7  1  0  0  0  0
  6  9  1  0  0  0  0
  7  8  2  0  0  0  0
  9 10  2  0  0  0  0
  9 12  1  0  0  0  0
 10 11  1  0  0  0  0
 12 13  1  0  0  0  0
M  END
>  <CHROM.1>
-159.90574070,-2.56437144,-33.43372998,-43.43052097,0.31496212,0.51638936
1.54842719

>  <Name>
ligand

>  <RI>
0

>  <Rbt.Current_Directory>
/home/itssahil/PROJECTS/Mol_Feturizer/Test_systems_manuscript/rnas/3fu2

>  <Rbt.Executable>
rbdock ($Id: //depot/dev/client3/rdock/2013.1/src/exe/rbdock.cxx#4 $)

>  <Rbt.Library>
libRbt.so (2013.1, Build901 2013/11/27)

>  <Rbt.Parameter_File>
/export/apps/rDock/src/rDock_2013.1_src/data/scripts/dock_solv.prm

>  <Rbt.Receptor>
prm/pocket_docking_7.prm

>  <SCORE>
-16.2728

>  <SCORE.INTER>
-16.0955

>  <SCORE.INTER.CONST>
1

>  <SCORE.INTER.POLAR>
0

>  <SCORE.INTER.ROT>
1

>  <SCORE.INTER.SOLV>
16.0114

>  <SCORE.INTER.VDW>
-20.3341

>  <SCORE.INTER.norm>
-1.23812

>  <SCORE.INTRA>
-0.177258

>  <SCORE.INTRA.DIHEDRAL>
-0.00217041

>  <SCORE.INTRA.DIHEDRAL.0>
1.66609

>  <SCORE.INTRA.POLAR>
0

>  <SCORE.INTRA.POLAR.0>
0

>  <SCORE.INTRA.REPUL>
0

>  <SCORE.INTRA.REPUL.0>
0

>  <SCORE.INTRA.SOLV>
-0.982672

>  <SCORE.INTRA.SOLV.lig_0>
-45.868

>  <SCORE.INTRA.VDW>
0.315164

>  <SCORE.INTRA.VDW.0>
-0.397919

>  <SCORE.INTRA.norm>
-0.0136352

>  <SCORE.RESTR>
0

>  <SCORE.RESTR.CAVITY>
0

>  <SCORE.RESTR.norm>
0

>  <SCORE.SYSTEM>
0

>  <SCORE.SYSTEM.CONST>
0

>  <SCORE.SYSTEM.DIHEDRAL>
0

>  <SCORE.SYSTEM.SOLV>
0

>  <SCORE.SYSTEM.norm>
0

>  <SCORE.heavy>
13

>  <SCORE.norm>
-1.25175

>  <RMSD>
4.822

$$$$
ligand
 OpenBabel02271912143D
libRbt.so/2013.1/901 2013/11/27
 13 14  0  0  0  0  0  0  0  0999 V2000
   -1.2881  -32.6635  -41.7704 N   0  0  0  0  0  0  0  0  0  0  0  0
   -0.4800  -32.2179  -42.7820 C   0  0  0  0  0  0  0  0  0  0  0  0
    0.6820  -31.5698  -42.4629 N   0  0  0  0  0  0  0  0  0  0  0  0
   -0.8034  -32.4048  -44.0620 N   0  0  0  0  0  0  0  0  0  0  0  0
   -1.9524  -33.0450  -44.4147 C   0  0  0  0  0  0  0  0  0  0  0  0
   -2.8189  -33.5188  -43.4053 C   0  0  0  0  0  0  0  0  0  0  0  0
   -2.4537  -33.3121  -42.0474 C   0  0  0  0  0  0  0  0  0  0  0  0
   -3.1615  -33.7029  -41.1524 O   0  0  0  0  0  0  0  0  0  0  0  0
   -3.9478  -34.1442  -44.0868 C   0  0  0  0  0  0  0  0  0  0  0  0
   -3.7155  -34.0283  -45.4064 C   0  0  0  0  0  0  0  0  0  0  0  0
   -2.5207  -33.3702  -45.6090 N   0  0  0  0  0  0  0  0  0  0  0  0
   -5.1450  -34.7869  -43.4345 C   0  0  0  0  0  0  0  0  0  0  0  0
   -5.8252  -35.6492  -44.4220 N   0  0  0  0  0  0  0  0  0  0  0  0
  1  2  1  0  0  0  0
  1  7  1  0  0  0  0
  2  3  1  0  0  0  0
  2  4  2  0  0  0  0
  4  5  1  0  0  0  0
  5  6  2  0  0  0  0
  5 11  1  0  0  0  0
  6  7  1  0  0  0  0
  6  9  1  0  0  0  0
  7  8  2  0  0  0  0
  9 10  2  0  0  0  0
  9 12  1  0  0  0  0
 10 11  1  0  0  0  0
 12 13  1  0  0  0  0
M  END
>  <CHROM.1>
-162.55427833,-2.57939358,-33.42259124,-43.42342799,0.30646136,0.53368246
1.56035350

>  <Name>
ligand

>  <RI>
0

>  <Rbt.Current_Directory>
/home/itssahil/PROJECTS/Mol_Feturizer/Test_systems_manuscript/rnas/3fu2

>  <Rbt.Executable>
rbdock ($Id: //depot/dev/client3/rdock/2013.1/src/exe/rbdock.cxx#4 $)

>  <Rbt.Library>
libRbt.so (2013.1, Build901 2013/11/27)

>  <Rbt.Parameter_File>
/export/apps/rDock/src/rDock_2013.1_src/data/scripts/dock_solv.prm

>  <Rbt.Receptor>
prm/pocket_docking_7.prm

>  <SCORE>
-16.3433

>  <SCORE.INTER>
-16.1773

>  <SCORE.INTER.CONST>
1

>  <SCORE.INTER.POLAR>
0

>  <SCORE.INTER.ROT>
1

>  <SCORE.INTER.SOLV>
16.0067

>  <SCORE.INTER.VDW>
-20.3871

>  <SCORE.INTER.norm>
-1.24441

>  <SCORE.INTRA>
-0.165929

>  <SCORE.INTRA.DIHEDRAL>
-0.000779302

>  <SCORE.INTRA.DIHEDRAL.0>
1.66609

>  <SCORE.INTRA.POLAR>
0

>  <SCORE.INTRA.POLAR.0>
0

>  <SCORE.INTRA.REPUL>
0

>  <SCORE.INTRA.REPUL.0>
0

>  <SCORE.INTRA.SOLV>
-0.981881

>  <SCORE.INTRA.SOLV.lig_0>
-45.868

>  <SCORE.INTRA.VDW>
0.325402

>  <SCORE.INTRA.VDW.0>
-0.397919

>  <SCORE.INTRA.norm>
-0.0127637

>  <SCORE.RESTR>
0

>  <SCORE.RESTR.CAVITY>
0

>  <SCORE.RESTR.norm>
0

>  <SCORE.SYSTEM>
0

>  <SCORE.SYSTEM.CONST>
0

>  <SCORE.SYSTEM.DIHEDRAL>
0

>  <SCORE.SYSTEM.SOLV>
0

>  <SCORE.SYSTEM.norm>
0

>  <SCORE.heavy>
13

>  <SCORE.norm>
-1.25717

>  <RMSD>
4.822

$$$$
ligand
 OpenBabel02271912143D
libRbt.so/2013.1/901 2013/11/27
 13 14  0  0  0  0  0  0  0  0999 V2000
   -1.2908  -32.6473  -41.7687 N   0  0  0  0  0  0  0  0  0  0  0  0
   -0.4839  -32.2019  -42.7813 C   0  0  0  0  0  0  0  0  0  0  0  0
    0.6760  -31.5493  -42.4637 N   0  0  0  0  0  0  0  0  0  0  0  0
   -0.8064  -32.3932  -44.0609 N   0  0  0  0  0  0  0  0  0  0  0  0
   -1.9533  -33.0379  -44.4121 C   0  0  0  0  0  0  0  0  0  0  0  0
   -2.8186  -33.5117  -43.4016 C   0  0  0  0  0  0  0  0  0  0  0  0
   -2.4543  -33.3002  -42.0442 C   0  0  0  0  0  0  0  0  0  0  0  0
   -3.1611  -33.6909  -41.1484 O   0  0  0  0  0  0  0  0  0  0  0  0
   -3.9454  -34.1424  -44.0817 C   0  0  0  0  0  0  0  0  0  0  0  0
   -3.7132  -34.0293  -45.4015 C   0  0  0  0  0  0  0  0  0  0  0  0
   -2.5204  -33.3680  -45.6057 N   0  0  0  0  0  0  0  0  0  0  0  0
   -5.1406  -34.7871  -43.4279 C   0  0  0  0  0  0  0  0  0  0  0  0
   -5.8163  -35.6565  -44.4124 N   0  0  0  0  0  0  0  0  0  0  0  0
  1  2  1  0  0  0  0
  1  7  1  0  0  0  0
  2  3  1  0  0  0  0
  2  4  2  0  0  0  0
  4  5  1  0  0  0  0
  5  6  2  0  0  0  0
  5 11  1  0  0  0  0
  6  7  1  0  0  0  0
  6  9  1  0  0  0  0
  7  8  2  0  0  0  0
  9 10  2  0  0  0  0
  9 12  1  0  0  0  0
 10 11  1  0  0  0  0
 12 13  1  0  0  0  0
M  END
>  <CHROM.1>
-162.43187233,-2.57921417,-33.41498685,-43.41989367,0.30669402,0.53701033
1.55752676

>  <Name>
ligand

>  <RI>
0

>  <Rbt.Current_Directory>
/home/itssahil/PROJECTS/Mol_Feturizer/Test_systems_manuscript/rnas/3fu2

>  <Rbt.Executable>
rbdock ($Id: //depot/dev/client3/rdock/2013.1/src/exe/rbdock.cxx#4 $)

>  <Rbt.Library>
libRbt.so (2013.1, Build901 2013/11/27)

>  <Rbt.Parameter_File>
/export/apps/rDock/src/rDock_2013.1_src/data/scripts/dock_solv.prm

>  <Rbt.Receptor>
prm/pocket_docking_7.prm

>  <SCORE>
-16.3454

>  <SCORE.INTER>
-16.1789

>  <SCORE.INTER.CONST>
1

>  <SCORE.INTER.POLAR>
0

>  <SCORE.INTER.ROT>
1

>  <SCORE.INTER.SOLV>
16.0149

>  <SCORE.INTER.VDW>
-20.3909

>  <SCORE.INTER.norm>
-1.24453

>  <SCORE.INTRA>
-0.166435

>  <SCORE.INTRA.DIHEDRAL>
-0.000850037

>  <SCORE.INTRA.DIHEDRAL.0>
1.66609

>  <SCORE.INTRA.POLAR>
0

>  <SCORE.INTRA.POLAR.0>
0

>  <SCORE.INTRA.REPUL>
0

>  <SCORE.INTRA.REPUL.0>
0

>  <SCORE.INTRA.SOLV>
-0.981916

>  <SCORE.INTRA.SOLV.lig_0>
-45.868

>  <SCORE.INTRA.VDW>
0.324948

>  <SCORE.INTRA.VDW.0>
-0.397919

>  <SCORE.INTRA.norm>
-0.0128027

>  <SCORE.RESTR>
0

>  <SCORE.RESTR.CAVITY>
0

>  <SCORE.RESTR.norm>
0

>  <SCORE.SYSTEM>
0

>  <SCORE.SYSTEM.CONST>
0

>  <SCORE.SYSTEM.DIHEDRAL>
0

>  <SCORE.SYSTEM.SOLV>
0

>  <SCORE.SYSTEM.norm>
0

>  <SCORE.heavy>
13

>  <SCORE.norm>
-1.25733

>  <RMSD>
4.822

$$$$
ligand
 OpenBabel02271912143D
libRbt.so/2013.1/901 2013/11/27
 13 14  0  0  0  0  0  0  0  0999 V2000
   -1.2798  -32.6835  -41.7688 N   0  0  0  0  0  0  0  0  0  0  0  0
   -0.4633  -32.2499  -42.7788 C   0  0  0  0  0  0  0  0  0  0  0  0
    0.7065  -31.6170  -42.4573 N   0  0  0  0  0  0  0  0  0  0  0  0
   -0.7857  -32.4339  -44.0594 N   0  0  0  0  0  0  0  0  0  0  0  0
   -1.9423  -33.0591  -44.4143 C   0  0  0  0  0  0  0  0  0  0  0  0
   -2.8177  -33.5200  -43.4067 C   0  0  0  0  0  0  0  0  0  0  0  0
   -2.4533  -33.3167  -42.0481 C   0  0  0  0  0  0  0  0  0  0  0  0
   -3.1686  -33.6970  -41.1546 O   0  0  0  0  0  0  0  0  0  0  0  0
   -3.9531  -34.1311  -44.0905 C   0  0  0  0  0  0  0  0  0  0  0  0
   -3.7159  -34.0198  -45.4096 C   0  0  0  0  0  0  0  0  0  0  0  0
   -2.5118  -33.3780  -45.6098 N   0  0  0  0  0  0  0  0  0  0  0  0
   -5.1604  -34.7570  -43.4406 C   0  0  0  0  0  0  0  0  0  0  0  0
   -5.7976  -35.6816  -44.4001 N   0  0  0  0  0  0  0  0  0  0  0  0
  1  2  1  0  0  0  0
  1  7  1  0  0  0  0
  2  3  1  0  0  0  0
  2  4  2  0  0  0  0
  4  5  1  0  0  0  0
  5  6  2  0  0  0  0
  5 11  1  0  0  0  0
  6  7  1  0  0  0  0
  6  9  1  0  0  0  0
  7  8  2  0  0  0  0
  9 10  2  0  0  0  0
  9 12  1  0  0  0  0
 10 11  1  0  0  0  0
 12 13  1  0  0  0  0
M  END
>  <CHROM.1>
-158.77492017,-2.57265372,-33.43283434,-43.42197806,0.30722429,0.52649631
1.55716092

>  <Name>
ligand

>  <RI>
0

>  <Rbt.Current_Directory>
/home/itssahil/PROJECTS/Mol_Feturizer/Test_systems_manuscript/rnas/3fu2

>  <Rbt.Executable>
rbdock ($Id: //depot/dev/client3/rdock/2013.1/src/exe/rbdock.cxx#4 $)

>  <Rbt.Library>
libRbt.so (2013.1, Build901 2013/11/27)

>  <Rbt.Parameter_File>
/export/apps/rDock/src/rDock_2013.1_src/data/scripts/dock_solv.prm

>  <Rbt.Receptor>
prm/pocket_docking_8.prm

>  <SCORE>
-16.3528

>  <SCORE.INTER>
-16.1705

>  <SCORE.INTER.CONST>
1

>  <SCORE.INTER.POLAR>
0

>  <SCORE.INTER.ROT>
1

>  <SCORE.INTER.SOLV>
16.0103

>  <SCORE.INTER.VDW>
-20.3838

>  <SCORE.INTER.norm>
-1.24389

>  <SCORE.INTRA>
-0.182304

>  <SCORE.INTRA.DIHEDRAL>
-0.00267165

>  <SCORE.INTRA.DIHEDRAL.0>
1.66609

>  <SCORE.INTRA.POLAR>
0

>  <SCORE.INTRA.POLAR.0>
0

>  <SCORE.INTRA.REPUL>
0

>  <SCORE.INTRA.REPUL.0>
0

>  <SCORE.INTRA.SOLV>
-0.983032

>  <SCORE.INTRA.SOLV.lig_0>
-45.868

>  <SCORE.INTRA.VDW>
0.310548

>  <SCORE.INTRA.VDW.0>
-0.397919

>  <SCORE.INTRA.norm>
-0.0140234

>  <SCORE.RESTR>
0

>  <SCORE.RESTR.CAVITY>
0

>  <SCORE.RESTR.norm>
0

>  <SCORE.SYSTEM>
0

>  <SCORE.SYSTEM.CONST>
0

>  <SCORE.SYSTEM.DIHEDRAL>
0

>  <SCORE.SYSTEM.SOLV>
0

>  <SCORE.SYSTEM.norm>
0

>  <SCORE.heavy>
13

>  <SCORE.norm>
-1.25791

>  <RMSD>
4.822

$$$$
ligand
 OpenBabel02271912143D
libRbt.so/2013.1/901 2013/11/27
 13 14  0  0  0  0  0  0  0  0999 V2000
   -1.2840  -32.6584  -41.7709 N   0  0  0  0  0  0  0  0  0  0  0  0
   -0.4735  -32.2194  -42.7834 C   0  0  0  0  0  0  0  0  0  0  0  0
    0.6907  -31.5745  -42.4658 N   0  0  0  0  0  0  0  0  0  0  0  0
   -0.7967  -32.4096  -44.0630 N   0  0  0  0  0  0  0  0  0  0  0  0
   -1.9478  -33.0467  -44.4142 C   0  0  0  0  0  0  0  0  0  0  0  0
   -2.8169  -33.5137  -43.4038 C   0  0  0  0  0  0  0  0  0  0  0  0
   -2.4518  -33.3036  -42.0464 C   0  0  0  0  0  0  0  0  0  0  0  0
   -3.1617  -33.6887  -41.1506 O   0  0  0  0  0  0  0  0  0  0  0  0
   -3.9476  -34.1373  -44.0840 C   0  0  0  0  0  0  0  0  0  0  0  0
   -3.7140  -34.0269  -45.4037 C   0  0  0  0  0  0  0  0  0  0  0  0
   -2.5165  -33.3739  -45.6078 N   0  0  0  0  0  0  0  0  0  0  0  0
   -5.1476  -34.7732  -43.4302 C   0  0  0  0  0  0  0  0  0  0  0  0
   -5.8135  -35.6592  -44.4065 N   0  0  0  0  0  0  0  0  0  0  0  0
  1  2  1  0  0  0  0
  1  7  1  0  0  0  0
  2  3  1  0  0  0  0
  2  4  2  0  0  0  0
  4  5  1  0  0  0  0
  5  6  2  0  0  0  0
  5 11  1  0  0  0  0
  6  7  1  0  0  0  0
  6  9  1  0  0  0  0
  7  8  2  0  0  0  0
  9 10  2  0  0  0  0
  9 12  1  0  0  0  0
 10 11  1  0  0  0  0
 12 13  1  0  0  0  0
M  END
>  <CHROM.1>
-161.34035087,-2.57557435,-33.42033932,-43.42139894,0.30662634,0.53195041
1.55622958

>  <Name>
ligand

>  <RI>
0

>  <Rbt.Current_Directory>
/home/itssahil/PROJECTS/Mol_Feturizer/Test_systems_manuscript/rnas/3fu2

>  <Rbt.Executable>
rbdock ($Id: //depot/dev/client3/rdock/2013.1/src/exe/rbdock.cxx#4 $)

>  <Rbt.Library>
libRbt.so (2013.1, Build901 2013/11/27)

>  <Rbt.Parameter_File>
/export/apps/rDock/src/rDock_2013.1_src/data/scripts/dock_solv.prm

>  <Rbt.Receptor>
prm/pocket_docking_8.prm

>  <SCORE>
-16.3411

>  <SCORE.INTER>
-16.1701

>  <SCORE.INTER.CONST>
1

>  <SCORE.INTER.POLAR>
0

>  <SCORE.INTER.ROT>
1

>  <SCORE.INTER.SOLV>
16.0134

>  <SCORE.INTER.VDW>
-20.3845

>  <SCORE.INTER.norm>
-1.24385

>  <SCORE.INTRA>
-0.171027

>  <SCORE.INTRA.DIHEDRAL>
-0.00145366

>  <SCORE.INTRA.DIHEDRAL.0>
1.66609

>  <SCORE.INTRA.POLAR>
0

>  <SCORE.INTRA.POLAR.0>
0

>  <SCORE.INTRA.REPUL>
0

>  <SCORE.INTRA.REPUL.0>
0

>  <SCORE.INTRA.SOLV>
-0.982235

>  <SCORE.INTRA.SOLV.lig_0>
-45.868

>  <SCORE.INTRA.VDW>
0.320817

>  <SCORE.INTRA.VDW.0>
-0.397919

>  <SCORE.INTRA.norm>
-0.0131559

>  <SCORE.RESTR>
0

>  <SCORE.RESTR.CAVITY>
0

>  <SCORE.RESTR.norm>
0

>  <SCORE.SYSTEM>
0

>  <SCORE.SYSTEM.CONST>
0

>  <SCORE.SYSTEM.DIHEDRAL>
0

>  <SCORE.SYSTEM.SOLV>
0

>  <SCORE.SYSTEM.norm>
0

>  <SCORE.heavy>
13

>  <SCORE.norm>
-1.25701

>  <RMSD>
4.822

$$$$
ligand
 OpenBabel02271912143D
libRbt.so/2013.1/901 2013/11/27
 13 14  0  0  0  0  0  0  0  0999 V2000
   -1.2855  -32.6982  -41.7720 N   0  0  0  0  0  0  0  0  0  0  0  0
   -0.4733  -32.2519  -42.7799 C   0  0  0  0  0  0  0  0  0  0  0  0
    0.6929  -31.6140  -42.4555 N   0  0  0  0  0  0  0  0  0  0  0  0
   -0.7966  -32.4283  -44.0614 N   0  0  0  0  0  0  0  0  0  0  0  0
   -1.9497  -33.0582  -44.4193 C   0  0  0  0  0  0  0  0  0  0  0  0
   -2.8207  -33.5322  -43.4139 C   0  0  0  0  0  0  0  0  0  0  0  0
   -2.4554  -33.3367  -42.0543 C   0  0  0  0  0  0  0  0  0  0  0  0
   -3.1669  -33.7283  -41.1626 O   0  0  0  0  0  0  0  0  0  0  0  0
   -3.9532  -34.1453  -44.1005 C   0  0  0  0  0  0  0  0  0  0  0  0
   -3.7187  -34.0226  -45.4191 C   0  0  0  0  0  0  0  0  0  0  0  0
   -2.5191  -33.3717  -45.6163 N   0  0  0  0  0  0  0  0  0  0  0  0
   -5.1555  -34.7836  -43.4535 C   0  0  0  0  0  0  0  0  0  0  0  0
   -5.8266  -35.6543  -44.4400 N   0  0  0  0  0  0  0  0  0  0  0  0
  1  2  1  0  0  0  0
  1  7  1  0  0  0  0
  2  3  1  0  0  0  0
  2  4  2  0  0  0  0
  4  5  1  0  0  0  0
  5  6  2  0  0  0  0
  5 11  1  0  0  0  0
  6  7  1  0  0  0  0
  6  9  1  0  0  0  0
  7  8  2  0  0  0  0
  9 10  2  0  0  0  0
  9 12  1  0  0  0  0
 10 11  1  0  0  0  0
 12 13  1  0  0  0  0
M  END
>  <CHROM.1>
-161.52536644,-2.57927069,-33.43918464,-43.43056160,0.30709368,0.52832448
1.56596304

>  <Name>
ligand

>  <RI>
0

>  <Rbt.Current_Directory>
/home/itssahil/PROJECTS/Mol_Feturizer/Test_systems_manuscript/rnas/3fu2

>  <Rbt.Executable>
rbdock ($Id: //depot/dev/client3/rdock/2013.1/src/exe/rbdock.cxx#4 $)

>  <Rbt.Library>
libRbt.so (2013.1, Build901 2013/11/27)

>  <Rbt.Parameter_File>
/export/apps/rDock/src/rDock_2013.1_src/data/scripts/dock_solv.prm

>  <Rbt.Receptor>
prm/pocket_docking_8.prm

>  <SCORE>
-16.3308

>  <SCORE.INTER>
-16.1606

>  <SCORE.INTER.CONST>
1

>  <SCORE.INTER.POLAR>
0

>  <SCORE.INTER.ROT>
1

>  <SCORE.INTER.SOLV>
15.9923

>  <SCORE.INTER.VDW>
-20.3711

>  <SCORE.INTER.norm>
-1.24312

>  <SCORE.INTRA>
-0.170239

>  <SCORE.INTRA.DIHEDRAL>
-0.00135482

>  <SCORE.INTRA.DIHEDRAL.0>
1.66609

>  <SCORE.INTRA.POLAR>
0

>  <SCORE.INTRA.POLAR.0>
0

>  <SCORE.INTRA.REPUL>
0

>  <SCORE.INTRA.REPUL.0>
0

>  <SCORE.INTRA.SOLV>
-0.98218

>  <SCORE.INTRA.SOLV.lig_0>
-45.868

>  <SCORE.INTRA.VDW>
0.321528

>  <SCORE.INTRA.VDW.0>
-0.397919

>  <SCORE.INTRA.norm>
-0.0130953

>  <SCORE.RESTR>
0

>  <SCORE.RESTR.CAVITY>
0

>  <SCORE.RESTR.norm>
0

>  <SCORE.SYSTEM>
0

>  <SCORE.SYSTEM.CONST>
0

>  <SCORE.SYSTEM.DIHEDRAL>
0

>  <SCORE.SYSTEM.SOLV>
0

>  <SCORE.SYSTEM.norm>
0

>  <SCORE.heavy>
13

>  <SCORE.norm>
-1.25622

>  <RMSD>
4.822

$$$$
ligand
 OpenBabel02271912143D
libRbt.so/2013.1/901 2013/11/27
 13 14  0  0  0  0  0  0  0  0999 V2000
   -1.2809  -32.6842  -41.7761 N   0  0  0  0  0  0  0  0  0  0  0  0
   -0.4642  -32.2496  -42.7855 C   0  0  0  0  0  0  0  0  0  0  0  0
    0.7041  -31.6145  -42.4633 N   0  0  0  0  0  0  0  0  0  0  0  0
   -0.7852  -32.4347  -44.0663 N   0  0  0  0  0  0  0  0  0  0  0  0
   -1.9403  -33.0621  -44.4221 C   0  0  0  0  0  0  0  0  0  0  0  0
   -2.8158  -33.5242  -43.4151 C   0  0  0  0  0  0  0  0  0  0  0  0
   -2.4530  -33.3197  -42.0562 C   0  0  0  0  0  0  0  0  0  0  0  0
   -3.1684  -33.7009  -41.1631 O   0  0  0  0  0  0  0  0  0  0  0  0
   -3.9495  -34.1376  -44.0996 C   0  0  0  0  0  0  0  0  0  0  0  0
   -3.7112  -34.0264  -45.4185 C   0  0  0  0  0  0  0  0  0  0  0  0
   -2.5082  -33.3825  -45.6179 N   0  0  0  0  0  0  0  0  0  0  0  0
   -5.1562  -34.7654  -43.4506 C   0  0  0  0  0  0  0  0  0  0  0  0
   -5.8270  -35.6434  -44.4308 N   0  0  0  0  0  0  0  0  0  0  0  0
  1  2  1  0  0  0  0
  1  7  1  0  0  0  0
  2  3  1  0  0  0  0
  2  4  2  0  0  0  0
  4  5  1  0  0  0  0
  5  6  2  0  0  0  0
  5 11  1  0  0  0  0
  6  7  1  0  0  0  0
  6  9  1  0  0  0  0
  7  8  2  0  0  0  0
  9 10  2  0  0  0  0
  9 12  1  0  0  0  0
 10 11  1  0  0  0  0
 12 13  1  0  0  0  0
M  END
>  <CHROM.1>
-161.38615475,-2.57380736,-33.43265077,-43.43180384,0.30979112,0.52400111
1.55664262

>  <Name>
ligand

>  <RI>
0

>  <Rbt.Current_Directory>
/home/itssahil/PROJECTS/Mol_Feturizer/Test_systems_manuscript/rnas/3fu2

>  <Rbt.Executable>
rbdock ($Id: //depot/dev/client3/rdock/2013.1/src/exe/rbdock.cxx#4 $)

>  <Rbt.Library>
libRbt.so (2013.1, Build901 2013/11/27)

>  <Rbt.Parameter_File>
/export/apps/rDock/src/rDock_2013.1_src/data/scripts/dock_solv.prm

>  <Rbt.Receptor>
prm/pocket_docking_8.prm

>  <SCORE>
-16.3459

>  <SCORE.INTER>
-16.1751

>  <SCORE.INTER.CONST>
1

>  <SCORE.INTER.POLAR>
0

>  <SCORE.INTER.ROT>
1

>  <SCORE.INTER.SOLV>
16.0065

>  <SCORE.INTER.VDW>
-20.3855

>  <SCORE.INTER.norm>
-1.24423

>  <SCORE.INTRA>
-0.170832

>  <SCORE.INTRA.DIHEDRAL>
-0.00142932

>  <SCORE.INTRA.DIHEDRAL.0>
1.66609

>  <SCORE.INTRA.POLAR>
0

>  <SCORE.INTRA.POLAR.0>
0

>  <SCORE.INTRA.REPUL>
0

>  <SCORE.INTRA.REPUL.0>
0

>  <SCORE.INTRA.SOLV>
-0.982221

>  <SCORE.INTRA.SOLV.lig_0>
-45.868

>  <SCORE.INTRA.VDW>
0.320993

>  <SCORE.INTRA.VDW.0>
-0.397919

>  <SCORE.INTRA.norm>
-0.0131409

>  <SCORE.RESTR>
0

>  <SCORE.RESTR.CAVITY>
0

>  <SCORE.RESTR.norm>
0

>  <SCORE.SYSTEM>
0

>  <SCORE.SYSTEM.CONST>
0

>  <SCORE.SYSTEM.DIHEDRAL>
0

>  <SCORE.SYSTEM.SOLV>
0

>  <SCORE.SYSTEM.norm>
0

>  <SCORE.heavy>
13

>  <SCORE.norm>
-1.25738

>  <RMSD>
4.822

$$$$
ligand
 OpenBabel02271912143D
libRbt.so/2013.1/901 2013/11/27
 13 14  0  0  0  0  0  0  0  0999 V2000
   -1.3040  -32.6753  -41.7619 N   0  0  0  0  0  0  0  0  0  0  0  0
   -0.5117  -32.1964  -42.7706 C   0  0  0  0  0  0  0  0  0  0  0  0
    0.6405  -31.5327  -42.4476 N   0  0  0  0  0  0  0  0  0  0  0  0
   -0.8407  -32.3659  -44.0516 N   0  0  0  0  0  0  0  0  0  0  0  0
   -1.9802  -33.0208  -44.4081 C   0  0  0  0  0  0  0  0  0  0  0  0
   -2.8306  -33.5289  -43.4017 C   0  0  0  0  0  0  0  0  0  0  0  0
   -2.4594  -33.3403  -42.0428 C   0  0  0  0  0  0  0  0  0  0  0  0
   -3.1535  -33.7606  -41.1503 O   0  0  0  0  0  0  0  0  0  0  0  0
   -3.9526  -34.1627  -44.0868 C   0  0  0  0  0  0  0  0  0  0  0  0
   -3.7320  -34.0184  -45.4056 C   0  0  0  0  0  0  0  0  0  0  0  0
   -2.5510  -33.3346  -45.6043 N   0  0  0  0  0  0  0  0  0  0  0  0
   -5.1329  -34.8393  -43.4382 C   0  0  0  0  0  0  0  0  0  0  0  0
   -5.8232  -35.6708  -44.4451 N   0  0  0  0  0  0  0  0  0  0  0  0
  1  2  1  0  0  0  0
  1  7  1  0  0  0  0
  2  3  1  0  0  0  0
  2  4  2  0  0  0  0
  4  5  1  0  0  0  0
  5  6  2  0  0  0  0
  5 11  1  0  0  0  0
  6  7  1  0  0  0  0
  6  9  1  0  0  0  0
  7  8  2  0  0  0  0
  9 10  2  0  0  0  0
  9 12  1  0  0  0  0
 10 11  1  0  0  0  0
 12 13  1  0  0  0  0
M  END
>  <CHROM.1>
-163.89398817,-2.59453812,-33.42595635,-43.42034010,0.29884024,0.54998733
1.58321631

>  <Name>
ligand

>  <RI>
0

>  <Rbt.Current_Directory>
/home/itssahil/PROJECTS/Mol_Feturizer/Test_systems_manuscript/rnas/3fu2

>  <Rbt.Executable>
rbdock ($Id: //depot/dev/client3/rdock/2013.1/src/exe/rbdock.cxx#4 $)

>  <Rbt.Library>
libRbt.so (2013.1, Build901 2013/11/27)

>  <Rbt.Parameter_File>
/export/apps/rDock/src/rDock_2013.1_src/data/scripts/dock_solv.prm

>  <Rbt.Receptor>
prm/pocket_docking_8.prm

>  <SCORE>
-16.2308

>  <SCORE.INTER>
-16.0703

>  <SCORE.INTER.CONST>
1

>  <SCORE.INTER.POLAR>
0

>  <SCORE.INTER.ROT>
1

>  <SCORE.INTER.SOLV>
15.9788

>  <SCORE.INTER.VDW>
-20.3065

>  <SCORE.INTER.norm>
-1.23618

>  <SCORE.INTRA>
-0.160512

>  <SCORE.INTRA.DIHEDRAL>
3.36765e-05

>  <SCORE.INTRA.DIHEDRAL.0>
1.66609

>  <SCORE.INTRA.POLAR>
0

>  <SCORE.INTRA.POLAR.0>
0

>  <SCORE.INTRA.REPUL>
0

>  <SCORE.INTRA.REPUL.0>
0

>  <SCORE.INTRA.SOLV>
-0.981511

>  <SCORE.INTRA.SOLV.lig_0>
-45.868

>  <SCORE.INTRA.VDW>
0.330227

>  <SCORE.INTRA.VDW.0>
-0.397919

>  <SCORE.INTRA.norm>
-0.0123471

>  <SCORE.RESTR>
0

>  <SCORE.RESTR.CAVITY>
0

>  <SCORE.RESTR.norm>
0

>  <SCORE.SYSTEM>
0

>  <SCORE.SYSTEM.CONST>
0

>  <SCORE.SYSTEM.DIHEDRAL>
0

>  <SCORE.SYSTEM.SOLV>
0

>  <SCORE.SYSTEM.norm>
0

>  <SCORE.heavy>
13

>  <SCORE.norm>
-1.24853

>  <RMSD>
4.822

$$$$
ligand
 OpenBabel02271912143D
libRbt.so/2013.1/901 2013/11/27
 13 14  0  0  0  0  0  0  0  0999 V2000
   -1.2841  -32.6760  -41.7662 N   0  0  0  0  0  0  0  0  0  0  0  0
   -0.4717  -32.2350  -42.7763 C   0  0  0  0  0  0  0  0  0  0  0  0
    0.6941  -31.5948  -42.4551 N   0  0  0  0  0  0  0  0  0  0  0  0
   -0.7944  -32.4188  -44.0569 N   0  0  0  0  0  0  0  0  0  0  0  0
   -1.9471  -33.0512  -44.4117 C   0  0  0  0  0  0  0  0  0  0  0  0
   -2.8183  -33.5199  -43.4040 C   0  0  0  0  0  0  0  0  0  0  0  0
   -2.4536  -33.3167  -42.0454 C   0  0  0  0  0  0  0  0  0  0  0  0
   -3.1653  -33.7035  -41.1517 O   0  0  0  0  0  0  0  0  0  0  0  0
   -3.9503  -34.1374  -44.0876 C   0  0  0  0  0  0  0  0  0  0  0  0
   -3.7153  -34.0220  -45.4067 C   0  0  0  0  0  0  0  0  0  0  0  0
   -2.5159  -33.3717  -45.6071 N   0  0  0  0  0  0  0  0  0  0  0  0
   -5.1525  -34.7726  -43.4375 C   0  0  0  0  0  0  0  0  0  0  0  0
   -5.8411  -35.6241  -44.4286 N   0  0  0  0  0  0  0  0  0  0  0  0
  1  2  1  0  0  0  0
  1  7  1  0  0  0  0
  2  3  1  0  0  0  0
  2  4  2  0  0  0  0
  4  5  1  0  0  0  0
  5  6  2  0  0  0  0
  5 11  1  0  0  0  0
  6  7  1  0  0  0  0
  6  9  1  0  0  0  0
  7  8  2  0  0  0  0
  9 10  2  0  0  0  0
  9 12  1  0  0  0  0
 10 11  1  0  0  0  0
 12 13  1  0  0  0  0
M  END
>  <CHROM.1>
-162.85188475,-2.57837916,-33.42487673,-43.42183237,0.30819626,0.52657438
1.56036829

>  <Name>
ligand

>  <RI>
0

>  <Rbt.Current_Directory>
/home/itssahil/PROJECTS/Mol_Feturizer/Test_systems_manuscript/rnas/3fu2

>  <Rbt.Executable>
rbdock ($Id: //depot/dev/client3/rdock/2013.1/src/exe/rbdock.cxx#4 $)

>  <Rbt.Library>
libRbt.so (2013.1, Build901 2013/11/27)

>  <Rbt.Parameter_File>
/export/apps/rDock/src/rDock_2013.1_src/data/scripts/dock_solv.prm

>  <Rbt.Receptor>
prm/pocket_docking_8.prm

>  <SCORE>
-16.3329

>  <SCORE.INTER>
-16.1682

>  <SCORE.INTER.CONST>
1

>  <SCORE.INTER.POLAR>
0

>  <SCORE.INTER.ROT>
1

>  <SCORE.INTER.SOLV>
16.0008

>  <SCORE.INTER.VDW>
-20.3791

>  <SCORE.INTER.norm>
-1.24371

>  <SCORE.INTRA>
-0.164705

>  <SCORE.INTRA.DIHEDRAL>
-0.000604812

>  <SCORE.INTRA.DIHEDRAL.0>
1.66609

>  <SCORE.INTRA.POLAR>
0

>  <SCORE.INTRA.POLAR.0>
0

>  <SCORE.INTRA.REPUL>
0

>  <SCORE.INTRA.REPUL.0>
0

>  <SCORE.INTRA.SOLV>
-0.981797

>  <SCORE.INTRA.SOLV.lig_0>
-45.868

>  <SCORE.INTRA.VDW>
0.326496

>  <SCORE.INTRA.VDW.0>
-0.397919

>  <SCORE.INTRA.norm>
-0.0126696

>  <SCORE.RESTR>
0

>  <SCORE.RESTR.CAVITY>
0

>  <SCORE.RESTR.norm>
0

>  <SCORE.SYSTEM>
0

>  <SCORE.SYSTEM.CONST>
0

>  <SCORE.SYSTEM.DIHEDRAL>
0

>  <SCORE.SYSTEM.SOLV>
0

>  <SCORE.SYSTEM.norm>
0

>  <SCORE.heavy>
13

>  <SCORE.norm>
-1.25638

>  <RMSD>
4.822

$$$$
ligand
 OpenBabel02271912143D
libRbt.so/2013.1/901 2013/11/27
 13 14  0  0  0  0  0  0  0  0999 V2000
   -1.2848  -32.6581  -41.7696 N   0  0  0  0  0  0  0  0  0  0  0  0
   -0.4736  -32.2187  -42.7814 C   0  0  0  0  0  0  0  0  0  0  0  0
    0.6896  -31.5725  -42.4626 N   0  0  0  0  0  0  0  0  0  0  0  0
   -0.7950  -32.4097  -44.0613 N   0  0  0  0  0  0  0  0  0  0  0  0
   -1.9451  -33.0481  -44.4136 C   0  0  0  0  0  0  0  0  0  0  0  0
   -2.8149  -33.5156  -43.4041 C   0  0  0  0  0  0  0  0  0  0  0  0
   -2.4516  -33.3046  -42.0463 C   0  0  0  0  0  0  0  0  0  0  0  0
   -3.1622  -33.6900  -41.1512 O   0  0  0  0  0  0  0  0  0  0  0  0
   -3.9442  -34.1406  -44.0853 C   0  0  0  0  0  0  0  0  0  0  0  0
   -3.7091  -34.0305  -45.4049 C   0  0  0  0  0  0  0  0  0  0  0  0
   -2.5121  -33.3764  -45.6078 N   0  0  0  0  0  0  0  0  0  0  0  0
   -5.1443  -34.7775  -43.4328 C   0  0  0  0  0  0  0  0  0  0  0  0
   -5.8216  -35.6464  -44.4165 N   0  0  0  0  0  0  0  0  0  0  0  0
  1  2  1  0  0  0  0
  1  7  1  0  0  0  0
  2  3  1  0  0  0  0
  2  4  2  0  0  0  0
  4  5  1  0  0  0  0
  5  6  2  0  0  0  0
  5 11  1  0  0  0  0
  6  7  1  0  0  0  0
  6  9  1  0  0  0  0
  7  8  2  0  0  0  0
  9 10  2  0  0  0  0
  9 12  1  0  0  0  0
 10 11  1  0  0  0  0
 12 13  1  0  0  0  0
M  END
>  <CHROM.1>
-162.31116933,-2.57476238,-33.42049065,-43.42198688,0.30851590,0.53133965
1.55530170

>  <Name>
ligand

>  <RI>
0

>  <Rbt.Current_Directory>
/home/itssahil/PROJECTS/Mol_Feturizer/Test_systems_manuscript/rnas/3fu2

>  <Rbt.Executable>
rbdock ($Id: //depot/dev/client3/rdock/2013.1/src/exe/rbdock.cxx#4 $)

>  <Rbt.Library>
libRbt.so (2013.1, Build901 2013/11/27)

>  <Rbt.Parameter_File>
/export/apps/rDock/src/rDock_2013.1_src/data/scripts/dock_solv.prm

>  <Rbt.Receptor>
prm/pocket_docking_8.prm

>  <SCORE>
-16.3429

>  <SCORE.INTER>
-16.1759

>  <SCORE.INTER.CONST>
1

>  <SCORE.INTER.POLAR>
0

>  <SCORE.INTER.ROT>
1

>  <SCORE.INTER.SOLV>
16.0125

>  <SCORE.INTER.VDW>
-20.3881

>  <SCORE.INTER.norm>
-1.2443

>  <SCORE.INTRA>
-0.166936

>  <SCORE.INTRA.DIHEDRAL>
-0.000919194

>  <SCORE.INTRA.DIHEDRAL.0>
1.66609

>  <SCORE.INTRA.POLAR>
0

>  <SCORE.INTRA.POLAR.0>
0

>  <SCORE.INTRA.REPUL>
0

>  <SCORE.INTRA.REPUL.0>
0

>  <SCORE.INTRA.SOLV>
-0.981951

>  <SCORE.INTRA.SOLV.lig_0>
-45.868

>  <SCORE.INTRA.VDW>
0.324499

>  <SCORE.INTRA.VDW.0>
-0.397919

>  <SCORE.INTRA.norm>
-0.0128412

>  <SCORE.RESTR>
0

>  <SCORE.RESTR.CAVITY>
0

>  <SCORE.RESTR.norm>
0

>  <SCORE.SYSTEM>
0

>  <SCORE.SYSTEM.CONST>
0

>  <SCORE.SYSTEM.DIHEDRAL>
0

>  <SCORE.SYSTEM.SOLV>
0

>  <SCORE.SYSTEM.norm>
0

>  <SCORE.heavy>
13

>  <SCORE.norm>
-1.25714

>  <RMSD>
4.822

$$$$
ligand
 OpenBabel02271912143D
libRbt.so/2013.1/901 2013/11/27
 13 14  0  0  0  0  0  0  0  0999 V2000
   -1.2866  -32.6825  -41.7656 N   0  0  0  0  0  0  0  0  0  0  0  0
   -0.4608  -32.2555  -42.7708 C   0  0  0  0  0  0  0  0  0  0  0  0
    0.7059  -31.6203  -42.4428 N   0  0  0  0  0  0  0  0  0  0  0  0
   -0.7713  -32.4482  -44.0531 N   0  0  0  0  0  0  0  0  0  0  0  0
   -1.9244  -33.0760  -44.4146 C   0  0  0  0  0  0  0  0  0  0  0  0
   -2.8091  -33.5304  -43.4121 C   0  0  0  0  0  0  0  0  0  0  0  0
   -2.4573  -33.3179  -42.0516 C   0  0  0  0  0  0  0  0  0  0  0  0
   -3.1809  -33.6923  -41.1622 O   0  0  0  0  0  0  0  0  0  0  0  0
   -3.9380  -34.1462  -44.1024 C   0  0  0  0  0  0  0  0  0  0  0  0
   -3.6885  -34.0437  -45.4199 C   0  0  0  0  0  0  0  0  0  0  0  0
   -2.4827  -33.4030  -45.6132 N   0  0  0  0  0  0  0  0  0  0  0  0
   -5.1512  -34.7680  -43.4595 C   0  0  0  0  0  0  0  0  0  0  0  0
   -5.8021  -35.6688  -44.4324 N   0  0  0  0  0  0  0  0  0  0  0  0
  1  2  1  0  0  0  0
  1  7  1  0  0  0  0
  2  3  1  0  0  0  0
  2  4  2  0  0  0  0
  4  5  1  0  0  0  0
  5  6  2  0  0  0  0
  5 11  1  0  0  0  0
  6  7  1  0  0  0  0
  6  9  1  0  0  0  0
  7  8  2  0  0  0  0
  9 10  2  0  0  0  0
  9 12  1  0  0  0  0
 10 11  1  0  0  0  0
 12 13  1  0  0  0  0
M  END
>  <CHROM.1>
-160.43335291,-2.56574386,-33.44073496,-43.42680805,0.31895538,0.52377850
1.54533804

>  <Name>
ligand

>  <RI>
0

>  <Rbt.Current_Directory>
/home/itssahil/PROJECTS/Mol_Feturizer/Test_systems_manuscript/rnas/3fu2

>  <Rbt.Executable>
rbdock ($Id: //depot/dev/client3/rdock/2013.1/src/exe/rbdock.cxx#4 $)

>  <Rbt.Library>
libRbt.so (2013.1, Build901 2013/11/27)

>  <Rbt.Parameter_File>
/export/apps/rDock/src/rDock_2013.1_src/data/scripts/dock_solv.prm

>  <Rbt.Receptor>
prm/pocket_docking_8.prm

>  <SCORE>
-16.3283

>  <SCORE.INTER>
-16.1534

>  <SCORE.INTER.CONST>
1

>  <SCORE.INTER.POLAR>
0

>  <SCORE.INTER.ROT>
1

>  <SCORE.INTER.SOLV>
16.034

>  <SCORE.INTER.VDW>
-20.3803

>  <SCORE.INTER.norm>
-1.24257

>  <SCORE.INTRA>
-0.174942

>  <SCORE.INTRA.DIHEDRAL>
-0.00191715

>  <SCORE.INTRA.DIHEDRAL.0>
1.66609

>  <SCORE.INTRA.POLAR>
0

>  <SCORE.INTRA.POLAR.0>
0

>  <SCORE.INTRA.REPUL>
0

>  <SCORE.INTRA.REPUL.0>
0

>  <SCORE.INTRA.SOLV>
-0.982509

>  <SCORE.INTRA.SOLV.lig_0>
-45.868

>  <SCORE.INTRA.VDW>
0.317271

>  <SCORE.INTRA.VDW.0>
-0.397919

>  <SCORE.INTRA.norm>
-0.0134571

>  <SCORE.RESTR>
0

>  <SCORE.RESTR.CAVITY>
0

>  <SCORE.RESTR.norm>
0

>  <SCORE.SYSTEM>
0

>  <SCORE.SYSTEM.CONST>
0

>  <SCORE.SYSTEM.DIHEDRAL>
0

>  <SCORE.SYSTEM.SOLV>
0

>  <SCORE.SYSTEM.norm>
0

>  <SCORE.heavy>
13

>  <SCORE.norm>
-1.25603

>  <RMSD>
4.822

$$$$
ligand
 OpenBabel02271912143D
libRbt.so/2013.1/901 2013/11/27
 13 14  0  0  0  0  0  0  0  0999 V2000
   -1.2850  -32.6566  -41.7854 N   0  0  0  0  0  0  0  0  0  0  0  0
   -0.4781  -32.2128  -42.7986 C   0  0  0  0  0  0  0  0  0  0  0  0
    0.6839  -31.5634  -42.4820 N   0  0  0  0  0  0  0  0  0  0  0  0
   -0.8025  -32.4026  -44.0779 N   0  0  0  0  0  0  0  0  0  0  0  0
   -1.9515  -33.0441  -44.4282 C   0  0  0  0  0  0  0  0  0  0  0  0
   -2.8169  -33.5161  -43.4170 C   0  0  0  0  0  0  0  0  0  0  0  0
   -2.4506  -33.3063  -42.0599 C   0  0  0  0  0  0  0  0  0  0  0  0
   -3.1574  -33.6956  -41.1634 O   0  0  0  0  0  0  0  0  0  0  0  0
   -3.9461  -34.1435  -44.0962 C   0  0  0  0  0  0  0  0  0  0  0  0
   -3.7151  -34.0304  -45.4162 C   0  0  0  0  0  0  0  0  0  0  0  0
   -2.5208  -33.3721  -45.6213 N   0  0  0  0  0  0  0  0  0  0  0  0
   -5.1424  -34.7854  -43.4414 C   0  0  0  0  0  0  0  0  0  0  0  0
   -5.8372  -35.6309  -44.4333 N   0  0  0  0  0  0  0  0  0  0  0  0
  1  2  1  0  0  0  0
  1  7  1  0  0  0  0
  2  3  1  0  0  0  0
  2  4  2  0  0  0  0
  4  5  1  0  0  0  0
  5  6  2  0  0  0  0
  5 11  1  0  0  0  0
  6  7  1  0  0  0  0
  6  9  1  0  0  0  0
  7  8  2  0  0  0  0
  9 10  2  0  0  0  0
  9 12  1  0  0  0  0
 10 11  1  0  0  0  0
 12 13  1  0  0  0  0
M  END
>  <CHROM.1>
-163.57447658,-2.57859982,-33.41830505,-43.43612325,0.30588381,0.53249019
1.55895943

>  <Name>
ligand

>  <RI>
0

>  <Rbt.Current_Directory>
/home/itssahil/PROJECTS/Mol_Feturizer/Test_systems_manuscript/rnas/3fu2

>  <Rbt.Executable>
rbdock ($Id: //depot/dev/client3/rdock/2013.1/src/exe/rbdock.cxx#4 $)

>  <Rbt.Library>
libRbt.so (2013.1, Build901 2013/11/27)

>  <Rbt.Parameter_File>
/export/apps/rDock/src/rDock_2013.1_src/data/scripts/dock_solv.prm

>  <Rbt.Receptor>
prm/blind_docking_100.prm

>  <SCORE>
-16.3262

>  <SCORE.INTER>
-16.1644

>  <SCORE.INTER.CONST>
1

>  <SCORE.INTER.POLAR>
0

>  <SCORE.INTER.ROT>
1

>  <SCORE.INTER.SOLV>
16.021

>  <SCORE.INTER.VDW>
-20.3833

>  <SCORE.INTER.norm>
-1.24342

>  <SCORE.INTRA>
-0.161782

>  <SCORE.INTRA.DIHEDRAL>
-0.000166567

>  <SCORE.INTRA.DIHEDRAL.0>
1.66609

>  <SCORE.INTRA.POLAR>
0

>  <SCORE.INTRA.POLAR.0>
0

>  <SCORE.INTRA.REPUL>
0

>  <SCORE.INTRA.REPUL.0>
0

>  <SCORE.INTRA.SOLV>
-0.981597

>  <SCORE.INTRA.SOLV.lig_0>
-45.868

>  <SCORE.INTRA.VDW>
0.3291

>  <SCORE.INTRA.VDW.0>
-0.397919

>  <SCORE.INTRA.norm>
-0.0124448

>  <SCORE.RESTR>
0

>  <SCORE.RESTR.CAVITY>
0

>  <SCORE.RESTR.norm>
0

>  <SCORE.SYSTEM>
0

>  <SCORE.SYSTEM.CONST>
0

>  <SCORE.SYSTEM.DIHEDRAL>
0

>  <SCORE.SYSTEM.SOLV>
0

>  <SCORE.SYSTEM.norm>
0

>  <SCORE.heavy>
13

>  <SCORE.norm>
-1.25586

>  <RMSD>
4.823

$$$$
ligand
 OpenBabel02271912143D
libRbt.so/2013.1/901 2013/11/27
 13 14  0  0  0  0  0  0  0  0999 V2000
   -1.2858  -32.6436  -41.7853 N   0  0  0  0  0  0  0  0  0  0  0  0
   -0.4783  -32.2020  -42.7990 C   0  0  0  0  0  0  0  0  0  0  0  0
    0.6827  -31.5505  -42.4830 N   0  0  0  0  0  0  0  0  0  0  0  0
   -0.8010  -32.3961  -44.0781 N   0  0  0  0  0  0  0  0  0  0  0  0
   -1.9490  -33.0399  -44.4276 C   0  0  0  0  0  0  0  0  0  0  0  0
   -2.8151  -33.5097  -43.4160 C   0  0  0  0  0  0  0  0  0  0  0  0
   -2.4504  -33.2954  -42.0591 C   0  0  0  0  0  0  0  0  0  0  0  0
   -3.1578  -33.6827  -41.1623 O   0  0  0  0  0  0  0  0  0  0  0  0
   -3.9428  -34.1403  -44.0945 C   0  0  0  0  0  0  0  0  0  0  0  0
   -3.7105  -34.0309  -45.4146 C   0  0  0  0  0  0  0  0  0  0  0  0
   -2.5166  -33.3720  -45.6204 N   0  0  0  0  0  0  0  0  0  0  0  0
   -5.1391  -34.7814  -43.4391 C   0  0  0  0  0  0  0  0  0  0  0  0
   -5.8235  -35.6423  -44.4251 N   0  0  0  0  0  0  0  0  0  0  0  0
  1  2  1  0  0  0  0
  1  7  1  0  0  0  0
  2  3  1  0  0  0  0
  2  4  2  0  0  0  0
  4  5  1  0  0  0  0
  5  6  2  0  0  0  0
  5 11  1  0  0  0  0
  6  7  1  0  0  0  0
  6  9  1  0  0  0  0
  7  8  2  0  0  0  0
  9 10  2  0  0  0  0
  9 12  1  0  0  0  0
 10 11  1  0  0  0  0
 12 13  1  0  0  0  0
M  END
>  <CHROM.1>
-162.96268017,-2.57611296,-33.41260080,-43.43479334,0.30692458,0.53452122
1.55511640

>  <Name>
ligand

>  <RI>
0

>  <Rbt.Current_Directory>
/home/itssahil/PROJECTS/Mol_Feturizer/Test_systems_manuscript/rnas/3fu2

>  <Rbt.Executable>
rbdock ($Id: //depot/dev/client3/rdock/2013.1/src/exe/rbdock.cxx#4 $)

>  <Rbt.Library>
libRbt.so (2013.1, Build901 2013/11/27)

>  <Rbt.Parameter_File>
/export/apps/rDock/src/rDock_2013.1_src/data/scripts/dock_solv.prm

>  <Rbt.Receptor>
prm/blind_docking_100.prm

>  <SCORE>
-16.3277

>  <SCORE.INTER>
-16.1635

>  <SCORE.INTER.CONST>
1

>  <SCORE.INTER.POLAR>
0

>  <SCORE.INTER.ROT>
1

>  <SCORE.INTER.SOLV>
16.0273

>  <SCORE.INTER.VDW>
-20.3848

>  <SCORE.INTER.norm>
-1.24334

>  <SCORE.INTRA>
-0.164253

>  <SCORE.INTRA.DIHEDRAL>
-0.000538949

>  <SCORE.INTRA.DIHEDRAL.0>
1.66609

>  <SCORE.INTRA.POLAR>
0

>  <SCORE.INTRA.POLAR.0>
0

>  <SCORE.INTRA.REPUL>
0

>  <SCORE.INTRA.REPUL.0>
0

>  <SCORE.INTRA.SOLV>
-0.981766

>  <SCORE.INTRA.SOLV.lig_0>
-45.868

>  <SCORE.INTRA.VDW>
0.3269

>  <SCORE.INTRA.VDW.0>
-0.397919

>  <SCORE.INTRA.norm>
-0.0126348

>  <SCORE.RESTR>
0

>  <SCORE.RESTR.CAVITY>
0

>  <SCORE.RESTR.norm>
0

>  <SCORE.SYSTEM>
0

>  <SCORE.SYSTEM.CONST>
0

>  <SCORE.SYSTEM.DIHEDRAL>
0

>  <SCORE.SYSTEM.SOLV>
0

>  <SCORE.SYSTEM.norm>
0

>  <SCORE.heavy>
13

>  <SCORE.norm>
-1.25598

>  <RMSD>
4.823

$$$$
ligand
 OpenBabel02271912143D
libRbt.so/2013.1/901 2013/11/27
 13 14  0  0  0  0  0  0  0  0999 V2000
   -1.2945  -32.6380  -41.7711 N   0  0  0  0  0  0  0  0  0  0  0  0
   -0.4930  -32.1828  -42.7837 C   0  0  0  0  0  0  0  0  0  0  0  0
    0.6604  -31.5188  -42.4661 N   0  0  0  0  0  0  0  0  0  0  0  0
   -0.8145  -32.3757  -44.0633 N   0  0  0  0  0  0  0  0  0  0  0  0
   -1.9550  -33.0317  -44.4145 C   0  0  0  0  0  0  0  0  0  0  0  0
   -2.8146  -33.5157  -43.4040 C   0  0  0  0  0  0  0  0  0  0  0  0
   -2.4514  -33.3025  -42.0467 C   0  0  0  0  0  0  0  0  0  0  0  0
   -3.1535  -33.7017  -41.1508 O   0  0  0  0  0  0  0  0  0  0  0  0
   -3.9354  -34.1571  -44.0842 C   0  0  0  0  0  0  0  0  0  0  0  0
   -3.7054  -34.0397  -45.4040 C   0  0  0  0  0  0  0  0  0  0  0  0
   -2.5196  -33.3659  -45.6081 N   0  0  0  0  0  0  0  0  0  0  0  0
   -5.1234  -34.8150  -43.4304 C   0  0  0  0  0  0  0  0  0  0  0  0
   -5.8269  -35.6414  -44.4323 N   0  0  0  0  0  0  0  0  0  0  0  0
  1  2  1  0  0  0  0
  1  7  1  0  0  0  0
  2  3  1  0  0  0  0
  2  4  2  0  0  0  0
  4  5  1  0  0  0  0
  5  6  2  0  0  0  0
  5 11  1  0  0  0  0
  6  7  1  0  0  0  0
  6  9  1  0  0  0  0
  7  8  2  0  0  0  0
  9 10  2  0  0  0  0
  9 12  1  0  0  0  0
 10 11  1  0  0  0  0
 12 13  1  0  0  0  0
M  END
>  <CHROM.1>
-165.00653240,-2.57917227,-33.41262795,-43.42372279,0.30703716,0.54302409
1.55989312

>  <Name>
ligand

>  <RI>
0

>  <Rbt.Current_Directory>
/home/itssahil/PROJECTS/Mol_Feturizer/Test_systems_manuscript/rnas/3fu2

>  <Rbt.Executable>
rbdock ($Id: //depot/dev/client3/rdock/2013.1/src/exe/rbdock.cxx#4 $)

>  <Rbt.Library>
libRbt.so (2013.1, Build901 2013/11/27)

>  <Rbt.Parameter_File>
/export/apps/rDock/src/rDock_2013.1_src/data/scripts/dock_solv.prm

>  <Rbt.Receptor>
prm/blind_docking_100.prm

>  <SCORE>
-16.2831

>  <SCORE.INTER>
-16.1269

>  <SCORE.INTER.CONST>
1

>  <SCORE.INTER.POLAR>
0

>  <SCORE.INTER.ROT>
1

>  <SCORE.INTER.SOLV>
16.0109

>  <SCORE.INTER.VDW>
-20.3549

>  <SCORE.INTER.norm>
-1.24053

>  <SCORE.INTRA>
-0.1562

>  <SCORE.INTRA.DIHEDRAL>
0.000760861

>  <SCORE.INTRA.DIHEDRAL.0>
1.66609

>  <SCORE.INTRA.POLAR>
0

>  <SCORE.INTRA.POLAR.0>
0

>  <SCORE.INTRA.REPUL>
0

>  <SCORE.INTRA.REPUL.0>
0

>  <SCORE.INTRA.SOLV>
-0.98122

>  <SCORE.INTRA.SOLV.lig_0>
-45.868

>  <SCORE.INTRA.VDW>
0.334029

>  <SCORE.INTRA.VDW.0>
-0.397919

>  <SCORE.INTRA.norm>
-0.0120154

>  <SCORE.RESTR>
0

>  <SCORE.RESTR.CAVITY>
0

>  <SCORE.RESTR.norm>
0

>  <SCORE.SYSTEM>
0

>  <SCORE.SYSTEM.CONST>
0

>  <SCORE.SYSTEM.DIHEDRAL>
0

>  <SCORE.SYSTEM.SOLV>
0

>  <SCORE.SYSTEM.norm>
0

>  <SCORE.heavy>
13

>  <SCORE.norm>
-1.25254

>  <RMSD>
4.823

$$$$
ligand
 OpenBabel02271912143D
libRbt.so/2013.1/901 2013/11/27
 13 14  0  0  0  0  0  0  0  0999 V2000
   -1.2827  -32.6402  -41.7832 N   0  0  0  0  0  0  0  0  0  0  0  0
   -0.4730  -32.2037  -42.7974 C   0  0  0  0  0  0  0  0  0  0  0  0
    0.6888  -31.5533  -42.4822 N   0  0  0  0  0  0  0  0  0  0  0  0
   -0.7946  -32.4015  -44.0762 N   0  0  0  0  0  0  0  0  0  0  0  0
   -1.9434  -33.0443  -44.4250 C   0  0  0  0  0  0  0  0  0  0  0  0
   -2.8115  -33.5090  -43.4128 C   0  0  0  0  0  0  0  0  0  0  0  0
   -2.4482  -33.2907  -42.0562 C   0  0  0  0  0  0  0  0  0  0  0  0
   -3.1574  -33.6736  -41.1589 O   0  0  0  0  0  0  0  0  0  0  0  0
   -3.9397  -34.1398  -44.0905 C   0  0  0  0  0  0  0  0  0  0  0  0
   -3.7055  -34.0354  -45.4107 C   0  0  0  0  0  0  0  0  0  0  0  0
   -2.5101  -33.3795  -45.6173 N   0  0  0  0  0  0  0  0  0  0  0  0
   -5.1380  -34.7765  -43.4344 C   0  0  0  0  0  0  0  0  0  0  0  0
   -5.8178  -35.6461  -44.4158 N   0  0  0  0  0  0  0  0  0  0  0  0
  1  2  1  0  0  0  0
  1  7  1  0  0  0  0
  2  3  1  0  0  0  0
  2  4  2  0  0  0  0
  4  5  1  0  0  0  0
  5  6  2  0  0  0  0
  5 11  1  0  0  0  0
  6  7  1  0  0  0  0
  6  9  1  0  0  0  0
  7  8  2  0  0  0  0
  9 10  2  0  0  0  0
  9 12  1  0  0  0  0
 10 11  1  0  0  0  0
 12 13  1  0  0  0  0
M  END
>  <CHROM.1>
-162.60360169,-2.57199162,-33.41300061,-43.43144452,0.30814375,0.53321558
1.55091280

>  <Name>
ligand

>  <RI>
0

>  <Rbt.Current_Directory>
/home/itssahil/PROJECTS/Mol_Feturizer/Test_systems_manuscript/rnas/3fu2

>  <Rbt.Executable>
rbdock ($Id: //depot/dev/client3/rdock/2013.1/src/exe/rbdock.cxx#4 $)

>  <Rbt.Library>
libRbt.so (2013.1, Build901 2013/11/27)

>  <Rbt.Parameter_File>
/export/apps/rDock/src/rDock_2013.1_src/data/scripts/dock_solv.prm

>  <Rbt.Receptor>
prm/blind_docking_100.prm

>  <SCORE>
-16.3303

>  <SCORE.INTER>
-16.1645

>  <SCORE.INTER.CONST>
1

>  <SCORE.INTER.POLAR>
0

>  <SCORE.INTER.ROT>
1

>  <SCORE.INTER.SOLV>
16.0305

>  <SCORE.INTER.VDW>
-20.3865

>  <SCORE.INTER.norm>
-1.24343

>  <SCORE.INTRA>
-0.165725

>  <SCORE.INTRA.DIHEDRAL>
-0.000750629

>  <SCORE.INTRA.DIHEDRAL.0>
1.66609

>  <SCORE.INTRA.POLAR>
0

>  <SCORE.INTRA.POLAR.0>
0

>  <SCORE.INTRA.REPUL>
0

>  <SCORE.INTRA.REPUL.0>
0

>  <SCORE.INTRA.SOLV>
-0.981867

>  <SCORE.INTRA.SOLV.lig_0>
-45.868

>  <SCORE.INTRA.VDW>
0.325584

>  <SCORE.INTRA.VDW.0>
-0.397919

>  <SCORE.INTRA.norm>
-0.0127481

>  <SCORE.RESTR>
0

>  <SCORE.RESTR.CAVITY>
0

>  <SCORE.RESTR.norm>
0

>  <SCORE.SYSTEM>
0

>  <SCORE.SYSTEM.CONST>
0

>  <SCORE.SYSTEM.DIHEDRAL>
0

>  <SCORE.SYSTEM.SOLV>
0

>  <SCORE.SYSTEM.norm>
0

>  <SCORE.heavy>
13

>  <SCORE.norm>
-1.25617

>  <RMSD>
4.823

$$$$
ligand
 OpenBabel02271912143D
libRbt.so/2013.1/901 2013/11/27
 13 14  0  0  0  0  0  0  0  0999 V2000
   -1.2821  -32.6489  -41.7857 N   0  0  0  0  0  0  0  0  0  0  0  0
   -0.4740  -32.2098  -42.8000 C   0  0  0  0  0  0  0  0  0  0  0  0
    0.6892  -31.5617  -42.4849 N   0  0  0  0  0  0  0  0  0  0  0  0
   -0.7982  -32.4030  -44.0788 N   0  0  0  0  0  0  0  0  0  0  0  0
   -1.9484  -33.0433  -44.4276 C   0  0  0  0  0  0  0  0  0  0  0  0
   -2.8151  -33.5105  -43.4153 C   0  0  0  0  0  0  0  0  0  0  0  0
   -2.4488  -33.2972  -42.0587 C   0  0  0  0  0  0  0  0  0  0  0  0
   -3.1568  -33.6824  -41.1613 O   0  0  0  0  0  0  0  0  0  0  0  0
   -3.9452  -34.1378  -44.0930 C   0  0  0  0  0  0  0  0  0  0  0  0
   -3.7135  -34.0292  -45.4132 C   0  0  0  0  0  0  0  0  0  0  0  0
   -2.5178  -33.3739  -45.6199 N   0  0  0  0  0  0  0  0  0  0  0  0
   -5.1430  -34.7754  -43.4366 C   0  0  0  0  0  0  0  0  0  0  0  0
   -5.8343  -35.6292  -44.4239 N   0  0  0  0  0  0  0  0  0  0  0  0
  1  2  1  0  0  0  0
  1  7  1  0  0  0  0
  2  3  1  0  0  0  0
  2  4  2  0  0  0  0
  4  5  1  0  0  0  0
  5  6  2  0  0  0  0
  5 11  1  0  0  0  0
  6  7  1  0  0  0  0
  6  9  1  0  0  0  0
  7  8  2  0  0  0  0
  9 10  2  0  0  0  0
  9 12  1  0  0  0  0
 10 11  1  0  0  0  0
 12 13  1  0  0  0  0
M  END
>  <CHROM.1>
-163.22885485,-2.57616769,-33.41374968,-43.43441093,0.30616140,0.53111157
1.55556589

>  <Name>
ligand

>  <RI>
0

>  <Rbt.Current_Directory>
/home/itssahil/PROJECTS/Mol_Feturizer/Test_systems_manuscript/rnas/3fu2

>  <Rbt.Executable>
rbdock ($Id: //depot/dev/client3/rdock/2013.1/src/exe/rbdock.cxx#4 $)

>  <Rbt.Library>
libRbt.so (2013.1, Build901 2013/11/27)

>  <Rbt.Parameter_File>
/export/apps/rDock/src/rDock_2013.1_src/data/scripts/dock_solv.prm

>  <Rbt.Receptor>
prm/blind_docking_100.prm

>  <SCORE>
-16.3275

>  <SCORE.INTER>
-16.1643

>  <SCORE.INTER.CONST>
1

>  <SCORE.INTER.POLAR>
0

>  <SCORE.INTER.ROT>
1

>  <SCORE.INTER.SOLV>
16.0252

>  <SCORE.INTER.VDW>
-20.3846

>  <SCORE.INTER.norm>
-1.24341

>  <SCORE.INTRA>
-0.163172

>  <SCORE.INTRA.DIHEDRAL>
-0.000378736

>  <SCORE.INTRA.DIHEDRAL.0>
1.66609

>  <SCORE.INTRA.POLAR>
0

>  <SCORE.INTRA.POLAR.0>
0

>  <SCORE.INTRA.REPUL>
0

>  <SCORE.INTRA.REPUL.0>
0

>  <SCORE.INTRA.SOLV>
-0.981692

>  <SCORE.INTRA.SOLV.lig_0>
-45.868

>  <SCORE.INTRA.VDW>
0.327863

>  <SCORE.INTRA.VDW.0>
-0.397919

>  <SCORE.INTRA.norm>
-0.0125517

>  <SCORE.RESTR>
0

>  <SCORE.RESTR.CAVITY>
0

>  <SCORE.RESTR.norm>
0

>  <SCORE.SYSTEM>
0

>  <SCORE.SYSTEM.CONST>
0

>  <SCORE.SYSTEM.DIHEDRAL>
0

>  <SCORE.SYSTEM.SOLV>
0

>  <SCORE.SYSTEM.norm>
0

>  <SCORE.heavy>
13

>  <SCORE.norm>
-1.25596

>  <RMSD>
4.823

$$$$
ligand
 OpenBabel02271912143D
libRbt.so/2013.1/901 2013/11/27
 13 14  0  0  0  0  0  0  0  0999 V2000
   -1.2842  -32.6784  -41.7867 N   0  0  0  0  0  0  0  0  0  0  0  0
   -0.4679  -32.2454  -42.7972 C   0  0  0  0  0  0  0  0  0  0  0  0
    0.7003  -31.6093  -42.4764 N   0  0  0  0  0  0  0  0  0  0  0  0
   -0.7892  -32.4331  -44.0776 N   0  0  0  0  0  0  0  0  0  0  0  0
   -1.9442  -33.0616  -44.4318 C   0  0  0  0  0  0  0  0  0  0  0  0
   -2.8193  -33.5221  -43.4237 C   0  0  0  0  0  0  0  0  0  0  0  0
   -2.4562  -33.3148  -42.0654 C   0  0  0  0  0  0  0  0  0  0  0  0
   -3.1712  -33.6946  -41.1714 O   0  0  0  0  0  0  0  0  0  0  0  0
   -3.9529  -34.1371  -44.1068 C   0  0  0  0  0  0  0  0  0  0  0  0
   -3.7150  -34.0283  -45.4260 C   0  0  0  0  0  0  0  0  0  0  0  0
   -2.5122  -33.3844  -45.6269 N   0  0  0  0  0  0  0  0  0  0  0  0
   -5.1593  -34.7641  -43.4563 C   0  0  0  0  0  0  0  0  0  0  0  0
   -5.8273  -35.6478  -44.4332 N   0  0  0  0  0  0  0  0  0  0  0  0
  1  2  1  0  0  0  0
  1  7  1  0  0  0  0
  2  3  1  0  0  0  0
  2  4  2  0  0  0  0
  4  5  1  0  0  0  0
  5  6  2  0  0  0  0
  5 11  1  0  0  0  0
  6  7  1  0  0  0  0
  6  9  1  0  0  0  0
  7  8  2  0  0  0  0
  9 10  2  0  0  0  0
  9 12  1  0  0  0  0
 10 11  1  0  0  0  0
 12 13  1  0  0  0  0
M  END
>  <CHROM.1>
-161.18949516,-2.57708749,-33.43073716,-43.44057783,0.30940930,0.52466281
1.55484151

>  <Name>
ligand

>  <RI>
0

>  <Rbt.Current_Directory>
/home/itssahil/PROJECTS/Mol_Feturizer/Test_systems_manuscript/rnas/3fu2

>  <Rbt.Executable>
rbdock ($Id: //depot/dev/client3/rdock/2013.1/src/exe/rbdock.cxx#4 $)

>  <Rbt.Library>
libRbt.so (2013.1, Build901 2013/11/27)

>  <Rbt.Parameter_File>
/export/apps/rDock/src/rDock_2013.1_src/data/scripts/dock_solv.prm

>  <Rbt.Receptor>
prm/blind_docking_100.prm

>  <SCORE>
-16.3385

>  <SCORE.INTER>
-16.1668

>  <SCORE.INTER.CONST>
1

>  <SCORE.INTER.POLAR>
0

>  <SCORE.INTER.ROT>
1

>  <SCORE.INTER.SOLV>
16.0234

>  <SCORE.INTER.VDW>
-20.3857

>  <SCORE.INTER.norm>
-1.2436

>  <SCORE.INTRA>
-0.171672

>  <SCORE.INTRA.DIHEDRAL>
-0.00153318

>  <SCORE.INTRA.DIHEDRAL.0>
1.66609

>  <SCORE.INTRA.POLAR>
0

>  <SCORE.INTRA.POLAR.0>
0

>  <SCORE.INTRA.REPUL>
0

>  <SCORE.INTRA.REPUL.0>
0

>  <SCORE.INTRA.SOLV>
-0.98228

>  <SCORE.INTRA.SOLV.lig_0>
-45.868

>  <SCORE.INTRA.VDW>
0.320234

>  <SCORE.INTRA.VDW.0>
-0.397919

>  <SCORE.INTRA.norm>
-0.0132056

>  <SCORE.RESTR>
0

>  <SCORE.RESTR.CAVITY>
0

>  <SCORE.RESTR.norm>
0

>  <SCORE.SYSTEM>
0

>  <SCORE.SYSTEM.CONST>
0

>  <SCORE.SYSTEM.DIHEDRAL>
0

>  <SCORE.SYSTEM.SOLV>
0

>  <SCORE.SYSTEM.norm>
0

>  <SCORE.heavy>
13

>  <SCORE.norm>
-1.25681

>  <RMSD>
4.823

$$$$
ligand
 OpenBabel02271912143D
libRbt.so/2013.1/901 2013/11/27
 13 14  0  0  0  0  0  0  0  0999 V2000
   -1.2805  -32.6517  -41.7865 N   0  0  0  0  0  0  0  0  0  0  0  0
   -0.4698  -32.2160  -42.8003 C   0  0  0  0  0  0  0  0  0  0  0  0
    0.6947  -31.5707  -42.4845 N   0  0  0  0  0  0  0  0  0  0  0  0
   -0.7930  -32.4097  -44.0793 N   0  0  0  0  0  0  0  0  0  0  0  0
   -1.9445  -33.0473  -44.4288 C   0  0  0  0  0  0  0  0  0  0  0  0
   -2.8137  -33.5110  -43.4170 C   0  0  0  0  0  0  0  0  0  0  0  0
   -2.4486  -33.2972  -42.0603 C   0  0  0  0  0  0  0  0  0  0  0  0
   -3.1587  -33.6794  -41.1633 O   0  0  0  0  0  0  0  0  0  0  0  0
   -3.9447  -34.1360  -44.0954 C   0  0  0  0  0  0  0  0  0  0  0  0
   -3.7110  -34.0295  -45.4155 C   0  0  0  0  0  0  0  0  0  0  0  0
   -2.5133  -33.3777  -45.6214 N   0  0  0  0  0  0  0  0  0  0  0  0
   -5.1450  -34.7695  -43.4399 C   0  0  0  0  0  0  0  0  0  0  0  0
   -5.8256  -35.6388  -44.4211 N   0  0  0  0  0  0  0  0  0  0  0  0
  1  2  1  0  0  0  0
  1  7  1  0  0  0  0
  2  3  1  0  0  0  0
  2  4  2  0  0  0  0
  4  5  1  0  0  0  0
  5  6  2  0  0  0  0
  5 11  1  0  0  0  0
  6  7  1  0  0  0  0
  6  9  1  0  0  0  0
  7  8  2  0  0  0  0
  9 10  2  0  0  0  0
  9 12  1  0  0  0  0
 10 11  1  0  0  0  0
 12 13  1  0  0  0  0
M  END
>  <CHROM.1>
-162.37015546,-2.57353897,-33.41621608,-43.43550211,0.30715604,0.52980689
1.55356539

>  <Name>
ligand

>  <RI>
0

>  <Rbt.Current_Directory>
/home/itssahil/PROJECTS/Mol_Feturizer/Test_systems_manuscript/rnas/3fu2

>  <Rbt.Executable>
rbdock ($Id: //depot/dev/client3/rdock/2013.1/src/exe/rbdock.cxx#4 $)

>  <Rbt.Library>
libRbt.so (2013.1, Build901 2013/11/27)

>  <Rbt.Parameter_File>
/export/apps/rDock/src/rDock_2013.1_src/data/scripts/dock_solv.prm

>  <Rbt.Receptor>
prm/blind_docking_60.prm

>  <SCORE>
-16.3253

>  <SCORE.INTER>
-16.1586

>  <SCORE.INTER.CONST>
1

>  <SCORE.INTER.POLAR>
0

>  <SCORE.INTER.ROT>
1

>  <SCORE.INTER.SOLV>
16.0243

>  <SCORE.INTER.VDW>
-20.3805

>  <SCORE.INTER.norm>
-1.24297

>  <SCORE.INTRA>
-0.166691

>  <SCORE.INTRA.DIHEDRAL>
-0.000885472

>  <SCORE.INTRA.DIHEDRAL.0>
1.66609

>  <SCORE.INTRA.POLAR>
0

>  <SCORE.INTRA.POLAR.0>
0

>  <SCORE.INTRA.REPUL>
0

>  <SCORE.INTRA.REPUL.0>
0

>  <SCORE.INTRA.SOLV>
-0.981934

>  <SCORE.INTRA.SOLV.lig_0>
-45.868

>  <SCORE.INTRA.VDW>
0.324719

>  <SCORE.INTRA.VDW.0>
-0.397919

>  <SCORE.INTRA.norm>
-0.0128224

>  <SCORE.RESTR>
0

>  <SCORE.RESTR.CAVITY>
0

>  <SCORE.RESTR.norm>
0

>  <SCORE.SYSTEM>
0

>  <SCORE.SYSTEM.CONST>
0

>  <SCORE.SYSTEM.DIHEDRAL>
0

>  <SCORE.SYSTEM.SOLV>
0

>  <SCORE.SYSTEM.norm>
0

>  <SCORE.heavy>
13

>  <SCORE.norm>
-1.25579

>  <RMSD>
4.823

$$$$
ligand
 OpenBabel02271912143D
libRbt.so/2013.1/901 2013/11/27
 13 14  0  0  0  0  0  0  0  0999 V2000
   -1.2824  -32.6344  -41.7834 N   0  0  0  0  0  0  0  0  0  0  0  0
   -0.4727  -32.1996  -42.7983 C   0  0  0  0  0  0  0  0  0  0  0  0
    0.6887  -31.5479  -42.4842 N   0  0  0  0  0  0  0  0  0  0  0  0
   -0.7938  -32.4002  -44.0768 N   0  0  0  0  0  0  0  0  0  0  0  0
   -1.9421  -33.0443  -44.4246 C   0  0  0  0  0  0  0  0  0  0  0  0
   -2.8104  -33.5073  -43.4117 C   0  0  0  0  0  0  0  0  0  0  0  0
   -2.4475  -33.2860  -42.0555 C   0  0  0  0  0  0  0  0  0  0  0  0
   -3.1568  -33.6674  -41.1576 O   0  0  0  0  0  0  0  0  0  0  0  0
   -3.9380  -34.1401  -44.0885 C   0  0  0  0  0  0  0  0  0  0  0  0
   -3.7035  -34.0383  -45.4088 C   0  0  0  0  0  0  0  0  0  0  0  0
   -2.5084  -33.3823  -45.6164 N   0  0  0  0  0  0  0  0  0  0  0  0
   -5.1362  -34.7759  -43.4313 C   0  0  0  0  0  0  0  0  0  0  0  0
   -5.8285  -35.6300  -44.4177 N   0  0  0  0  0  0  0  0  0  0  0  0
  1  2  1  0  0  0  0
  1  7  1  0  0  0  0
  2  3  1  0  0  0  0
  2  4  2  0  0  0  0
  4  5  1  0  0  0  0
  5  6  2  0  0  0  0
  5 11  1  0  0  0  0
  6  7  1  0  0  0  0
  6  9  1  0  0  0  0
  7  8  2  0  0  0  0
  9 10  2  0  0  0  0
  9 12  1  0  0  0  0
 10 11  1  0  0  0  0
 12 13  1  0  0  0  0
M  END
>  <CHROM.1>
-163.55605388,-2.57193954,-33.40976743,-43.43100594,0.30893142,0.53210147
1.54884182

>  <Name>
ligand

>  <RI>
0

>  <Rbt.Current_Directory>
/home/itssahil/PROJECTS/Mol_Feturizer/Test_systems_manuscript/rnas/3fu2

>  <Rbt.Executable>
rbdock ($Id: //depot/dev/client3/rdock/2013.1/src/exe/rbdock.cxx#4 $)

>  <Rbt.Library>
libRbt.so (2013.1, Build901 2013/11/27)

>  <Rbt.Parameter_File>
/export/apps/rDock/src/rDock_2013.1_src/data/scripts/dock_solv.prm

>  <Rbt.Receptor>
prm/blind_docking_60.prm

>  <SCORE>
-16.3283

>  <SCORE.INTER>
-16.1664

>  <SCORE.INTER.CONST>
1

>  <SCORE.INTER.POLAR>
0

>  <SCORE.INTER.ROT>
1

>  <SCORE.INTER.SOLV>
16.0404

>  <SCORE.INTER.VDW>
-20.3911

>  <SCORE.INTER.norm>
-1.24357

>  <SCORE.INTRA>
-0.161856

>  <SCORE.INTRA.DIHEDRAL>
-0.000177993

>  <SCORE.INTRA.DIHEDRAL.0>
1.66609

>  <SCORE.INTRA.POLAR>
0

>  <SCORE.INTRA.POLAR.0>
0

>  <SCORE.INTRA.REPUL>
0

>  <SCORE.INTRA.REPUL.0>
0

>  <SCORE.INTRA.SOLV>
-0.981602

>  <SCORE.INTRA.SOLV.lig_0>
-45.868

>  <SCORE.INTRA.VDW>
0.329034

>  <SCORE.INTRA.VDW.0>
-0.397919

>  <SCORE.INTRA.norm>
-0.0124505

>  <SCORE.RESTR>
0

>  <SCORE.RESTR.CAVITY>
0

>  <SCORE.RESTR.norm>
0

>  <SCORE.SYSTEM>
0

>  <SCORE.SYSTEM.CONST>
0

>  <SCORE.SYSTEM.DIHEDRAL>
0

>  <SCORE.SYSTEM.SOLV>
0

>  <SCORE.SYSTEM.norm>
0

>  <SCORE.heavy>
13

>  <SCORE.norm>
-1.25602

>  <RMSD>
4.823

$$$$
ligand
 OpenBabel02271912143D
libRbt.so/2013.1/901 2013/11/27
 13 14  0  0  0  0  0  0  0  0999 V2000
   -1.2856  -32.6367  -41.7826 N   0  0  0  0  0  0  0  0  0  0  0  0
   -0.4764  -32.1983  -42.7963 C   0  0  0  0  0  0  0  0  0  0  0  0
    0.6838  -31.5453  -42.4805 N   0  0  0  0  0  0  0  0  0  0  0  0
   -0.7967  -32.3968  -44.0753 N   0  0  0  0  0  0  0  0  0  0  0  0
   -1.9438  -33.0422  -44.4248 C   0  0  0  0  0  0  0  0  0  0  0  0
   -2.8116  -33.5088  -43.4131 C   0  0  0  0  0  0  0  0  0  0  0  0
   -2.4495  -33.2898  -42.0564 C   0  0  0  0  0  0  0  0  0  0  0  0
   -3.1584  -33.6743  -41.1595 O   0  0  0  0  0  0  0  0  0  0  0  0
   -3.9379  -34.1422  -44.0916 C   0  0  0  0  0  0  0  0  0  0  0  0
   -3.7031  -34.0372  -45.4116 C   0  0  0  0  0  0  0  0  0  0  0  0
   -2.5091  -33.3786  -45.6174 N   0  0  0  0  0  0  0  0  0  0  0  0
   -5.1352  -34.7815  -43.4361 C   0  0  0  0  0  0  0  0  0  0  0  0
   -5.8216  -35.6403  -44.4225 N   0  0  0  0  0  0  0  0  0  0  0  0
  1  2  1  0  0  0  0
  1  7  1  0  0  0  0
  2  3  1  0  0  0  0
  2  4  2  0  0  0  0
  4  5  1  0  0  0  0
  5  6  2  0  0  0  0
  5 11  1  0  0  0  0
  6  7  1  0  0  0  0
  6  9  1  0  0  0  0
  7  8  2  0  0  0  0
  9 10  2  0  0  0  0
  9 12  1  0  0  0  0
 10 11  1  0  0  0  0
 12 13  1  0  0  0  0
M  END
>  <CHROM.1>
-163.25961295,-2.57295733,-33.41130598,-43.43200373,0.30918980,0.53434709
1.55068414

>  <Name>
ligand

>  <RI>
0

>  <Rbt.Current_Directory>
/home/itssahil/PROJECTS/Mol_Feturizer/Test_systems_manuscript/rnas/3fu2

>  <Rbt.Executable>
rbdock ($Id: //depot/dev/client3/rdock/2013.1/src/exe/rbdock.cxx#4 $)

>  <Rbt.Library>
libRbt.so (2013.1, Build901 2013/11/27)

>  <Rbt.Parameter_File>
/export/apps/rDock/src/rDock_2013.1_src/data/scripts/dock_solv.prm

>  <Rbt.Receptor>
prm/blind_docking_60.prm

>  <SCORE>
-16.3298

>  <SCORE.INTER>
-16.1667

>  <SCORE.INTER.CONST>
1

>  <SCORE.INTER.POLAR>
0

>  <SCORE.INTER.ROT>
1

>  <SCORE.INTER.SOLV>
16.0319

>  <SCORE.INTER.VDW>
-20.3885

>  <SCORE.INTER.norm>
-1.24359

>  <SCORE.INTRA>
-0.163048

>  <SCORE.INTRA.DIHEDRAL>
-0.000360043

>  <SCORE.INTRA.DIHEDRAL.0>
1.66609

>  <SCORE.INTRA.POLAR>
0

>  <SCORE.INTRA.POLAR.0>
0

>  <SCORE.INTRA.REPUL>
0

>  <SCORE.INTRA.REPUL.0>
0

>  <SCORE.INTRA.SOLV>
-0.981684

>  <SCORE.INTRA.SOLV.lig_0>
-45.868

>  <SCORE.INTRA.VDW>
0.327974

>  <SCORE.INTRA.VDW.0>
-0.397919

>  <SCORE.INTRA.norm>
-0.0125421

>  <SCORE.RESTR>
0

>  <SCORE.RESTR.CAVITY>
0

>  <SCORE.RESTR.norm>
0

>  <SCORE.SYSTEM>
0

>  <SCORE.SYSTEM.CONST>
0

>  <SCORE.SYSTEM.DIHEDRAL>
0

>  <SCORE.SYSTEM.SOLV>
0

>  <SCORE.SYSTEM.norm>
0

>  <SCORE.heavy>
13

>  <SCORE.norm>
-1.25614

>  <RMSD>
4.823

$$$$
ligand
 OpenBabel02271912143D
libRbt.so/2013.1/901 2013/11/27
 13 14  0  0  0  0  0  0  0  0999 V2000
   -1.2836  -32.6446  -41.7838 N   0  0  0  0  0  0  0  0  0  0  0  0
   -0.4754  -32.2054  -42.7980 C   0  0  0  0  0  0  0  0  0  0  0  0
    0.6862  -31.5546  -42.4828 N   0  0  0  0  0  0  0  0  0  0  0  0
   -0.7981  -32.4011  -44.0769 N   0  0  0  0  0  0  0  0  0  0  0  0
   -1.9466  -33.0442  -44.4257 C   0  0  0  0  0  0  0  0  0  0  0  0
   -2.8134  -33.5116  -43.4136 C   0  0  0  0  0  0  0  0  0  0  0  0
   -2.4488  -33.2957  -42.0570 C   0  0  0  0  0  0  0  0  0  0  0  0
   -3.1568  -33.6809  -41.1597 O   0  0  0  0  0  0  0  0  0  0  0  0
   -3.9416  -34.1422  -44.0914 C   0  0  0  0  0  0  0  0  0  0  0  0
   -3.7089  -34.0350  -45.4116 C   0  0  0  0  0  0  0  0  0  0  0  0
   -2.5143  -33.3776  -45.6181 N   0  0  0  0  0  0  0  0  0  0  0  0
   -5.1387  -34.7811  -43.4352 C   0  0  0  0  0  0  0  0  0  0  0  0
   -5.8235  -35.6431  -44.4200 N   0  0  0  0  0  0  0  0  0  0  0  0
  1  2  1  0  0  0  0
  1  7  1  0  0  0  0
  2  3  1  0  0  0  0
  2  4  2  0  0  0  0
  4  5  1  0  0  0  0
  5  6  2  0  0  0  0
  5 11  1  0  0  0  0
  6  7  1  0  0  0  0
  6  9  1  0  0  0  0
  7  8  2  0  0  0  0
  9 10  2  0  0  0  0
  9 12  1  0  0  0  0
 10 11  1  0  0  0  0
 12 13  1  0  0  0  0
M  END
>  <CHROM.1>
-162.94556804,-2.57429611,-33.41486645,-43.43246092,0.30714294,0.53354890
1.55348997

>  <Name>
ligand

>  <RI>
0

>  <Rbt.Current_Directory>
/home/itssahil/PROJECTS/Mol_Feturizer/Test_systems_manuscript/rnas/3fu2

>  <Rbt.Executable>
rbdock ($Id: //depot/dev/client3/rdock/2013.1/src/exe/rbdock.cxx#4 $)

>  <Rbt.Library>
libRbt.so (2013.1, Build901 2013/11/27)

>  <Rbt.Parameter_File>
/export/apps/rDock/src/rDock_2013.1_src/data/scripts/dock_solv.prm

>  <Rbt.Receptor>
prm/blind_docking_60.prm

>  <SCORE>
-16.332

>  <SCORE.INTER>
-16.1677

>  <SCORE.INTER.CONST>
1

>  <SCORE.INTER.POLAR>
0

>  <SCORE.INTER.ROT>
1

>  <SCORE.INTER.SOLV>
16.0266

>  <SCORE.INTER.VDW>
-20.3874

>  <SCORE.INTER.norm>
-1.24367

>  <SCORE.INTRA>
-0.164323

>  <SCORE.INTRA.DIHEDRAL>
-0.000549153

>  <SCORE.INTRA.DIHEDRAL.0>
1.66609

>  <SCORE.INTRA.POLAR>
0

>  <SCORE.INTRA.POLAR.0>
0

>  <SCORE.INTRA.REPUL>
0

>  <SCORE.INTRA.REPUL.0>
0

>  <SCORE.INTRA.SOLV>
-0.981771

>  <SCORE.INTRA.SOLV.lig_0>
-45.868

>  <SCORE.INTRA.VDW>
0.326838

>  <SCORE.INTRA.VDW.0>
-0.397919

>  <SCORE.INTRA.norm>
-0.0126402

>  <SCORE.RESTR>
0

>  <SCORE.RESTR.CAVITY>
0

>  <SCORE.RESTR.norm>
0

>  <SCORE.SYSTEM>
0

>  <SCORE.SYSTEM.CONST>
0

>  <SCORE.SYSTEM.DIHEDRAL>
0

>  <SCORE.SYSTEM.SOLV>
0

>  <SCORE.SYSTEM.norm>
0

>  <SCORE.heavy>
13

>  <SCORE.norm>
-1.25631

>  <RMSD>
4.823

$$$$
ligand
 OpenBabel02271912143D
libRbt.so/2013.1/901 2013/11/27
 13 14  0  0  0  0  0  0  0  0999 V2000
   -1.2829  -32.6381  -41.7804 N   0  0  0  0  0  0  0  0  0  0  0  0
   -0.4703  -32.2061  -42.7943 C   0  0  0  0  0  0  0  0  0  0  0  0
    0.6913  -31.5554  -42.4787 N   0  0  0  0  0  0  0  0  0  0  0  0
   -0.7890  -32.4084  -44.0731 N   0  0  0  0  0  0  0  0  0  0  0  0
   -1.9374  -33.0515  -44.4223 C   0  0  0  0  0  0  0  0  0  0  0  0
   -2.8085  -33.5117  -43.4105 C   0  0  0  0  0  0  0  0  0  0  0  0
   -2.4482  -33.2887  -42.0539 C   0  0  0  0  0  0  0  0  0  0  0  0
   -3.1600  -33.6676  -41.1569 O   0  0  0  0  0  0  0  0  0  0  0  0
   -3.9355  -34.1441  -44.0886 C   0  0  0  0  0  0  0  0  0  0  0  0
   -3.6979  -34.0448  -45.4086 C   0  0  0  0  0  0  0  0  0  0  0  0
   -2.5015  -33.3907  -45.6147 N   0  0  0  0  0  0  0  0  0  0  0  0
   -5.1359  -34.7773  -43.4330 C   0  0  0  0  0  0  0  0  0  0  0  0
   -5.8138  -35.6505  -44.4126 N   0  0  0  0  0  0  0  0  0  0  0  0
  1  2  1  0  0  0  0
  1  7  1  0  0  0  0
  2  3  1  0  0  0  0
  2  4  2  0  0  0  0
  4  5  1  0  0  0  0
  5  6  2  0  0  0  0
  5 11  1  0  0  0  0
  6  7  1  0  0  0  0
  6  9  1  0  0  0  0
  7  8  2  0  0  0  0
  9 10  2  0  0  0  0
  9 12  1  0  0  0  0
 10 11  1  0  0  0  0
 12 13  1  0  0  0  0
M  END
>  <CHROM.1>
-162.57861701,-2.56874216,-33.41601200,-43.42888434,0.31095637,0.53234775
1.54572121

>  <Name>
ligand

>  <RI>
0

>  <Rbt.Current_Directory>
/home/itssahil/PROJECTS/Mol_Feturizer/Test_systems_manuscript/rnas/3fu2

>  <Rbt.Executable>
rbdock ($Id: //depot/dev/client3/rdock/2013.1/src/exe/rbdock.cxx#4 $)

>  <Rbt.Library>
libRbt.so (2013.1, Build901 2013/11/27)

>  <Rbt.Parameter_File>
/export/apps/rDock/src/rDock_2013.1_src/data/scripts/dock_solv.prm

>  <Rbt.Receptor>
prm/blind_docking_80.prm

>  <SCORE>
-16.3256

>  <SCORE.INTER>
-16.1597

>  <SCORE.INTER.CONST>
1

>  <SCORE.INTER.POLAR>
0

>  <SCORE.INTER.ROT>
1

>  <SCORE.INTER.SOLV>
16.0394

>  <SCORE.INTER.VDW>
-20.3863

>  <SCORE.INTER.norm>
-1.24306

>  <SCORE.INTRA>
-0.165828

>  <SCORE.INTRA.DIHEDRAL>
-0.000765165

>  <SCORE.INTRA.DIHEDRAL.0>
1.66609

>  <SCORE.INTRA.POLAR>
0

>  <SCORE.INTRA.POLAR.0>
0

>  <SCORE.INTRA.REPUL>
0

>  <SCORE.INTRA.REPUL.0>
0

>  <SCORE.INTRA.SOLV>
-0.981874

>  <SCORE.INTRA.SOLV.lig_0>
-45.868

>  <SCORE.INTRA.VDW>
0.325492

>  <SCORE.INTRA.VDW.0>
-0.397919

>  <SCORE.INTRA.norm>
-0.012756

>  <SCORE.RESTR>
0

>  <SCORE.RESTR.CAVITY>
0

>  <SCORE.RESTR.norm>
0

>  <SCORE.SYSTEM>
0

>  <SCORE.SYSTEM.CONST>
0

>  <SCORE.SYSTEM.DIHEDRAL>
0

>  <SCORE.SYSTEM.SOLV>
0

>  <SCORE.SYSTEM.norm>
0

>  <SCORE.heavy>
13

>  <SCORE.norm>
-1.25581

>  <RMSD>
4.823

$$$$
ligand
 OpenBabel02271912143D
libRbt.so/2013.1/901 2013/11/27
 13 14  0  0  0  0  0  0  0  0999 V2000
   -1.2855  -32.6502  -41.7864 N   0  0  0  0  0  0  0  0  0  0  0  0
   -0.4787  -32.2075  -42.8002 C   0  0  0  0  0  0  0  0  0  0  0  0
    0.6827  -31.5566  -42.4844 N   0  0  0  0  0  0  0  0  0  0  0  0
   -0.8027  -32.3997  -44.0793 N   0  0  0  0  0  0  0  0  0  0  0  0
   -1.9511  -33.0428  -44.4287 C   0  0  0  0  0  0  0  0  0  0  0  0
   -2.8163  -33.5138  -43.4169 C   0  0  0  0  0  0  0  0  0  0  0  0
   -2.4504  -33.3014  -42.0601 C   0  0  0  0  0  0  0  0  0  0  0  0
   -3.1571  -33.6897  -41.1631 O   0  0  0  0  0  0  0  0  0  0  0  0
   -3.9449  -34.1432  -44.0953 C   0  0  0  0  0  0  0  0  0  0  0  0
   -3.7136  -34.0321  -45.4154 C   0  0  0  0  0  0  0  0  0  0  0  0
   -2.5198  -33.3732  -45.6214 N   0  0  0  0  0  0  0  0  0  0  0  0
   -5.1407  -34.7850  -43.4396 C   0  0  0  0  0  0  0  0  0  0  0  0
   -5.8262  -35.6443  -44.4262 N   0  0  0  0  0  0  0  0  0  0  0  0
  1  2  1  0  0  0  0
  1  7  1  0  0  0  0
  2  3  1  0  0  0  0
  2  4  2  0  0  0  0
  4  5  1  0  0  0  0
  5  6  2  0  0  0  0
  5 11  1  0  0  0  0
  6  7  1  0  0  0  0
  6  9  1  0  0  0  0
  7  8  2  0  0  0  0
  9 10  2  0  0  0  0
  9 12  1  0  0  0  0
 10 11  1  0  0  0  0
 12 13  1  0  0  0  0
M  END
>  <CHROM.1>
-162.96501997,-2.57739565,-33.41671296,-43.43579223,0.30587622,0.53431825
1.55699641

>  <Name>
ligand

>  <RI>
0

>  <Rbt.Current_Directory>
/home/itssahil/PROJECTS/Mol_Feturizer/Test_systems_manuscript/rnas/3fu2

>  <Rbt.Executable>
rbdock ($Id: //depot/dev/client3/rdock/2013.1/src/exe/rbdock.cxx#4 $)

>  <Rbt.Library>
libRbt.so (2013.1, Build901 2013/11/27)

>  <Rbt.Parameter_File>
/export/apps/rDock/src/rDock_2013.1_src/data/scripts/dock_solv.prm

>  <Rbt.Receptor>
prm/blind_docking_80.prm

>  <SCORE>
-16.3289

>  <SCORE.INTER>
-16.1646

>  <SCORE.INTER.CONST>
1

>  <SCORE.INTER.POLAR>
0

>  <SCORE.INTER.ROT>
1

>  <SCORE.INTER.SOLV>
16.0245

>  <SCORE.INTER.VDW>
-20.3846

>  <SCORE.INTER.norm>
-1.24343

>  <SCORE.INTRA>
-0.164243

>  <SCORE.INTRA.DIHEDRAL>
-0.000537553

>  <SCORE.INTRA.DIHEDRAL.0>
1.66609

>  <SCORE.INTRA.POLAR>
0

>  <SCORE.INTRA.POLAR.0>
0

>  <SCORE.INTRA.REPUL>
0

>  <SCORE.INTRA.REPUL.0>
0

>  <SCORE.INTRA.SOLV>
-0.981766

>  <SCORE.INTRA.SOLV.lig_0>
-45.868

>  <SCORE.INTRA.VDW>
0.326908

>  <SCORE.INTRA.VDW.0>
-0.397919

>  <SCORE.INTRA.norm>
-0.0126341

>  <SCORE.RESTR>
0

>  <SCORE.RESTR.CAVITY>
0

>  <SCORE.RESTR.norm>
0

>  <SCORE.SYSTEM>
0

>  <SCORE.SYSTEM.CONST>
0

>  <SCORE.SYSTEM.DIHEDRAL>
0

>  <SCORE.SYSTEM.SOLV>
0

>  <SCORE.SYSTEM.norm>
0

>  <SCORE.heavy>
13

>  <SCORE.norm>
-1.25607

>  <RMSD>
4.823

$$$$
ligand
 OpenBabel02271912143D
libRbt.so/2013.1/901 2013/11/27
 13 14  0  0  0  0  0  0  0  0999 V2000
   -1.2848  -32.6448  -41.7854 N   0  0  0  0  0  0  0  0  0  0  0  0
   -0.4784  -32.2027  -42.7999 C   0  0  0  0  0  0  0  0  0  0  0  0
    0.6821  -31.5498  -42.4849 N   0  0  0  0  0  0  0  0  0  0  0  0
   -0.8019  -32.3974  -44.0786 N   0  0  0  0  0  0  0  0  0  0  0  0
   -1.9494  -33.0425  -44.4272 C   0  0  0  0  0  0  0  0  0  0  0  0
   -2.8142  -33.5130  -43.4148 C   0  0  0  0  0  0  0  0  0  0  0  0
   -2.4488  -33.2979  -42.0583 C   0  0  0  0  0  0  0  0  0  0  0  0
   -3.1551  -33.6857  -41.1608 O   0  0  0  0  0  0  0  0  0  0  0  0
   -3.9418  -34.1450  -44.0923 C   0  0  0  0  0  0  0  0  0  0  0  0
   -3.7105  -34.0358  -45.4126 C   0  0  0  0  0  0  0  0  0  0  0  0
   -2.5175  -33.3757  -45.6194 N   0  0  0  0  0  0  0  0  0  0  0  0
   -5.1369  -34.7873  -43.4358 C   0  0  0  0  0  0  0  0  0  0  0  0
   -5.8281  -35.6396  -44.4245 N   0  0  0  0  0  0  0  0  0  0  0  0
  1  2  1  0  0  0  0
  1  7  1  0  0  0  0
  2  3  1  0  0  0  0
  2  4  2  0  0  0  0
  4  5  1  0  0  0  0
  5  6  2  0  0  0  0
  5 11  1  0  0  0  0
  6  7  1  0  0  0  0
  6  9  1  0  0  0  0
  7  8  2  0  0  0  0
  9 10  2  0  0  0  0
  9 12  1  0  0  0  0
 10 11  1  0  0  0  0
 12 13  1  0  0  0  0
M  END
>  <CHROM.1>
-163.46951162,-2.57597049,-33.41489334,-43.43406314,0.30631483,0.53478058
1.55537099

>  <Name>
ligand

>  <RI>
0

>  <Rbt.Current_Directory>
/home/itssahil/PROJECTS/Mol_Feturizer/Test_systems_manuscript/rnas/3fu2

>  <Rbt.Executable>
rbdock ($Id: //depot/dev/client3/rdock/2013.1/src/exe/rbdock.cxx#4 $)

>  <Rbt.Library>
libRbt.so (2013.1, Build901 2013/11/27)

>  <Rbt.Parameter_File>
/export/apps/rDock/src/rDock_2013.1_src/data/scripts/dock_solv.prm

>  <Rbt.Receptor>
prm/blind_docking_80.prm

>  <SCORE>
-16.3308

>  <SCORE.INTER>
-16.1686

>  <SCORE.INTER.CONST>
1

>  <SCORE.INTER.POLAR>
0

>  <SCORE.INTER.ROT>
1

>  <SCORE.INTER.SOLV>
16.0309

>  <SCORE.INTER.VDW>
-20.3894

>  <SCORE.INTER.norm>
-1.24374

>  <SCORE.INTRA>
-0.162203

>  <SCORE.INTRA.DIHEDRAL>
-0.000231493

>  <SCORE.INTRA.DIHEDRAL.0>
1.66609

>  <SCORE.INTRA.POLAR>
0

>  <SCORE.INTRA.POLAR.0>
0

>  <SCORE.INTRA.REPUL>
0

>  <SCORE.INTRA.REPUL.0>
0

>  <SCORE.INTRA.SOLV>
-0.981626

>  <SCORE.INTRA.SOLV.lig_0>
-45.868

>  <SCORE.INTRA.VDW>
0.328726

>  <SCORE.INTRA.VDW.0>
-0.397919

>  <SCORE.INTRA.norm>
-0.0124771

>  <SCORE.RESTR>
0

>  <SCORE.RESTR.CAVITY>
0

>  <SCORE.RESTR.norm>
0

>  <SCORE.SYSTEM>
0

>  <SCORE.SYSTEM.CONST>
0

>  <SCORE.SYSTEM.DIHEDRAL>
0

>  <SCORE.SYSTEM.SOLV>
0

>  <SCORE.SYSTEM.norm>
0

>  <SCORE.heavy>
13

>  <SCORE.norm>
-1.25622

>  <RMSD>
4.823

$$$$
ligand
 OpenBabel02271912143D
libRbt.so/2013.1/901 2013/11/27
 13 14  0  0  0  0  0  0  0  0999 V2000
   -1.2818  -32.6507  -41.7877 N   0  0  0  0  0  0  0  0  0  0  0  0
   -0.4714  -32.2148  -42.8016 C   0  0  0  0  0  0  0  0  0  0  0  0
    0.6919  -31.5672  -42.4859 N   0  0  0  0  0  0  0  0  0  0  0  0
   -0.7935  -32.4106  -44.0805 N   0  0  0  0  0  0  0  0  0  0  0  0
   -1.9437  -33.0506  -44.4298 C   0  0  0  0  0  0  0  0  0  0  0  0
   -2.8127  -33.5146  -43.4180 C   0  0  0  0  0  0  0  0  0  0  0  0
   -2.4487  -33.2985  -42.0613 C   0  0  0  0  0  0  0  0  0  0  0  0
   -3.1586  -33.6808  -41.1643 O   0  0  0  0  0  0  0  0  0  0  0  0
   -3.9423  -34.1423  -44.0963 C   0  0  0  0  0  0  0  0  0  0  0  0
   -3.7080  -34.0370  -45.4163 C   0  0  0  0  0  0  0  0  0  0  0  0
   -2.5113  -33.3834  -45.6224 N   0  0  0  0  0  0  0  0  0  0  0  0
   -5.1418  -34.7771  -43.4406 C   0  0  0  0  0  0  0  0  0  0  0  0
   -5.8223  -35.6462  -44.4221 N   0  0  0  0  0  0  0  0  0  0  0  0
  1  2  1  0  0  0  0
  1  7  1  0  0  0  0
  2  3  1  0  0  0  0
  2  4  2  0  0  0  0
  4  5  1  0  0  0  0
  5  6  2  0  0  0  0
  5 11  1  0  0  0  0
  6  7  1  0  0  0  0
  6  9  1  0  0  0  0
  7  8  2  0  0  0  0
  9 10  2  0  0  0  0
  9 12  1  0  0  0  0
 10 11  1  0  0  0  0
 12 13  1  0  0  0  0
M  END
>  <CHROM.1>
-162.50608608,-2.57283010,-33.41922326,-43.43652799,0.30789198,0.53127459
1.55204384

>  <Name>
ligand

>  <RI>
0

>  <Rbt.Current_Directory>
/home/itssahil/PROJECTS/Mol_Feturizer/Test_systems_manuscript/rnas/3fu2

>  <Rbt.Executable>
rbdock ($Id: //depot/dev/client3/rdock/2013.1/src/exe/rbdock.cxx#4 $)

>  <Rbt.Library>
libRbt.so (2013.1, Build901 2013/11/27)

>  <Rbt.Parameter_File>
/export/apps/rDock/src/rDock_2013.1_src/data/scripts/dock_solv.prm

>  <Rbt.Receptor>
prm/blind_docking_80.prm

>  <SCORE>
-16.3274

>  <SCORE.INTER>
-16.1613

>  <SCORE.INTER.CONST>
1

>  <SCORE.INTER.POLAR>
0

>  <SCORE.INTER.ROT>
1

>  <SCORE.INTER.SOLV>
16.0305

>  <SCORE.INTER.VDW>
-20.3843

>  <SCORE.INTER.norm>
-1.24317

>  <SCORE.INTRA>
-0.166128

>  <SCORE.INTRA.DIHEDRAL>
-0.000807223

>  <SCORE.INTRA.DIHEDRAL.0>
1.66609

>  <SCORE.INTRA.POLAR>
0

>  <SCORE.INTRA.POLAR.0>
0

>  <SCORE.INTRA.REPUL>
0

>  <SCORE.INTRA.REPUL.0>
0

>  <SCORE.INTRA.SOLV>
-0.981895

>  <SCORE.INTRA.SOLV.lig_0>
-45.868

>  <SCORE.INTRA.VDW>
0.325224

>  <SCORE.INTRA.VDW.0>
-0.397919

>  <SCORE.INTRA.norm>
-0.0127791

>  <SCORE.RESTR>
0

>  <SCORE.RESTR.CAVITY>
0

>  <SCORE.RESTR.norm>
0

>  <SCORE.SYSTEM>
0

>  <SCORE.SYSTEM.CONST>
0

>  <SCORE.SYSTEM.DIHEDRAL>
0

>  <SCORE.SYSTEM.SOLV>
0

>  <SCORE.SYSTEM.norm>
0

>  <SCORE.heavy>
13

>  <SCORE.norm>
-1.25595

>  <RMSD>
4.823

$$$$
ligand
 OpenBabel02271912143D
libRbt.so/2013.1/901 2013/11/27
 13 14  0  0  0  0  0  0  0  0999 V2000
   -1.2828  -32.6483  -41.7826 N   0  0  0  0  0  0  0  0  0  0  0  0
   -0.4726  -32.2121  -42.7965 C   0  0  0  0  0  0  0  0  0  0  0  0
    0.6905  -31.5642  -42.4809 N   0  0  0  0  0  0  0  0  0  0  0  0
   -0.7948  -32.4079  -44.0754 N   0  0  0  0  0  0  0  0  0  0  0  0
   -1.9448  -33.0483  -44.4247 C   0  0  0  0  0  0  0  0  0  0  0  0
   -2.8136  -33.5125  -43.4128 C   0  0  0  0  0  0  0  0  0  0  0  0
   -2.4495  -33.2964  -42.0561 C   0  0  0  0  0  0  0  0  0  0  0  0
   -3.1593  -33.6789  -41.1590 O   0  0  0  0  0  0  0  0  0  0  0  0
   -3.9431  -34.1405  -44.0909 C   0  0  0  0  0  0  0  0  0  0  0  0
   -3.7090  -34.0351  -45.4110 C   0  0  0  0  0  0  0  0  0  0  0  0
   -2.5124  -33.3812  -45.6172 N   0  0  0  0  0  0  0  0  0  0  0  0
   -5.1424  -34.7757  -43.4352 C   0  0  0  0  0  0  0  0  0  0  0  0
   -5.8221  -35.6456  -44.4164 N   0  0  0  0  0  0  0  0  0  0  0  0
  1  2  1  0  0  0  0
  1  7  1  0  0  0  0
  2  3  1  0  0  0  0
  2  4  2  0  0  0  0
  4  5  1  0  0  0  0
  5  6  2  0  0  0  0
  5 11  1  0  0  0  0
  6  7  1  0  0  0  0
  6  9  1  0  0  0  0
  7  8  2  0  0  0  0
  9 10  2  0  0  0  0
  9 12  1  0  0  0  0
 10 11  1  0  0  0  0
 12 13  1  0  0  0  0
M  END
>  <CHROM.1>
-162.46652897,-2.57372959,-33.41712947,-43.43129457,0.30776950,0.53161648
1.55212530

>  <Name>
ligand

>  <RI>
0

>  <Rbt.Current_Directory>
/home/itssahil/PROJECTS/Mol_Feturizer/Test_systems_manuscript/rnas/3fu2

>  <Rbt.Executable>
rbdock ($Id: //depot/dev/client3/rdock/2013.1/src/exe/rbdock.cxx#4 $)

>  <Rbt.Library>
libRbt.so (2013.1, Build901 2013/11/27)

>  <Rbt.Parameter_File>
/export/apps/rDock/src/rDock_2013.1_src/data/scripts/dock_solv.prm

>  <Rbt.Receptor>
prm/pocket_docking_3.prm

>  <SCORE>
-16.3293

>  <SCORE.INTER>
-16.163

>  <SCORE.INTER.CONST>
1

>  <SCORE.INTER.POLAR>
0

>  <SCORE.INTER.ROT>
1

>  <SCORE.INTER.SOLV>
16.0282

>  <SCORE.INTER.VDW>
-20.3847

>  <SCORE.INTER.norm>
-1.24331

>  <SCORE.INTRA>
-0.166291

>  <SCORE.INTRA.DIHEDRAL>
-0.000830071

>  <SCORE.INTRA.DIHEDRAL.0>
1.66609

>  <SCORE.INTRA.POLAR>
0

>  <SCORE.INTRA.POLAR.0>
0

>  <SCORE.INTRA.REPUL>
0

>  <SCORE.INTRA.REPUL.0>
0

>  <SCORE.INTRA.SOLV>
-0.981906

>  <SCORE.INTRA.SOLV.lig_0>
-45.868

>  <SCORE.INTRA.VDW>
0.325077

>  <SCORE.INTRA.VDW.0>
-0.397919

>  <SCORE.INTRA.norm>
-0.0127916

>  <SCORE.RESTR>
0

>  <SCORE.RESTR.CAVITY>
0

>  <SCORE.RESTR.norm>
0

>  <SCORE.SYSTEM>
0

>  <SCORE.SYSTEM.CONST>
0

>  <SCORE.SYSTEM.DIHEDRAL>
0

>  <SCORE.SYSTEM.SOLV>
0

>  <SCORE.SYSTEM.norm>
0

>  <SCORE.heavy>
13

>  <SCORE.norm>
-1.2561

>  <RMSD>
4.823

$$$$
ligand
 OpenBabel02271912143D
libRbt.so/2013.1/901 2013/11/27
 13 14  0  0  0  0  0  0  0  0999 V2000
   -1.2845  -32.6410  -41.7832 N   0  0  0  0  0  0  0  0  0  0  0  0
   -0.4759  -32.2009  -42.7967 C   0  0  0  0  0  0  0  0  0  0  0  0
    0.6845  -31.5483  -42.4805 N   0  0  0  0  0  0  0  0  0  0  0  0
   -0.7970  -32.3973  -44.0759 N   0  0  0  0  0  0  0  0  0  0  0  0
   -1.9443  -33.0422  -44.4257 C   0  0  0  0  0  0  0  0  0  0  0  0
   -2.8114  -33.5106  -43.4142 C   0  0  0  0  0  0  0  0  0  0  0  0
   -2.4484  -33.2938  -42.0573 C   0  0  0  0  0  0  0  0  0  0  0  0
   -3.1567  -33.6798  -41.1606 O   0  0  0  0  0  0  0  0  0  0  0  0
   -3.9380  -34.1430  -44.0930 C   0  0  0  0  0  0  0  0  0  0  0  0
   -3.7041  -34.0358  -45.4130 C   0  0  0  0  0  0  0  0  0  0  0  0
   -2.5103  -33.3768  -45.6185 N   0  0  0  0  0  0  0  0  0  0  0  0
   -5.1348  -34.7835  -43.4379 C   0  0  0  0  0  0  0  0  0  0  0  0
   -5.8326  -35.6258  -44.4304 N   0  0  0  0  0  0  0  0  0  0  0  0
  1  2  1  0  0  0  0
  1  7  1  0  0  0  0
  2  3  1  0  0  0  0
  2  4  2  0  0  0  0
  4  5  1  0  0  0  0
  5  6  2  0  0  0  0
  5 11  1  0  0  0  0
  6  7  1  0  0  0  0
  6  9  1  0  0  0  0
  7  8  2  0  0  0  0
  9 10  2  0  0  0  0
  9 12  1  0  0  0  0
 10 11  1  0  0  0  0
 12 13  1  0  0  0  0
M  END
>  <CHROM.1>
-164.04567413,-2.57363981,-33.41184015,-43.43351011,0.30879822,0.53313966
1.55286560

>  <Name>
ligand

>  <RI>
0

>  <Rbt.Current_Directory>
/home/itssahil/PROJECTS/Mol_Feturizer/Test_systems_manuscript/rnas/3fu2

>  <Rbt.Executable>
rbdock ($Id: //depot/dev/client3/rdock/2013.1/src/exe/rbdock.cxx#4 $)

>  <Rbt.Library>
libRbt.so (2013.1, Build901 2013/11/27)

>  <Rbt.Parameter_File>
/export/apps/rDock/src/rDock_2013.1_src/data/scripts/dock_solv.prm

>  <Rbt.Receptor>
prm/pocket_docking_3.prm

>  <SCORE>
-16.3303

>  <SCORE.INTER>
-16.1704

>  <SCORE.INTER.CONST>
1

>  <SCORE.INTER.POLAR>
0

>  <SCORE.INTER.ROT>
1

>  <SCORE.INTER.SOLV>
16.027

>  <SCORE.INTER.VDW>
-20.3893

>  <SCORE.INTER.norm>
-1.24388

>  <SCORE.INTRA>
-0.159914

>  <SCORE.INTRA.DIHEDRAL>
0.000130104

>  <SCORE.INTRA.DIHEDRAL.0>
1.66609

>  <SCORE.INTRA.POLAR>
0

>  <SCORE.INTRA.POLAR.0>
0

>  <SCORE.INTRA.REPUL>
0

>  <SCORE.INTRA.REPUL.0>
0

>  <SCORE.INTRA.SOLV>
-0.98147

>  <SCORE.INTRA.SOLV.lig_0>
-45.868

>  <SCORE.INTRA.VDW>
0.330756

>  <SCORE.INTRA.VDW.0>
-0.397919

>  <SCORE.INTRA.norm>
-0.0123011

>  <SCORE.RESTR>
0

>  <SCORE.RESTR.CAVITY>
0

>  <SCORE.RESTR.norm>
0

>  <SCORE.SYSTEM>
0

>  <SCORE.SYSTEM.CONST>
0

>  <SCORE.SYSTEM.DIHEDRAL>
0

>  <SCORE.SYSTEM.SOLV>
0

>  <SCORE.SYSTEM.norm>
0

>  <SCORE.heavy>
13

>  <SCORE.norm>
-1.25618

>  <RMSD>
4.823

$$$$
ligand
 OpenBabel02271912143D
libRbt.so/2013.1/901 2013/11/27
 13 14  0  0  0  0  0  0  0  0999 V2000
   -1.2846  -32.6369  -41.7854 N   0  0  0  0  0  0  0  0  0  0  0  0
   -0.4786  -32.1934  -42.7995 C   0  0  0  0  0  0  0  0  0  0  0  0
    0.6812  -31.5395  -42.4842 N   0  0  0  0  0  0  0  0  0  0  0  0
   -0.8017  -32.3879  -44.0784 N   0  0  0  0  0  0  0  0  0  0  0  0
   -1.9485  -33.0341  -44.4274 C   0  0  0  0  0  0  0  0  0  0  0  0
   -2.8129  -33.5060  -43.4153 C   0  0  0  0  0  0  0  0  0  0  0  0
   -2.4479  -33.2912  -42.0587 C   0  0  0  0  0  0  0  0  0  0  0  0
   -3.1539  -33.6802  -41.1614 O   0  0  0  0  0  0  0  0  0  0  0  0
   -3.9397  -34.1390  -44.0933 C   0  0  0  0  0  0  0  0  0  0  0  0
   -3.7084  -34.0288  -45.4135 C   0  0  0  0  0  0  0  0  0  0  0  0
   -2.5161  -33.3673  -45.6199 N   0  0  0  0  0  0  0  0  0  0  0  0
   -5.1342  -34.7828  -43.4373 C   0  0  0  0  0  0  0  0  0  0  0  0
   -5.8280  -35.6305  -44.4281 N   0  0  0  0  0  0  0  0  0  0  0  0
  1  2  1  0  0  0  0
  1  7  1  0  0  0  0
  2  3  1  0  0  0  0
  2  4  2  0  0  0  0
  4  5  1  0  0  0  0
  5  6  2  0  0  0  0
  5 11  1  0  0  0  0
  6  7  1  0  0  0  0
  6  9  1  0  0  0  0
  7  8  2  0  0  0  0
  9 10  2  0  0  0  0
  9 12  1  0  0  0  0
 10 11  1  0  0  0  0
 12 13  1  0  0  0  0
M  END
>  <CHROM.1>
-163.72598172,-2.57505164,-33.40725147,-43.43470013,0.30658677,0.53543243
1.55580639

>  <Name>
ligand

>  <RI>
0

>  <Rbt.Current_Directory>
/home/itssahil/PROJECTS/Mol_Feturizer/Test_systems_manuscript/rnas/3fu2

>  <Rbt.Executable>
rbdock ($Id: //depot/dev/client3/rdock/2013.1/src/exe/rbdock.cxx#4 $)

>  <Rbt.Library>
libRbt.so (2013.1, Build901 2013/11/27)

>  <Rbt.Parameter_File>
/export/apps/rDock/src/rDock_2013.1_src/data/scripts/dock_solv.prm

>  <Rbt.Receptor>
prm/pocket_docking_3.prm

>  <SCORE>
-16.3265

>  <SCORE.INTER>
-16.1653

>  <SCORE.INTER.CONST>
1

>  <SCORE.INTER.POLAR>
0

>  <SCORE.INTER.ROT>
1

>  <SCORE.INTER.SOLV>
16.0312

>  <SCORE.INTER.VDW>
-20.3873

>  <SCORE.INTER.norm>
-1.24349

>  <SCORE.INTRA>
-0.161178

>  <SCORE.INTRA.DIHEDRAL>
-7.21038e-05

>  <SCORE.INTRA.DIHEDRAL.0>
1.66609

>  <SCORE.INTRA.POLAR>
0

>  <SCORE.INTRA.POLAR.0>
0

>  <SCORE.INTRA.REPUL>
0

>  <SCORE.INTRA.REPUL.0>
0

>  <SCORE.INTRA.SOLV>
-0.981556

>  <SCORE.INTRA.SOLV.lig_0>
-45.868

>  <SCORE.INTRA.VDW>
0.329636

>  <SCORE.INTRA.VDW.0>
-0.397919

>  <SCORE.INTRA.norm>
-0.0123983

>  <SCORE.RESTR>
0

>  <SCORE.RESTR.CAVITY>
0

>  <SCORE.RESTR.norm>
0

>  <SCORE.SYSTEM>
0

>  <SCORE.SYSTEM.CONST>
0

>  <SCORE.SYSTEM.DIHEDRAL>
0

>  <SCORE.SYSTEM.SOLV>
0

>  <SCORE.SYSTEM.norm>
0

>  <SCORE.heavy>
13

>  <SCORE.norm>
-1.25588

>  <RMSD>
4.823

$$$$
ligand
 OpenBabel02271912143D
libRbt.so/2013.1/901 2013/11/27
 13 14  0  0  0  0  0  0  0  0999 V2000
   -1.2866  -32.6532  -41.7703 N   0  0  0  0  0  0  0  0  0  0  0  0
   -0.4785  -32.2100  -42.7829 C   0  0  0  0  0  0  0  0  0  0  0  0
    0.6829  -31.5599  -42.4652 N   0  0  0  0  0  0  0  0  0  0  0  0
   -0.8010  -32.4012  -44.0624 N   0  0  0  0  0  0  0  0  0  0  0  0
   -1.9493  -33.0435  -44.4136 C   0  0  0  0  0  0  0  0  0  0  0  0
   -2.8160  -33.5148  -43.4032 C   0  0  0  0  0  0  0  0  0  0  0  0
   -2.4515  -33.3036  -42.0458 C   0  0  0  0  0  0  0  0  0  0  0  0
   -3.1594  -33.6923  -41.1499 O   0  0  0  0  0  0  0  0  0  0  0  0
   -3.9440  -34.1433  -44.0833 C   0  0  0  0  0  0  0  0  0  0  0  0
   -3.7112  -34.0313  -45.4031 C   0  0  0  0  0  0  0  0  0  0  0  0
   -2.5168  -33.3728  -45.6072 N   0  0  0  0  0  0  0  0  0  0  0  0
   -5.1409  -34.7851  -43.4296 C   0  0  0  0  0  0  0  0  0  0  0  0
   -5.8104  -35.6639  -44.4099 N   0  0  0  0  0  0  0  0  0  0  0  0
  1  2  1  0  0  0  0
  1  7  1  0  0  0  0
  2  3  1  0  0  0  0
  2  4  2  0  0  0  0
  4  5  1  0  0  0  0
  5  6  2  0  0  0  0
  5 11  1  0  0  0  0
  6  7  1  0  0  0  0
  6  9  1  0  0  0  0
  7  8  2  0  0  0  0
  9 10  2  0  0  0  0
  9 12  1  0  0  0  0
 10 11  1  0  0  0  0
 12 13  1  0  0  0  0
M  END
>  <CHROM.1>
-161.86996431,-2.57571071,-33.41956524,-43.42112408,0.30669193,0.53567816
1.55683895

>  <Name>
ligand

>  <RI>
0

>  <Rbt.Current_Directory>
/home/itssahil/PROJECTS/Mol_Feturizer/Test_systems_manuscript/rnas/3fu2

>  <Rbt.Executable>
rbdock ($Id: //depot/dev/client3/rdock/2013.1/src/exe/rbdock.cxx#4 $)

>  <Rbt.Library>
libRbt.so (2013.1, Build901 2013/11/27)

>  <Rbt.Parameter_File>
/export/apps/rDock/src/rDock_2013.1_src/data/scripts/dock_solv.prm

>  <Rbt.Receptor>
prm/pocket_docking_3.prm

>  <SCORE>
-16.3446

>  <SCORE.INTER>
-16.1759

>  <SCORE.INTER.CONST>
1

>  <SCORE.INTER.POLAR>
0

>  <SCORE.INTER.ROT>
1

>  <SCORE.INTER.SOLV>
16.0166

>  <SCORE.INTER.VDW>
-20.3894

>  <SCORE.INTER.norm>
-1.2443

>  <SCORE.INTRA>
-0.168782

>  <SCORE.INTRA.DIHEDRAL>
-0.00116692

>  <SCORE.INTRA.DIHEDRAL.0>
1.66609

>  <SCORE.INTRA.POLAR>
0

>  <SCORE.INTRA.POLAR.0>
0

>  <SCORE.INTRA.REPUL>
0

>  <SCORE.INTRA.REPUL.0>
0

>  <SCORE.INTRA.SOLV>
-0.982078

>  <SCORE.INTRA.SOLV.lig_0>
-45.868

>  <SCORE.INTRA.VDW>
0.322841

>  <SCORE.INTRA.VDW.0>
-0.397919

>  <SCORE.INTRA.norm>
-0.0129832

>  <SCORE.RESTR>
0

>  <SCORE.RESTR.CAVITY>
0

>  <SCORE.RESTR.norm>
0

>  <SCORE.SYSTEM>
0

>  <SCORE.SYSTEM.CONST>
0

>  <SCORE.SYSTEM.DIHEDRAL>
0

>  <SCORE.SYSTEM.SOLV>
0

>  <SCORE.SYSTEM.norm>
0

>  <SCORE.heavy>
13

>  <SCORE.norm>
-1.25728

>  <RMSD>
4.823

$$$$
ligand
 OpenBabel02271912143D
libRbt.so/2013.1/901 2013/11/27
 13 14  0  0  0  0  0  0  0  0999 V2000
   -1.2837  -32.6428  -41.7828 N   0  0  0  0  0  0  0  0  0  0  0  0
   -0.4743  -32.2057  -42.7969 C   0  0  0  0  0  0  0  0  0  0  0  0
    0.6871  -31.5545  -42.4817 N   0  0  0  0  0  0  0  0  0  0  0  0
   -0.7956  -32.4037  -44.0758 N   0  0  0  0  0  0  0  0  0  0  0  0
   -1.9439  -33.0472  -44.4246 C   0  0  0  0  0  0  0  0  0  0  0  0
   -2.8119  -33.5125  -43.4125 C   0  0  0  0  0  0  0  0  0  0  0  0
   -2.4487  -33.2941  -42.0560 C   0  0  0  0  0  0  0  0  0  0  0  0
   -3.1578  -33.6774  -41.1587 O   0  0  0  0  0  0  0  0  0  0  0  0
   -3.9395  -34.1441  -44.0904 C   0  0  0  0  0  0  0  0  0  0  0  0
   -3.7053  -34.0395  -45.4105 C   0  0  0  0  0  0  0  0  0  0  0  0
   -2.5103  -33.3828  -45.6170 N   0  0  0  0  0  0  0  0  0  0  0  0
   -5.1375  -34.7816  -43.4343 C   0  0  0  0  0  0  0  0  0  0  0  0
   -5.8288  -35.6351  -44.4218 N   0  0  0  0  0  0  0  0  0  0  0  0
  1  2  1  0  0  0  0
  1  7  1  0  0  0  0
  2  3  1  0  0  0  0
  2  4  2  0  0  0  0
  4  5  1  0  0  0  0
  5  6  2  0  0  0  0
  5 11  1  0  0  0  0
  6  7  1  0  0  0  0
  6  9  1  0  0  0  0
  7  8  2  0  0  0  0
  9 10  2  0  0  0  0
  9 12  1  0  0  0  0
 10 11  1  0  0  0  0
 12 13  1  0  0  0  0
M  END
>  <CHROM.1>
-163.48353263,-2.57336722,-33.41503347,-43.43165378,0.30865273,0.53241365
1.55104937

>  <Name>
ligand

>  <RI>
0

>  <Rbt.Current_Directory>
/home/itssahil/PROJECTS/Mol_Feturizer/Test_systems_manuscript/rnas/3fu2

>  <Rbt.Executable>
rbdock ($Id: //depot/dev/client3/rdock/2013.1/src/exe/rbdock.cxx#4 $)

>  <Rbt.Library>
libRbt.so (2013.1, Build901 2013/11/27)

>  <Rbt.Parameter_File>
/export/apps/rDock/src/rDock_2013.1_src/data/scripts/dock_solv.prm

>  <Rbt.Receptor>
prm/pocket_docking_3.prm

>  <SCORE>
-16.3314

>  <SCORE.INTER>
-16.1693

>  <SCORE.INTER.CONST>
1

>  <SCORE.INTER.POLAR>
0

>  <SCORE.INTER.ROT>
1

>  <SCORE.INTER.SOLV>
16.0311

>  <SCORE.INTER.VDW>
-20.3899

>  <SCORE.INTER.norm>
-1.24379

>  <SCORE.INTRA>
-0.162147

>  <SCORE.INTRA.DIHEDRAL>
-0.000222845

>  <SCORE.INTRA.DIHEDRAL.0>
1.66609

>  <SCORE.INTRA.POLAR>
0

>  <SCORE.INTRA.POLAR.0>
0

>  <SCORE.INTRA.REPUL>
0

>  <SCORE.INTRA.REPUL.0>
0

>  <SCORE.INTRA.SOLV>
-0.981622

>  <SCORE.INTRA.SOLV.lig_0>
-45.868

>  <SCORE.INTRA.VDW>
0.328776

>  <SCORE.INTRA.VDW.0>
-0.397919

>  <SCORE.INTRA.norm>
-0.0124728

>  <SCORE.RESTR>
0

>  <SCORE.RESTR.CAVITY>
0

>  <SCORE.RESTR.norm>
0

>  <SCORE.SYSTEM>
0

>  <SCORE.SYSTEM.CONST>
0

>  <SCORE.SYSTEM.DIHEDRAL>
0

>  <SCORE.SYSTEM.SOLV>
0

>  <SCORE.SYSTEM.norm>
0

>  <SCORE.heavy>
13

>  <SCORE.norm>
-1.25626

>  <RMSD>
4.823

$$$$
ligand
 OpenBabel02271912143D
libRbt.so/2013.1/901 2013/11/27
 13 14  0  0  0  0  0  0  0  0999 V2000
   -1.2820  -32.6452  -41.7810 N   0  0  0  0  0  0  0  0  0  0  0  0
   -0.4705  -32.2110  -42.7947 C   0  0  0  0  0  0  0  0  0  0  0  0
    0.6925  -31.5630  -42.4789 N   0  0  0  0  0  0  0  0  0  0  0  0
   -0.7914  -32.4089  -44.0737 N   0  0  0  0  0  0  0  0  0  0  0  0
   -1.9412  -33.0494  -44.4231 C   0  0  0  0  0  0  0  0  0  0  0  0
   -2.8113  -33.5116  -43.4114 C   0  0  0  0  0  0  0  0  0  0  0  0
   -2.4486  -33.2934  -42.0547 C   0  0  0  0  0  0  0  0  0  0  0  0
   -3.1595  -33.6742  -41.1578 O   0  0  0  0  0  0  0  0  0  0  0  0
   -3.9402  -34.1404  -44.0898 C   0  0  0  0  0  0  0  0  0  0  0  0
   -3.7046  -34.0372  -45.4098 C   0  0  0  0  0  0  0  0  0  0  0  0
   -2.5077  -33.3840  -45.6157 N   0  0  0  0  0  0  0  0  0  0  0  0
   -5.1405  -34.7740  -43.4344 C   0  0  0  0  0  0  0  0  0  0  0  0
   -5.8180  -35.6473  -44.4141 N   0  0  0  0  0  0  0  0  0  0  0  0
  1  2  1  0  0  0  0
  1  7  1  0  0  0  0
  2  3  1  0  0  0  0
  2  4  2  0  0  0  0
  4  5  1  0  0  0  0
  5  6  2  0  0  0  0
  5 11  1  0  0  0  0
  6  7  1  0  0  0  0
  6  9  1  0  0  0  0
  7  8  2  0  0  0  0
  9 10  2  0  0  0  0
  9 12  1  0  0  0  0
 10 11  1  0  0  0  0
 12 13  1  0  0  0  0
M  END
>  <CHROM.1>
-162.35958058,-2.57124475,-33.41650721,-43.42978710,0.30899081,0.53142058
1.54979988

>  <Name>
ligand

>  <RI>
0

>  <Rbt.Current_Directory>
/home/itssahil/PROJECTS/Mol_Feturizer/Test_systems_manuscript/rnas/3fu2

>  <Rbt.Executable>
rbdock ($Id: //depot/dev/client3/rdock/2013.1/src/exe/rbdock.cxx#4 $)

>  <Rbt.Library>
libRbt.so (2013.1, Build901 2013/11/27)

>  <Rbt.Parameter_File>
/export/apps/rDock/src/rDock_2013.1_src/data/scripts/dock_solv.prm

>  <Rbt.Receptor>
prm/pocket_docking_3.prm

>  <SCORE>
-16.3283

>  <SCORE.INTER>
-16.1616

>  <SCORE.INTER.CONST>
1

>  <SCORE.INTER.POLAR>
0

>  <SCORE.INTER.ROT>
1

>  <SCORE.INTER.SOLV>
16.0305

>  <SCORE.INTER.VDW>
-20.3846

>  <SCORE.INTER.norm>
-1.2432

>  <SCORE.INTRA>
-0.166735

>  <SCORE.INTRA.DIHEDRAL>
-0.000891528

>  <SCORE.INTRA.DIHEDRAL.0>
1.66609

>  <SCORE.INTRA.POLAR>
0

>  <SCORE.INTRA.POLAR.0>
0

>  <SCORE.INTRA.REPUL>
0

>  <SCORE.INTRA.REPUL.0>
0

>  <SCORE.INTRA.SOLV>
-0.981937

>  <SCORE.INTRA.SOLV.lig_0>
-45.868

>  <SCORE.INTRA.VDW>
0.32468

>  <SCORE.INTRA.VDW.0>
-0.397919

>  <SCORE.INTRA.norm>
-0.0128257

>  <SCORE.RESTR>
0

>  <SCORE.RESTR.CAVITY>
0

>  <SCORE.RESTR.norm>
0

>  <SCORE.SYSTEM>
0

>  <SCORE.SYSTEM.CONST>
0

>  <SCORE.SYSTEM.DIHEDRAL>
0

>  <SCORE.SYSTEM.SOLV>
0

>  <SCORE.SYSTEM.norm>
0

>  <SCORE.heavy>
13

>  <SCORE.norm>
-1.25603

>  <RMSD>
4.823

$$$$
ligand
 OpenBabel02271912143D
libRbt.so/2013.1/901 2013/11/27
 13 14  0  0  0  0  0  0  0  0999 V2000
   -1.2871  -32.6577  -41.7692 N   0  0  0  0  0  0  0  0  0  0  0  0
   -0.4733  -32.2200  -42.7796 C   0  0  0  0  0  0  0  0  0  0  0  0
    0.6882  -31.5716  -42.4588 N   0  0  0  0  0  0  0  0  0  0  0  0
   -0.7905  -32.4146  -44.0600 N   0  0  0  0  0  0  0  0  0  0  0  0
   -1.9387  -33.0553  -44.4143 C   0  0  0  0  0  0  0  0  0  0  0  0
   -2.8111  -33.5211  -43.4062 C   0  0  0  0  0  0  0  0  0  0  0  0
   -2.4523  -33.3063  -42.0479 C   0  0  0  0  0  0  0  0  0  0  0  0
   -3.1652  -33.6902  -41.1540 O   0  0  0  0  0  0  0  0  0  0  0  0
   -3.9375  -34.1491  -44.0894 C   0  0  0  0  0  0  0  0  0  0  0  0
   -3.6985  -34.0421  -45.4085 C   0  0  0  0  0  0  0  0  0  0  0  0
   -2.5016  -33.3872  -45.6093 N   0  0  0  0  0  0  0  0  0  0  0  0
   -5.1390  -34.7858  -43.4389 C   0  0  0  0  0  0  0  0  0  0  0  0
   -5.8075  -35.6644  -44.4201 N   0  0  0  0  0  0  0  0  0  0  0  0
  1  2  1  0  0  0  0
  1  7  1  0  0  0  0
  2  3  1  0  0  0  0
  2  4  2  0  0  0  0
  4  5  1  0  0  0  0
  5  6  2  0  0  0  0
  5 11  1  0  0  0  0
  6  7  1  0  0  0  0
  6  9  1  0  0  0  0
  7  8  2  0  0  0  0
  9 10  2  0  0  0  0
  9 12  1  0  0  0  0
 10 11  1  0  0  0  0
 12 13  1  0  0  0  0
M  END
>  <CHROM.1>
-161.96733944,-2.57064399,-33.42635339,-43.42342243,0.31197218,0.53299971
1.55086129

>  <Name>
ligand

>  <RI>
0

>  <Rbt.Current_Directory>
/home/itssahil/PROJECTS/Mol_Feturizer/Test_systems_manuscript/rnas/3fu2

>  <Rbt.Executable>
rbdock ($Id: //depot/dev/client3/rdock/2013.1/src/exe/rbdock.cxx#4 $)

>  <Rbt.Library>
libRbt.so (2013.1, Build901 2013/11/27)

>  <Rbt.Parameter_File>
/export/apps/rDock/src/rDock_2013.1_src/data/scripts/dock_solv.prm

>  <Rbt.Receptor>
prm/pocket_docking_3.prm

>  <SCORE>
-16.333

>  <SCORE.INTER>
-16.1646

>  <SCORE.INTER.CONST>
1

>  <SCORE.INTER.POLAR>
0

>  <SCORE.INTER.ROT>
1

>  <SCORE.INTER.SOLV>
16.0291

>  <SCORE.INTER.VDW>
-20.3861

>  <SCORE.INTER.norm>
-1.24343

>  <SCORE.INTRA>
-0.168372

>  <SCORE.INTRA.DIHEDRAL>
-0.00111294

>  <SCORE.INTRA.DIHEDRAL.0>
1.66609

>  <SCORE.INTRA.POLAR>
0

>  <SCORE.INTRA.POLAR.0>
0

>  <SCORE.INTRA.REPUL>
0

>  <SCORE.INTRA.REPUL.0>
0

>  <SCORE.INTRA.SOLV>
-0.98205

>  <SCORE.INTRA.SOLV.lig_0>
-45.868

>  <SCORE.INTRA.VDW>
0.323209

>  <SCORE.INTRA.VDW.0>
-0.397919

>  <SCORE.INTRA.norm>
-0.0129517

>  <SCORE.RESTR>
0

>  <SCORE.RESTR.CAVITY>
0

>  <SCORE.RESTR.norm>
0

>  <SCORE.SYSTEM>
0

>  <SCORE.SYSTEM.CONST>
0

>  <SCORE.SYSTEM.DIHEDRAL>
0

>  <SCORE.SYSTEM.SOLV>
0

>  <SCORE.SYSTEM.norm>
0

>  <SCORE.heavy>
13

>  <SCORE.norm>
-1.25638

>  <RMSD>
4.823

$$$$
ligand
 OpenBabel02271912143D
libRbt.so/2013.1/901 2013/11/27
 13 14  0  0  0  0  0  0  0  0999 V2000
   -1.2839  -32.6439  -41.7832 N   0  0  0  0  0  0  0  0  0  0  0  0
   -0.4750  -32.2056  -42.7973 C   0  0  0  0  0  0  0  0  0  0  0  0
    0.6863  -31.5543  -42.4819 N   0  0  0  0  0  0  0  0  0  0  0  0
   -0.7967  -32.4025  -44.0761 N   0  0  0  0  0  0  0  0  0  0  0  0
   -1.9450  -33.0462  -44.4252 C   0  0  0  0  0  0  0  0  0  0  0  0
   -2.8124  -33.5127  -43.4131 C   0  0  0  0  0  0  0  0  0  0  0  0
   -2.4488  -33.2953  -42.0565 C   0  0  0  0  0  0  0  0  0  0  0  0
   -3.1574  -33.6797  -41.1593 O   0  0  0  0  0  0  0  0  0  0  0  0
   -3.9401  -34.1440  -44.0911 C   0  0  0  0  0  0  0  0  0  0  0  0
   -3.7064  -34.0381  -45.4112 C   0  0  0  0  0  0  0  0  0  0  0  0
   -2.5117  -33.3809  -45.6176 N   0  0  0  0  0  0  0  0  0  0  0  0
   -5.1376  -34.7824  -43.4352 C   0  0  0  0  0  0  0  0  0  0  0  0
   -5.8313  -35.6322  -44.4243 N   0  0  0  0  0  0  0  0  0  0  0  0
  1  2  1  0  0  0  0
  1  7  1  0  0  0  0
  2  3  1  0  0  0  0
  2  4  2  0  0  0  0
  4  5  1  0  0  0  0
  5  6  2  0  0  0  0
  5 11  1  0  0  0  0
  6  7  1  0  0  0  0
  6  9  1  0  0  0  0
  7  8  2  0  0  0  0
  9 10  2  0  0  0  0
  9 12  1  0  0  0  0
 10 11  1  0  0  0  0
 12 13  1  0  0  0  0
M  END
>  <CHROM.1>
-163.64757924,-2.57408948,-33.41480901,-43.43233830,0.30828081,0.53247471
1.55221412

>  <Name>
ligand

>  <RI>
0

>  <Rbt.Current_Directory>
/home/itssahil/PROJECTS/Mol_Feturizer/Test_systems_manuscript/rnas/3fu2

>  <Rbt.Executable>
rbdock ($Id: //depot/dev/client3/rdock/2013.1/src/exe/rbdock.cxx#4 $)

>  <Rbt.Library>
libRbt.so (2013.1, Build901 2013/11/27)

>  <Rbt.Parameter_File>
/export/apps/rDock/src/rDock_2013.1_src/data/scripts/dock_solv.prm

>  <Rbt.Receptor>
prm/pocket_docking_3.prm

>  <SCORE>
-16.3314

>  <SCORE.INTER>
-16.1699

>  <SCORE.INTER.CONST>
1

>  <SCORE.INTER.POLAR>
0

>  <SCORE.INTER.ROT>
1

>  <SCORE.INTER.SOLV>
16.0297

>  <SCORE.INTER.VDW>
-20.3898

>  <SCORE.INTER.norm>
-1.24384

>  <SCORE.INTRA>
-0.161491

>  <SCORE.INTRA.DIHEDRAL>
-0.000121098

>  <SCORE.INTRA.DIHEDRAL.0>
1.66609

>  <SCORE.INTRA.POLAR>
0

>  <SCORE.INTRA.POLAR.0>
0

>  <SCORE.INTRA.REPUL>
0

>  <SCORE.INTRA.REPUL.0>
0

>  <SCORE.INTRA.SOLV>
-0.981578

>  <SCORE.INTRA.SOLV.lig_0>
-45.868

>  <SCORE.INTRA.VDW>
0.329359

>  <SCORE.INTRA.VDW.0>
-0.397919

>  <SCORE.INTRA.norm>
-0.0124224

>  <SCORE.RESTR>
0

>  <SCORE.RESTR.CAVITY>
0

>  <SCORE.RESTR.norm>
0

>  <SCORE.SYSTEM>
0

>  <SCORE.SYSTEM.CONST>
0

>  <SCORE.SYSTEM.DIHEDRAL>
0

>  <SCORE.SYSTEM.SOLV>
0

>  <SCORE.SYSTEM.norm>
0

>  <SCORE.heavy>
13

>  <SCORE.norm>
-1.25626

>  <RMSD>
4.823

$$$$
ligand
 OpenBabel02271912143D
libRbt.so/2013.1/901 2013/11/27
 13 14  0  0  0  0  0  0  0  0999 V2000
   -1.2711  -32.6682  -41.7742 N   0  0  0  0  0  0  0  0  0  0  0  0
   -0.4642  -32.2252  -42.7878 C   0  0  0  0  0  0  0  0  0  0  0  0
    0.7027  -31.5844  -42.4716 N   0  0  0  0  0  0  0  0  0  0  0  0
   -0.7933  -32.4075  -44.0670 N   0  0  0  0  0  0  0  0  0  0  0  0
   -1.9473  -33.0403  -44.4168 C   0  0  0  0  0  0  0  0  0  0  0  0
   -2.8129  -33.5112  -43.4052 C   0  0  0  0  0  0  0  0  0  0  0  0
   -2.4415  -33.3095  -42.0483 C   0  0  0  0  0  0  0  0  0  0  0  0
   -3.1482  -33.6982  -41.1515 O   0  0  0  0  0  0  0  0  0  0  0  0
   -3.9478  -34.1287  -44.0839 C   0  0  0  0  0  0  0  0  0  0  0  0
   -3.7197  -34.0113  -45.4041 C   0  0  0  0  0  0  0  0  0  0  0  0
   -2.5218  -33.3597  -45.6097 N   0  0  0  0  0  0  0  0  0  0  0  0
   -5.1462  -34.7659  -43.4285 C   0  0  0  0  0  0  0  0  0  0  0  0
   -5.8340  -35.6237  -44.4148 N   0  0  0  0  0  0  0  0  0  0  0  0
  1  2  1  0  0  0  0
  1  7  1  0  0  0  0
  2  3  1  0  0  0  0
  2  4  2  0  0  0  0
  4  5  1  0  0  0  0
  5  6  2  0  0  0  0
  5 11  1  0  0  0  0
  6  7  1  0  0  0  0
  6  9  1  0  0  0  0
  7  8  2  0  0  0  0
  9 10  2  0  0  0  0
  9 12  1  0  0  0  0
 10 11  1  0  0  0  0
 12 13  1  0  0  0  0
M  END
>  <CHROM.1>
-162.47813429,-2.57274798,-33.41650982,-43.42398332,0.30212208,0.52809324
1.56463066

>  <Name>
ligand

>  <RI>
0

>  <Rbt.Current_Directory>
/home/itssahil/PROJECTS/Mol_Feturizer/Test_systems_manuscript/rnas/3fu2

>  <Rbt.Executable>
rbdock ($Id: //depot/dev/client3/rdock/2013.1/src/exe/rbdock.cxx#4 $)

>  <Rbt.Library>
libRbt.so (2013.1, Build901 2013/11/27)

>  <Rbt.Parameter_File>
/export/apps/rDock/src/rDock_2013.1_src/data/scripts/dock_solv.prm

>  <Rbt.Receptor>
prm/pocket_docking_4.prm

>  <SCORE>
-16.2991

>  <SCORE.INTER>
-16.1329

>  <SCORE.INTER.CONST>
1

>  <SCORE.INTER.POLAR>
0

>  <SCORE.INTER.ROT>
1

>  <SCORE.INTER.SOLV>
15.9875

>  <SCORE.INTER.VDW>
-20.3511

>  <SCORE.INTER.norm>
-1.24099

>  <SCORE.INTRA>
-0.166243

>  <SCORE.INTRA.DIHEDRAL>
-0.000823375

>  <SCORE.INTRA.DIHEDRAL.0>
1.66609

>  <SCORE.INTRA.POLAR>
0

>  <SCORE.INTRA.POLAR.0>
0

>  <SCORE.INTRA.REPUL>
0

>  <SCORE.INTRA.REPUL.0>
0

>  <SCORE.INTRA.SOLV>
-0.981903

>  <SCORE.INTRA.SOLV.lig_0>
-45.868

>  <SCORE.INTRA.VDW>
0.32512

>  <SCORE.INTRA.VDW.0>
-0.397919

>  <SCORE.INTRA.norm>
-0.0127879

>  <SCORE.RESTR>
0

>  <SCORE.RESTR.CAVITY>
0

>  <SCORE.RESTR.norm>
0

>  <SCORE.SYSTEM>
0

>  <SCORE.SYSTEM.CONST>
0

>  <SCORE.SYSTEM.DIHEDRAL>
0

>  <SCORE.SYSTEM.SOLV>
0

>  <SCORE.SYSTEM.norm>
0

>  <SCORE.heavy>
13

>  <SCORE.norm>
-1.25378

>  <RMSD>
4.823

$$$$
ligand
 OpenBabel02271912143D
libRbt.so/2013.1/901 2013/11/27
 13 14  0  0  0  0  0  0  0  0999 V2000
   -1.2822  -32.6425  -41.7814 N   0  0  0  0  0  0  0  0  0  0  0  0
   -0.4707  -32.2082  -42.7952 C   0  0  0  0  0  0  0  0  0  0  0  0
    0.6917  -31.5593  -42.4794 N   0  0  0  0  0  0  0  0  0  0  0  0
   -0.7912  -32.4069  -44.0742 N   0  0  0  0  0  0  0  0  0  0  0  0
   -1.9406  -33.0483  -44.4236 C   0  0  0  0  0  0  0  0  0  0  0  0
   -2.8106  -33.5106  -43.4119 C   0  0  0  0  0  0  0  0  0  0  0  0
   -2.4483  -33.2915  -42.0551 C   0  0  0  0  0  0  0  0  0  0  0  0
   -3.1592  -33.6724  -41.1582 O   0  0  0  0  0  0  0  0  0  0  0  0
   -3.9389  -34.1404  -44.0902 C   0  0  0  0  0  0  0  0  0  0  0  0
   -3.7031  -34.0377  -45.4102 C   0  0  0  0  0  0  0  0  0  0  0  0
   -2.5065  -33.3838  -45.6161 N   0  0  0  0  0  0  0  0  0  0  0  0
   -5.1389  -34.7745  -43.4347 C   0  0  0  0  0  0  0  0  0  0  0  0
   -5.8355  -35.6214  -44.4242 N   0  0  0  0  0  0  0  0  0  0  0  0
  1  2  1  0  0  0  0
  1  7  1  0  0  0  0
  2  3  1  0  0  0  0
  2  4  2  0  0  0  0
  4  5  1  0  0  0  0
  5  6  2  0  0  0  0
  5 11  1  0  0  0  0
  6  7  1  0  0  0  0
  6  9  1  0  0  0  0
  7  8  2  0  0  0  0
  9 10  2  0  0  0  0
  9 12  1  0  0  0  0
 10 11  1  0  0  0  0
 12 13  1  0  0  0  0
M  END
>  <CHROM.1>
-163.80425315,-2.57218681,-33.41314114,-43.43100892,0.30992718,0.52965736
1.54951377

>  <Name>
ligand

>  <RI>
0

>  <Rbt.Current_Directory>
/home/itssahil/PROJECTS/Mol_Feturizer/Test_systems_manuscript/rnas/3fu2

>  <Rbt.Executable>
rbdock ($Id: //depot/dev/client3/rdock/2013.1/src/exe/rbdock.cxx#4 $)

>  <Rbt.Library>
libRbt.so (2013.1, Build901 2013/11/27)

>  <Rbt.Parameter_File>
/export/apps/rDock/src/rDock_2013.1_src/data/scripts/dock_solv.prm

>  <Rbt.Receptor>
prm/pocket_docking_4.prm

>  <SCORE>
-16.3271

>  <SCORE.INTER>
-16.1662

>  <SCORE.INTER.CONST>
1

>  <SCORE.INTER.POLAR>
0

>  <SCORE.INTER.ROT>
1

>  <SCORE.INTER.SOLV>
16.0326

>  <SCORE.INTER.VDW>
-20.3883

>  <SCORE.INTER.norm>
-1.24355

>  <SCORE.INTRA>
-0.160867

>  <SCORE.INTRA.DIHEDRAL>
-2.29566e-05

>  <SCORE.INTRA.DIHEDRAL.0>
1.66609

>  <SCORE.INTRA.POLAR>
0

>  <SCORE.INTRA.POLAR.0>
0

>  <SCORE.INTRA.REPUL>
0

>  <SCORE.INTRA.REPUL.0>
0

>  <SCORE.INTRA.SOLV>
-0.981535

>  <SCORE.INTRA.SOLV.lig_0>
-45.868

>  <SCORE.INTRA.VDW>
0.329912

>  <SCORE.INTRA.VDW.0>
-0.397919

>  <SCORE.INTRA.norm>
-0.0123744

>  <SCORE.RESTR>
0

>  <SCORE.RESTR.CAVITY>
0

>  <SCORE.RESTR.norm>
0

>  <SCORE.SYSTEM>
0

>  <SCORE.SYSTEM.CONST>
0

>  <SCORE.SYSTEM.DIHEDRAL>
0

>  <SCORE.SYSTEM.SOLV>
0

>  <SCORE.SYSTEM.norm>
0

>  <SCORE.heavy>
13

>  <SCORE.norm>
-1.25593

>  <RMSD>
4.823

$$$$
ligand
 OpenBabel02271912143D
libRbt.so/2013.1/901 2013/11/27
 13 14  0  0  0  0  0  0  0  0999 V2000
   -1.2824  -32.6603  -41.7794 N   0  0  0  0  0  0  0  0  0  0  0  0
   -0.4690  -32.2260  -42.7917 C   0  0  0  0  0  0  0  0  0  0  0  0
    0.6953  -31.5816  -42.4736 N   0  0  0  0  0  0  0  0  0  0  0  0
   -0.7895  -32.4203  -44.0713 N   0  0  0  0  0  0  0  0  0  0  0  0
   -1.9407  -33.0571  -44.4229 C   0  0  0  0  0  0  0  0  0  0  0  0
   -2.8127  -33.5193  -43.4129 C   0  0  0  0  0  0  0  0  0  0  0  0
   -2.4505  -33.3049  -42.0554 C   0  0  0  0  0  0  0  0  0  0  0  0
   -3.1630  -33.6858  -41.1598 O   0  0  0  0  0  0  0  0  0  0  0  0
   -3.9427  -34.1438  -44.0934 C   0  0  0  0  0  0  0  0  0  0  0  0
   -3.7058  -34.0384  -45.4130 C   0  0  0  0  0  0  0  0  0  0  0  0
   -2.5070  -33.3878  -45.6166 N   0  0  0  0  0  0  0  0  0  0  0  0
   -5.1450  -34.7758  -43.4402 C   0  0  0  0  0  0  0  0  0  0  0  0
   -5.8192  -35.6518  -44.4198 N   0  0  0  0  0  0  0  0  0  0  0  0
  1  2  1  0  0  0  0
  1  7  1  0  0  0  0
  2  3  1  0  0  0  0
  2  4  2  0  0  0  0
  4  5  1  0  0  0  0
  5  6  2  0  0  0  0
  5 11  1  0  0  0  0
  6  7  1  0  0  0  0
  6  9  1  0  0  0  0
  7  8  2  0  0  0  0
  9 10  2  0  0  0  0
  9 12  1  0  0  0  0
 10 11  1  0  0  0  0
 12 13  1  0  0  0  0
M  END
>  <CHROM.1>
-162.01227904,-2.57197242,-33.42532810,-43.43062426,0.30963611,0.52944052
1.55143972

>  <Name>
ligand

>  <RI>
0

>  <Rbt.Current_Directory>
/home/itssahil/PROJECTS/Mol_Feturizer/Test_systems_manuscript/rnas/3fu2

>  <Rbt.Executable>
rbdock ($Id: //depot/dev/client3/rdock/2013.1/src/exe/rbdock.cxx#4 $)

>  <Rbt.Library>
libRbt.so (2013.1, Build901 2013/11/27)

>  <Rbt.Parameter_File>
/export/apps/rDock/src/rDock_2013.1_src/data/scripts/dock_solv.prm

>  <Rbt.Receptor>
prm/pocket_docking_4.prm

>  <SCORE>
-16.3236

>  <SCORE.INTER>
-16.1554

>  <SCORE.INTER.CONST>
1

>  <SCORE.INTER.POLAR>
0

>  <SCORE.INTER.ROT>
1

>  <SCORE.INTER.SOLV>
16.0264

>  <SCORE.INTER.VDW>
-20.3791

>  <SCORE.INTER.norm>
-1.24272

>  <SCORE.INTRA>
-0.168184

>  <SCORE.INTRA.DIHEDRAL>
-0.00108789

>  <SCORE.INTRA.DIHEDRAL.0>
1.66609

>  <SCORE.INTRA.POLAR>
0

>  <SCORE.INTRA.POLAR.0>
0

>  <SCORE.INTRA.REPUL>
0

>  <SCORE.INTRA.REPUL.0>
0

>  <SCORE.INTRA.SOLV>
-0.982037

>  <SCORE.INTRA.SOLV.lig_0>
-45.868

>  <SCORE.INTRA.VDW>
0.323379

>  <SCORE.INTRA.VDW.0>
-0.397919

>  <SCORE.INTRA.norm>
-0.0129372

>  <SCORE.RESTR>
0

>  <SCORE.RESTR.CAVITY>
0

>  <SCORE.RESTR.norm>
0

>  <SCORE.SYSTEM>
0

>  <SCORE.SYSTEM.CONST>
0

>  <SCORE.SYSTEM.DIHEDRAL>
0

>  <SCORE.SYSTEM.SOLV>
0

>  <SCORE.SYSTEM.norm>
0

>  <SCORE.heavy>
13

>  <SCORE.norm>
-1.25566

>  <RMSD>
4.823

$$$$
ligand
 OpenBabel02271912143D
libRbt.so/2013.1/901 2013/11/27
 13 14  0  0  0  0  0  0  0  0999 V2000
   -1.2803  -32.6338  -41.7803 N   0  0  0  0  0  0  0  0  0  0  0  0
   -0.4670  -32.2058  -42.7952 C   0  0  0  0  0  0  0  0  0  0  0  0
    0.6962  -31.5573  -42.4813 N   0  0  0  0  0  0  0  0  0  0  0  0
   -0.7864  -32.4101  -44.0736 N   0  0  0  0  0  0  0  0  0  0  0  0
   -1.9365  -33.0512  -44.4211 C   0  0  0  0  0  0  0  0  0  0  0  0
   -2.8084  -33.5072  -43.4082 C   0  0  0  0  0  0  0  0  0  0  0  0
   -2.4473  -33.2821  -42.0521 C   0  0  0  0  0  0  0  0  0  0  0  0
   -3.1598  -33.6574  -41.1542 O   0  0  0  0  0  0  0  0  0  0  0  0
   -3.9370  -34.1384  -44.0847 C   0  0  0  0  0  0  0  0  0  0  0  0
   -3.6996  -34.0425  -45.4050 C   0  0  0  0  0  0  0  0  0  0  0  0
   -2.5016  -33.3916  -45.6127 N   0  0  0  0  0  0  0  0  0  0  0  0
   -5.1389  -34.7673  -43.4275 C   0  0  0  0  0  0  0  0  0  0  0  0
   -5.8236  -35.6346  -44.4075 N   0  0  0  0  0  0  0  0  0  0  0  0
  1  2  1  0  0  0  0
  1  7  1  0  0  0  0
  2  3  1  0  0  0  0
  2  4  2  0  0  0  0
  4  5  1  0  0  0  0
  5  6  2  0  0  0  0
  5 11  1  0  0  0  0
  6  7  1  0  0  0  0
  6  9  1  0  0  0  0
  7  8  2  0  0  0  0
  9 10  2  0  0  0  0
  9 12  1  0  0  0  0
 10 11  1  0  0  0  0
 12 13  1  0  0  0  0
M  END
>  <CHROM.1>
-162.91689968,-2.56882029,-33.41159544,-43.42703122,0.31078777,0.52940734
1.54382972

>  <Name>
ligand

>  <RI>
0

>  <Rbt.Current_Directory>
/home/itssahil/PROJECTS/Mol_Feturizer/Test_systems_manuscript/rnas/3fu2

>  <Rbt.Executable>
rbdock ($Id: //depot/dev/client3/rdock/2013.1/src/exe/rbdock.cxx#4 $)

>  <Rbt.Library>
libRbt.so (2013.1, Build901 2013/11/27)

>  <Rbt.Parameter_File>
/export/apps/rDock/src/rDock_2013.1_src/data/scripts/dock_solv.prm

>  <Rbt.Receptor>
prm/pocket_docking_4.prm

>  <SCORE>
-16.3258

>  <SCORE.INTER>
-16.1613

>  <SCORE.INTER.CONST>
1

>  <SCORE.INTER.POLAR>
0

>  <SCORE.INTER.ROT>
1

>  <SCORE.INTER.SOLV>
16.0398

>  <SCORE.INTER.VDW>
-20.3875

>  <SCORE.INTER.norm>
-1.24318

>  <SCORE.INTRA>
-0.16444

>  <SCORE.INTRA.DIHEDRAL>
-0.000566223

>  <SCORE.INTRA.DIHEDRAL.0>
1.66609

>  <SCORE.INTRA.POLAR>
0

>  <SCORE.INTRA.POLAR.0>
0

>  <SCORE.INTRA.REPUL>
0

>  <SCORE.INTRA.REPUL.0>
0

>  <SCORE.INTRA.SOLV>
-0.981779

>  <SCORE.INTRA.SOLV.lig_0>
-45.868

>  <SCORE.INTRA.VDW>
0.326733

>  <SCORE.INTRA.VDW.0>
-0.397919

>  <SCORE.INTRA.norm>
-0.0126492

>  <SCORE.RESTR>
0

>  <SCORE.RESTR.CAVITY>
0

>  <SCORE.RESTR.norm>
0

>  <SCORE.SYSTEM>
0

>  <SCORE.SYSTEM.CONST>
0

>  <SCORE.SYSTEM.DIHEDRAL>
0

>  <SCORE.SYSTEM.SOLV>
0

>  <SCORE.SYSTEM.norm>
0

>  <SCORE.heavy>
13

>  <SCORE.norm>
-1.25583

>  <RMSD>
4.823

$$$$
ligand
 OpenBabel02271912143D
libRbt.so/2013.1/901 2013/11/27
 13 14  0  0  0  0  0  0  0  0999 V2000
   -1.2841  -32.6421  -41.7829 N   0  0  0  0  0  0  0  0  0  0  0  0
   -0.4755  -32.2014  -42.7962 C   0  0  0  0  0  0  0  0  0  0  0  0
    0.6852  -31.5496  -42.4796 N   0  0  0  0  0  0  0  0  0  0  0  0
   -0.7970  -32.3965  -44.0754 N   0  0  0  0  0  0  0  0  0  0  0  0
   -1.9446  -33.0406  -44.4256 C   0  0  0  0  0  0  0  0  0  0  0  0
   -2.8116  -33.5096  -43.4144 C   0  0  0  0  0  0  0  0  0  0  0  0
   -2.4484  -33.2941  -42.0574 C   0  0  0  0  0  0  0  0  0  0  0  0
   -3.1567  -33.6806  -41.1609 O   0  0  0  0  0  0  0  0  0  0  0  0
   -3.9387  -34.1408  -44.0936 C   0  0  0  0  0  0  0  0  0  0  0  0
   -3.7050  -34.0325  -45.4135 C   0  0  0  0  0  0  0  0  0  0  0  0
   -2.5109  -33.3738  -45.6186 N   0  0  0  0  0  0  0  0  0  0  0  0
   -5.1357  -34.7814  -43.4388 C   0  0  0  0  0  0  0  0  0  0  0  0
   -5.8230  -35.6377  -44.4267 N   0  0  0  0  0  0  0  0  0  0  0  0
  1  2  1  0  0  0  0
  1  7  1  0  0  0  0
  2  3  1  0  0  0  0
  2  4  2  0  0  0  0
  4  5  1  0  0  0  0
  5  6  2  0  0  0  0
  5 11  1  0  0  0  0
  6  7  1  0  0  0  0
  6  9  1  0  0  0  0
  7  8  2  0  0  0  0
  9 10  2  0  0  0  0
  9 12  1  0  0  0  0
 10 11  1  0  0  0  0
 12 13  1  0  0  0  0
M  END
>  <CHROM.1>
-163.24637126,-2.57300196,-33.41208706,-43.43324787,0.30823655,0.53404204
1.55372342

>  <Name>
ligand

>  <RI>
0

>  <Rbt.Current_Directory>
/home/itssahil/PROJECTS/Mol_Feturizer/Test_systems_manuscript/rnas/3fu2

>  <Rbt.Executable>
rbdock ($Id: //depot/dev/client3/rdock/2013.1/src/exe/rbdock.cxx#4 $)

>  <Rbt.Library>
libRbt.so (2013.1, Build901 2013/11/27)

>  <Rbt.Parameter_File>
/export/apps/rDock/src/rDock_2013.1_src/data/scripts/dock_solv.prm

>  <Rbt.Receptor>
prm/pocket_docking_4.prm

>  <SCORE>
-16.3306

>  <SCORE.INTER>
-16.1675

>  <SCORE.INTER.CONST>
1

>  <SCORE.INTER.POLAR>
0

>  <SCORE.INTER.ROT>
1

>  <SCORE.INTER.SOLV>
16.0223

>  <SCORE.INTER.VDW>
-20.3858

>  <SCORE.INTER.norm>
-1.24365

>  <SCORE.INTRA>
-0.163101

>  <SCORE.INTRA.DIHEDRAL>
-0.000368095

>  <SCORE.INTRA.DIHEDRAL.0>
1.66609

>  <SCORE.INTRA.POLAR>
0

>  <SCORE.INTRA.POLAR.0>
0

>  <SCORE.INTRA.REPUL>
0

>  <SCORE.INTRA.REPUL.0>
0

>  <SCORE.INTRA.SOLV>
-0.981687

>  <SCORE.INTRA.SOLV.lig_0>
-45.868

>  <SCORE.INTRA.VDW>
0.327927

>  <SCORE.INTRA.VDW.0>
-0.397919

>  <SCORE.INTRA.norm>
-0.0125462

>  <SCORE.RESTR>
0

>  <SCORE.RESTR.CAVITY>
0

>  <SCORE.RESTR.norm>
0

>  <SCORE.SYSTEM>
0

>  <SCORE.SYSTEM.CONST>
0

>  <SCORE.SYSTEM.DIHEDRAL>
0

>  <SCORE.SYSTEM.SOLV>
0

>  <SCORE.SYSTEM.norm>
0

>  <SCORE.heavy>
13

>  <SCORE.norm>
-1.2562

>  <RMSD>
4.823

$$$$
ligand
 OpenBabel02271912143D
libRbt.so/2013.1/901 2013/11/27
 13 14  0  0  0  0  0  0  0  0999 V2000
   -1.2835  -32.6414  -41.7834 N   0  0  0  0  0  0  0  0  0  0  0  0
   -0.4744  -32.2030  -42.7972 C   0  0  0  0  0  0  0  0  0  0  0  0
    0.6869  -31.5518  -42.4815 N   0  0  0  0  0  0  0  0  0  0  0  0
   -0.7959  -32.3997  -44.0762 N   0  0  0  0  0  0  0  0  0  0  0  0
   -1.9441  -33.0432  -44.4256 C   0  0  0  0  0  0  0  0  0  0  0  0
   -2.8117  -33.5099  -43.4138 C   0  0  0  0  0  0  0  0  0  0  0  0
   -2.4483  -33.2928  -42.0570 C   0  0  0  0  0  0  0  0  0  0  0  0
   -3.1571  -33.6773  -41.1601 O   0  0  0  0  0  0  0  0  0  0  0  0
   -3.9393  -34.1410  -44.0921 C   0  0  0  0  0  0  0  0  0  0  0  0
   -3.7054  -34.0349  -45.4122 C   0  0  0  0  0  0  0  0  0  0  0  0
   -2.5107  -33.3776  -45.6182 N   0  0  0  0  0  0  0  0  0  0  0  0
   -5.1369  -34.7796  -43.4365 C   0  0  0  0  0  0  0  0  0  0  0  0
   -5.8340  -35.6242  -44.4276 N   0  0  0  0  0  0  0  0  0  0  0  0
  1  2  1  0  0  0  0
  1  7  1  0  0  0  0
  2  3  1  0  0  0  0
  2  4  2  0  0  0  0
  4  5  1  0  0  0  0
  5  6  2  0  0  0  0
  5 11  1  0  0  0  0
  6  7  1  0  0  0  0
  6  9  1  0  0  0  0
  7  8  2  0  0  0  0
  9 10  2  0  0  0  0
  9 12  1  0  0  0  0
 10 11  1  0  0  0  0
 12 13  1  0  0  0  0
M  END
>  <CHROM.1>
-163.90562946,-2.57370243,-33.41161299,-43.43307918,0.30859259,0.53201474
1.55237635

>  <Name>
ligand

>  <RI>
0

>  <Rbt.Current_Directory>
/home/itssahil/PROJECTS/Mol_Feturizer/Test_systems_manuscript/rnas/3fu2

>  <Rbt.Executable>
rbdock ($Id: //depot/dev/client3/rdock/2013.1/src/exe/rbdock.cxx#4 $)

>  <Rbt.Library>
libRbt.so (2013.1, Build901 2013/11/27)

>  <Rbt.Parameter_File>
/export/apps/rDock/src/rDock_2013.1_src/data/scripts/dock_solv.prm

>  <Rbt.Receptor>
prm/pocket_docking_4.prm

>  <SCORE>
-16.3298

>  <SCORE.INTER>
-16.1693

>  <SCORE.INTER.CONST>
1

>  <SCORE.INTER.POLAR>
0

>  <SCORE.INTER.ROT>
1

>  <SCORE.INTER.SOLV>
16.0284

>  <SCORE.INTER.VDW>
-20.389

>  <SCORE.INTER.norm>
-1.24379

>  <SCORE.INTRA>
-0.160466

>  <SCORE.INTRA.DIHEDRAL>
4.10459e-05

>  <SCORE.INTRA.DIHEDRAL.0>
1.66609

>  <SCORE.INTRA.POLAR>
0

>  <SCORE.INTRA.POLAR.0>
0

>  <SCORE.INTRA.REPUL>
0

>  <SCORE.INTRA.REPUL.0>
0

>  <SCORE.INTRA.SOLV>
-0.981508

>  <SCORE.INTRA.SOLV.lig_0>
-45.868

>  <SCORE.INTRA.VDW>
0.330267

>  <SCORE.INTRA.VDW.0>
-0.397919

>  <SCORE.INTRA.norm>
-0.0123435

>  <SCORE.RESTR>
0

>  <SCORE.RESTR.CAVITY>
0

>  <SCORE.RESTR.norm>
0

>  <SCORE.SYSTEM>
0

>  <SCORE.SYSTEM.CONST>
0

>  <SCORE.SYSTEM.DIHEDRAL>
0

>  <SCORE.SYSTEM.SOLV>
0

>  <SCORE.SYSTEM.norm>
0

>  <SCORE.heavy>
13

>  <SCORE.norm>
-1.25613

>  <RMSD>
4.823

$$$$
ligand
 OpenBabel02271912143D
libRbt.so/2013.1/901 2013/11/27
 13 14  0  0  0  0  0  0  0  0999 V2000
   -1.2828  -32.6452  -41.7847 N   0  0  0  0  0  0  0  0  0  0  0  0
   -0.4733  -32.2084  -42.7990 C   0  0  0  0  0  0  0  0  0  0  0  0
    0.6887  -31.5584  -42.4839 N   0  0  0  0  0  0  0  0  0  0  0  0
   -0.7953  -32.4056  -44.0777 N   0  0  0  0  0  0  0  0  0  0  0  0
   -1.9443  -33.0480  -44.4265 C   0  0  0  0  0  0  0  0  0  0  0  0
   -2.8123  -33.5129  -43.4142 C   0  0  0  0  0  0  0  0  0  0  0  0
   -2.4485  -33.2953  -42.0577 C   0  0  0  0  0  0  0  0  0  0  0  0
   -3.1575  -33.6784  -41.1603 O   0  0  0  0  0  0  0  0  0  0  0  0
   -3.9408  -34.1432  -44.0919 C   0  0  0  0  0  0  0  0  0  0  0  0
   -3.7070  -34.0383  -45.4121 C   0  0  0  0  0  0  0  0  0  0  0  0
   -2.5115  -33.3826  -45.6187 N   0  0  0  0  0  0  0  0  0  0  0  0
   -5.1391  -34.7799  -43.4357 C   0  0  0  0  0  0  0  0  0  0  0  0
   -5.8161  -35.6535  -44.4155 N   0  0  0  0  0  0  0  0  0  0  0  0
  1  2  1  0  0  0  0
  1  7  1  0  0  0  0
  2  3  1  0  0  0  0
  2  4  2  0  0  0  0
  4  5  1  0  0  0  0
  5  6  2  0  0  0  0
  5 11  1  0  0  0  0
  6  7  1  0  0  0  0
  6  9  1  0  0  0  0
  7  8  2  0  0  0  0
  9 10  2  0  0  0  0
  9 12  1  0  0  0  0
 10 11  1  0  0  0  0
 12 13  1  0  0  0  0
M  END
>  <CHROM.1>
-162.36255674,-2.57247085,-33.41735197,-43.43276241,0.30767857,0.53338323
1.55147077

>  <Name>
ligand

>  <RI>
0

>  <Rbt.Current_Directory>
/home/itssahil/PROJECTS/Mol_Feturizer/Test_systems_manuscript/rnas/3fu2

>  <Rbt.Executable>
rbdock ($Id: //depot/dev/client3/rdock/2013.1/src/exe/rbdock.cxx#4 $)

>  <Rbt.Library>
libRbt.so (2013.1, Build901 2013/11/27)

>  <Rbt.Parameter_File>
/export/apps/rDock/src/rDock_2013.1_src/data/scripts/dock_solv.prm

>  <Rbt.Receptor>
prm/pocket_docking_4.prm

>  <SCORE>
-16.33

>  <SCORE.INTER>
-16.1632

>  <SCORE.INTER.CONST>
1

>  <SCORE.INTER.POLAR>
0

>  <SCORE.INTER.ROT>
1

>  <SCORE.INTER.SOLV>
16.0326

>  <SCORE.INTER.VDW>
-20.3864

>  <SCORE.INTER.norm>
-1.24333

>  <SCORE.INTRA>
-0.166722

>  <SCORE.INTRA.DIHEDRAL>
-0.000889824

>  <SCORE.INTRA.DIHEDRAL.0>
1.66609

>  <SCORE.INTRA.POLAR>
0

>  <SCORE.INTRA.POLAR.0>
0

>  <SCORE.INTRA.REPUL>
0

>  <SCORE.INTRA.REPUL.0>
0

>  <SCORE.INTRA.SOLV>
-0.981936

>  <SCORE.INTRA.SOLV.lig_0>
-45.868

>  <SCORE.INTRA.VDW>
0.324691

>  <SCORE.INTRA.VDW.0>
-0.397919

>  <SCORE.INTRA.norm>
-0.0128248

>  <SCORE.RESTR>
0

>  <SCORE.RESTR.CAVITY>
0

>  <SCORE.RESTR.norm>
0

>  <SCORE.SYSTEM>
0

>  <SCORE.SYSTEM.CONST>
0

>  <SCORE.SYSTEM.DIHEDRAL>
0

>  <SCORE.SYSTEM.SOLV>
0

>  <SCORE.SYSTEM.norm>
0

>  <SCORE.heavy>
13

>  <SCORE.norm>
-1.25615

>  <RMSD>
4.823

$$$$
ligand
 OpenBabel02271912143D
libRbt.so/2013.1/901 2013/11/27
 13 14  0  0  0  0  0  0  0  0999 V2000
   -1.2850  -32.6370  -41.7834 N   0  0  0  0  0  0  0  0  0  0  0  0
   -0.4762  -32.1993  -42.7978 C   0  0  0  0  0  0  0  0  0  0  0  0
    0.6841  -31.5459  -42.4829 N   0  0  0  0  0  0  0  0  0  0  0  0
   -0.7970  -32.3989  -44.0765 N   0  0  0  0  0  0  0  0  0  0  0  0
   -1.9442  -33.0446  -44.4250 C   0  0  0  0  0  0  0  0  0  0  0  0
   -2.8115  -33.5106  -43.4126 C   0  0  0  0  0  0  0  0  0  0  0  0
   -2.4488  -33.2905  -42.0562 C   0  0  0  0  0  0  0  0  0  0  0  0
   -3.1574  -33.6743  -41.1587 O   0  0  0  0  0  0  0  0  0  0  0  0
   -3.9380  -34.1447  -44.0901 C   0  0  0  0  0  0  0  0  0  0  0  0
   -3.7037  -34.0407  -45.4103 C   0  0  0  0  0  0  0  0  0  0  0  0
   -2.5099  -33.3821  -45.6171 N   0  0  0  0  0  0  0  0  0  0  0  0
   -5.1349  -34.7836  -43.4337 C   0  0  0  0  0  0  0  0  0  0  0  0
   -5.8170  -35.6495  -44.4168 N   0  0  0  0  0  0  0  0  0  0  0  0
  1  2  1  0  0  0  0
  1  7  1  0  0  0  0
  2  3  1  0  0  0  0
  2  4  2  0  0  0  0
  4  5  1  0  0  0  0
  5  6  2  0  0  0  0
  5 11  1  0  0  0  0
  6  7  1  0  0  0  0
  6  9  1  0  0  0  0
  7  8  2  0  0  0  0
  9 10  2  0  0  0  0
  9 12  1  0  0  0  0
 10 11  1  0  0  0  0
 12 13  1  0  0  0  0
M  END
>  <CHROM.1>
-162.92945748,-2.57248879,-33.41358002,-43.43147732,0.30857901,0.53502871
1.55006281

>  <Name>
ligand

>  <RI>
0

>  <Rbt.Current_Directory>
/home/itssahil/PROJECTS/Mol_Feturizer/Test_systems_manuscript/rnas/3fu2

>  <Rbt.Executable>
rbdock ($Id: //depot/dev/client3/rdock/2013.1/src/exe/rbdock.cxx#4 $)

>  <Rbt.Library>
libRbt.so (2013.1, Build901 2013/11/27)

>  <Rbt.Parameter_File>
/export/apps/rDock/src/rDock_2013.1_src/data/scripts/dock_solv.prm

>  <Rbt.Receptor>
prm/pocket_docking_4.prm

>  <SCORE>
-16.3293

>  <SCORE.INTER>
-16.1649

>  <SCORE.INTER.CONST>
1

>  <SCORE.INTER.POLAR>
0

>  <SCORE.INTER.ROT>
1

>  <SCORE.INTER.SOLV>
16.0391

>  <SCORE.INTER.VDW>
-20.3896

>  <SCORE.INTER.norm>
-1.24345

>  <SCORE.INTRA>
-0.164388

>  <SCORE.INTRA.DIHEDRAL>
-0.00055875

>  <SCORE.INTRA.DIHEDRAL.0>
1.66609

>  <SCORE.INTRA.POLAR>
0

>  <SCORE.INTRA.POLAR.0>
0

>  <SCORE.INTRA.REPUL>
0

>  <SCORE.INTRA.REPUL.0>
0

>  <SCORE.INTRA.SOLV>
-0.981776

>  <SCORE.INTRA.SOLV.lig_0>
-45.868

>  <SCORE.INTRA.VDW>
0.326779

>  <SCORE.INTRA.VDW.0>
-0.397919

>  <SCORE.INTRA.norm>
-0.0126453

>  <SCORE.RESTR>
0

>  <SCORE.RESTR.CAVITY>
0

>  <SCORE.RESTR.norm>
0

>  <SCORE.SYSTEM>
0

>  <SCORE.SYSTEM.CONST>
0

>  <SCORE.SYSTEM.DIHEDRAL>
0

>  <SCORE.SYSTEM.SOLV>
0

>  <SCORE.SYSTEM.norm>
0

>  <SCORE.heavy>
13

>  <SCORE.norm>
-1.2561

>  <RMSD>
4.823

$$$$
ligand
 OpenBabel02271912143D
libRbt.so/2013.1/901 2013/11/27
 13 14  0  0  0  0  0  0  0  0999 V2000
   -1.2821  -32.6406  -41.7831 N   0  0  0  0  0  0  0  0  0  0  0  0
   -0.4716  -32.2060  -42.7975 C   0  0  0  0  0  0  0  0  0  0  0  0
    0.6907  -31.5564  -42.4827 N   0  0  0  0  0  0  0  0  0  0  0  0
   -0.7930  -32.4049  -44.0762 N   0  0  0  0  0  0  0  0  0  0  0  0
   -1.9422  -33.0469  -44.4247 C   0  0  0  0  0  0  0  0  0  0  0  0
   -2.8112  -33.5096  -43.4123 C   0  0  0  0  0  0  0  0  0  0  0  0
   -2.4481  -33.2902  -42.0558 C   0  0  0  0  0  0  0  0  0  0  0  0
   -3.1580  -33.6714  -41.1583 O   0  0  0  0  0  0  0  0  0  0  0  0
   -3.9398  -34.1401  -44.0897 C   0  0  0  0  0  0  0  0  0  0  0  0
   -3.7050  -34.0374  -45.4099 C   0  0  0  0  0  0  0  0  0  0  0  0
   -2.5089  -33.3829  -45.6168 N   0  0  0  0  0  0  0  0  0  0  0  0
   -5.1390  -34.7748  -43.4333 C   0  0  0  0  0  0  0  0  0  0  0  0
   -5.8230  -35.6399  -44.4158 N   0  0  0  0  0  0  0  0  0  0  0  0
  1  2  1  0  0  0  0
  1  7  1  0  0  0  0
  2  3  1  0  0  0  0
  2  4  2  0  0  0  0
  4  5  1  0  0  0  0
  5  6  2  0  0  0  0
  5 11  1  0  0  0  0
  6  7  1  0  0  0  0
  6  9  1  0  0  0  0
  7  8  2  0  0  0  0
  9 10  2  0  0  0  0
  9 12  1  0  0  0  0
 10 11  1  0  0  0  0
 12 13  1  0  0  0  0
M  END
>  <CHROM.1>
-162.86523534,-2.57187311,-33.41349317,-43.43109349,0.30864538,0.53175615
1.54965285

>  <Name>
ligand

>  <RI>
0

>  <Rbt.Current_Directory>
/home/itssahil/PROJECTS/Mol_Feturizer/Test_systems_manuscript/rnas/3fu2

>  <Rbt.Executable>
rbdock ($Id: //depot/dev/client3/rdock/2013.1/src/exe/rbdock.cxx#4 $)

>  <Rbt.Library>
libRbt.so (2013.1, Build901 2013/11/27)

>  <Rbt.Parameter_File>
/export/apps/rDock/src/rDock_2013.1_src/data/scripts/dock_solv.prm

>  <Rbt.Receptor>
prm/pocket_docking_5.prm

>  <SCORE>
-16.3304

>  <SCORE.INTER>
-16.1657

>  <SCORE.INTER.CONST>
1

>  <SCORE.INTER.POLAR>
0

>  <SCORE.INTER.ROT>
1

>  <SCORE.INTER.SOLV>
16.0318

>  <SCORE.INTER.VDW>
-20.3878

>  <SCORE.INTER.norm>
-1.24352

>  <SCORE.INTRA>
-0.164651

>  <SCORE.INTRA.DIHEDRAL>
-0.000596902

>  <SCORE.INTRA.DIHEDRAL.0>
1.66609

>  <SCORE.INTRA.POLAR>
0

>  <SCORE.INTRA.POLAR.0>
0

>  <SCORE.INTRA.REPUL>
0

>  <SCORE.INTRA.REPUL.0>
0

>  <SCORE.INTRA.SOLV>
-0.981794

>  <SCORE.INTRA.SOLV.lig_0>
-45.868

>  <SCORE.INTRA.VDW>
0.326544

>  <SCORE.INTRA.VDW.0>
-0.397919

>  <SCORE.INTRA.norm>
-0.0126654

>  <SCORE.RESTR>
0

>  <SCORE.RESTR.CAVITY>
0

>  <SCORE.RESTR.norm>
0

>  <SCORE.SYSTEM>
0

>  <SCORE.SYSTEM.CONST>
0

>  <SCORE.SYSTEM.DIHEDRAL>
0

>  <SCORE.SYSTEM.SOLV>
0

>  <SCORE.SYSTEM.norm>
0

>  <SCORE.heavy>
13

>  <SCORE.norm>
-1.25618

>  <RMSD>
4.823

$$$$
ligand
 OpenBabel02271912143D
libRbt.so/2013.1/901 2013/11/27
 13 14  0  0  0  0  0  0  0  0999 V2000
   -1.2850  -32.6555  -41.7860 N   0  0  0  0  0  0  0  0  0  0  0  0
   -0.4758  -32.2153  -42.7990 C   0  0  0  0  0  0  0  0  0  0  0  0
    0.6857  -31.5651  -42.4821 N   0  0  0  0  0  0  0  0  0  0  0  0
   -0.7974  -32.4095  -44.0784 N   0  0  0  0  0  0  0  0  0  0  0  0
   -1.9458  -33.0521  -44.4289 C   0  0  0  0  0  0  0  0  0  0  0  0
   -2.8135  -33.5204  -43.4180 C   0  0  0  0  0  0  0  0  0  0  0  0
   -2.4500  -33.3060  -42.0608 C   0  0  0  0  0  0  0  0  0  0  0  0
   -3.1589  -33.6920  -41.1645 O   0  0  0  0  0  0  0  0  0  0  0  0
   -3.9413  -34.1500  -44.0974 C   0  0  0  0  0  0  0  0  0  0  0  0
   -3.7074  -34.0414  -45.4173 C   0  0  0  0  0  0  0  0  0  0  0  0
   -2.5125  -33.3841  -45.6221 N   0  0  0  0  0  0  0  0  0  0  0  0
   -5.1391  -34.7894  -43.4430 C   0  0  0  0  0  0  0  0  0  0  0  0
   -5.8462  -35.6183  -44.4402 N   0  0  0  0  0  0  0  0  0  0  0  0
  1  2  1  0  0  0  0
  1  7  1  0  0  0  0
  2  3  1  0  0  0  0
  2  4  2  0  0  0  0
  4  5  1  0  0  0  0
  5  6  2  0  0  0  0
  5 11  1  0  0  0  0
  6  7  1  0  0  0  0
  6  9  1  0  0  0  0
  7  8  2  0  0  0  0
  9 10  2  0  0  0  0
  9 12  1  0  0  0  0
 10 11  1  0  0  0  0
 12 13  1  0  0  0  0
M  END
>  <CHROM.1>
-164.61438194,-2.57626704,-33.42106606,-43.43744232,0.30883531,0.53054104
1.55444409

>  <Name>
ligand

>  <RI>
0

>  <Rbt.Current_Directory>
/home/itssahil/PROJECTS/Mol_Feturizer/Test_systems_manuscript/rnas/3fu2

>  <Rbt.Executable>
rbdock ($Id: //depot/dev/client3/rdock/2013.1/src/exe/rbdock.cxx#4 $)

>  <Rbt.Library>
libRbt.so (2013.1, Build901 2013/11/27)

>  <Rbt.Parameter_File>
/export/apps/rDock/src/rDock_2013.1_src/data/scripts/dock_solv.prm

>  <Rbt.Receptor>
prm/pocket_docking_5.prm

>  <SCORE>
-16.3251

>  <SCORE.INTER>
-16.1674

>  <SCORE.INTER.CONST>
1

>  <SCORE.INTER.POLAR>
0

>  <SCORE.INTER.ROT>
1

>  <SCORE.INTER.SOLV>
16.0314

>  <SCORE.INTER.VDW>
-20.3887

>  <SCORE.INTER.norm>
-1.24364

>  <SCORE.INTRA>
-0.1577

>  <SCORE.INTRA.DIHEDRAL>
0.000499322

>  <SCORE.INTRA.DIHEDRAL.0>
1.66609

>  <SCORE.INTRA.POLAR>
0

>  <SCORE.INTRA.POLAR.0>
0

>  <SCORE.INTRA.REPUL>
0

>  <SCORE.INTRA.REPUL.0>
0

>  <SCORE.INTRA.SOLV>
-0.981321

>  <SCORE.INTRA.SOLV.lig_0>
-45.868

>  <SCORE.INTRA.VDW>
0.332711

>  <SCORE.INTRA.VDW.0>
-0.397919

>  <SCORE.INTRA.norm>
-0.0121308

>  <SCORE.RESTR>
0

>  <SCORE.RESTR.CAVITY>
0

>  <SCORE.RESTR.norm>
0

>  <SCORE.SYSTEM>
0

>  <SCORE.SYSTEM.CONST>
0

>  <SCORE.SYSTEM.DIHEDRAL>
0

>  <SCORE.SYSTEM.SOLV>
0

>  <SCORE.SYSTEM.norm>
0

>  <SCORE.heavy>
13

>  <SCORE.norm>
-1.25578

>  <RMSD>
4.823

$$$$
ligand
 OpenBabel02271912143D
libRbt.so/2013.1/901 2013/11/27
 13 14  0  0  0  0  0  0  0  0999 V2000
   -1.2808  -32.6418  -41.7823 N   0  0  0  0  0  0  0  0  0  0  0  0
   -0.4683  -32.2108  -42.7966 C   0  0  0  0  0  0  0  0  0  0  0  0
    0.6955  -31.5638  -42.4816 N   0  0  0  0  0  0  0  0  0  0  0  0
   -0.7890  -32.4107  -44.0753 N   0  0  0  0  0  0  0  0  0  0  0  0
   -1.9396  -33.0503  -44.4239 C   0  0  0  0  0  0  0  0  0  0  0  0
   -2.8107  -33.5093  -43.4116 C   0  0  0  0  0  0  0  0  0  0  0  0
   -2.4483  -33.2888  -42.0552 C   0  0  0  0  0  0  0  0  0  0  0  0
   -3.1601  -33.6668  -41.1578 O   0  0  0  0  0  0  0  0  0  0  0  0
   -3.9403  -34.1377  -44.0892 C   0  0  0  0  0  0  0  0  0  0  0  0
   -3.7040  -34.0375  -45.4093 C   0  0  0  0  0  0  0  0  0  0  0  0
   -2.5060  -33.3865  -45.6160 N   0  0  0  0  0  0  0  0  0  0  0  0
   -5.1417  -34.7683  -43.4330 C   0  0  0  0  0  0  0  0  0  0  0  0
   -5.8193  -35.6438  -44.4108 N   0  0  0  0  0  0  0  0  0  0  0  0
  1  2  1  0  0  0  0
  1  7  1  0  0  0  0
  2  3  1  0  0  0  0
  2  4  2  0  0  0  0
  4  5  1  0  0  0  0
  5  6  2  0  0  0  0
  5 11  1  0  0  0  0
  6  7  1  0  0  0  0
  6  9  1  0  0  0  0
  7  8  2  0  0  0  0
  9 10  2  0  0  0  0
  9 12  1  0  0  0  0
 10 11  1  0  0  0  0
 12 13  1  0  0  0  0
M  END
>  <CHROM.1>
-162.29736629,-2.57047557,-33.41463576,-43.43001579,0.30938923,0.53007166
1.54757889

>  <Name>
ligand

>  <RI>
0

>  <Rbt.Current_Directory>
/home/itssahil/PROJECTS/Mol_Feturizer/Test_systems_manuscript/rnas/3fu2

>  <Rbt.Executable>
rbdock ($Id: //depot/dev/client3/rdock/2013.1/src/exe/rbdock.cxx#4 $)

>  <Rbt.Library>
libRbt.so (2013.1, Build901 2013/11/27)

>  <Rbt.Parameter_File>
/export/apps/rDock/src/rDock_2013.1_src/data/scripts/dock_solv.prm

>  <Rbt.Receptor>
prm/pocket_docking_5.prm

>  <SCORE>
-16.3263

>  <SCORE.INTER>
-16.1593

>  <SCORE.INTER.CONST>
1

>  <SCORE.INTER.POLAR>
0

>  <SCORE.INTER.ROT>
1

>  <SCORE.INTER.SOLV>
16.0349

>  <SCORE.INTER.VDW>
-20.3845

>  <SCORE.INTER.norm>
-1.24302

>  <SCORE.INTRA>
-0.166993

>  <SCORE.INTRA.DIHEDRAL>
-0.000927065

>  <SCORE.INTRA.DIHEDRAL.0>
1.66609

>  <SCORE.INTRA.POLAR>
0

>  <SCORE.INTRA.POLAR.0>
0

>  <SCORE.INTRA.REPUL>
0

>  <SCORE.INTRA.REPUL.0>
0

>  <SCORE.INTRA.SOLV>
-0.981955

>  <SCORE.INTRA.SOLV.lig_0>
-45.868

>  <SCORE.INTRA.VDW>
0.324448

>  <SCORE.INTRA.VDW.0>
-0.397919

>  <SCORE.INTRA.norm>
-0.0128456

>  <SCORE.RESTR>
0

>  <SCORE.RESTR.CAVITY>
0

>  <SCORE.RESTR.norm>
0

>  <SCORE.SYSTEM>
0

>  <SCORE.SYSTEM.CONST>
0

>  <SCORE.SYSTEM.DIHEDRAL>
0

>  <SCORE.SYSTEM.SOLV>
0

>  <SCORE.SYSTEM.norm>
0

>  <SCORE.heavy>
13

>  <SCORE.norm>
-1.25587

>  <RMSD>
4.823

$$$$
ligand
 OpenBabel02271912143D
libRbt.so/2013.1/901 2013/11/27
 13 14  0  0  0  0  0  0  0  0999 V2000
   -1.2835  -32.6392  -41.7820 N   0  0  0  0  0  0  0  0  0  0  0  0
   -0.4735  -32.2017  -42.7956 C   0  0  0  0  0  0  0  0  0  0  0  0
    0.6875  -31.5503  -42.4795 N   0  0  0  0  0  0  0  0  0  0  0  0
   -0.7940  -32.3996  -44.0746 N   0  0  0  0  0  0  0  0  0  0  0  0
   -1.9419  -33.0434  -44.4244 C   0  0  0  0  0  0  0  0  0  0  0  0
   -2.8104  -33.5090  -43.4129 C   0  0  0  0  0  0  0  0  0  0  0  0
   -2.4482  -33.2907  -42.0560 C   0  0  0  0  0  0  0  0  0  0  0  0
   -3.1578  -33.6743  -41.1593 O   0  0  0  0  0  0  0  0  0  0  0  0
   -3.9375  -34.1408  -44.0916 C   0  0  0  0  0  0  0  0  0  0  0  0
   -3.7024  -34.0359  -45.4115 C   0  0  0  0  0  0  0  0  0  0  0  0
   -2.5075  -33.3789  -45.6171 N   0  0  0  0  0  0  0  0  0  0  0  0
   -5.1357  -34.7786  -43.4364 C   0  0  0  0  0  0  0  0  0  0  0  0
   -5.8214  -35.6387  -44.4221 N   0  0  0  0  0  0  0  0  0  0  0  0
  1  2  1  0  0  0  0
  1  7  1  0  0  0  0
  2  3  1  0  0  0  0
  2  4  2  0  0  0  0
  4  5  1  0  0  0  0
  5  6  2  0  0  0  0
  5 11  1  0  0  0  0
  6  7  1  0  0  0  0
  6  9  1  0  0  0  0
  7  8  2  0  0  0  0
  9 10  2  0  0  0  0
  9 12  1  0  0  0  0
 10 11  1  0  0  0  0
 12 13  1  0  0  0  0
M  END
>  <CHROM.1>
-163.13514164,-2.57154174,-33.41201259,-43.43164729,0.30925058,0.53320446
1.55075062

>  <Name>
ligand

>  <RI>
0

>  <Rbt.Current_Directory>
/home/itssahil/PROJECTS/Mol_Feturizer/Test_systems_manuscript/rnas/3fu2

>  <Rbt.Executable>
rbdock ($Id: //depot/dev/client3/rdock/2013.1/src/exe/rbdock.cxx#4 $)

>  <Rbt.Library>
libRbt.so (2013.1, Build901 2013/11/27)

>  <Rbt.Parameter_File>
/export/apps/rDock/src/rDock_2013.1_src/data/scripts/dock_solv.prm

>  <Rbt.Receptor>
prm/pocket_docking_5.prm

>  <SCORE>
-16.3302

>  <SCORE.INTER>
-16.1666

>  <SCORE.INTER.CONST>
1

>  <SCORE.INTER.POLAR>
0

>  <SCORE.INTER.ROT>
1

>  <SCORE.INTER.SOLV>
16.0279

>  <SCORE.INTER.VDW>
-20.387

>  <SCORE.INTER.norm>
-1.24359

>  <SCORE.INTRA>
-0.163552

>  <SCORE.INTRA.DIHEDRAL>
-0.000435461

>  <SCORE.INTRA.DIHEDRAL.0>
1.66609

>  <SCORE.INTRA.POLAR>
0

>  <SCORE.INTRA.POLAR.0>
0

>  <SCORE.INTRA.REPUL>
0

>  <SCORE.INTRA.REPUL.0>
0

>  <SCORE.INTRA.SOLV>
-0.981718

>  <SCORE.INTRA.SOLV.lig_0>
-45.868

>  <SCORE.INTRA.VDW>
0.327525

>  <SCORE.INTRA.VDW.0>
-0.397919

>  <SCORE.INTRA.norm>
-0.0125809

>  <SCORE.RESTR>
0

>  <SCORE.RESTR.CAVITY>
0

>  <SCORE.RESTR.norm>
0

>  <SCORE.SYSTEM>
0

>  <SCORE.SYSTEM.CONST>
0

>  <SCORE.SYSTEM.DIHEDRAL>
0

>  <SCORE.SYSTEM.SOLV>
0

>  <SCORE.SYSTEM.norm>
0

>  <SCORE.heavy>
13

>  <SCORE.norm>
-1.25617

>  <RMSD>
4.823

$$$$
ligand
 OpenBabel02271912143D
libRbt.so/2013.1/901 2013/11/27
 13 14  0  0  0  0  0  0  0  0999 V2000
   -1.2860  -32.6420  -41.7834 N   0  0  0  0  0  0  0  0  0  0  0  0
   -0.4778  -32.1997  -42.7964 C   0  0  0  0  0  0  0  0  0  0  0  0
    0.6823  -31.5471  -42.4794 N   0  0  0  0  0  0  0  0  0  0  0  0
   -0.7992  -32.3942  -44.0757 N   0  0  0  0  0  0  0  0  0  0  0  0
   -1.9463  -33.0390  -44.4264 C   0  0  0  0  0  0  0  0  0  0  0  0
   -2.8128  -33.5095  -43.4155 C   0  0  0  0  0  0  0  0  0  0  0  0
   -2.4497  -33.2948  -42.0583 C   0  0  0  0  0  0  0  0  0  0  0  0
   -3.1576  -33.6827  -41.1621 O   0  0  0  0  0  0  0  0  0  0  0  0
   -3.9394  -34.1413  -44.0950 C   0  0  0  0  0  0  0  0  0  0  0  0
   -3.7059  -34.0318  -45.4149 C   0  0  0  0  0  0  0  0  0  0  0  0
   -2.5124  -33.3718  -45.6196 N   0  0  0  0  0  0  0  0  0  0  0  0
   -5.1357  -34.7835  -43.4407 C   0  0  0  0  0  0  0  0  0  0  0  0
   -5.8111  -35.6549  -44.4236 N   0  0  0  0  0  0  0  0  0  0  0  0
  1  2  1  0  0  0  0
  1  7  1  0  0  0  0
  2  3  1  0  0  0  0
  2  4  2  0  0  0  0
  4  5  1  0  0  0  0
  5  6  2  0  0  0  0
  5 11  1  0  0  0  0
  6  7  1  0  0  0  0
  6  9  1  0  0  0  0
  7  8  2  0  0  0  0
  9 10  2  0  0  0  0
  9 12  1  0  0  0  0
 10 11  1  0  0  0  0
 12 13  1  0  0  0  0
M  END
>  <CHROM.1>
-162.43394997,-2.57337137,-33.41306851,-43.43378798,0.30778901,0.53630172
1.55436747

>  <Name>
ligand

>  <RI>
0

>  <Rbt.Current_Directory>
/home/itssahil/PROJECTS/Mol_Feturizer/Test_systems_manuscript/rnas/3fu2

>  <Rbt.Executable>
rbdock ($Id: //depot/dev/client3/rdock/2013.1/src/exe/rbdock.cxx#4 $)

>  <Rbt.Library>
libRbt.so (2013.1, Build901 2013/11/27)

>  <Rbt.Parameter_File>
/export/apps/rDock/src/rDock_2013.1_src/data/scripts/dock_solv.prm

>  <Rbt.Receptor>
prm/pocket_docking_5.prm

>  <SCORE>
-16.3253

>  <SCORE.INTER>
-16.1589

>  <SCORE.INTER.CONST>
1

>  <SCORE.INTER.POLAR>
0

>  <SCORE.INTER.ROT>
1

>  <SCORE.INTER.SOLV>
16.0297

>  <SCORE.INTER.VDW>
-20.3825

>  <SCORE.INTER.norm>
-1.24299

>  <SCORE.INTRA>
-0.166426

>  <SCORE.INTRA.DIHEDRAL>
-0.000848842

>  <SCORE.INTRA.DIHEDRAL.0>
1.66609

>  <SCORE.INTRA.POLAR>
0

>  <SCORE.INTRA.POLAR.0>
0

>  <SCORE.INTRA.REPUL>
0

>  <SCORE.INTRA.REPUL.0>
0

>  <SCORE.INTRA.SOLV>
-0.981916

>  <SCORE.INTRA.SOLV.lig_0>
-45.868

>  <SCORE.INTRA.VDW>
0.324956

>  <SCORE.INTRA.VDW.0>
-0.397919

>  <SCORE.INTRA.norm>
-0.012802

>  <SCORE.RESTR>
0

>  <SCORE.RESTR.CAVITY>
0

>  <SCORE.RESTR.norm>
0

>  <SCORE.SYSTEM>
0

>  <SCORE.SYSTEM.CONST>
0

>  <SCORE.SYSTEM.DIHEDRAL>
0

>  <SCORE.SYSTEM.SOLV>
0

>  <SCORE.SYSTEM.norm>
0

>  <SCORE.heavy>
13

>  <SCORE.norm>
-1.25579

>  <RMSD>
4.823

$$$$
ligand
 OpenBabel02271912143D
libRbt.so/2013.1/901 2013/11/27
 13 14  0  0  0  0  0  0  0  0999 V2000
   -1.2878  -32.6344  -41.7870 N   0  0  0  0  0  0  0  0  0  0  0  0
   -0.4823  -32.1896  -42.8010 C   0  0  0  0  0  0  0  0  0  0  0  0
    0.6768  -31.5345  -42.4853 N   0  0  0  0  0  0  0  0  0  0  0  0
   -0.8052  -32.3838  -44.0800 N   0  0  0  0  0  0  0  0  0  0  0  0
   -1.9513  -33.0311  -44.4293 C   0  0  0  0  0  0  0  0  0  0  0  0
   -2.8152  -33.5044  -43.4174 C   0  0  0  0  0  0  0  0  0  0  0  0
   -2.4504  -33.2898  -42.0606 C   0  0  0  0  0  0  0  0  0  0  0  0
   -3.1560  -33.6799  -41.1636 O   0  0  0  0  0  0  0  0  0  0  0  0
   -3.9414  -34.1382  -44.0956 C   0  0  0  0  0  0  0  0  0  0  0  0
   -3.7102  -34.0272  -45.4158 C   0  0  0  0  0  0  0  0  0  0  0  0
   -2.5185  -33.3644  -45.6219 N   0  0  0  0  0  0  0  0  0  0  0  0
   -5.1352  -34.7836  -43.4399 C   0  0  0  0  0  0  0  0  0  0  0  0
   -5.8192  -35.6435  -44.4269 N   0  0  0  0  0  0  0  0  0  0  0  0
  1  2  1  0  0  0  0
  1  7  1  0  0  0  0
  2  3  1  0  0  0  0
  2  4  2  0  0  0  0
  4  5  1  0  0  0  0
  5  6  2  0  0  0  0
  5 11  1  0  0  0  0
  6  7  1  0  0  0  0
  6  9  1  0  0  0  0
  7  8  2  0  0  0  0
  9 10  2  0  0  0  0
  9 12  1  0  0  0  0
 10 11  1  0  0  0  0
 12 13  1  0  0  0  0
M  END
>  <CHROM.1>
-163.09540032,-2.57674885,-33.40631235,-43.43635360,0.30632511,0.53754858
1.55612575

>  <Name>
ligand

>  <RI>
0

>  <Rbt.Current_Directory>
/home/itssahil/PROJECTS/Mol_Feturizer/Test_systems_manuscript/rnas/3fu2

>  <Rbt.Executable>
rbdock ($Id: //depot/dev/client3/rdock/2013.1/src/exe/rbdock.cxx#4 $)

>  <Rbt.Library>
libRbt.so (2013.1, Build901 2013/11/27)

>  <Rbt.Parameter_File>
/export/apps/rDock/src/rDock_2013.1_src/data/scripts/dock_solv.prm

>  <Rbt.Receptor>
prm/pocket_docking_5.prm

>  <SCORE>
-16.3201

>  <SCORE.INTER>
-16.1563

>  <SCORE.INTER.CONST>
1

>  <SCORE.INTER.POLAR>
0

>  <SCORE.INTER.ROT>
1

>  <SCORE.INTER.SOLV>
16.0396

>  <SCORE.INTER.VDW>
-20.3841

>  <SCORE.INTER.norm>
-1.2428

>  <SCORE.INTRA>
-0.163713

>  <SCORE.INTRA.DIHEDRAL>
-0.000459413

>  <SCORE.INTRA.DIHEDRAL.0>
1.66609

>  <SCORE.INTRA.POLAR>
0

>  <SCORE.INTRA.POLAR.0>
0

>  <SCORE.INTRA.REPUL>
0

>  <SCORE.INTRA.REPUL.0>
0

>  <SCORE.INTRA.SOLV>
-0.981729

>  <SCORE.INTRA.SOLV.lig_0>
-45.868

>  <SCORE.INTRA.VDW>
0.327382

>  <SCORE.INTRA.VDW.0>
-0.397919

>  <SCORE.INTRA.norm>
-0.0125933

>  <SCORE.RESTR>
0

>  <SCORE.RESTR.CAVITY>
0

>  <SCORE.RESTR.norm>
0

>  <SCORE.SYSTEM>
0

>  <SCORE.SYSTEM.CONST>
0

>  <SCORE.SYSTEM.DIHEDRAL>
0

>  <SCORE.SYSTEM.SOLV>
0

>  <SCORE.SYSTEM.norm>
0

>  <SCORE.heavy>
13

>  <SCORE.norm>
-1.25539

>  <RMSD>
4.823

$$$$
ligand
 OpenBabel02271912143D
libRbt.so/2013.1/901 2013/11/27
 13 14  0  0  0  0  0  0  0  0999 V2000
   -1.2825  -32.6542  -41.7847 N   0  0  0  0  0  0  0  0  0  0  0  0
   -0.4722  -32.2172  -42.7983 C   0  0  0  0  0  0  0  0  0  0  0  0
    0.6911  -31.5699  -42.4821 N   0  0  0  0  0  0  0  0  0  0  0  0
   -0.7946  -32.4118  -44.0774 N   0  0  0  0  0  0  0  0  0  0  0  0
   -1.9448  -33.0514  -44.4271 C   0  0  0  0  0  0  0  0  0  0  0  0
   -2.8137  -33.5164  -43.4156 C   0  0  0  0  0  0  0  0  0  0  0  0
   -2.4494  -33.3017  -42.0587 C   0  0  0  0  0  0  0  0  0  0  0  0
   -3.1592  -33.6849  -41.1620 O   0  0  0  0  0  0  0  0  0  0  0  0
   -3.9433  -34.1435  -44.0943 C   0  0  0  0  0  0  0  0  0  0  0  0
   -3.7093  -34.0368  -45.4143 C   0  0  0  0  0  0  0  0  0  0  0  0
   -2.5126  -33.3830  -45.6199 N   0  0  0  0  0  0  0  0  0  0  0  0
   -5.1428  -34.7789  -43.4391 C   0  0  0  0  0  0  0  0  0  0  0  0
   -5.8257  -35.6438  -44.4225 N   0  0  0  0  0  0  0  0  0  0  0  0
  1  2  1  0  0  0  0
  1  7  1  0  0  0  0
  2  3  1  0  0  0  0
  2  4  2  0  0  0  0
  4  5  1  0  0  0  0
  5  6  2  0  0  0  0
  5 11  1  0  0  0  0
  6  7  1  0  0  0  0
  6  9  1  0  0  0  0
  7  8  2  0  0  0  0
  9 10  2  0  0  0  0
  9 12  1  0  0  0  0
 10 11  1  0  0  0  0
 12 13  1  0  0  0  0
M  END
>  <CHROM.1>
-162.67579455,-2.57398740,-33.42075361,-43.43416456,0.30777000,0.53099870
1.55317173

>  <Name>
ligand

>  <RI>
0

>  <Rbt.Current_Directory>
/home/itssahil/PROJECTS/Mol_Feturizer/Test_systems_manuscript/rnas/3fu2

>  <Rbt.Executable>
rbdock ($Id: //depot/dev/client3/rdock/2013.1/src/exe/rbdock.cxx#4 $)

>  <Rbt.Library>
libRbt.so (2013.1, Build901 2013/11/27)

>  <Rbt.Parameter_File>
/export/apps/rDock/src/rDock_2013.1_src/data/scripts/dock_solv.prm

>  <Rbt.Receptor>
prm/pocket_docking_5.prm

>  <SCORE>
-16.3286

>  <SCORE.INTER>
-16.1632

>  <SCORE.INTER.CONST>
1

>  <SCORE.INTER.POLAR>
0

>  <SCORE.INTER.ROT>
1

>  <SCORE.INTER.SOLV>
16.0267

>  <SCORE.INTER.VDW>
-20.3844

>  <SCORE.INTER.norm>
-1.24332

>  <SCORE.INTRA>
-0.165428

>  <SCORE.INTRA.DIHEDRAL>
-0.000708484

>  <SCORE.INTRA.DIHEDRAL.0>
1.66609

>  <SCORE.INTRA.POLAR>
0

>  <SCORE.INTRA.POLAR.0>
0

>  <SCORE.INTRA.REPUL>
0

>  <SCORE.INTRA.REPUL.0>
0

>  <SCORE.INTRA.SOLV>
-0.981847

>  <SCORE.INTRA.SOLV.lig_0>
-45.868

>  <SCORE.INTRA.VDW>
0.32585

>  <SCORE.INTRA.VDW.0>
-0.397919

>  <SCORE.INTRA.norm>
-0.0127252

>  <SCORE.RESTR>
0

>  <SCORE.RESTR.CAVITY>
0

>  <SCORE.RESTR.norm>
0

>  <SCORE.SYSTEM>
0

>  <SCORE.SYSTEM.CONST>
0

>  <SCORE.SYSTEM.DIHEDRAL>
0

>  <SCORE.SYSTEM.SOLV>
0

>  <SCORE.SYSTEM.norm>
0

>  <SCORE.heavy>
13

>  <SCORE.norm>
-1.25605

>  <RMSD>
4.823

$$$$
ligand
 OpenBabel02271912143D
libRbt.so/2013.1/901 2013/11/27
 13 14  0  0  0  0  0  0  0  0999 V2000
   -1.2827  -32.6439  -41.7835 N   0  0  0  0  0  0  0  0  0  0  0  0
   -0.4739  -32.2055  -42.7976 C   0  0  0  0  0  0  0  0  0  0  0  0
    0.6882  -31.5557  -42.4821 N   0  0  0  0  0  0  0  0  0  0  0  0
   -0.7964  -32.4009  -44.0765 N   0  0  0  0  0  0  0  0  0  0  0  0
   -1.9455  -33.0430  -44.4256 C   0  0  0  0  0  0  0  0  0  0  0  0
   -2.8129  -33.5096  -43.4136 C   0  0  0  0  0  0  0  0  0  0  0  0
   -2.4484  -33.2939  -42.0569 C   0  0  0  0  0  0  0  0  0  0  0  0
   -3.1570  -33.6784  -41.1598 O   0  0  0  0  0  0  0  0  0  0  0  0
   -3.9416  -34.1391  -44.0917 C   0  0  0  0  0  0  0  0  0  0  0  0
   -3.7084  -34.0322  -45.4118 C   0  0  0  0  0  0  0  0  0  0  0  0
   -2.5132  -33.3759  -45.6181 N   0  0  0  0  0  0  0  0  0  0  0  0
   -5.1394  -34.7769  -43.4358 C   0  0  0  0  0  0  0  0  0  0  0  0
   -5.8273  -35.6348  -44.4219 N   0  0  0  0  0  0  0  0  0  0  0  0
  1  2  1  0  0  0  0
  1  7  1  0  0  0  0
  2  3  1  0  0  0  0
  2  4  2  0  0  0  0
  4  5  1  0  0  0  0
  5  6  2  0  0  0  0
  5 11  1  0  0  0  0
  6  7  1  0  0  0  0
  6  9  1  0  0  0  0
  7  8  2  0  0  0  0
  9 10  2  0  0  0  0
  9 12  1  0  0  0  0
 10 11  1  0  0  0  0
 12 13  1  0  0  0  0
M  END
>  <CHROM.1>
-163.13120938,-2.57393775,-33.41273375,-43.43255789,0.30748033,0.53231935
1.55336340

>  <Name>
ligand

>  <RI>
0

>  <Rbt.Current_Directory>
/home/itssahil/PROJECTS/Mol_Feturizer/Test_systems_manuscript/rnas/3fu2

>  <Rbt.Executable>
rbdock ($Id: //depot/dev/client3/rdock/2013.1/src/exe/rbdock.cxx#4 $)

>  <Rbt.Library>
libRbt.so (2013.1, Build901 2013/11/27)

>  <Rbt.Parameter_File>
/export/apps/rDock/src/rDock_2013.1_src/data/scripts/dock_solv.prm

>  <Rbt.Receptor>
prm/pocket_docking_6.prm

>  <SCORE>
-16.3306

>  <SCORE.INTER>
-16.167

>  <SCORE.INTER.CONST>
1

>  <SCORE.INTER.POLAR>
0

>  <SCORE.INTER.ROT>
1

>  <SCORE.INTER.SOLV>
16.0249

>  <SCORE.INTER.VDW>
-20.3863

>  <SCORE.INTER.norm>
-1.24362

>  <SCORE.INTRA>
-0.163567

>  <SCORE.INTRA.DIHEDRAL>
-0.000437834

>  <SCORE.INTRA.DIHEDRAL.0>
1.66609

>  <SCORE.INTRA.POLAR>
0

>  <SCORE.INTRA.POLAR.0>
0

>  <SCORE.INTRA.REPUL>
0

>  <SCORE.INTRA.REPUL.0>
0

>  <SCORE.INTRA.SOLV>
-0.981719

>  <SCORE.INTRA.SOLV.lig_0>
-45.868

>  <SCORE.INTRA.VDW>
0.327511

>  <SCORE.INTRA.VDW.0>
-0.397919

>  <SCORE.INTRA.norm>
-0.0125821

>  <SCORE.RESTR>
0

>  <SCORE.RESTR.CAVITY>
0

>  <SCORE.RESTR.norm>
0

>  <SCORE.SYSTEM>
0

>  <SCORE.SYSTEM.CONST>
0

>  <SCORE.SYSTEM.DIHEDRAL>
0

>  <SCORE.SYSTEM.SOLV>
0

>  <SCORE.SYSTEM.norm>
0

>  <SCORE.heavy>
13

>  <SCORE.norm>
-1.2562

>  <RMSD>
4.823

$$$$
ligand
 OpenBabel02271912143D
libRbt.so/2013.1/901 2013/11/27
 13 14  0  0  0  0  0  0  0  0999 V2000
   -1.2820  -32.6455  -41.7850 N   0  0  0  0  0  0  0  0  0  0  0  0
   -0.4699  -32.2127  -42.7988 C   0  0  0  0  0  0  0  0  0  0  0  0
    0.6927  -31.5639  -42.4832 N   0  0  0  0  0  0  0  0  0  0  0  0
   -0.7899  -32.4125  -44.0777 N   0  0  0  0  0  0  0  0  0  0  0  0
   -1.9394  -33.0537  -44.4270 C   0  0  0  0  0  0  0  0  0  0  0  0
   -2.8101  -33.5146  -43.4152 C   0  0  0  0  0  0  0  0  0  0  0  0
   -2.4484  -33.2943  -42.0585 C   0  0  0  0  0  0  0  0  0  0  0  0
   -3.1598  -33.6739  -41.1615 O   0  0  0  0  0  0  0  0  0  0  0  0
   -3.9384  -34.1446  -44.0934 C   0  0  0  0  0  0  0  0  0  0  0  0
   -3.7019  -34.0434  -45.4134 C   0  0  0  0  0  0  0  0  0  0  0  0
   -2.5049  -33.3903  -45.6194 N   0  0  0  0  0  0  0  0  0  0  0  0
   -5.1390  -34.7775  -43.4378 C   0  0  0  0  0  0  0  0  0  0  0  0
   -5.8196  -35.6471  -44.4187 N   0  0  0  0  0  0  0  0  0  0  0  0
  1  2  1  0  0  0  0
  1  7  1  0  0  0  0
  2  3  1  0  0  0  0
  2  4  2  0  0  0  0
  4  5  1  0  0  0  0
  5  6  2  0  0  0  0
  5 11  1  0  0  0  0
  6  7  1  0  0  0  0
  6  9  1  0  0  0  0
  7  8  2  0  0  0  0
  9 10  2  0  0  0  0
  9 12  1  0  0  0  0
 10 11  1  0  0  0  0
 12 13  1  0  0  0  0
M  END
>  <CHROM.1>
-162.64430951,-2.57034030,-33.41906080,-43.43367004,0.30992784,0.53111942
1.54795813

>  <Name>
ligand

>  <RI>
0

>  <Rbt.Current_Directory>
/home/itssahil/PROJECTS/Mol_Feturizer/Test_systems_manuscript/rnas/3fu2

>  <Rbt.Executable>
rbdock ($Id: //depot/dev/client3/rdock/2013.1/src/exe/rbdock.cxx#4 $)

>  <Rbt.Library>
libRbt.so (2013.1, Build901 2013/11/27)

>  <Rbt.Parameter_File>
/export/apps/rDock/src/rDock_2013.1_src/data/scripts/dock_solv.prm

>  <Rbt.Receptor>
prm/pocket_docking_6.prm

>  <SCORE>
-16.3261

>  <SCORE.INTER>
-16.1606

>  <SCORE.INTER.CONST>
1

>  <SCORE.INTER.POLAR>
0

>  <SCORE.INTER.ROT>
1

>  <SCORE.INTER.SOLV>
16.037

>  <SCORE.INTER.VDW>
-20.3861

>  <SCORE.INTER.norm>
-1.24312

>  <SCORE.INTRA>
-0.165557

>  <SCORE.INTRA.DIHEDRAL>
-0.00072689

>  <SCORE.INTRA.DIHEDRAL.0>
1.66609

>  <SCORE.INTRA.POLAR>
0

>  <SCORE.INTRA.POLAR.0>
0

>  <SCORE.INTRA.REPUL>
0

>  <SCORE.INTRA.REPUL.0>
0

>  <SCORE.INTRA.SOLV>
-0.981856

>  <SCORE.INTRA.SOLV.lig_0>
-45.868

>  <SCORE.INTRA.VDW>
0.325734

>  <SCORE.INTRA.VDW.0>
-0.397919

>  <SCORE.INTRA.norm>
-0.0127352

>  <SCORE.RESTR>
0

>  <SCORE.RESTR.CAVITY>
0

>  <SCORE.RESTR.norm>
0

>  <SCORE.SYSTEM>
0

>  <SCORE.SYSTEM.CONST>
0

>  <SCORE.SYSTEM.DIHEDRAL>
0

>  <SCORE.SYSTEM.SOLV>
0

>  <SCORE.SYSTEM.norm>
0

>  <SCORE.heavy>
13

>  <SCORE.norm>
-1.25586

>  <RMSD>
4.823

$$$$
ligand
 OpenBabel02271912143D
libRbt.so/2013.1/901 2013/11/27
 13 14  0  0  0  0  0  0  0  0999 V2000
   -1.2852  -32.6431  -41.7848 N   0  0  0  0  0  0  0  0  0  0  0  0
   -0.4783  -32.2015  -42.7990 C   0  0  0  0  0  0  0  0  0  0  0  0
    0.6822  -31.5486  -42.4837 N   0  0  0  0  0  0  0  0  0  0  0  0
   -0.8011  -32.3967  -44.0778 N   0  0  0  0  0  0  0  0  0  0  0  0
   -1.9486  -33.0418  -44.4267 C   0  0  0  0  0  0  0  0  0  0  0  0
   -2.8139  -33.5117  -43.4146 C   0  0  0  0  0  0  0  0  0  0  0  0
   -2.4492  -33.2962  -42.0580 C   0  0  0  0  0  0  0  0  0  0  0  0
   -3.1561  -33.6835  -41.1607 O   0  0  0  0  0  0  0  0  0  0  0  0
   -3.9413  -34.1439  -44.0925 C   0  0  0  0  0  0  0  0  0  0  0  0
   -3.7093  -34.0352  -45.4127 C   0  0  0  0  0  0  0  0  0  0  0  0
   -2.5161  -33.3753  -45.6191 N   0  0  0  0  0  0  0  0  0  0  0  0
   -5.1368  -34.7857  -43.4363 C   0  0  0  0  0  0  0  0  0  0  0  0
   -5.8210  -35.6473  -44.4218 N   0  0  0  0  0  0  0  0  0  0  0  0
  1  2  1  0  0  0  0
  1  7  1  0  0  0  0
  2  3  1  0  0  0  0
  2  4  2  0  0  0  0
  4  5  1  0  0  0  0
  5  6  2  0  0  0  0
  5 11  1  0  0  0  0
  6  7  1  0  0  0  0
  6  9  1  0  0  0  0
  7  8  2  0  0  0  0
  9 10  2  0  0  0  0
  9 12  1  0  0  0  0
 10 11  1  0  0  0  0
 12 13  1  0  0  0  0
M  END
>  <CHROM.1>
-162.99332417,-2.57512763,-33.41440526,-43.43353752,0.30670398,0.53542663
1.55457859

>  <Name>
ligand

>  <RI>
0

>  <Rbt.Current_Directory>
/home/itssahil/PROJECTS/Mol_Feturizer/Test_systems_manuscript/rnas/3fu2

>  <Rbt.Executable>
rbdock ($Id: //depot/dev/client3/rdock/2013.1/src/exe/rbdock.cxx#4 $)

>  <Rbt.Library>
libRbt.so (2013.1, Build901 2013/11/27)

>  <Rbt.Parameter_File>
/export/apps/rDock/src/rDock_2013.1_src/data/scripts/dock_solv.prm

>  <Rbt.Receptor>
prm/pocket_docking_6.prm

>  <SCORE>
-16.3304

>  <SCORE.INTER>
-16.1662

>  <SCORE.INTER.CONST>
1

>  <SCORE.INTER.POLAR>
0

>  <SCORE.INTER.ROT>
1

>  <SCORE.INTER.SOLV>
16.0305

>  <SCORE.INTER.VDW>
-20.3876

>  <SCORE.INTER.norm>
-1.24356

>  <SCORE.INTRA>
-0.164128

>  <SCORE.INTRA.DIHEDRAL>
-0.000520646

>  <SCORE.INTRA.DIHEDRAL.0>
1.66609

>  <SCORE.INTRA.POLAR>
0

>  <SCORE.INTRA.POLAR.0>
0

>  <SCORE.INTRA.REPUL>
0

>  <SCORE.INTRA.REPUL.0>
0

>  <SCORE.INTRA.SOLV>
-0.981758

>  <SCORE.INTRA.SOLV.lig_0>
-45.868

>  <SCORE.INTRA.VDW>
0.327011

>  <SCORE.INTRA.VDW.0>
-0.397919

>  <SCORE.INTRA.norm>
-0.0126252

>  <SCORE.RESTR>
0

>  <SCORE.RESTR.CAVITY>
0

>  <SCORE.RESTR.norm>
0

>  <SCORE.SYSTEM>
0

>  <SCORE.SYSTEM.CONST>
0

>  <SCORE.SYSTEM.DIHEDRAL>
0

>  <SCORE.SYSTEM.SOLV>
0

>  <SCORE.SYSTEM.norm>
0

>  <SCORE.heavy>
13

>  <SCORE.norm>
-1.25618

>  <RMSD>
4.823

$$$$
ligand
 OpenBabel02271912143D
libRbt.so/2013.1/901 2013/11/27
 13 14  0  0  0  0  0  0  0  0999 V2000
   -1.2814  -32.6604  -41.7876 N   0  0  0  0  0  0  0  0  0  0  0  0
   -0.4745  -32.2183  -42.8016 C   0  0  0  0  0  0  0  0  0  0  0  0
    0.6903  -31.5734  -42.4859 N   0  0  0  0  0  0  0  0  0  0  0  0
   -0.8014  -32.4055  -44.0806 N   0  0  0  0  0  0  0  0  0  0  0  0
   -1.9533  -33.0425  -44.4298 C   0  0  0  0  0  0  0  0  0  0  0  0
   -2.8188  -33.5126  -43.4179 C   0  0  0  0  0  0  0  0  0  0  0  0
   -2.4497  -33.3056  -42.0611 C   0  0  0  0  0  0  0  0  0  0  0  0
   -3.1566  -33.6934  -41.1640 O   0  0  0  0  0  0  0  0  0  0  0  0
   -3.9513  -34.1352  -44.0961 C   0  0  0  0  0  0  0  0  0  0  0  0
   -3.7218  -34.0213  -45.4163 C   0  0  0  0  0  0  0  0  0  0  0  0
   -2.5255  -33.3671  -45.6224 N   0  0  0  0  0  0  0  0  0  0  0  0
   -5.1488  -34.7736  -43.4402 C   0  0  0  0  0  0  0  0  0  0  0  0
   -5.8193  -35.6547  -44.4177 N   0  0  0  0  0  0  0  0  0  0  0  0
  1  2  1  0  0  0  0
  1  7  1  0  0  0  0
  2  3  1  0  0  0  0
  2  4  2  0  0  0  0
  4  5  1  0  0  0  0
  5  6  2  0  0  0  0
  5 11  1  0  0  0  0
  6  7  1  0  0  0  0
  6  9  1  0  0  0  0
  7  8  2  0  0  0  0
  9 10  2  0  0  0  0
  9 12  1  0  0  0  0
 10 11  1  0  0  0  0
 12 13  1  0  0  0  0
M  END
>  <CHROM.1>
-161.49195655,-2.57784560,-33.41877925,-43.43606903,0.30310531,0.53239489
1.56058289

>  <Name>
ligand

>  <RI>
0

>  <Rbt.Current_Directory>
/home/itssahil/PROJECTS/Mol_Feturizer/Test_systems_manuscript/rnas/3fu2

>  <Rbt.Executable>
rbdock ($Id: //depot/dev/client3/rdock/2013.1/src/exe/rbdock.cxx#4 $)

>  <Rbt.Library>
libRbt.so (2013.1, Build901 2013/11/27)

>  <Rbt.Parameter_File>
/export/apps/rDock/src/rDock_2013.1_src/data/scripts/dock_solv.prm

>  <Rbt.Receptor>
prm/pocket_docking_6.prm

>  <SCORE>
-16.3206

>  <SCORE.INTER>
-16.1502

>  <SCORE.INTER.CONST>
1

>  <SCORE.INTER.POLAR>
0

>  <SCORE.INTER.ROT>
1

>  <SCORE.INTER.SOLV>
16.0161

>  <SCORE.INTER.VDW>
-20.3721

>  <SCORE.INTER.norm>
-1.24232

>  <SCORE.INTRA>
-0.170381

>  <SCORE.INTRA.DIHEDRAL>
-0.00137278

>  <SCORE.INTRA.DIHEDRAL.0>
1.66609

>  <SCORE.INTRA.POLAR>
0

>  <SCORE.INTRA.POLAR.0>
0

>  <SCORE.INTRA.REPUL>
0

>  <SCORE.INTRA.REPUL.0>
0

>  <SCORE.INTRA.SOLV>
-0.98219

>  <SCORE.INTRA.SOLV.lig_0>
-45.868

>  <SCORE.INTRA.VDW>
0.3214

>  <SCORE.INTRA.VDW.0>
-0.397919

>  <SCORE.INTRA.norm>
-0.0131062

>  <SCORE.RESTR>
0

>  <SCORE.RESTR.CAVITY>
0

>  <SCORE.RESTR.norm>
0

>  <SCORE.SYSTEM>
0

>  <SCORE.SYSTEM.CONST>
0

>  <SCORE.SYSTEM.DIHEDRAL>
0

>  <SCORE.SYSTEM.SOLV>
0

>  <SCORE.SYSTEM.norm>
0

>  <SCORE.heavy>
13

>  <SCORE.norm>
-1.25543

>  <RMSD>
4.823

$$$$
ligand
 OpenBabel02271912143D
libRbt.so/2013.1/901 2013/11/27
 13 14  0  0  0  0  0  0  0  0999 V2000
   -1.2774  -32.6434  -41.7796 N   0  0  0  0  0  0  0  0  0  0  0  0
   -0.4764  -32.1959  -42.7960 C   0  0  0  0  0  0  0  0  0  0  0  0
    0.6843  -31.5421  -42.4838 N   0  0  0  0  0  0  0  0  0  0  0  0
   -0.8053  -32.3864  -44.0740 N   0  0  0  0  0  0  0  0  0  0  0  0
   -1.9532  -33.0324  -44.4198 C   0  0  0  0  0  0  0  0  0  0  0  0
   -2.8125  -33.5083  -43.4053 C   0  0  0  0  0  0  0  0  0  0  0  0
   -2.4414  -33.2976  -42.0497 C   0  0  0  0  0  0  0  0  0  0  0  0
   -3.1430  -33.6901  -41.1505 O   0  0  0  0  0  0  0  0  0  0  0  0
   -3.9420  -34.1399  -44.0802 C   0  0  0  0  0  0  0  0  0  0  0  0
   -3.7168  -34.0252  -45.4011 C   0  0  0  0  0  0  0  0  0  0  0  0
   -2.5260  -33.3621  -45.6108 N   0  0  0  0  0  0  0  0  0  0  0  0
   -5.1329  -34.7869  -43.4208 C   0  0  0  0  0  0  0  0  0  0  0  0
   -5.8152  -35.6527  -44.4039 N   0  0  0  0  0  0  0  0  0  0  0  0
  1  2  1  0  0  0  0
  1  7  1  0  0  0  0
  2  3  1  0  0  0  0
  2  4  2  0  0  0  0
  4  5  1  0  0  0  0
  5  6  2  0  0  0  0
  5 11  1  0  0  0  0
  6  7  1  0  0  0  0
  6  9  1  0  0  0  0
  7  8  2  0  0  0  0
  9 10  2  0  0  0  0
  9 12  1  0  0  0  0
 10 11  1  0  0  0  0
 12 13  1  0  0  0  0
M  END
>  <CHROM.1>
-162.62224795,-2.57357942,-33.41097596,-43.42486824,0.30073574,0.53810331
1.56161755

>  <Name>
ligand

>  <RI>
0

>  <Rbt.Current_Directory>
/home/itssahil/PROJECTS/Mol_Feturizer/Test_systems_manuscript/rnas/3fu2

>  <Rbt.Executable>
rbdock ($Id: //depot/dev/client3/rdock/2013.1/src/exe/rbdock.cxx#4 $)

>  <Rbt.Library>
libRbt.so (2013.1, Build901 2013/11/27)

>  <Rbt.Parameter_File>
/export/apps/rDock/src/rDock_2013.1_src/data/scripts/dock_solv.prm

>  <Rbt.Receptor>
prm/pocket_docking_6.prm

>  <SCORE>
-16.2717

>  <SCORE.INTER>
-16.106

>  <SCORE.INTER.CONST>
1

>  <SCORE.INTER.POLAR>
0

>  <SCORE.INTER.ROT>
1

>  <SCORE.INTER.SOLV>
16.0132

>  <SCORE.INTER.VDW>
-20.3417

>  <SCORE.INTER.norm>
-1.23893

>  <SCORE.INTRA>
-0.165648

>  <SCORE.INTRA.DIHEDRAL>
-0.000739763

>  <SCORE.INTRA.DIHEDRAL.0>
1.66609

>  <SCORE.INTRA.POLAR>
0

>  <SCORE.INTRA.POLAR.0>
0

>  <SCORE.INTRA.REPUL>
0

>  <SCORE.INTRA.REPUL.0>
0

>  <SCORE.INTRA.SOLV>
-0.981862

>  <SCORE.INTRA.SOLV.lig_0>
-45.868

>  <SCORE.INTRA.VDW>
0.325653

>  <SCORE.INTRA.VDW.0>
-0.397919

>  <SCORE.INTRA.norm>
-0.0127422

>  <SCORE.RESTR>
0

>  <SCORE.RESTR.CAVITY>
0

>  <SCORE.RESTR.norm>
0

>  <SCORE.SYSTEM>
0

>  <SCORE.SYSTEM.CONST>
0

>  <SCORE.SYSTEM.DIHEDRAL>
0

>  <SCORE.SYSTEM.SOLV>
0

>  <SCORE.SYSTEM.norm>
0

>  <SCORE.heavy>
13

>  <SCORE.norm>
-1.25167

>  <RMSD>
4.823

$$$$
ligand
 OpenBabel02271912143D
libRbt.so/2013.1/901 2013/11/27
 13 14  0  0  0  0  0  0  0  0999 V2000
   -1.2803  -32.6440  -41.7833 N   0  0  0  0  0  0  0  0  0  0  0  0
   -0.4691  -32.2097  -42.7973 C   0  0  0  0  0  0  0  0  0  0  0  0
    0.6949  -31.5633  -42.4817 N   0  0  0  0  0  0  0  0  0  0  0  0
   -0.7911  -32.4060  -44.0762 N   0  0  0  0  0  0  0  0  0  0  0  0
   -1.9420  -33.0449  -44.4254 C   0  0  0  0  0  0  0  0  0  0  0  0
   -2.8118  -33.5071  -43.4135 C   0  0  0  0  0  0  0  0  0  0  0  0
   -2.4479  -33.2905  -42.0568 C   0  0  0  0  0  0  0  0  0  0  0  0
   -3.1585  -33.6714  -41.1597 O   0  0  0  0  0  0  0  0  0  0  0  0
   -3.9419  -34.1339  -44.0916 C   0  0  0  0  0  0  0  0  0  0  0  0
   -3.7072  -34.0298  -45.4117 C   0  0  0  0  0  0  0  0  0  0  0  0
   -2.5096  -33.3777  -45.6179 N   0  0  0  0  0  0  0  0  0  0  0  0
   -5.1424  -34.7668  -43.4359 C   0  0  0  0  0  0  0  0  0  0  0  0
   -5.8229  -35.6368  -44.4165 N   0  0  0  0  0  0  0  0  0  0  0  0
  1  2  1  0  0  0  0
  1  7  1  0  0  0  0
  2  3  1  0  0  0  0
  2  4  2  0  0  0  0
  4  5  1  0  0  0  0
  5  6  2  0  0  0  0
  5 11  1  0  0  0  0
  6  7  1  0  0  0  0
  6  9  1  0  0  0  0
  7  8  2  0  0  0  0
  9 10  2  0  0  0  0
  9 12  1  0  0  0  0
 10 11  1  0  0  0  0
 12 13  1  0  0  0  0
M  END
>  <CHROM.1>
-162.44680389,-2.57174825,-33.41209857,-43.43195902,0.30815018,0.53015482
1.55121255

>  <Name>
ligand

>  <RI>
0

>  <Rbt.Current_Directory>
/home/itssahil/PROJECTS/Mol_Feturizer/Test_systems_manuscript/rnas/3fu2

>  <Rbt.Executable>
rbdock ($Id: //depot/dev/client3/rdock/2013.1/src/exe/rbdock.cxx#4 $)

>  <Rbt.Library>
libRbt.so (2013.1, Build901 2013/11/27)

>  <Rbt.Parameter_File>
/export/apps/rDock/src/rDock_2013.1_src/data/scripts/dock_solv.prm

>  <Rbt.Receptor>
prm/pocket_docking_6.prm

>  <SCORE>
-16.3265

>  <SCORE.INTER>
-16.1601

>  <SCORE.INTER.CONST>
1

>  <SCORE.INTER.POLAR>
0

>  <SCORE.INTER.ROT>
1

>  <SCORE.INTER.SOLV>
16.0259

>  <SCORE.INTER.VDW>
-20.3821

>  <SCORE.INTER.norm>
-1.24309

>  <SCORE.INTRA>
-0.166373

>  <SCORE.INTRA.DIHEDRAL>
-0.000841441

>  <SCORE.INTRA.DIHEDRAL.0>
1.66609

>  <SCORE.INTRA.POLAR>
0

>  <SCORE.INTRA.POLAR.0>
0

>  <SCORE.INTRA.REPUL>
0

>  <SCORE.INTRA.REPUL.0>
0

>  <SCORE.INTRA.SOLV>
-0.981912

>  <SCORE.INTRA.SOLV.lig_0>
-45.868

>  <SCORE.INTRA.VDW>
0.325004

>  <SCORE.INTRA.VDW.0>
-0.397919

>  <SCORE.INTRA.norm>
-0.0127979

>  <SCORE.RESTR>
0

>  <SCORE.RESTR.CAVITY>
0

>  <SCORE.RESTR.norm>
0

>  <SCORE.SYSTEM>
0

>  <SCORE.SYSTEM.CONST>
0

>  <SCORE.SYSTEM.DIHEDRAL>
0

>  <SCORE.SYSTEM.SOLV>
0

>  <SCORE.SYSTEM.norm>
0

>  <SCORE.heavy>
13

>  <SCORE.norm>
-1.25589

>  <RMSD>
4.823

$$$$
ligand
 OpenBabel02271912143D
libRbt.so/2013.1/901 2013/11/27
 13 14  0  0  0  0  0  0  0  0999 V2000
   -1.2831  -32.6445  -41.7827 N   0  0  0  0  0  0  0  0  0  0  0  0
   -0.4722  -32.2097  -42.7967 C   0  0  0  0  0  0  0  0  0  0  0  0
    0.6901  -31.5604  -42.4812 N   0  0  0  0  0  0  0  0  0  0  0  0
   -0.7931  -32.4082  -44.0756 N   0  0  0  0  0  0  0  0  0  0  0  0
   -1.9424  -33.0500  -44.4247 C   0  0  0  0  0  0  0  0  0  0  0  0
   -2.8118  -33.5129  -43.4128 C   0  0  0  0  0  0  0  0  0  0  0  0
   -2.4491  -33.2939  -42.0561 C   0  0  0  0  0  0  0  0  0  0  0  0
   -3.1595  -33.6752  -41.1590 O   0  0  0  0  0  0  0  0  0  0  0  0
   -3.9402  -34.1430  -44.0908 C   0  0  0  0  0  0  0  0  0  0  0  0
   -3.7049  -34.0399  -45.4109 C   0  0  0  0  0  0  0  0  0  0  0  0
   -2.5086  -33.3855  -45.6171 N   0  0  0  0  0  0  0  0  0  0  0  0
   -5.1397  -34.7777  -43.4350 C   0  0  0  0  0  0  0  0  0  0  0  0
   -5.8220  -35.6444  -44.4173 N   0  0  0  0  0  0  0  0  0  0  0  0
  1  2  1  0  0  0  0
  1  7  1  0  0  0  0
  2  3  1  0  0  0  0
  2  4  2  0  0  0  0
  4  5  1  0  0  0  0
  5  6  2  0  0  0  0
  5 11  1  0  0  0  0
  6  7  1  0  0  0  0
  6  9  1  0  0  0  0
  7  8  2  0  0  0  0
  9 10  2  0  0  0  0
  9 12  1  0  0  0  0
 10 11  1  0  0  0  0
 12 13  1  0  0  0  0
M  END
>  <CHROM.1>
-162.75946109,-2.57230065,-33.41691176,-43.43139195,0.30903588,0.53178528
1.54970377

>  <Name>
ligand

>  <RI>
0

>  <Rbt.Current_Directory>
/home/itssahil/PROJECTS/Mol_Feturizer/Test_systems_manuscript/rnas/3fu2

>  <Rbt.Executable>
rbdock ($Id: //depot/dev/client3/rdock/2013.1/src/exe/rbdock.cxx#4 $)

>  <Rbt.Library>
libRbt.so (2013.1, Build901 2013/11/27)

>  <Rbt.Parameter_File>
/export/apps/rDock/src/rDock_2013.1_src/data/scripts/dock_solv.prm

>  <Rbt.Receptor>
prm/pocket_docking_7.prm

>  <SCORE>
-16.3292

>  <SCORE.INTER>
-16.1641

>  <SCORE.INTER.CONST>
1

>  <SCORE.INTER.POLAR>
0

>  <SCORE.INTER.ROT>
1

>  <SCORE.INTER.SOLV>
16.033

>  <SCORE.INTER.VDW>
-20.3871

>  <SCORE.INTER.norm>
-1.24339

>  <SCORE.INTRA>
-0.165084

>  <SCORE.INTRA.DIHEDRAL>
-0.00065938

>  <SCORE.INTRA.DIHEDRAL.0>
1.66609

>  <SCORE.INTRA.POLAR>
0

>  <SCORE.INTRA.POLAR.0>
0

>  <SCORE.INTRA.REPUL>
0

>  <SCORE.INTRA.REPUL.0>
0

>  <SCORE.INTRA.SOLV>
-0.981823

>  <SCORE.INTRA.SOLV.lig_0>
-45.868

>  <SCORE.INTRA.VDW>
0.326157

>  <SCORE.INTRA.VDW.0>
-0.397919

>  <SCORE.INTRA.norm>
-0.0126988

>  <SCORE.RESTR>
0

>  <SCORE.RESTR.CAVITY>
0

>  <SCORE.RESTR.norm>
0

>  <SCORE.SYSTEM>
0

>  <SCORE.SYSTEM.CONST>
0

>  <SCORE.SYSTEM.DIHEDRAL>
0

>  <SCORE.SYSTEM.SOLV>
0

>  <SCORE.SYSTEM.norm>
0

>  <SCORE.heavy>
13

>  <SCORE.norm>
-1.25609

>  <RMSD>
4.823

$$$$
ligand
 OpenBabel02271912143D
libRbt.so/2013.1/901 2013/11/27
 13 14  0  0  0  0  0  0  0  0999 V2000
   -1.2860  -32.6594  -41.7690 N   0  0  0  0  0  0  0  0  0  0  0  0
   -0.4744  -32.2169  -42.7791 C   0  0  0  0  0  0  0  0  0  0  0  0
    0.6876  -31.5699  -42.4579 N   0  0  0  0  0  0  0  0  0  0  0  0
   -0.7943  -32.4058  -44.0596 N   0  0  0  0  0  0  0  0  0  0  0  0
   -1.9433  -33.0451  -44.4144 C   0  0  0  0  0  0  0  0  0  0  0  0
   -2.8134  -33.5156  -43.4066 C   0  0  0  0  0  0  0  0  0  0  0  0
   -2.4518  -33.3068  -42.0481 C   0  0  0  0  0  0  0  0  0  0  0  0
   -3.1628  -33.6949  -41.1544 O   0  0  0  0  0  0  0  0  0  0  0  0
   -3.9412  -34.1407  -44.0902 C   0  0  0  0  0  0  0  0  0  0  0  0
   -3.7049  -34.0277  -45.4093 C   0  0  0  0  0  0  0  0  0  0  0  0
   -2.5086  -33.3717  -45.6097 N   0  0  0  0  0  0  0  0  0  0  0  0
   -5.1411  -34.7804  -43.4401 C   0  0  0  0  0  0  0  0  0  0  0  0
   -5.8096  -35.6575  -44.4227 N   0  0  0  0  0  0  0  0  0  0  0  0
  1  2  1  0  0  0  0
  1  7  1  0  0  0  0
  2  3  1  0  0  0  0
  2  4  2  0  0  0  0
  4  5  1  0  0  0  0
  5  6  2  0  0  0  0
  5 11  1  0  0  0  0
  6  7  1  0  0  0  0
  6  9  1  0  0  0  0
  7  8  2  0  0  0  0
  9 10  2  0  0  0  0
  9 12  1  0  0  0  0
 10 11  1  0  0  0  0
 12 13  1  0  0  0  0
M  END
>  <CHROM.1>
-161.81983578,-2.57283180,-33.42093802,-43.42380218,0.30944858,0.53342616
1.55657570

>  <Name>
ligand

>  <RI>
0

>  <Rbt.Current_Directory>
/home/itssahil/PROJECTS/Mol_Feturizer/Test_systems_manuscript/rnas/3fu2

>  <Rbt.Executable>
rbdock ($Id: //depot/dev/client3/rdock/2013.1/src/exe/rbdock.cxx#4 $)

>  <Rbt.Library>
libRbt.so (2013.1, Build901 2013/11/27)

>  <Rbt.Parameter_File>
/export/apps/rDock/src/rDock_2013.1_src/data/scripts/dock_solv.prm

>  <Rbt.Receptor>
prm/pocket_docking_7.prm

>  <SCORE>
-16.336

>  <SCORE.INTER>
-16.167

>  <SCORE.INTER.CONST>
1

>  <SCORE.INTER.POLAR>
0

>  <SCORE.INTER.ROT>
1

>  <SCORE.INTER.SOLV>
16.0138

>  <SCORE.INTER.VDW>
-20.3826

>  <SCORE.INTER.norm>
-1.24361

>  <SCORE.INTRA>
-0.168993

>  <SCORE.INTRA.DIHEDRAL>
-0.00119456

>  <SCORE.INTRA.DIHEDRAL.0>
1.66609

>  <SCORE.INTRA.POLAR>
0

>  <SCORE.INTRA.POLAR.0>
0

>  <SCORE.INTRA.REPUL>
0

>  <SCORE.INTRA.REPUL.0>
0

>  <SCORE.INTRA.SOLV>
-0.982093

>  <SCORE.INTRA.SOLV.lig_0>
-45.868

>  <SCORE.INTRA.VDW>
0.322651

>  <SCORE.INTRA.VDW.0>
-0.397919

>  <SCORE.INTRA.norm>
-0.0129995

>  <SCORE.RESTR>
0

>  <SCORE.RESTR.CAVITY>
0

>  <SCORE.RESTR.norm>
0

>  <SCORE.SYSTEM>
0

>  <SCORE.SYSTEM.CONST>
0

>  <SCORE.SYSTEM.DIHEDRAL>
0

>  <SCORE.SYSTEM.SOLV>
0

>  <SCORE.SYSTEM.norm>
0

>  <SCORE.heavy>
13

>  <SCORE.norm>
-1.25661

>  <RMSD>
4.823

$$$$
ligand
 OpenBabel02271912143D
libRbt.so/2013.1/901 2013/11/27
 13 14  0  0  0  0  0  0  0  0999 V2000
   -1.2880  -32.6679  -41.7673 N   0  0  0  0  0  0  0  0  0  0  0  0
   -0.4740  -32.2290  -42.7770 C   0  0  0  0  0  0  0  0  0  0  0  0
    0.6890  -31.5838  -42.4554 N   0  0  0  0  0  0  0  0  0  0  0  0
   -0.7924  -32.4196  -44.0577 N   0  0  0  0  0  0  0  0  0  0  0  0
   -1.9422  -33.0571  -44.4129 C   0  0  0  0  0  0  0  0  0  0  0  0
   -2.8148  -33.5239  -43.4055 C   0  0  0  0  0  0  0  0  0  0  0  0
   -2.4547  -33.3134  -42.0469 C   0  0  0  0  0  0  0  0  0  0  0  0
   -3.1677  -33.6983  -41.1535 O   0  0  0  0  0  0  0  0  0  0  0  0
   -3.9429  -34.1479  -44.0896 C   0  0  0  0  0  0  0  0  0  0  0  0
   -3.7045  -34.0378  -45.4086 C   0  0  0  0  0  0  0  0  0  0  0  0
   -2.5065  -33.3847  -45.6085 N   0  0  0  0  0  0  0  0  0  0  0  0
   -5.1451  -34.7839  -43.4400 C   0  0  0  0  0  0  0  0  0  0  0  0
   -5.7918  -35.6911  -44.4098 N   0  0  0  0  0  0  0  0  0  0  0  0
  1  2  1  0  0  0  0
  1  7  1  0  0  0  0
  2  3  1  0  0  0  0
  2  4  2  0  0  0  0
  4  5  1  0  0  0  0
  5  6  2  0  0  0  0
  5 11  1  0  0  0  0
  6  7  1  0  0  0  0
  6  9  1  0  0  0  0
  7  8  2  0  0  0  0
  9 10  2  0  0  0  0
  9 12  1  0  0  0  0
 10 11  1  0  0  0  0
 12 13  1  0  0  0  0
M  END
>  <CHROM.1>
-160.21683771,-2.57218423,-33.43220823,-43.42157708,0.31022044,0.53393722
1.55362113

>  <Name>
ligand

>  <RI>
0

>  <Rbt.Current_Directory>
/home/itssahil/PROJECTS/Mol_Feturizer/Test_systems_manuscript/rnas/3fu2

>  <Rbt.Executable>
rbdock ($Id: //depot/dev/client3/rdock/2013.1/src/exe/rbdock.cxx#4 $)

>  <Rbt.Library>
libRbt.so (2013.1, Build901 2013/11/27)

>  <Rbt.Parameter_File>
/export/apps/rDock/src/rDock_2013.1_src/data/scripts/dock_solv.prm

>  <Rbt.Receptor>
prm/pocket_docking_8.prm

>  <SCORE>
-16.326

>  <SCORE.INTER>
-16.1501

>  <SCORE.INTER.CONST>
1

>  <SCORE.INTER.POLAR>
0

>  <SCORE.INTER.ROT>
1

>  <SCORE.INTER.SOLV>
16.0309

>  <SCORE.INTER.VDW>
-20.3771

>  <SCORE.INTER.norm>
-1.24232

>  <SCORE.INTRA>
-0.175889

>  <SCORE.INTRA.DIHEDRAL>
-0.00202255

>  <SCORE.INTRA.DIHEDRAL.0>
1.66609

>  <SCORE.INTRA.POLAR>
0

>  <SCORE.INTRA.POLAR.0>
0

>  <SCORE.INTRA.REPUL>
0

>  <SCORE.INTRA.REPUL.0>
0

>  <SCORE.INTRA.SOLV>
-0.982576

>  <SCORE.INTRA.SOLV.lig_0>
-45.868

>  <SCORE.INTRA.VDW>
0.31641

>  <SCORE.INTRA.VDW.0>
-0.397919

>  <SCORE.INTRA.norm>
-0.0135299

>  <SCORE.RESTR>
0

>  <SCORE.RESTR.CAVITY>
0

>  <SCORE.RESTR.norm>
0

>  <SCORE.SYSTEM>
0

>  <SCORE.SYSTEM.CONST>
0

>  <SCORE.SYSTEM.DIHEDRAL>
0

>  <SCORE.SYSTEM.SOLV>
0

>  <SCORE.SYSTEM.norm>
0

>  <SCORE.heavy>
13

>  <SCORE.norm>
-1.25585

>  <RMSD>
4.823

$$$$
ligand
 OpenBabel02271912143D
libRbt.so/2013.1/901 2013/11/27
 13 14  0  0  0  0  0  0  0  0999 V2000
   -1.2840  -32.6572  -41.7833 N   0  0  0  0  0  0  0  0  0  0  0  0
   -0.4756  -32.2154  -42.7963 C   0  0  0  0  0  0  0  0  0  0  0  0
    0.6868  -31.5670  -42.4793 N   0  0  0  0  0  0  0  0  0  0  0  0
   -0.7990  -32.4063  -44.0757 N   0  0  0  0  0  0  0  0  0  0  0  0
   -1.9484  -33.0470  -44.4263 C   0  0  0  0  0  0  0  0  0  0  0  0
   -2.8153  -33.5168  -43.4155 C   0  0  0  0  0  0  0  0  0  0  0  0
   -2.4500  -33.3059  -42.0583 C   0  0  0  0  0  0  0  0  0  0  0  0
   -3.1581  -33.6934  -41.1620 O   0  0  0  0  0  0  0  0  0  0  0  0
   -3.9446  -34.1438  -44.0950 C   0  0  0  0  0  0  0  0  0  0  0  0
   -3.7121  -34.0324  -45.4149 C   0  0  0  0  0  0  0  0  0  0  0  0
   -2.5169  -33.3757  -45.6196 N   0  0  0  0  0  0  0  0  0  0  0  0
   -5.1421  -34.7836  -43.4406 C   0  0  0  0  0  0  0  0  0  0  0  0
   -5.8232  -35.6483  -44.4255 N   0  0  0  0  0  0  0  0  0  0  0  0
  1  2  1  0  0  0  0
  1  7  1  0  0  0  0
  2  3  1  0  0  0  0
  2  4  2  0  0  0  0
  4  5  1  0  0  0  0
  5  6  2  0  0  0  0
  5 11  1  0  0  0  0
  6  7  1  0  0  0  0
  6  9  1  0  0  0  0
  7  8  2  0  0  0  0
  9 10  2  0  0  0  0
  9 12  1  0  0  0  0
 10 11  1  0  0  0  0
 12 13  1  0  0  0  0
M  END
>  <CHROM.1>
-162.57662587,-2.57573653,-33.42084338,-43.43389870,0.30652495,0.53301258
1.55704611

>  <Name>
ligand

>  <RI>
0

>  <Rbt.Current_Directory>
/home/itssahil/PROJECTS/Mol_Feturizer/Test_systems_manuscript/rnas/3fu2

>  <Rbt.Executable>
rbdock ($Id: //depot/dev/client3/rdock/2013.1/src/exe/rbdock.cxx#4 $)

>  <Rbt.Library>
libRbt.so (2013.1, Build901 2013/11/27)

>  <Rbt.Parameter_File>
/export/apps/rDock/src/rDock_2013.1_src/data/scripts/dock_solv.prm

>  <Rbt.Receptor>
prm/pocket_docking_8.prm

>  <SCORE>
-16.3286

>  <SCORE.INTER>
-16.1628

>  <SCORE.INTER.CONST>
1

>  <SCORE.INTER.POLAR>
0

>  <SCORE.INTER.ROT>
1

>  <SCORE.INTER.SOLV>
16.0191

>  <SCORE.INTER.VDW>
-20.3816

>  <SCORE.INTER.norm>
-1.24329

>  <SCORE.INTRA>
-0.165836

>  <SCORE.INTRA.DIHEDRAL>
-0.000766323

>  <SCORE.INTRA.DIHEDRAL.0>
1.66609

>  <SCORE.INTRA.POLAR>
0

>  <SCORE.INTRA.POLAR.0>
0

>  <SCORE.INTRA.REPUL>
0

>  <SCORE.INTRA.REPUL.0>
0

>  <SCORE.INTRA.SOLV>
-0.981875

>  <SCORE.INTRA.SOLV.lig_0>
-45.868

>  <SCORE.INTRA.VDW>
0.325484

>  <SCORE.INTRA.VDW.0>
-0.397919

>  <SCORE.INTRA.norm>
-0.0127566

>  <SCORE.RESTR>
0

>  <SCORE.RESTR.CAVITY>
0

>  <SCORE.RESTR.norm>
0

>  <SCORE.SYSTEM>
0

>  <SCORE.SYSTEM.CONST>
0

>  <SCORE.SYSTEM.DIHEDRAL>
0

>  <SCORE.SYSTEM.SOLV>
0

>  <SCORE.SYSTEM.norm>
0

>  <SCORE.heavy>
13

>  <SCORE.norm>
-1.25605

>  <RMSD>
4.823

$$$$
ligand
 OpenBabel02271912143D
libRbt.so/2013.1/901 2013/11/27
 13 14  0  0  0  0  0  0  0  0999 V2000
   -1.2812  -32.6871  -41.7849 N   0  0  0  0  0  0  0  0  0  0  0  0
   -0.4671  -32.2482  -42.7946 C   0  0  0  0  0  0  0  0  0  0  0  0
    0.7001  -31.6108  -42.4727 N   0  0  0  0  0  0  0  0  0  0  0  0
   -0.7896  -32.4313  -44.0753 N   0  0  0  0  0  0  0  0  0  0  0  0
   -1.9437  -33.0608  -44.4307 C   0  0  0  0  0  0  0  0  0  0  0  0
   -2.8165  -33.5273  -43.4234 C   0  0  0  0  0  0  0  0  0  0  0  0
   -2.4521  -33.3248  -42.0646 C   0  0  0  0  0  0  0  0  0  0  0  0
   -3.1652  -33.7099  -41.1713 O   0  0  0  0  0  0  0  0  0  0  0  0
   -3.9496  -34.1420  -44.1076 C   0  0  0  0  0  0  0  0  0  0  0  0
   -3.7137  -34.0274  -45.4266 C   0  0  0  0  0  0  0  0  0  0  0  0
   -2.5125  -33.3800  -45.6264 N   0  0  0  0  0  0  0  0  0  0  0  0
   -5.1538  -34.7743  -43.4581 C   0  0  0  0  0  0  0  0  0  0  0  0
   -5.8329  -35.6395  -44.4439 N   0  0  0  0  0  0  0  0  0  0  0  0
  1  2  1  0  0  0  0
  1  7  1  0  0  0  0
  2  3  1  0  0  0  0
  2  4  2  0  0  0  0
  4  5  1  0  0  0  0
  5  6  2  0  0  0  0
  5 11  1  0  0  0  0
  6  7  1  0  0  0  0
  6  9  1  0  0  0  0
  7  8  2  0  0  0  0
  9 10  2  0  0  0  0
  9 12  1  0  0  0  0
 10 11  1  0  0  0  0
 12 13  1  0  0  0  0
M  END
>  <CHROM.1>
-162.04134670,-2.57546731,-33.43411556,-43.44067064,0.30841443,0.52543882
1.55981372

>  <Name>
ligand

>  <RI>
0

>  <Rbt.Current_Directory>
/home/itssahil/PROJECTS/Mol_Feturizer/Test_systems_manuscript/rnas/3fu2

>  <Rbt.Executable>
rbdock ($Id: //depot/dev/client3/rdock/2013.1/src/exe/rbdock.cxx#4 $)

>  <Rbt.Library>
libRbt.so (2013.1, Build901 2013/11/27)

>  <Rbt.Parameter_File>
/export/apps/rDock/src/rDock_2013.1_src/data/scripts/dock_solv.prm

>  <Rbt.Receptor>
prm/pocket_docking_8.prm

>  <SCORE>
-16.3153

>  <SCORE.INTER>
-16.1473

>  <SCORE.INTER.CONST>
1

>  <SCORE.INTER.POLAR>
0

>  <SCORE.INTER.ROT>
1

>  <SCORE.INTER.SOLV>
16.0089

>  <SCORE.INTER.VDW>
-20.3678

>  <SCORE.INTER.norm>
-1.2421

>  <SCORE.INTRA>
-0.168062

>  <SCORE.INTRA.DIHEDRAL>
-0.00107164

>  <SCORE.INTRA.DIHEDRAL.0>
1.66609

>  <SCORE.INTRA.POLAR>
0

>  <SCORE.INTRA.POLAR.0>
0

>  <SCORE.INTRA.REPUL>
0

>  <SCORE.INTRA.REPUL.0>
0

>  <SCORE.INTRA.SOLV>
-0.982029

>  <SCORE.INTRA.SOLV.lig_0>
-45.868

>  <SCORE.INTRA.VDW>
0.323488

>  <SCORE.INTRA.VDW.0>
-0.397919

>  <SCORE.INTRA.norm>
-0.0129278

>  <SCORE.RESTR>
0

>  <SCORE.RESTR.CAVITY>
0

>  <SCORE.RESTR.norm>
0

>  <SCORE.SYSTEM>
0

>  <SCORE.SYSTEM.CONST>
0

>  <SCORE.SYSTEM.DIHEDRAL>
0

>  <SCORE.SYSTEM.SOLV>
0

>  <SCORE.SYSTEM.norm>
0

>  <SCORE.heavy>
13

>  <SCORE.norm>
-1.25502

>  <RMSD>
4.823

$$$$
ligand
 OpenBabel02271912143D
libRbt.so/2013.1/901 2013/11/27
 13 14  0  0  0  0  0  0  0  0999 V2000
   -1.2569  -32.6713  -41.7851 N   0  0  0  0  0  0  0  0  0  0  0  0
   -0.4419  -32.2466  -42.8001 C   0  0  0  0  0  0  0  0  0  0  0  0
    0.7295  -31.6131  -42.4860 N   0  0  0  0  0  0  0  0  0  0  0  0
   -0.7675  -32.4397  -44.0785 N   0  0  0  0  0  0  0  0  0  0  0  0
   -1.9258  -33.0658  -44.4262 C   0  0  0  0  0  0  0  0  0  0  0  0
   -2.7997  -33.5178  -43.4132 C   0  0  0  0  0  0  0  0  0  0  0  0
   -2.4319  -33.3048  -42.0570 C   0  0  0  0  0  0  0  0  0  0  0  0
   -3.1458  -33.6773  -41.1590 O   0  0  0  0  0  0  0  0  0  0  0  0
   -3.9375  -34.1322  -44.0899 C   0  0  0  0  0  0  0  0  0  0  0  0
   -3.7030  -34.0312  -45.4103 C   0  0  0  0  0  0  0  0  0  0  0  0
   -2.4984  -33.3928  -45.6180 N   0  0  0  0  0  0  0  0  0  0  0  0
   -5.1443  -34.7513  -43.4327 C   0  0  0  0  0  0  0  0  0  0  0  0
   -5.8108  -35.6479  -44.3989 N   0  0  0  0  0  0  0  0  0  0  0  0
  1  2  1  0  0  0  0
  1  7  1  0  0  0  0
  2  3  1  0  0  0  0
  2  4  2  0  0  0  0
  4  5  1  0  0  0  0
  5  6  2  0  0  0  0
  5 11  1  0  0  0  0
  6  7  1  0  0  0  0
  6  9  1  0  0  0  0
  7  8  2  0  0  0  0
  9 10  2  0  0  0  0
  9 12  1  0  0  0  0
 10 11  1  0  0  0  0
 12 13  1  0  0  0  0
M  END
>  <CHROM.1>
-160.64125519,-2.55660561,-33.42829212,-43.43092959,0.30574377,0.52193570
1.55121173

>  <Name>
ligand

>  <RI>
0

>  <Rbt.Current_Directory>
/home/itssahil/PROJECTS/Mol_Feturizer/Test_systems_manuscript/rnas/3fu2

>  <Rbt.Executable>
rbdock ($Id: //depot/dev/client3/rdock/2013.1/src/exe/rbdock.cxx#4 $)

>  <Rbt.Library>
libRbt.so (2013.1, Build901 2013/11/27)

>  <Rbt.Parameter_File>
/export/apps/rDock/src/rDock_2013.1_src/data/scripts/dock_solv.prm

>  <Rbt.Receptor>
prm/blind_docking_100.prm

>  <SCORE>
-16.2673

>  <SCORE.INTER>
-16.0933

>  <SCORE.INTER.CONST>
1

>  <SCORE.INTER.POLAR>
0

>  <SCORE.INTER.ROT>
1

>  <SCORE.INTER.SOLV>
16.0218

>  <SCORE.INTER.VDW>
-20.3361

>  <SCORE.INTER.norm>
-1.23795

>  <SCORE.INTRA>
-0.174037

>  <SCORE.INTRA.DIHEDRAL>
-0.00181402

>  <SCORE.INTRA.DIHEDRAL.0>
1.66609

>  <SCORE.INTRA.POLAR>
0

>  <SCORE.INTRA.POLAR.0>
0

>  <SCORE.INTRA.REPUL>
0

>  <SCORE.INTRA.REPUL.0>
0

>  <SCORE.INTRA.SOLV>
-0.982445

>  <SCORE.INTRA.SOLV.lig_0>
-45.868

>  <SCORE.INTRA.VDW>
0.318092

>  <SCORE.INTRA.VDW.0>
-0.397919

>  <SCORE.INTRA.norm>
-0.0133875

>  <SCORE.RESTR>
0

>  <SCORE.RESTR.CAVITY>
0

>  <SCORE.RESTR.norm>
0

>  <SCORE.SYSTEM>
0

>  <SCORE.SYSTEM.CONST>
0

>  <SCORE.SYSTEM.DIHEDRAL>
0

>  <SCORE.SYSTEM.SOLV>
0

>  <SCORE.SYSTEM.norm>
0

>  <SCORE.heavy>
13

>  <SCORE.norm>
-1.25133

>  <RMSD>
4.824

$$$$
ligand
 OpenBabel02271912143D
libRbt.so/2013.1/901 2013/11/27
 13 14  0  0  0  0  0  0  0  0999 V2000
   -1.2809  -32.6533  -41.7855 N   0  0  0  0  0  0  0  0  0  0  0  0
   -0.4729  -32.2122  -42.7992 C   0  0  0  0  0  0  0  0  0  0  0  0
    0.6917  -31.5673  -42.4830 N   0  0  0  0  0  0  0  0  0  0  0  0
   -0.7988  -32.4004  -44.0783 N   0  0  0  0  0  0  0  0  0  0  0  0
   -1.9504  -33.0376  -44.4281 C   0  0  0  0  0  0  0  0  0  0  0  0
   -2.8170  -33.5066  -43.4165 C   0  0  0  0  0  0  0  0  0  0  0  0
   -2.4490  -33.2986  -42.0596 C   0  0  0  0  0  0  0  0  0  0  0  0
   -3.1568  -33.6855  -41.1628 O   0  0  0  0  0  0  0  0  0  0  0  0
   -3.9489  -34.1296  -44.0952 C   0  0  0  0  0  0  0  0  0  0  0  0
   -3.7183  -34.0169  -45.4153 C   0  0  0  0  0  0  0  0  0  0  0  0
   -2.5216  -33.3631  -45.6209 N   0  0  0  0  0  0  0  0  0  0  0  0
   -5.1472  -34.7672  -43.4398 C   0  0  0  0  0  0  0  0  0  0  0  0
   -5.8000  -35.6715  -44.4081 N   0  0  0  0  0  0  0  0  0  0  0  0
  1  2  1  0  0  0  0
  1  7  1  0  0  0  0
  2  3  1  0  0  0  0
  2  4  2  0  0  0  0
  4  5  1  0  0  0  0
  5  6  2  0  0  0  0
  5 11  1  0  0  0  0
  6  7  1  0  0  0  0
  6  9  1  0  0  0  0
  7  8  2  0  0  0  0
  9 10  2  0  0  0  0
  9 12  1  0  0  0  0
 10 11  1  0  0  0  0
 12 13  1  0  0  0  0
M  END
>  <CHROM.1>
-160.27767865,-2.57458821,-33.41469750,-43.43380415,0.30348545,0.53419907
1.55900735

>  <Name>
ligand

>  <RI>
0

>  <Rbt.Current_Directory>
/home/itssahil/PROJECTS/Mol_Feturizer/Test_systems_manuscript/rnas/3fu2

>  <Rbt.Executable>
rbdock ($Id: //depot/dev/client3/rdock/2013.1/src/exe/rbdock.cxx#4 $)

>  <Rbt.Library>
libRbt.so (2013.1, Build901 2013/11/27)

>  <Rbt.Parameter_File>
/export/apps/rDock/src/rDock_2013.1_src/data/scripts/dock_solv.prm

>  <Rbt.Receptor>
prm/blind_docking_60.prm

>  <SCORE>
-16.3125

>  <SCORE.INTER>
-16.1369

>  <SCORE.INTER.CONST>
1

>  <SCORE.INTER.POLAR>
0

>  <SCORE.INTER.ROT>
1

>  <SCORE.INTER.SOLV>
16.0238

>  <SCORE.INTER.VDW>
-20.3658

>  <SCORE.INTER.norm>
-1.2413

>  <SCORE.INTRA>
-0.175623

>  <SCORE.INTRA.DIHEDRAL>
-0.00199314

>  <SCORE.INTRA.DIHEDRAL.0>
1.66609

>  <SCORE.INTRA.POLAR>
0

>  <SCORE.INTRA.POLAR.0>
0

>  <SCORE.INTRA.REPUL>
0

>  <SCORE.INTRA.REPUL.0>
0

>  <SCORE.INTRA.SOLV>
-0.982557

>  <SCORE.INTRA.SOLV.lig_0>
-45.868

>  <SCORE.INTRA.VDW>
0.316652

>  <SCORE.INTRA.VDW.0>
-0.397919

>  <SCORE.INTRA.norm>
-0.0135094

>  <SCORE.RESTR>
0

>  <SCORE.RESTR.CAVITY>
0

>  <SCORE.RESTR.norm>
0

>  <SCORE.SYSTEM>
0

>  <SCORE.SYSTEM.CONST>
0

>  <SCORE.SYSTEM.DIHEDRAL>
0

>  <SCORE.SYSTEM.SOLV>
0

>  <SCORE.SYSTEM.norm>
0

>  <SCORE.heavy>
13

>  <SCORE.norm>
-1.25481

>  <RMSD>
4.824

$$$$
ligand
 OpenBabel02271912143D
libRbt.so/2013.1/901 2013/11/27
 13 14  0  0  0  0  0  0  0  0999 V2000
   -1.2547  -32.6746  -41.7942 N   0  0  0  0  0  0  0  0  0  0  0  0
   -0.4419  -32.2465  -42.8096 C   0  0  0  0  0  0  0  0  0  0  0  0
    0.7292  -31.6121  -42.4959 N   0  0  0  0  0  0  0  0  0  0  0  0
   -0.7692  -32.4372  -44.0880 N   0  0  0  0  0  0  0  0  0  0  0  0
   -1.9272  -33.0642  -44.4352 C   0  0  0  0  0  0  0  0  0  0  0  0
   -2.7988  -33.5197  -43.4219 C   0  0  0  0  0  0  0  0  0  0  0  0
   -2.4292  -33.3092  -42.0658 C   0  0  0  0  0  0  0  0  0  0  0  0
   -3.1412  -33.6847  -41.1675 O   0  0  0  0  0  0  0  0  0  0  0  0
   -3.9369  -34.1341  -44.0981 C   0  0  0  0  0  0  0  0  0  0  0  0
   -3.7046  -34.0299  -45.4187 C   0  0  0  0  0  0  0  0  0  0  0  0
   -2.5012  -33.3893  -45.6268 N   0  0  0  0  0  0  0  0  0  0  0  0
   -5.1418  -34.7564  -43.4404 C   0  0  0  0  0  0  0  0  0  0  0  0
   -5.8243  -35.6304  -44.4161 N   0  0  0  0  0  0  0  0  0  0  0  0
  1  2  1  0  0  0  0
  1  7  1  0  0  0  0
  2  3  1  0  0  0  0
  2  4  2  0  0  0  0
  4  5  1  0  0  0  0
  5  6  2  0  0  0  0
  5 11  1  0  0  0  0
  6  7  1  0  0  0  0
  6  9  1  0  0  0  0
  7  8  2  0  0  0  0
  9 10  2  0  0  0  0
  9 12  1  0  0  0  0
 10 11  1  0  0  0  0
 12 13  1  0  0  0  0
M  END
>  <CHROM.1>
-161.78537312,-2.55718259,-33.42802897,-43.44044446,0.30456230,0.52148567
1.55453920

>  <Name>
ligand

>  <RI>
0

>  <Rbt.Current_Directory>
/home/itssahil/PROJECTS/Mol_Feturizer/Test_systems_manuscript/rnas/3fu2

>  <Rbt.Executable>
rbdock ($Id: //depot/dev/client3/rdock/2013.1/src/exe/rbdock.cxx#4 $)

>  <Rbt.Library>
libRbt.so (2013.1, Build901 2013/11/27)

>  <Rbt.Parameter_File>
/export/apps/rDock/src/rDock_2013.1_src/data/scripts/dock_solv.prm

>  <Rbt.Receptor>
prm/blind_docking_60.prm

>  <SCORE>
-16.3052

>  <SCORE.INTER>
-16.1361

>  <SCORE.INTER.CONST>
1

>  <SCORE.INTER.POLAR>
0

>  <SCORE.INTER.ROT>
1

>  <SCORE.INTER.SOLV>
16.0277

>  <SCORE.INTER.VDW>
-20.3666

>  <SCORE.INTER.norm>
-1.24123

>  <SCORE.INTRA>
-0.169138

>  <SCORE.INTRA.DIHEDRAL>
-0.00121351

>  <SCORE.INTRA.DIHEDRAL.0>
1.66609

>  <SCORE.INTRA.POLAR>
0

>  <SCORE.INTRA.POLAR.0>
0

>  <SCORE.INTRA.REPUL>
0

>  <SCORE.INTRA.REPUL.0>
0

>  <SCORE.INTRA.SOLV>
-0.982103

>  <SCORE.INTRA.SOLV.lig_0>
-45.868

>  <SCORE.INTRA.VDW>
0.32252

>  <SCORE.INTRA.VDW.0>
-0.397919

>  <SCORE.INTRA.norm>
-0.0130106

>  <SCORE.RESTR>
0

>  <SCORE.RESTR.CAVITY>
0

>  <SCORE.RESTR.norm>
0

>  <SCORE.SYSTEM>
0

>  <SCORE.SYSTEM.CONST>
0

>  <SCORE.SYSTEM.DIHEDRAL>
0

>  <SCORE.SYSTEM.SOLV>
0

>  <SCORE.SYSTEM.norm>
0

>  <SCORE.heavy>
13

>  <SCORE.norm>
-1.25425

>  <RMSD>
4.824

$$$$
ligand
 OpenBabel02271912143D
libRbt.so/2013.1/901 2013/11/27
 13 14  0  0  0  0  0  0  0  0999 V2000
   -1.2472  -32.6399  -41.7643 N   0  0  0  0  0  0  0  0  0  0  0  0
   -0.4482  -32.1979  -42.7846 C   0  0  0  0  0  0  0  0  0  0  0  0
    0.7152  -31.5461  -42.4782 N   0  0  0  0  0  0  0  0  0  0  0  0
   -0.7816  -32.3918  -44.0610 N   0  0  0  0  0  0  0  0  0  0  0  0
   -1.9322  -33.0358  -44.4012 C   0  0  0  0  0  0  0  0  0  0  0  0
   -2.7897  -33.5061  -43.3824 C   0  0  0  0  0  0  0  0  0  0  0  0
   -2.4138  -33.2919  -42.0286 C   0  0  0  0  0  0  0  0  0  0  0  0
   -3.1137  -33.6796  -41.1260 O   0  0  0  0  0  0  0  0  0  0  0  0
   -3.9229  -34.1369  -44.0517 C   0  0  0  0  0  0  0  0  0  0  0  0
   -3.7015  -34.0272  -45.3736 C   0  0  0  0  0  0  0  0  0  0  0  0
   -2.5096  -33.3679  -45.5892 N   0  0  0  0  0  0  0  0  0  0  0  0
   -5.1135  -34.7785  -43.3865 C   0  0  0  0  0  0  0  0  0  0  0  0
   -5.7901  -35.6605  -44.3591 N   0  0  0  0  0  0  0  0  0  0  0  0
  1  2  1  0  0  0  0
  1  7  1  0  0  0  0
  2  3  1  0  0  0  0
  2  4  2  0  0  0  0
  4  5  1  0  0  0  0
  5  6  2  0  0  0  0
  5 11  1  0  0  0  0
  6  7  1  0  0  0  0
  6  9  1  0  0  0  0
  7  8  2  0  0  0  0
  9 10  2  0  0  0  0
  9 12  1  0  0  0  0
 10 11  1  0  0  0  0
 12 13  1  0  0  0  0
M  END
>  <CHROM.1>
-161.83172395,-2.54967094,-33.41066918,-43.40258049,0.29671002,0.53678502
1.56003228

>  <Name>
ligand

>  <RI>
0

>  <Rbt.Current_Directory>
/home/itssahil/PROJECTS/Mol_Feturizer/Test_systems_manuscript/rnas/3fu2

>  <Rbt.Executable>
rbdock ($Id: //depot/dev/client3/rdock/2013.1/src/exe/rbdock.cxx#4 $)

>  <Rbt.Library>
libRbt.so (2013.1, Build901 2013/11/27)

>  <Rbt.Parameter_File>
/export/apps/rDock/src/rDock_2013.1_src/data/scripts/dock_solv.prm

>  <Rbt.Receptor>
prm/pocket_docking_3.prm

>  <SCORE>
-16.2252

>  <SCORE.INTER>
-16.0563

>  <SCORE.INTER.CONST>
1

>  <SCORE.INTER.POLAR>
0

>  <SCORE.INTER.ROT>
1

>  <SCORE.INTER.SOLV>
15.9682

>  <SCORE.INTER.VDW>
-20.2936

>  <SCORE.INTER.norm>
-1.2351

>  <SCORE.INTRA>
-0.168943

>  <SCORE.INTRA.DIHEDRAL>
-0.00118802

>  <SCORE.INTRA.DIHEDRAL.0>
1.66609

>  <SCORE.INTRA.POLAR>
0

>  <SCORE.INTRA.POLAR.0>
0

>  <SCORE.INTRA.REPUL>
0

>  <SCORE.INTRA.REPUL.0>
0

>  <SCORE.INTRA.SOLV>
-0.98209

>  <SCORE.INTRA.SOLV.lig_0>
-45.868

>  <SCORE.INTRA.VDW>
0.322696

>  <SCORE.INTRA.VDW.0>
-0.397919

>  <SCORE.INTRA.norm>
-0.0129956

>  <SCORE.RESTR>
0

>  <SCORE.RESTR.CAVITY>
0

>  <SCORE.RESTR.norm>
0

>  <SCORE.SYSTEM>
0

>  <SCORE.SYSTEM.CONST>
0

>  <SCORE.SYSTEM.DIHEDRAL>
0

>  <SCORE.SYSTEM.SOLV>
0

>  <SCORE.SYSTEM.norm>
0

>  <SCORE.heavy>
13

>  <SCORE.norm>
-1.24809

>  <RMSD>
4.824

$$$$
ligand
 OpenBabel02271912143D
libRbt.so/2013.1/901 2013/11/27
 13 14  0  0  0  0  0  0  0  0999 V2000
   -1.2557  -32.6997  -41.7808 N   0  0  0  0  0  0  0  0  0  0  0  0
   -0.4460  -32.2612  -42.7942 C   0  0  0  0  0  0  0  0  0  0  0  0
    0.7247  -31.6275  -42.4777 N   0  0  0  0  0  0  0  0  0  0  0  0
   -0.7760  -32.4411  -44.0735 N   0  0  0  0  0  0  0  0  0  0  0  0
   -1.9337  -33.0669  -44.4236 C   0  0  0  0  0  0  0  0  0  0  0  0
   -2.8022  -33.5330  -43.4123 C   0  0  0  0  0  0  0  0  0  0  0  0
   -2.4298  -33.3339  -42.0553 C   0  0  0  0  0  0  0  0  0  0  0  0
   -3.1390  -33.7186  -41.1587 O   0  0  0  0  0  0  0  0  0  0  0  0
   -3.9407  -34.1434  -44.0914 C   0  0  0  0  0  0  0  0  0  0  0  0
   -3.7118  -34.0270  -45.4114 C   0  0  0  0  0  0  0  0  0  0  0  0
   -2.5100  -33.3825  -45.6167 N   0  0  0  0  0  0  0  0  0  0  0  0
   -5.1430  -34.7736  -43.4363 C   0  0  0  0  0  0  0  0  0  0  0  0
   -5.8070  -35.6662  -44.4079 N   0  0  0  0  0  0  0  0  0  0  0  0
  1  2  1  0  0  0  0
  1  7  1  0  0  0  0
  2  3  1  0  0  0  0
  2  4  2  0  0  0  0
  4  5  1  0  0  0  0
  5  6  2  0  0  0  0
  5 11  1  0  0  0  0
  6  7  1  0  0  0  0
  6  9  1  0  0  0  0
  7  8  2  0  0  0  0
  9 10  2  0  0  0  0
  9 12  1  0  0  0  0
 10 11  1  0  0  0  0
 12 13  1  0  0  0  0
M  END
>  <CHROM.1>
-160.38936709,-2.55918872,-33.44287468,-43.42980234,0.30112506,0.52556205
1.56453008

>  <Name>
ligand

>  <RI>
0

>  <Rbt.Current_Directory>
/home/itssahil/PROJECTS/Mol_Feturizer/Test_systems_manuscript/rnas/3fu2

>  <Rbt.Executable>
rbdock ($Id: //depot/dev/client3/rdock/2013.1/src/exe/rbdock.cxx#4 $)

>  <Rbt.Library>
libRbt.so (2013.1, Build901 2013/11/27)

>  <Rbt.Parameter_File>
/export/apps/rDock/src/rDock_2013.1_src/data/scripts/dock_solv.prm

>  <Rbt.Receptor>
prm/pocket_docking_3.prm

>  <SCORE>
-16.3158

>  <SCORE.INTER>
-16.1407

>  <SCORE.INTER.CONST>
1

>  <SCORE.INTER.POLAR>
0

>  <SCORE.INTER.ROT>
1

>  <SCORE.INTER.SOLV>
15.9911

>  <SCORE.INTER.VDW>
-20.3575

>  <SCORE.INTER.norm>
-1.24159

>  <SCORE.INTRA>
-0.175134

>  <SCORE.INTRA.DIHEDRAL>
-0.00193873

>  <SCORE.INTRA.DIHEDRAL.0>
1.66609

>  <SCORE.INTRA.POLAR>
0

>  <SCORE.INTRA.POLAR.0>
0

>  <SCORE.INTRA.REPUL>
0

>  <SCORE.INTRA.REPUL.0>
0

>  <SCORE.INTRA.SOLV>
-0.982522

>  <SCORE.INTRA.SOLV.lig_0>
-45.868

>  <SCORE.INTRA.VDW>
0.317096

>  <SCORE.INTRA.VDW.0>
-0.397919

>  <SCORE.INTRA.norm>
-0.0134719

>  <SCORE.RESTR>
0

>  <SCORE.RESTR.CAVITY>
0

>  <SCORE.RESTR.norm>
0

>  <SCORE.SYSTEM>
0

>  <SCORE.SYSTEM.CONST>
0

>  <SCORE.SYSTEM.DIHEDRAL>
0

>  <SCORE.SYSTEM.SOLV>
0

>  <SCORE.SYSTEM.norm>
0

>  <SCORE.heavy>
13

>  <SCORE.norm>
-1.25506

>  <RMSD>
4.824

$$$$
ligand
 OpenBabel02271912143D
libRbt.so/2013.1/901 2013/11/27
 13 14  0  0  0  0  0  0  0  0999 V2000
   -1.2575  -32.6772  -41.7818 N   0  0  0  0  0  0  0  0  0  0  0  0
   -0.4405  -32.2480  -42.7934 C   0  0  0  0  0  0  0  0  0  0  0  0
    0.7309  -31.6171  -42.4742 N   0  0  0  0  0  0  0  0  0  0  0  0
   -0.7642  -32.4344  -44.0733 N   0  0  0  0  0  0  0  0  0  0  0  0
   -1.9225  -33.0577  -44.4261 C   0  0  0  0  0  0  0  0  0  0  0  0
   -2.7984  -33.5141  -43.4168 C   0  0  0  0  0  0  0  0  0  0  0  0
   -2.4326  -33.3083  -42.0589 C   0  0  0  0  0  0  0  0  0  0  0  0
   -3.1483  -33.6848  -41.1640 O   0  0  0  0  0  0  0  0  0  0  0  0
   -3.9356  -34.1241  -44.0984 C   0  0  0  0  0  0  0  0  0  0  0  0
   -3.6989  -34.0167  -45.4179 C   0  0  0  0  0  0  0  0  0  0  0  0
   -2.4934  -33.3782  -45.6204 N   0  0  0  0  0  0  0  0  0  0  0  0
   -5.1440  -34.7456  -43.4463 C   0  0  0  0  0  0  0  0  0  0  0  0
   -5.8226  -35.6191  -44.4252 N   0  0  0  0  0  0  0  0  0  0  0  0
  1  2  1  0  0  0  0
  1  7  1  0  0  0  0
  2  3  1  0  0  0  0
  2  4  2  0  0  0  0
  4  5  1  0  0  0  0
  5  6  2  0  0  0  0
  5 11  1  0  0  0  0
  6  7  1  0  0  0  0
  6  9  1  0  0  0  0
  7  8  2  0  0  0  0
  9 10  2  0  0  0  0
  9 12  1  0  0  0  0
 10 11  1  0  0  0  0
 12 13  1  0  0  0  0
M  END
>  <CHROM.1>
-161.58391206,-2.55622557,-33.42330490,-43.43422113,0.30809123,0.51953347
1.55553958

>  <Name>
ligand

>  <RI>
0

>  <Rbt.Current_Directory>
/home/itssahil/PROJECTS/Mol_Feturizer/Test_systems_manuscript/rnas/3fu2

>  <Rbt.Executable>
rbdock ($Id: //depot/dev/client3/rdock/2013.1/src/exe/rbdock.cxx#4 $)

>  <Rbt.Library>
libRbt.so (2013.1, Build901 2013/11/27)

>  <Rbt.Parameter_File>
/export/apps/rDock/src/rDock_2013.1_src/data/scripts/dock_solv.prm

>  <Rbt.Receptor>
prm/pocket_docking_5.prm

>  <SCORE>
-16.2646

>  <SCORE.INTER>
-16.0946

>  <SCORE.INTER.CONST>
1

>  <SCORE.INTER.POLAR>
0

>  <SCORE.INTER.ROT>
1

>  <SCORE.INTER.SOLV>
15.9891

>  <SCORE.INTER.VDW>
-20.3261

>  <SCORE.INTER.norm>
-1.23805

>  <SCORE.INTRA>
-0.169991

>  <SCORE.INTRA.DIHEDRAL>
-0.00132325

>  <SCORE.INTRA.DIHEDRAL.0>
1.66609

>  <SCORE.INTRA.POLAR>
0

>  <SCORE.INTRA.POLAR.0>
0

>  <SCORE.INTRA.REPUL>
0

>  <SCORE.INTRA.REPUL.0>
0

>  <SCORE.INTRA.SOLV>
-0.982162

>  <SCORE.INTRA.SOLV.lig_0>
-45.868

>  <SCORE.INTRA.VDW>
0.321752

>  <SCORE.INTRA.VDW.0>
-0.397919

>  <SCORE.INTRA.norm>
-0.0130762

>  <SCORE.RESTR>
0

>  <SCORE.RESTR.CAVITY>
0

>  <SCORE.RESTR.norm>
0

>  <SCORE.SYSTEM>
0

>  <SCORE.SYSTEM.CONST>
0

>  <SCORE.SYSTEM.DIHEDRAL>
0

>  <SCORE.SYSTEM.SOLV>
0

>  <SCORE.SYSTEM.norm>
0

>  <SCORE.heavy>
13

>  <SCORE.norm>
-1.25112

>  <RMSD>
4.824

$$$$
ligand
 OpenBabel02271912143D
libRbt.so/2013.1/901 2013/11/27
 13 14  0  0  0  0  0  0  0  0999 V2000
   -1.2568  -32.6971  -41.7769 N   0  0  0  0  0  0  0  0  0  0  0  0
   -0.4454  -32.2585  -42.7889 C   0  0  0  0  0  0  0  0  0  0  0  0
    0.7260  -31.6273  -42.4703 N   0  0  0  0  0  0  0  0  0  0  0  0
   -0.7744  -32.4362  -44.0687 N   0  0  0  0  0  0  0  0  0  0  0  0
   -1.9328  -33.0596  -44.4209 C   0  0  0  0  0  0  0  0  0  0  0  0
   -2.8031  -33.5255  -43.4111 C   0  0  0  0  0  0  0  0  0  0  0  0
   -2.4317  -33.3290  -42.0534 C   0  0  0  0  0  0  0  0  0  0  0  0
   -3.1424  -33.7137  -41.1581 O   0  0  0  0  0  0  0  0  0  0  0  0
   -3.9420  -34.1331  -44.0921 C   0  0  0  0  0  0  0  0  0  0  0  0
   -3.7114  -34.0153  -45.4118 C   0  0  0  0  0  0  0  0  0  0  0  0
   -2.5084  -33.3725  -45.6150 N   0  0  0  0  0  0  0  0  0  0  0  0
   -5.1459  -34.7623  -43.4392 C   0  0  0  0  0  0  0  0  0  0  0  0
   -5.8265  -35.6306  -44.4213 N   0  0  0  0  0  0  0  0  0  0  0  0
  1  2  1  0  0  0  0
  1  7  1  0  0  0  0
  2  3  1  0  0  0  0
  2  4  2  0  0  0  0
  4  5  1  0  0  0  0
  5  6  2  0  0  0  0
  5 11  1  0  0  0  0
  6  7  1  0  0  0  0
  6  9  1  0  0  0  0
  7  8  2  0  0  0  0
  9 10  2  0  0  0  0
  9 12  1  0  0  0  0
 10 11  1  0  0  0  0
 12 13  1  0  0  0  0
M  END
>  <CHROM.1>
-161.55357421,-2.56120080,-33.43405423,-43.42892623,0.30291282,0.52196450
1.56553472

>  <Name>
ligand

>  <RI>
0

>  <Rbt.Current_Directory>
/home/itssahil/PROJECTS/Mol_Feturizer/Test_systems_manuscript/rnas/3fu2

>  <Rbt.Executable>
rbdock ($Id: //depot/dev/client3/rdock/2013.1/src/exe/rbdock.cxx#4 $)

>  <Rbt.Library>
libRbt.so (2013.1, Build901 2013/11/27)

>  <Rbt.Parameter_File>
/export/apps/rDock/src/rDock_2013.1_src/data/scripts/dock_solv.prm

>  <Rbt.Receptor>
prm/pocket_docking_6.prm

>  <SCORE>
-16.3156

>  <SCORE.INTER>
-16.1455

>  <SCORE.INTER.CONST>
1

>  <SCORE.INTER.POLAR>
0

>  <SCORE.INTER.ROT>
1

>  <SCORE.INTER.SOLV>
15.9685

>  <SCORE.INTER.VDW>
-20.3532

>  <SCORE.INTER.norm>
-1.24196

>  <SCORE.INTRA>
-0.170119

>  <SCORE.INTRA.DIHEDRAL>
-0.00133963

>  <SCORE.INTRA.DIHEDRAL.0>
1.66609

>  <SCORE.INTRA.POLAR>
0

>  <SCORE.INTRA.POLAR.0>
0

>  <SCORE.INTRA.REPUL>
0

>  <SCORE.INTRA.REPUL.0>
0

>  <SCORE.INTRA.SOLV>
-0.982171

>  <SCORE.INTRA.SOLV.lig_0>
-45.868

>  <SCORE.INTRA.VDW>
0.321636

>  <SCORE.INTRA.VDW.0>
-0.397919

>  <SCORE.INTRA.norm>
-0.0130861

>  <SCORE.RESTR>
0

>  <SCORE.RESTR.CAVITY>
0

>  <SCORE.RESTR.norm>
0

>  <SCORE.SYSTEM>
0

>  <SCORE.SYSTEM.CONST>
0

>  <SCORE.SYSTEM.DIHEDRAL>
0

>  <SCORE.SYSTEM.SOLV>
0

>  <SCORE.SYSTEM.norm>
0

>  <SCORE.heavy>
13

>  <SCORE.norm>
-1.25505

>  <RMSD>
4.824

$$$$
ligand
 OpenBabel02271912143D
libRbt.so/2013.1/901 2013/11/27
 13 14  0  0  0  0  0  0  0  0999 V2000
   -1.2868  -32.6471  -41.7866 N   0  0  0  0  0  0  0  0  0  0  0  0
   -0.4795  -32.2014  -42.7988 C   0  0  0  0  0  0  0  0  0  0  0  0
    0.6789  -31.5465  -42.4806 N   0  0  0  0  0  0  0  0  0  0  0  0
   -0.8002  -32.3947  -44.0785 N   0  0  0  0  0  0  0  0  0  0  0  0
   -1.9457  -33.0418  -44.4303 C   0  0  0  0  0  0  0  0  0  0  0  0
   -2.8112  -33.5160  -43.4203 C   0  0  0  0  0  0  0  0  0  0  0  0
   -2.4488  -33.3024  -42.0628 C   0  0  0  0  0  0  0  0  0  0  0  0
   -3.1560  -33.6934  -41.1672 O   0  0  0  0  0  0  0  0  0  0  0  0
   -3.9361  -34.1494  -44.1010 C   0  0  0  0  0  0  0  0  0  0  0  0
   -3.7026  -34.0374  -45.4207 C   0  0  0  0  0  0  0  0  0  0  0  0
   -2.5108  -33.3742  -45.6242 N   0  0  0  0  0  0  0  0  0  0  0  0
   -5.1310  -34.7955  -43.4479 C   0  0  0  0  0  0  0  0  0  0  0  0
   -5.8139  -35.6539  -44.4371 N   0  0  0  0  0  0  0  0  0  0  0  0
  1  2  1  0  0  0  0
  1  7  1  0  0  0  0
  2  3  1  0  0  0  0
  2  4  2  0  0  0  0
  4  5  1  0  0  0  0
  5  6  2  0  0  0  0
  5 11  1  0  0  0  0
  6  7  1  0  0  0  0
  6  9  1  0  0  0  0
  7  8  2  0  0  0  0
  9 10  2  0  0  0  0
  9 12  1  0  0  0  0
 10 11  1  0  0  0  0
 12 13  1  0  0  0  0
M  END
>  <CHROM.1>
-163.14107077,-2.57280933,-33.41782161,-43.43882724,0.30836880,0.53756433
1.55589658

>  <Name>
ligand

>  <RI>
0

>  <Rbt.Current_Directory>
/home/itssahil/PROJECTS/Mol_Feturizer/Test_systems_manuscript/rnas/3fu2

>  <Rbt.Executable>
rbdock ($Id: //depot/dev/client3/rdock/2013.1/src/exe/rbdock.cxx#4 $)

>  <Rbt.Library>
libRbt.so (2013.1, Build901 2013/11/27)

>  <Rbt.Parameter_File>
/export/apps/rDock/src/rDock_2013.1_src/data/scripts/dock_solv.prm

>  <Rbt.Receptor>
prm/pocket_docking_7.prm

>  <SCORE>
-16.2835

>  <SCORE.INTER>
-16.12

>  <SCORE.INTER.CONST>
1

>  <SCORE.INTER.POLAR>
0

>  <SCORE.INTER.ROT>
1

>  <SCORE.INTER.SOLV>
16.03

>  <SCORE.INTER.VDW>
-20.3566

>  <SCORE.INTER.norm>
-1.24

>  <SCORE.INTRA>
-0.163527

>  <SCORE.INTRA.DIHEDRAL>
-0.000431883

>  <SCORE.INTRA.DIHEDRAL.0>
1.66609

>  <SCORE.INTRA.POLAR>
0

>  <SCORE.INTRA.POLAR.0>
0

>  <SCORE.INTRA.REPUL>
0

>  <SCORE.INTRA.REPUL.0>
0

>  <SCORE.INTRA.SOLV>
-0.981717

>  <SCORE.INTRA.SOLV.lig_0>
-45.868

>  <SCORE.INTRA.VDW>
0.327547

>  <SCORE.INTRA.VDW.0>
-0.397919

>  <SCORE.INTRA.norm>
-0.012579

>  <SCORE.RESTR>
0

>  <SCORE.RESTR.CAVITY>
0

>  <SCORE.RESTR.norm>
0

>  <SCORE.SYSTEM>
0

>  <SCORE.SYSTEM.CONST>
0

>  <SCORE.SYSTEM.DIHEDRAL>
0

>  <SCORE.SYSTEM.SOLV>
0

>  <SCORE.SYSTEM.norm>
0

>  <SCORE.heavy>
13

>  <SCORE.norm>
-1.25258

>  <RMSD>
4.824

$$$$
ligand
 OpenBabel02271912143D
libRbt.so/2013.1/901 2013/11/27
 13 14  0  0  0  0  0  0  0  0999 V2000
   -1.2271  -32.7022  -41.7684 N   0  0  0  0  0  0  0  0  0  0  0  0
   -0.4183  -32.2644  -42.7828 C   0  0  0  0  0  0  0  0  0  0  0  0
    0.7554  -31.6355  -42.4676 N   0  0  0  0  0  0  0  0  0  0  0  0
   -0.7519  -32.4404  -44.0616 N   0  0  0  0  0  0  0  0  0  0  0  0
   -1.9126  -33.0614  -44.4104 C   0  0  0  0  0  0  0  0  0  0  0  0
   -2.7804  -33.5265  -43.3980 C   0  0  0  0  0  0  0  0  0  0  0  0
   -2.4040  -33.3317  -42.0415 C   0  0  0  0  0  0  0  0  0  0  0  0
   -3.1125  -33.7159  -41.1440 O   0  0  0  0  0  0  0  0  0  0  0  0
   -3.9226  -34.1315  -44.0757 C   0  0  0  0  0  0  0  0  0  0  0  0
   -3.6963  -34.0131  -45.3961 C   0  0  0  0  0  0  0  0  0  0  0  0
   -2.4928  -33.3723  -45.6028 N   0  0  0  0  0  0  0  0  0  0  0  0
   -5.1256  -34.7589  -43.4192 C   0  0  0  0  0  0  0  0  0  0  0  0
   -5.7952  -35.6467  -44.3913 N   0  0  0  0  0  0  0  0  0  0  0  0
  1  2  1  0  0  0  0
  1  7  1  0  0  0  0
  2  3  1  0  0  0  0
  2  4  2  0  0  0  0
  4  5  1  0  0  0  0
  5  6  2  0  0  0  0
  5 11  1  0  0  0  0
  6  7  1  0  0  0  0
  6  9  1  0  0  0  0
  7  8  2  0  0  0  0
  9 10  2  0  0  0  0
  9 12  1  0  0  0  0
 10 11  1  0  0  0  0
 12 13  1  0  0  0  0
M  END
>  <CHROM.1>
-160.40657560,-2.53708067,-33.43723114,-43.41591685,0.29839996,0.52202334
1.56805951

>  <Name>
ligand

>  <RI>
0

>  <Rbt.Current_Directory>
/home/itssahil/PROJECTS/Mol_Feturizer/Test_systems_manuscript/rnas/3fu2

>  <Rbt.Executable>
rbdock ($Id: //depot/dev/client3/rdock/2013.1/src/exe/rbdock.cxx#4 $)

>  <Rbt.Library>
libRbt.so (2013.1, Build901 2013/11/27)

>  <Rbt.Parameter_File>
/export/apps/rDock/src/rDock_2013.1_src/data/scripts/dock_solv.prm

>  <Rbt.Receptor>
prm/blind_docking_100.prm

>  <SCORE>
-16.3008

>  <SCORE.INTER>
-16.1258

>  <SCORE.INTER.CONST>
1

>  <SCORE.INTER.POLAR>
0

>  <SCORE.INTER.ROT>
1

>  <SCORE.INTER.SOLV>
15.9347

>  <SCORE.INTER.VDW>
-20.3288

>  <SCORE.INTER.norm>
-1.24044

>  <SCORE.INTRA>
-0.175059

>  <SCORE.INTRA.DIHEDRAL>
-0.00193029

>  <SCORE.INTRA.DIHEDRAL.0>
1.66609

>  <SCORE.INTRA.POLAR>
0

>  <SCORE.INTRA.POLAR.0>
0

>  <SCORE.INTRA.REPUL>
0

>  <SCORE.INTRA.REPUL.0>
0

>  <SCORE.INTRA.SOLV>
-0.982517

>  <SCORE.INTRA.SOLV.lig_0>
-45.868

>  <SCORE.INTRA.VDW>
0.317164

>  <SCORE.INTRA.VDW.0>
-0.397919

>  <SCORE.INTRA.norm>
-0.0134661

>  <SCORE.RESTR>
0

>  <SCORE.RESTR.CAVITY>
0

>  <SCORE.RESTR.norm>
0

>  <SCORE.SYSTEM>
0

>  <SCORE.SYSTEM.CONST>
0

>  <SCORE.SYSTEM.DIHEDRAL>
0

>  <SCORE.SYSTEM.SOLV>
0

>  <SCORE.SYSTEM.norm>
0

>  <SCORE.heavy>
13

>  <SCORE.norm>
-1.25391

>  <RMSD>
4.825

$$$$
ligand
 OpenBabel02271912143D
libRbt.so/2013.1/901 2013/11/27
 13 14  0  0  0  0  0  0  0  0999 V2000
   -1.2474  -32.6894  -41.7996 N   0  0  0  0  0  0  0  0  0  0  0  0
   -0.4373  -32.2636  -42.8181 C   0  0  0  0  0  0  0  0  0  0  0  0
    0.7421  -31.6425  -42.5089 N   0  0  0  0  0  0  0  0  0  0  0  0
   -0.7751  -32.4440  -44.0953 N   0  0  0  0  0  0  0  0  0  0  0  0
   -1.9415  -33.0576  -44.4381 C   0  0  0  0  0  0  0  0  0  0  0  0
   -2.8108  -33.5101  -43.4213 C   0  0  0  0  0  0  0  0  0  0  0  0
   -2.4299  -33.3109  -42.0666 C   0  0  0  0  0  0  0  0  0  0  0  0
   -3.1395  -33.6844  -41.1656 O   0  0  0  0  0  0  0  0  0  0  0  0
   -3.9593  -34.1096  -44.0932 C   0  0  0  0  0  0  0  0  0  0  0  0
   -3.7350  -34.0003  -45.4147 C   0  0  0  0  0  0  0  0  0  0  0  0
   -2.5268  -33.3704  -45.6275 N   0  0  0  0  0  0  0  0  0  0  0  0
   -5.1659  -34.7237  -43.4307 C   0  0  0  0  0  0  0  0  0  0  0  0
   -5.7787  -35.6979  -44.3564 N   0  0  0  0  0  0  0  0  0  0  0  0
  1  2  1  0  0  0  0
  1  7  1  0  0  0  0
  2  3  1  0  0  0  0
  2  4  2  0  0  0  0
  4  5  1  0  0  0  0
  5  6  2  0  0  0  0
  5 11  1  0  0  0  0
  6  7  1  0  0  0  0
  6  9  1  0  0  0  0
  7  8  2  0  0  0  0
  9 10  2  0  0  0  0
  9 12  1  0  0  0  0
 10 11  1  0  0  0  0
 12 13  1  0  0  0  0
M  END
>  <CHROM.1>
-155.65018421,-2.56146307,-33.42992793,-43.43695667,0.29269585,0.52172850
1.56334895

>  <Name>
ligand

>  <RI>
0

>  <Rbt.Current_Directory>
/home/itssahil/PROJECTS/Mol_Feturizer/Test_systems_manuscript/rnas/3fu2

>  <Rbt.Executable>
rbdock ($Id: //depot/dev/client3/rdock/2013.1/src/exe/rbdock.cxx#4 $)

>  <Rbt.Library>
libRbt.so (2013.1, Build901 2013/11/27)

>  <Rbt.Parameter_File>
/export/apps/rDock/src/rDock_2013.1_src/data/scripts/dock_solv.prm

>  <Rbt.Receptor>
prm/blind_docking_100.prm

>  <SCORE>
-16.2278

>  <SCORE.INTER>
-16.0135

>  <SCORE.INTER.CONST>
1

>  <SCORE.INTER.POLAR>
0

>  <SCORE.INTER.ROT>
1

>  <SCORE.INTER.SOLV>
16.0474

>  <SCORE.INTER.VDW>
-20.2914

>  <SCORE.INTER.norm>
-1.2318

>  <SCORE.INTRA>
-0.214363

>  <SCORE.INTRA.DIHEDRAL>
-0.00374991

>  <SCORE.INTRA.DIHEDRAL.0>
1.66609

>  <SCORE.INTRA.POLAR>
0

>  <SCORE.INTRA.POLAR.0>
0

>  <SCORE.INTRA.REPUL>
0

>  <SCORE.INTRA.REPUL.0>
0

>  <SCORE.INTRA.SOLV>
-0.984088

>  <SCORE.INTRA.SOLV.lig_0>
-45.868

>  <SCORE.INTRA.VDW>
0.279556

>  <SCORE.INTRA.VDW.0>
-0.397919

>  <SCORE.INTRA.norm>
-0.0164894

>  <SCORE.RESTR>
0

>  <SCORE.RESTR.CAVITY>
0

>  <SCORE.RESTR.norm>
0

>  <SCORE.SYSTEM>
0

>  <SCORE.SYSTEM.CONST>
0

>  <SCORE.SYSTEM.DIHEDRAL>
0

>  <SCORE.SYSTEM.SOLV>
0

>  <SCORE.SYSTEM.norm>
0

>  <SCORE.heavy>
13

>  <SCORE.norm>
-1.24829

>  <RMSD>
4.825

$$$$
ligand
 OpenBabel02271912143D
libRbt.so/2013.1/901 2013/11/27
 13 14  0  0  0  0  0  0  0  0999 V2000
   -1.2145  -32.6997  -41.7646 N   0  0  0  0  0  0  0  0  0  0  0  0
   -0.4158  -32.2578  -42.7852 C   0  0  0  0  0  0  0  0  0  0  0  0
    0.7586  -31.6259  -42.4792 N   0  0  0  0  0  0  0  0  0  0  0  0
   -0.7600  -32.4327  -44.0614 N   0  0  0  0  0  0  0  0  0  0  0  0
   -1.9218  -33.0567  -44.4011 C   0  0  0  0  0  0  0  0  0  0  0  0
   -2.7794  -33.5261  -43.3821 C   0  0  0  0  0  0  0  0  0  0  0  0
   -2.3919  -33.3323  -42.0285 C   0  0  0  0  0  0  0  0  0  0  0  0
   -3.0914  -33.7201  -41.1256 O   0  0  0  0  0  0  0  0  0  0  0  0
   -3.9256  -34.1334  -44.0508 C   0  0  0  0  0  0  0  0  0  0  0  0
   -3.7112  -34.0121  -45.3729 C   0  0  0  0  0  0  0  0  0  0  0  0
   -2.5114  -33.3674  -45.5890 N   0  0  0  0  0  0  0  0  0  0  0  0
   -5.1210  -34.7655  -43.3849 C   0  0  0  0  0  0  0  0  0  0  0  0
   -5.8044  -35.6429  -44.3569 N   0  0  0  0  0  0  0  0  0  0  0  0
  1  2  1  0  0  0  0
  1  7  1  0  0  0  0
  2  3  1  0  0  0  0
  2  4  2  0  0  0  0
  4  5  1  0  0  0  0
  5  6  2  0  0  0  0
  5 11  1  0  0  0  0
  6  7  1  0  0  0  0
  6  9  1  0  0  0  0
  7  8  2  0  0  0  0
  9 10  2  0  0  0  0
  9 12  1  0  0  0  0
 10 11  1  0  0  0  0
 12 13  1  0  0  0  0
M  END
>  <CHROM.1>
-160.98889723,-2.53718037,-33.43513189,-43.40225286,0.28871704,0.52407981
1.57477970

>  <Name>
ligand

>  <RI>
0

>  <Rbt.Current_Directory>
/home/itssahil/PROJECTS/Mol_Feturizer/Test_systems_manuscript/rnas/3fu2

>  <Rbt.Executable>
rbdock ($Id: //depot/dev/client3/rdock/2013.1/src/exe/rbdock.cxx#4 $)

>  <Rbt.Library>
libRbt.so (2013.1, Build901 2013/11/27)

>  <Rbt.Parameter_File>
/export/apps/rDock/src/rDock_2013.1_src/data/scripts/dock_solv.prm

>  <Rbt.Receptor>
prm/blind_docking_80.prm

>  <SCORE>
-16.2949

>  <SCORE.INTER>
-16.1224

>  <SCORE.INTER.CONST>
1

>  <SCORE.INTER.POLAR>
0

>  <SCORE.INTER.ROT>
1

>  <SCORE.INTER.SOLV>
15.9207

>  <SCORE.INTER.VDW>
-20.3218

>  <SCORE.INTER.norm>
-1.24019

>  <SCORE.INTRA>
-0.172534

>  <SCORE.INTRA.DIHEDRAL>
-0.00163743

>  <SCORE.INTRA.DIHEDRAL.0>
1.66609

>  <SCORE.INTRA.POLAR>
0

>  <SCORE.INTRA.POLAR.0>
0

>  <SCORE.INTRA.REPUL>
0

>  <SCORE.INTRA.REPUL.0>
0

>  <SCORE.INTRA.SOLV>
-0.98234

>  <SCORE.INTRA.SOLV.lig_0>
-45.868

>  <SCORE.INTRA.VDW>
0.319454

>  <SCORE.INTRA.VDW.0>
-0.397919

>  <SCORE.INTRA.norm>
-0.0132719

>  <SCORE.RESTR>
0

>  <SCORE.RESTR.CAVITY>
0

>  <SCORE.RESTR.norm>
0

>  <SCORE.SYSTEM>
0

>  <SCORE.SYSTEM.CONST>
0

>  <SCORE.SYSTEM.DIHEDRAL>
0

>  <SCORE.SYSTEM.SOLV>
0

>  <SCORE.SYSTEM.norm>
0

>  <SCORE.heavy>
13

>  <SCORE.norm>
-1.25346

>  <RMSD>
4.825

$$$$
ligand
 OpenBabel02271912143D
libRbt.so/2013.1/901 2013/11/27
 13 14  0  0  0  0  0  0  0  0999 V2000
   -1.2178  -32.6872  -41.7766 N   0  0  0  0  0  0  0  0  0  0  0  0
   -0.4156  -32.2536  -42.7980 C   0  0  0  0  0  0  0  0  0  0  0  0
    0.7587  -31.6209  -42.4931 N   0  0  0  0  0  0  0  0  0  0  0  0
   -0.7562  -32.4374  -44.0740 N   0  0  0  0  0  0  0  0  0  0  0  0
   -1.9178  -33.0624  -44.4126 C   0  0  0  0  0  0  0  0  0  0  0  0
   -2.7789  -33.5234  -43.3927 C   0  0  0  0  0  0  0  0  0  0  0  0
   -2.3951  -33.3203  -42.0394 C   0  0  0  0  0  0  0  0  0  0  0  0
   -3.0977  -33.7007  -41.1358 O   0  0  0  0  0  0  0  0  0  0  0  0
   -3.9239  -34.1342  -44.0604 C   0  0  0  0  0  0  0  0  0  0  0  0
   -3.7054  -34.0228  -45.3826 C   0  0  0  0  0  0  0  0  0  0  0  0
   -2.5042  -33.3811  -45.5998 N   0  0  0  0  0  0  0  0  0  0  0  0
   -5.1219  -34.7601  -43.3935 C   0  0  0  0  0  0  0  0  0  0  0  0
   -5.8091  -35.6362  -44.3639 N   0  0  0  0  0  0  0  0  0  0  0  0
  1  2  1  0  0  0  0
  1  7  1  0  0  0  0
  2  3  1  0  0  0  0
  2  4  2  0  0  0  0
  4  5  1  0  0  0  0
  5  6  2  0  0  0  0
  5 11  1  0  0  0  0
  6  7  1  0  0  0  0
  6  9  1  0  0  0  0
  7  8  2  0  0  0  0
  9 10  2  0  0  0  0
  9 12  1  0  0  0  0
 10 11  1  0  0  0  0
 12 13  1  0  0  0  0
M  END
>  <CHROM.1>
-161.38460735,-2.53695580,-33.43229256,-43.41300723,0.29234057,0.52222808
1.56588630

>  <Name>
ligand

>  <RI>
0

>  <Rbt.Current_Directory>
/home/itssahil/PROJECTS/Mol_Feturizer/Test_systems_manuscript/rnas/3fu2

>  <Rbt.Executable>
rbdock ($Id: //depot/dev/client3/rdock/2013.1/src/exe/rbdock.cxx#4 $)

>  <Rbt.Library>
libRbt.so (2013.1, Build901 2013/11/27)

>  <Rbt.Parameter_File>
/export/apps/rDock/src/rDock_2013.1_src/data/scripts/dock_solv.prm

>  <Rbt.Receptor>
prm/pocket_docking_4.prm

>  <SCORE>
-16.3128

>  <SCORE.INTER>
-16.142

>  <SCORE.INTER.CONST>
1

>  <SCORE.INTER.POLAR>
0

>  <SCORE.INTER.ROT>
1

>  <SCORE.INTER.SOLV>
15.9651

>  <SCORE.INTER.VDW>
-20.3497

>  <SCORE.INTER.norm>
-1.24169

>  <SCORE.INTRA>
-0.170838

>  <SCORE.INTRA.DIHEDRAL>
-0.00143015

>  <SCORE.INTRA.DIHEDRAL.0>
1.66609

>  <SCORE.INTRA.POLAR>
0

>  <SCORE.INTRA.POLAR.0>
0

>  <SCORE.INTRA.REPUL>
0

>  <SCORE.INTRA.REPUL.0>
0

>  <SCORE.INTRA.SOLV>
-0.982221

>  <SCORE.INTRA.SOLV.lig_0>
-45.868

>  <SCORE.INTRA.VDW>
0.320987

>  <SCORE.INTRA.VDW.0>
-0.397919

>  <SCORE.INTRA.norm>
-0.0131414

>  <SCORE.RESTR>
0

>  <SCORE.RESTR.CAVITY>
0

>  <SCORE.RESTR.norm>
0

>  <SCORE.SYSTEM>
0

>  <SCORE.SYSTEM.CONST>
0

>  <SCORE.SYSTEM.DIHEDRAL>
0

>  <SCORE.SYSTEM.SOLV>
0

>  <SCORE.SYSTEM.norm>
0

>  <SCORE.heavy>
13

>  <SCORE.norm>
-1.25483

>  <RMSD>
4.825

$$$$
ligand
 OpenBabel02271912143D
libRbt.so/2013.1/901 2013/11/27
 13 14  0  0  0  0  0  0  0  0999 V2000
   -1.2241  -32.6889  -41.7724 N   0  0  0  0  0  0  0  0  0  0  0  0
   -0.4179  -32.2547  -42.7905 C   0  0  0  0  0  0  0  0  0  0  0  0
    0.7556  -31.6229  -42.4807 N   0  0  0  0  0  0  0  0  0  0  0  0
   -0.7539  -32.4371  -44.0678 N   0  0  0  0  0  0  0  0  0  0  0  0
   -1.9146  -33.0612  -44.4113 C   0  0  0  0  0  0  0  0  0  0  0  0
   -2.7797  -33.5227  -43.3950 C   0  0  0  0  0  0  0  0  0  0  0  0
   -2.4008  -33.3211  -42.0401 C   0  0  0  0  0  0  0  0  0  0  0  0
   -3.1069  -33.7020  -41.1394 O   0  0  0  0  0  0  0  0  0  0  0  0
   -3.9226  -34.1323  -44.0675 C   0  0  0  0  0  0  0  0  0  0  0  0
   -3.6991  -34.0197  -45.3888 C   0  0  0  0  0  0  0  0  0  0  0  0
   -2.4968  -33.3784  -45.6010 N   0  0  0  0  0  0  0  0  0  0  0  0
   -5.1234  -34.7581  -43.4056 C   0  0  0  0  0  0  0  0  0  0  0  0
   -5.8162  -35.6209  -44.3839 N   0  0  0  0  0  0  0  0  0  0  0  0
  1  2  1  0  0  0  0
  1  7  1  0  0  0  0
  2  3  1  0  0  0  0
  2  4  2  0  0  0  0
  4  5  1  0  0  0  0
  5  6  2  0  0  0  0
  5 11  1  0  0  0  0
  6  7  1  0  0  0  0
  6  9  1  0  0  0  0
  7  8  2  0  0  0  0
  9 10  2  0  0  0  0
  9 12  1  0  0  0  0
 10 11  1  0  0  0  0
 12 13  1  0  0  0  0
M  END
>  <CHROM.1>
-162.02670506,-2.53834580,-33.43072392,-43.41472961,0.29690363,0.52061728
1.56485118

>  <Name>
ligand

>  <RI>
0

>  <Rbt.Current_Directory>
/home/itssahil/PROJECTS/Mol_Feturizer/Test_systems_manuscript/rnas/3fu2

>  <Rbt.Executable>
rbdock ($Id: //depot/dev/client3/rdock/2013.1/src/exe/rbdock.cxx#4 $)

>  <Rbt.Library>
libRbt.so (2013.1, Build901 2013/11/27)

>  <Rbt.Parameter_File>
/export/apps/rDock/src/rDock_2013.1_src/data/scripts/dock_solv.prm

>  <Rbt.Receptor>
prm/pocket_docking_4.prm

>  <SCORE>
-16.3086

>  <SCORE.INTER>
-16.1405

>  <SCORE.INTER.CONST>
1

>  <SCORE.INTER.POLAR>
0

>  <SCORE.INTER.ROT>
1

>  <SCORE.INTER.SOLV>
15.951

>  <SCORE.INTER.VDW>
-20.344

>  <SCORE.INTER.norm>
-1.24157

>  <SCORE.INTRA>
-0.168123

>  <SCORE.INTRA.DIHEDRAL>
-0.00107983

>  <SCORE.INTRA.DIHEDRAL.0>
1.66609

>  <SCORE.INTRA.POLAR>
0

>  <SCORE.INTRA.POLAR.0>
0

>  <SCORE.INTRA.REPUL>
0

>  <SCORE.INTRA.REPUL.0>
0

>  <SCORE.INTRA.SOLV>
-0.982033

>  <SCORE.INTRA.SOLV.lig_0>
-45.868

>  <SCORE.INTRA.VDW>
0.323433

>  <SCORE.INTRA.VDW.0>
-0.397919

>  <SCORE.INTRA.norm>
-0.0129326

>  <SCORE.RESTR>
0

>  <SCORE.RESTR.CAVITY>
0

>  <SCORE.RESTR.norm>
0

>  <SCORE.SYSTEM>
0

>  <SCORE.SYSTEM.CONST>
0

>  <SCORE.SYSTEM.DIHEDRAL>
0

>  <SCORE.SYSTEM.SOLV>
0

>  <SCORE.SYSTEM.norm>
0

>  <SCORE.heavy>
13

>  <SCORE.norm>
-1.25451

>  <RMSD>
4.825

$$$$
ligand
 OpenBabel02271912143D
libRbt.so/2013.1/901 2013/11/27
 13 14  0  0  0  0  0  0  0  0999 V2000
   -1.2257  -32.6887  -41.7702 N   0  0  0  0  0  0  0  0  0  0  0  0
   -0.4171  -32.2578  -42.7878 C   0  0  0  0  0  0  0  0  0  0  0  0
    0.7563  -31.6263  -42.4773 N   0  0  0  0  0  0  0  0  0  0  0  0
   -0.7509  -32.4431  -44.0653 N   0  0  0  0  0  0  0  0  0  0  0  0
   -1.9114  -33.0670  -44.4095 C   0  0  0  0  0  0  0  0  0  0  0  0
   -2.7789  -33.5252  -43.3937 C   0  0  0  0  0  0  0  0  0  0  0  0
   -2.4024  -33.3206  -42.0386 C   0  0  0  0  0  0  0  0  0  0  0  0
   -3.1106  -33.6986  -41.1384 O   0  0  0  0  0  0  0  0  0  0  0  0
   -3.9210  -34.1354  -44.0669 C   0  0  0  0  0  0  0  0  0  0  0  0
   -3.6949  -34.0263  -45.3881 C   0  0  0  0  0  0  0  0  0  0  0  0
   -2.4916  -33.3866  -45.5995 N   0  0  0  0  0  0  0  0  0  0  0  0
   -5.1236  -34.7586  -43.4058 C   0  0  0  0  0  0  0  0  0  0  0  0
   -5.8243  -35.6108  -44.3879 N   0  0  0  0  0  0  0  0  0  0  0  0
  1  2  1  0  0  0  0
  1  7  1  0  0  0  0
  2  3  1  0  0  0  0
  2  4  2  0  0  0  0
  4  5  1  0  0  0  0
  5  6  2  0  0  0  0
  5 11  1  0  0  0  0
  6  7  1  0  0  0  0
  6  9  1  0  0  0  0
  7  8  2  0  0  0  0
  9 10  2  0  0  0  0
  9 12  1  0  0  0  0
 10 11  1  0  0  0  0
 12 13  1  0  0  0  0
M  END
>  <CHROM.1>
-162.68292935,-2.53815098,-33.43247584,-43.41358818,0.29945395,0.51864107
1.56137575

>  <Name>
ligand

>  <RI>
0

>  <Rbt.Current_Directory>
/home/itssahil/PROJECTS/Mol_Feturizer/Test_systems_manuscript/rnas/3fu2

>  <Rbt.Executable>
rbdock ($Id: //depot/dev/client3/rdock/2013.1/src/exe/rbdock.cxx#4 $)

>  <Rbt.Library>
libRbt.so (2013.1, Build901 2013/11/27)

>  <Rbt.Parameter_File>
/export/apps/rDock/src/rDock_2013.1_src/data/scripts/dock_solv.prm

>  <Rbt.Receptor>
prm/pocket_docking_5.prm

>  <SCORE>
-16.3047

>  <SCORE.INTER>
-16.1393

>  <SCORE.INTER.CONST>
1

>  <SCORE.INTER.POLAR>
0

>  <SCORE.INTER.ROT>
1

>  <SCORE.INTER.SOLV>
15.955

>  <SCORE.INTER.VDW>
-20.3446

>  <SCORE.INTER.norm>
-1.24149

>  <SCORE.INTRA>
-0.165398

>  <SCORE.INTRA.DIHEDRAL>
-0.000704308

>  <SCORE.INTRA.DIHEDRAL.0>
1.66609

>  <SCORE.INTRA.POLAR>
0

>  <SCORE.INTRA.POLAR.0>
0

>  <SCORE.INTRA.REPUL>
0

>  <SCORE.INTRA.REPUL.0>
0

>  <SCORE.INTRA.SOLV>
-0.981845

>  <SCORE.INTRA.SOLV.lig_0>
-45.868

>  <SCORE.INTRA.VDW>
0.325876

>  <SCORE.INTRA.VDW.0>
-0.397919

>  <SCORE.INTRA.norm>
-0.012723

>  <SCORE.RESTR>
0

>  <SCORE.RESTR.CAVITY>
0

>  <SCORE.RESTR.norm>
0

>  <SCORE.SYSTEM>
0

>  <SCORE.SYSTEM.CONST>
0

>  <SCORE.SYSTEM.DIHEDRAL>
0

>  <SCORE.SYSTEM.SOLV>
0

>  <SCORE.SYSTEM.norm>
0

>  <SCORE.heavy>
13

>  <SCORE.norm>
-1.25421

>  <RMSD>
4.825

$$$$
ligand
 OpenBabel02271912143D
libRbt.so/2013.1/901 2013/11/27
 13 14  0  0  0  0  0  0  0  0999 V2000
   -1.2493  -32.6754  -41.7980 N   0  0  0  0  0  0  0  0  0  0  0  0
   -0.4376  -32.2437  -42.8126 C   0  0  0  0  0  0  0  0  0  0  0  0
    0.7348  -31.6124  -42.4979 N   0  0  0  0  0  0  0  0  0  0  0  0
   -0.7672  -32.4281  -44.0914 N   0  0  0  0  0  0  0  0  0  0  0  0
   -1.9267  -33.0517  -44.4397 C   0  0  0  0  0  0  0  0  0  0  0  0
   -2.7973  -33.5107  -43.4270 C   0  0  0  0  0  0  0  0  0  0  0  0
   -2.4252  -33.3071  -42.0706 C   0  0  0  0  0  0  0  0  0  0  0  0
   -3.1363  -33.6857  -41.1729 O   0  0  0  0  0  0  0  0  0  0  0  0
   -3.9373  -34.1205  -44.1043 C   0  0  0  0  0  0  0  0  0  0  0  0
   -3.7070  -34.0104  -45.4247 C   0  0  0  0  0  0  0  0  0  0  0  0
   -2.5031  -33.3705  -45.6318 N   0  0  0  0  0  0  0  0  0  0  0  0
   -5.1420  -34.7441  -43.4475 C   0  0  0  0  0  0  0  0  0  0  0  0
   -5.8274  -35.6124  -44.4262 N   0  0  0  0  0  0  0  0  0  0  0  0
  1  2  1  0  0  0  0
  1  7  1  0  0  0  0
  2  3  1  0  0  0  0
  2  4  2  0  0  0  0
  4  5  1  0  0  0  0
  5  6  2  0  0  0  0
  5 11  1  0  0  0  0
  6  7  1  0  0  0  0
  6  9  1  0  0  0  0
  7  8  2  0  0  0  0
  9 10  2  0  0  0  0
  9 12  1  0  0  0  0
 10 11  1  0  0  0  0
 12 13  1  0  0  0  0
M  END
>  <CHROM.1>
-161.79421839,-2.55557625,-33.41933730,-43.44555762,0.30268643,0.52009728
1.56011827

>  <Name>
ligand

>  <RI>
0

>  <Rbt.Current_Directory>
/home/itssahil/PROJECTS/Mol_Feturizer/Test_systems_manuscript/rnas/3fu2

>  <Rbt.Executable>
rbdock ($Id: //depot/dev/client3/rdock/2013.1/src/exe/rbdock.cxx#4 $)

>  <Rbt.Library>
libRbt.so (2013.1, Build901 2013/11/27)

>  <Rbt.Parameter_File>
/export/apps/rDock/src/rDock_2013.1_src/data/scripts/dock_solv.prm

>  <Rbt.Receptor>
prm/pocket_docking_5.prm

>  <SCORE>
-16.2548

>  <SCORE.INTER>
-16.0857

>  <SCORE.INTER.CONST>
1

>  <SCORE.INTER.POLAR>
0

>  <SCORE.INTER.ROT>
1

>  <SCORE.INTER.SOLV>
16.0128

>  <SCORE.INTER.VDW>
-20.328

>  <SCORE.INTER.norm>
-1.23736

>  <SCORE.INTRA>
-0.169101

>  <SCORE.INTRA.DIHEDRAL>
-0.00120865

>  <SCORE.INTRA.DIHEDRAL.0>
1.66609

>  <SCORE.INTRA.POLAR>
0

>  <SCORE.INTRA.POLAR.0>
0

>  <SCORE.INTRA.REPUL>
0

>  <SCORE.INTRA.REPUL.0>
0

>  <SCORE.INTRA.SOLV>
-0.982101

>  <SCORE.INTRA.SOLV.lig_0>
-45.868

>  <SCORE.INTRA.VDW>
0.322554

>  <SCORE.INTRA.VDW.0>
-0.397919

>  <SCORE.INTRA.norm>
-0.0130078

>  <SCORE.RESTR>
0

>  <SCORE.RESTR.CAVITY>
0

>  <SCORE.RESTR.norm>
0

>  <SCORE.SYSTEM>
0

>  <SCORE.SYSTEM.CONST>
0

>  <SCORE.SYSTEM.DIHEDRAL>
0

>  <SCORE.SYSTEM.SOLV>
0

>  <SCORE.SYSTEM.norm>
0

>  <SCORE.heavy>
13

>  <SCORE.norm>
-1.25037

>  <RMSD>
4.825

$$$$
ligand
 OpenBabel02271912143D
libRbt.so/2013.1/901 2013/11/27
 13 14  0  0  0  0  0  0  0  0999 V2000
   -1.2289  -32.6906  -41.7766 N   0  0  0  0  0  0  0  0  0  0  0  0
   -0.4252  -32.2551  -42.7961 C   0  0  0  0  0  0  0  0  0  0  0  0
    0.7476  -31.6210  -42.4884 N   0  0  0  0  0  0  0  0  0  0  0  0
   -0.7630  -32.4385  -44.0729 N   0  0  0  0  0  0  0  0  0  0  0  0
   -1.9230  -33.0649  -44.4143 C   0  0  0  0  0  0  0  0  0  0  0  0
   -2.7855  -33.5278  -43.3965 C   0  0  0  0  0  0  0  0  0  0  0  0
   -2.4048  -33.3251  -42.0422 C   0  0  0  0  0  0  0  0  0  0  0  0
   -3.1087  -33.7071  -41.1404 O   0  0  0  0  0  0  0  0  0  0  0  0
   -3.9283  -34.1397  -44.0669 C   0  0  0  0  0  0  0  0  0  0  0  0
   -3.7073  -34.0270  -45.3887 C   0  0  0  0  0  0  0  0  0  0  0  0
   -2.5066  -33.3835  -45.6030 N   0  0  0  0  0  0  0  0  0  0  0  0
   -5.1269  -34.7677  -43.4029 C   0  0  0  0  0  0  0  0  0  0  0  0
   -5.7914  -35.6701  -44.3650 N   0  0  0  0  0  0  0  0  0  0  0  0
  1  2  1  0  0  0  0
  1  7  1  0  0  0  0
  2  3  1  0  0  0  0
  2  4  2  0  0  0  0
  4  5  1  0  0  0  0
  5  6  2  0  0  0  0
  5 11  1  0  0  0  0
  6  7  1  0  0  0  0
  6  9  1  0  0  0  0
  7  8  2  0  0  0  0
  9 10  2  0  0  0  0
  9 12  1  0  0  0  0
 10 11  1  0  0  0  0
 12 13  1  0  0  0  0
M  END
>  <CHROM.1>
-159.98960887,-2.54211458,-33.43844522,-43.41541477,0.29392003,0.52590445
1.56522668

>  <Name>
ligand

>  <RI>
0

>  <Rbt.Current_Directory>
/home/itssahil/PROJECTS/Mol_Feturizer/Test_systems_manuscript/rnas/3fu2

>  <Rbt.Executable>
rbdock ($Id: //depot/dev/client3/rdock/2013.1/src/exe/rbdock.cxx#4 $)

>  <Rbt.Library>
libRbt.so (2013.1, Build901 2013/11/27)

>  <Rbt.Parameter_File>
/export/apps/rDock/src/rDock_2013.1_src/data/scripts/dock_solv.prm

>  <Rbt.Receptor>
prm/pocket_docking_5.prm

>  <SCORE>
-16.3061

>  <SCORE.INTER>
-16.1293

>  <SCORE.INTER.CONST>
1

>  <SCORE.INTER.POLAR>
0

>  <SCORE.INTER.ROT>
1

>  <SCORE.INTER.SOLV>
15.9734

>  <SCORE.INTER.VDW>
-20.344

>  <SCORE.INTER.norm>
-1.24071

>  <SCORE.INTRA>
-0.176888

>  <SCORE.INTRA.DIHEDRAL>
-0.00213097

>  <SCORE.INTRA.DIHEDRAL.0>
1.66609

>  <SCORE.INTRA.POLAR>
0

>  <SCORE.INTRA.POLAR.0>
0

>  <SCORE.INTRA.REPUL>
0

>  <SCORE.INTRA.REPUL.0>
0

>  <SCORE.INTRA.SOLV>
-0.982646

>  <SCORE.INTRA.SOLV.lig_0>
-45.868

>  <SCORE.INTRA.VDW>
0.315501

>  <SCORE.INTRA.VDW.0>
-0.397919

>  <SCORE.INTRA.norm>
-0.0136068

>  <SCORE.RESTR>
0

>  <SCORE.RESTR.CAVITY>
0

>  <SCORE.RESTR.norm>
0

>  <SCORE.SYSTEM>
0

>  <SCORE.SYSTEM.CONST>
0

>  <SCORE.SYSTEM.DIHEDRAL>
0

>  <SCORE.SYSTEM.SOLV>
0

>  <SCORE.SYSTEM.norm>
0

>  <SCORE.heavy>
13

>  <SCORE.norm>
-1.25432

>  <RMSD>
4.825

$$$$
ligand
 OpenBabel02271912143D
libRbt.so/2013.1/901 2013/11/27
 13 14  0  0  0  0  0  0  0  0999 V2000
   -1.2211  -32.7027  -41.7720 N   0  0  0  0  0  0  0  0  0  0  0  0
   -0.4158  -32.2628  -42.7883 C   0  0  0  0  0  0  0  0  0  0  0  0
    0.7586  -31.6339  -42.4760 N   0  0  0  0  0  0  0  0  0  0  0  0
   -0.7535  -32.4370  -44.0663 N   0  0  0  0  0  0  0  0  0  0  0  0
   -1.9151  -33.0580  -44.4122 C   0  0  0  0  0  0  0  0  0  0  0  0
   -2.7793  -33.5251  -43.3978 C   0  0  0  0  0  0  0  0  0  0  0  0
   -2.3987  -33.3322  -42.0421 C   0  0  0  0  0  0  0  0  0  0  0  0
   -3.1040  -33.7182  -41.1430 O   0  0  0  0  0  0  0  0  0  0  0  0
   -3.9235  -34.1295  -44.0727 C   0  0  0  0  0  0  0  0  0  0  0  0
   -3.7016  -34.0089  -45.3936 C   0  0  0  0  0  0  0  0  0  0  0  0
   -2.4991  -33.3673  -45.6032 N   0  0  0  0  0  0  0  0  0  0  0  0
   -5.1241  -34.7585  -43.4133 C   0  0  0  0  0  0  0  0  0  0  0  0
   -5.8159  -35.6187  -44.3946 N   0  0  0  0  0  0  0  0  0  0  0  0
  1  2  1  0  0  0  0
  1  7  1  0  0  0  0
  2  3  1  0  0  0  0
  2  4  2  0  0  0  0
  4  5  1  0  0  0  0
  5  6  2  0  0  0  0
  5 11  1  0  0  0  0
  6  7  1  0  0  0  0
  6  9  1  0  0  0  0
  7  8  2  0  0  0  0
  9 10  2  0  0  0  0
  9 12  1  0  0  0  0
 10 11  1  0  0  0  0
 12 13  1  0  0  0  0
M  END
>  <CHROM.1>
-161.81275283,-2.53773044,-33.43351746,-43.41715699,0.29539897,0.52016087
1.57173691

>  <Name>
ligand

>  <RI>
0

>  <Rbt.Current_Directory>
/home/itssahil/PROJECTS/Mol_Feturizer/Test_systems_manuscript/rnas/3fu2

>  <Rbt.Executable>
rbdock ($Id: //depot/dev/client3/rdock/2013.1/src/exe/rbdock.cxx#4 $)

>  <Rbt.Library>
libRbt.so (2013.1, Build901 2013/11/27)

>  <Rbt.Parameter_File>
/export/apps/rDock/src/rDock_2013.1_src/data/scripts/dock_solv.prm

>  <Rbt.Receptor>
prm/pocket_docking_6.prm

>  <SCORE>
-16.3054

>  <SCORE.INTER>
-16.1363

>  <SCORE.INTER.CONST>
1

>  <SCORE.INTER.POLAR>
0

>  <SCORE.INTER.ROT>
1

>  <SCORE.INTER.SOLV>
15.9308

>  <SCORE.INTER.VDW>
-20.3345

>  <SCORE.INTER.norm>
-1.24126

>  <SCORE.INTRA>
-0.169023

>  <SCORE.INTRA.DIHEDRAL>
-0.00119846

>  <SCORE.INTRA.DIHEDRAL.0>
1.66609

>  <SCORE.INTRA.POLAR>
0

>  <SCORE.INTRA.POLAR.0>
0

>  <SCORE.INTRA.REPUL>
0

>  <SCORE.INTRA.REPUL.0>
0

>  <SCORE.INTRA.SOLV>
-0.982095

>  <SCORE.INTRA.SOLV.lig_0>
-45.868

>  <SCORE.INTRA.VDW>
0.322624

>  <SCORE.INTRA.VDW.0>
-0.397919

>  <SCORE.INTRA.norm>
-0.0130018

>  <SCORE.RESTR>
0

>  <SCORE.RESTR.CAVITY>
0

>  <SCORE.RESTR.norm>
0

>  <SCORE.SYSTEM>
0

>  <SCORE.SYSTEM.CONST>
0

>  <SCORE.SYSTEM.DIHEDRAL>
0

>  <SCORE.SYSTEM.SOLV>
0

>  <SCORE.SYSTEM.norm>
0

>  <SCORE.heavy>
13

>  <SCORE.norm>
-1.25426

>  <RMSD>
4.825

$$$$
ligand
 OpenBabel02271912143D
libRbt.so/2013.1/901 2013/11/27
 13 14  0  0  0  0  0  0  0  0999 V2000
   -1.2270  -32.6901  -41.7790 N   0  0  0  0  0  0  0  0  0  0  0  0
   -0.4262  -32.2508  -42.7991 C   0  0  0  0  0  0  0  0  0  0  0  0
    0.7461  -31.6154  -42.4923 N   0  0  0  0  0  0  0  0  0  0  0  0
   -0.7663  -32.4318  -44.0756 N   0  0  0  0  0  0  0  0  0  0  0  0
   -1.9260  -33.0593  -44.4160 C   0  0  0  0  0  0  0  0  0  0  0  0
   -2.7856  -33.5262  -43.3975 C   0  0  0  0  0  0  0  0  0  0  0  0
   -2.4024  -33.3260  -42.0436 C   0  0  0  0  0  0  0  0  0  0  0  0
   -3.1038  -33.7114  -41.1412 O   0  0  0  0  0  0  0  0  0  0  0  0
   -3.9287  -34.1385  -44.0670 C   0  0  0  0  0  0  0  0  0  0  0  0
   -3.7106  -34.0223  -45.3890 C   0  0  0  0  0  0  0  0  0  0  0  0
   -2.5115  -33.3761  -45.6043 N   0  0  0  0  0  0  0  0  0  0  0  0
   -5.1248  -34.7701  -43.4020 C   0  0  0  0  0  0  0  0  0  0  0  0
   -5.8029  -35.6540  -44.3718 N   0  0  0  0  0  0  0  0  0  0  0  0
  1  2  1  0  0  0  0
  1  7  1  0  0  0  0
  2  3  1  0  0  0  0
  2  4  2  0  0  0  0
  4  5  1  0  0  0  0
  5  6  2  0  0  0  0
  5 11  1  0  0  0  0
  6  7  1  0  0  0  0
  6  9  1  0  0  0  0
  7  8  2  0  0  0  0
  9 10  2  0  0  0  0
  9 12  1  0  0  0  0
 10 11  1  0  0  0  0
 12 13  1  0  0  0  0
M  END
>  <CHROM.1>
-160.92634547,-2.54342453,-33.43492275,-43.41732873,0.29204005,0.52609890
1.56893646

>  <Name>
ligand

>  <RI>
0

>  <Rbt.Current_Directory>
/home/itssahil/PROJECTS/Mol_Feturizer/Test_systems_manuscript/rnas/3fu2

>  <Rbt.Executable>
rbdock ($Id: //depot/dev/client3/rdock/2013.1/src/exe/rbdock.cxx#4 $)

>  <Rbt.Library>
libRbt.so (2013.1, Build901 2013/11/27)

>  <Rbt.Parameter_File>
/export/apps/rDock/src/rDock_2013.1_src/data/scripts/dock_solv.prm

>  <Rbt.Receptor>
prm/pocket_docking_7.prm

>  <SCORE>
-16.3099

>  <SCORE.INTER>
-16.1371

>  <SCORE.INTER.CONST>
1

>  <SCORE.INTER.POLAR>
0

>  <SCORE.INTER.ROT>
1

>  <SCORE.INTER.SOLV>
15.968

>  <SCORE.INTER.VDW>
-20.3474

>  <SCORE.INTER.norm>
-1.24132

>  <SCORE.INTRA>
-0.172804

>  <SCORE.INTRA.DIHEDRAL>
-0.00166958

>  <SCORE.INTRA.DIHEDRAL.0>
1.66609

>  <SCORE.INTRA.POLAR>
0

>  <SCORE.INTRA.POLAR.0>
0

>  <SCORE.INTRA.REPUL>
0

>  <SCORE.INTRA.REPUL.0>
0

>  <SCORE.INTRA.SOLV>
-0.982359

>  <SCORE.INTRA.SOLV.lig_0>
-45.868

>  <SCORE.INTRA.VDW>
0.31921

>  <SCORE.INTRA.VDW.0>
-0.397919

>  <SCORE.INTRA.norm>
-0.0132926

>  <SCORE.RESTR>
0

>  <SCORE.RESTR.CAVITY>
0

>  <SCORE.RESTR.norm>
0

>  <SCORE.SYSTEM>
0

>  <SCORE.SYSTEM.CONST>
0

>  <SCORE.SYSTEM.DIHEDRAL>
0

>  <SCORE.SYSTEM.SOLV>
0

>  <SCORE.SYSTEM.norm>
0

>  <SCORE.heavy>
13

>  <SCORE.norm>
-1.25461

>  <RMSD>
4.825

$$$$
ligand
 OpenBabel02271912143D
libRbt.so/2013.1/901 2013/11/27
 13 14  0  0  0  0  0  0  0  0999 V2000
   -1.2345  -32.6964  -41.7745 N   0  0  0  0  0  0  0  0  0  0  0  0
   -0.4294  -32.2555  -42.7904 C   0  0  0  0  0  0  0  0  0  0  0  0
    0.7423  -31.6219  -42.4777 N   0  0  0  0  0  0  0  0  0  0  0  0
   -0.7648  -32.4332  -44.0687 N   0  0  0  0  0  0  0  0  0  0  0  0
   -1.9236  -33.0589  -44.4151 C   0  0  0  0  0  0  0  0  0  0  0  0
   -2.7876  -33.5272  -43.4010 C   0  0  0  0  0  0  0  0  0  0  0  0
   -2.4095  -33.3306  -42.0451 C   0  0  0  0  0  0  0  0  0  0  0  0
   -3.1147  -33.7174  -41.1463 O   0  0  0  0  0  0  0  0  0  0  0  0
   -3.9287  -34.1369  -44.0764 C   0  0  0  0  0  0  0  0  0  0  0  0
   -3.7054  -34.0179  -45.3972 C   0  0  0  0  0  0  0  0  0  0  0  0
   -2.5048  -33.3723  -45.6063 N   0  0  0  0  0  0  0  0  0  0  0  0
   -5.1279  -34.7690  -43.4174 C   0  0  0  0  0  0  0  0  0  0  0  0
   -5.7952  -35.6606  -44.3877 N   0  0  0  0  0  0  0  0  0  0  0  0
  1  2  1  0  0  0  0
  1  7  1  0  0  0  0
  2  3  1  0  0  0  0
  2  4  2  0  0  0  0
  4  5  1  0  0  0  0
  5  6  2  0  0  0  0
  5 11  1  0  0  0  0
  6  7  1  0  0  0  0
  6  9  1  0  0  0  0
  7  8  2  0  0  0  0
  9 10  2  0  0  0  0
  9 12  1  0  0  0  0
 10 11  1  0  0  0  0
 12 13  1  0  0  0  0
M  END
>  <CHROM.1>
-160.35828931,-2.54466741,-33.43705478,-43.41930935,0.29619737,0.52609504
1.56893166

>  <Name>
ligand

>  <RI>
0

>  <Rbt.Current_Directory>
/home/itssahil/PROJECTS/Mol_Feturizer/Test_systems_manuscript/rnas/3fu2

>  <Rbt.Executable>
rbdock ($Id: //depot/dev/client3/rdock/2013.1/src/exe/rbdock.cxx#4 $)

>  <Rbt.Library>
libRbt.so (2013.1, Build901 2013/11/27)

>  <Rbt.Parameter_File>
/export/apps/rDock/src/rDock_2013.1_src/data/scripts/dock_solv.prm

>  <Rbt.Receptor>
prm/pocket_docking_8.prm

>  <SCORE>
-16.3005

>  <SCORE.INTER>
-16.1253

>  <SCORE.INTER.CONST>
1

>  <SCORE.INTER.POLAR>
0

>  <SCORE.INTER.ROT>
1

>  <SCORE.INTER.SOLV>
15.9559

>  <SCORE.INTER.VDW>
-20.3355

>  <SCORE.INTER.norm>
-1.2404

>  <SCORE.INTRA>
-0.17527

>  <SCORE.INTRA.DIHEDRAL>
-0.00195392

>  <SCORE.INTRA.DIHEDRAL.0>
1.66609

>  <SCORE.INTRA.POLAR>
0

>  <SCORE.INTRA.POLAR.0>
0

>  <SCORE.INTRA.REPUL>
0

>  <SCORE.INTRA.REPUL.0>
0

>  <SCORE.INTRA.SOLV>
-0.982532

>  <SCORE.INTRA.SOLV.lig_0>
-45.868

>  <SCORE.INTRA.VDW>
0.316973

>  <SCORE.INTRA.VDW.0>
-0.397919

>  <SCORE.INTRA.norm>
-0.0134823

>  <SCORE.RESTR>
0

>  <SCORE.RESTR.CAVITY>
0

>  <SCORE.RESTR.norm>
0

>  <SCORE.SYSTEM>
0

>  <SCORE.SYSTEM.CONST>
0

>  <SCORE.SYSTEM.DIHEDRAL>
0

>  <SCORE.SYSTEM.SOLV>
0

>  <SCORE.SYSTEM.norm>
0

>  <SCORE.heavy>
13

>  <SCORE.norm>
-1.25389

>  <RMSD>
4.825

$$$$
ligand
 OpenBabel02271912143D
libRbt.so/2013.1/901 2013/11/27
 13 14  0  0  0  0  0  0  0  0999 V2000
   -1.2286  -32.6957  -41.7756 N   0  0  0  0  0  0  0  0  0  0  0  0
   -0.4248  -32.2561  -42.7932 C   0  0  0  0  0  0  0  0  0  0  0  0
    0.7479  -31.6231  -42.4827 N   0  0  0  0  0  0  0  0  0  0  0  0
   -0.7624  -32.4344  -44.0707 N   0  0  0  0  0  0  0  0  0  0  0  0
   -1.9223  -33.0595  -44.4148 C   0  0  0  0  0  0  0  0  0  0  0  0
   -2.7849  -33.5265  -43.3990 C   0  0  0  0  0  0  0  0  0  0  0  0
   -2.4045  -33.3292  -42.0439 C   0  0  0  0  0  0  0  0  0  0  0  0
   -3.1085  -33.7149  -41.1437 O   0  0  0  0  0  0  0  0  0  0  0  0
   -3.9276  -34.1359  -44.0721 C   0  0  0  0  0  0  0  0  0  0  0  0
   -3.7063  -34.0179  -45.3933 C   0  0  0  0  0  0  0  0  0  0  0  0
   -2.5056  -33.3734  -45.6049 N   0  0  0  0  0  0  0  0  0  0  0  0
   -5.1262  -34.7666  -43.4108 C   0  0  0  0  0  0  0  0  0  0  0  0
   -5.8227  -35.6215  -44.3933 N   0  0  0  0  0  0  0  0  0  0  0  0
  1  2  1  0  0  0  0
  1  7  1  0  0  0  0
  2  3  1  0  0  0  0
  2  4  2  0  0  0  0
  4  5  1  0  0  0  0
  5  6  2  0  0  0  0
  5 11  1  0  0  0  0
  6  7  1  0  0  0  0
  6  9  1  0  0  0  0
  7  8  2  0  0  0  0
  9 10  2  0  0  0  0
  9 12  1  0  0  0  0
 10 11  1  0  0  0  0
 12 13  1  0  0  0  0
M  END
>  <CHROM.1>
-162.32146983,-2.54415457,-33.43352028,-43.41889330,0.29537452,0.52214477
1.56947459

>  <Name>
ligand

>  <RI>
0

>  <Rbt.Current_Directory>
/home/itssahil/PROJECTS/Mol_Feturizer/Test_systems_manuscript/rnas/3fu2

>  <Rbt.Executable>
rbdock ($Id: //depot/dev/client3/rdock/2013.1/src/exe/rbdock.cxx#4 $)

>  <Rbt.Library>
libRbt.so (2013.1, Build901 2013/11/27)

>  <Rbt.Parameter_File>
/export/apps/rDock/src/rDock_2013.1_src/data/scripts/dock_solv.prm

>  <Rbt.Receptor>
prm/pocket_docking_8.prm

>  <SCORE>
-16.3068

>  <SCORE.INTER>
-16.1399

>  <SCORE.INTER.CONST>
1

>  <SCORE.INTER.POLAR>
0

>  <SCORE.INTER.ROT>
1

>  <SCORE.INTER.SOLV>
15.9518

>  <SCORE.INTER.VDW>
-20.3438

>  <SCORE.INTER.norm>
-1.24153

>  <SCORE.INTRA>
-0.166893

>  <SCORE.INTRA.DIHEDRAL>
-0.000913316

>  <SCORE.INTRA.DIHEDRAL.0>
1.66609

>  <SCORE.INTRA.POLAR>
0

>  <SCORE.INTRA.POLAR.0>
0

>  <SCORE.INTRA.REPUL>
0

>  <SCORE.INTRA.REPUL.0>
0

>  <SCORE.INTRA.SOLV>
-0.981948

>  <SCORE.INTRA.SOLV.lig_0>
-45.868

>  <SCORE.INTRA.VDW>
0.324538

>  <SCORE.INTRA.VDW.0>
-0.397919

>  <SCORE.INTRA.norm>
-0.0128379

>  <SCORE.RESTR>
0

>  <SCORE.RESTR.CAVITY>
0

>  <SCORE.RESTR.norm>
0

>  <SCORE.SYSTEM>
0

>  <SCORE.SYSTEM.CONST>
0

>  <SCORE.SYSTEM.DIHEDRAL>
0

>  <SCORE.SYSTEM.SOLV>
0

>  <SCORE.SYSTEM.norm>
0

>  <SCORE.heavy>
13

>  <SCORE.norm>
-1.25437

>  <RMSD>
4.825

$$$$
ligand
 OpenBabel02271912143D
libRbt.so/2013.1/901 2013/11/27
 13 14  0  0  0  0  0  0  0  0999 V2000
   -1.2206  -32.6821  -41.7739 N   0  0  0  0  0  0  0  0  0  0  0  0
   -0.4148  -32.2534  -42.7945 C   0  0  0  0  0  0  0  0  0  0  0  0
    0.7594  -31.6211  -42.4885 N   0  0  0  0  0  0  0  0  0  0  0  0
   -0.7518  -32.4416  -44.0708 N   0  0  0  0  0  0  0  0  0  0  0  0
   -1.9131  -33.0664  -44.4105 C   0  0  0  0  0  0  0  0  0  0  0  0
   -2.7779  -33.5224  -43.3915 C   0  0  0  0  0  0  0  0  0  0  0  0
   -2.3981  -33.3146  -42.0378 C   0  0  0  0  0  0  0  0  0  0  0  0
   -3.1039  -33.6906  -41.1350 O   0  0  0  0  0  0  0  0  0  0  0  0
   -3.9218  -34.1342  -44.0604 C   0  0  0  0  0  0  0  0  0  0  0  0
   -3.6991  -34.0281  -45.3824 C   0  0  0  0  0  0  0  0  0  0  0  0
   -2.4964  -33.3888  -45.5984 N   0  0  0  0  0  0  0  0  0  0  0  0
   -5.1227  -34.7559  -43.3948 C   0  0  0  0  0  0  0  0  0  0  0  0
   -5.8259  -35.6102  -44.3731 N   0  0  0  0  0  0  0  0  0  0  0  0
  1  2  1  0  0  0  0
  1  7  1  0  0  0  0
  2  3  1  0  0  0  0
  2  4  2  0  0  0  0
  4  5  1  0  0  0  0
  5  6  2  0  0  0  0
  5 11  1  0  0  0  0
  6  7  1  0  0  0  0
  6  9  1  0  0  0  0
  7  8  2  0  0  0  0
  9 10  2  0  0  0  0
  9 12  1  0  0  0  0
 10 11  1  0  0  0  0
 12 13  1  0  0  0  0
M  END
>  <CHROM.1>
-162.69083517,-2.53731245,-33.42962894,-43.41224144,0.29650236,0.51870213
1.56055534

>  <Name>
ligand

>  <RI>
0

>  <Rbt.Current_Directory>
/home/itssahil/PROJECTS/Mol_Feturizer/Test_systems_manuscript/rnas/3fu2

>  <Rbt.Executable>
rbdock ($Id: //depot/dev/client3/rdock/2013.1/src/exe/rbdock.cxx#4 $)

>  <Rbt.Library>
libRbt.so (2013.1, Build901 2013/11/27)

>  <Rbt.Parameter_File>
/export/apps/rDock/src/rDock_2013.1_src/data/scripts/dock_solv.prm

>  <Rbt.Receptor>
prm/pocket_docking_8.prm

>  <SCORE>
-16.3068

>  <SCORE.INTER>
-16.1415

>  <SCORE.INTER.CONST>
1

>  <SCORE.INTER.POLAR>
0

>  <SCORE.INTER.ROT>
1

>  <SCORE.INTER.SOLV>
15.9697

>  <SCORE.INTER.VDW>
-20.3509

>  <SCORE.INTER.norm>
-1.24165

>  <SCORE.INTRA>
-0.165366

>  <SCORE.INTRA.DIHEDRAL>
-0.000699678

>  <SCORE.INTRA.DIHEDRAL.0>
1.66609

>  <SCORE.INTRA.POLAR>
0

>  <SCORE.INTRA.POLAR.0>
0

>  <SCORE.INTRA.REPUL>
0

>  <SCORE.INTRA.REPUL.0>
0

>  <SCORE.INTRA.SOLV>
-0.981843

>  <SCORE.INTRA.SOLV.lig_0>
-45.868

>  <SCORE.INTRA.VDW>
0.325905

>  <SCORE.INTRA.VDW.0>
-0.397919

>  <SCORE.INTRA.norm>
-0.0127205

>  <SCORE.RESTR>
0

>  <SCORE.RESTR.CAVITY>
0

>  <SCORE.RESTR.norm>
0

>  <SCORE.SYSTEM>
0

>  <SCORE.SYSTEM.CONST>
0

>  <SCORE.SYSTEM.DIHEDRAL>
0

>  <SCORE.SYSTEM.SOLV>
0

>  <SCORE.SYSTEM.norm>
0

>  <SCORE.heavy>
13

>  <SCORE.norm>
-1.25437

>  <RMSD>
4.825

$$$$
ligand
 OpenBabel02271912143D
libRbt.so/2013.1/901 2013/11/27
 13 14  0  0  0  0  0  0  0  0999 V2000
   -1.2064  -32.7012  -41.7521 N   0  0  0  0  0  0  0  0  0  0  0  0
   -0.4088  -32.2573  -42.7727 C   0  0  0  0  0  0  0  0  0  0  0  0
    0.7669  -31.6277  -42.4668 N   0  0  0  0  0  0  0  0  0  0  0  0
   -0.7552  -32.4284  -44.0489 N   0  0  0  0  0  0  0  0  0  0  0  0
   -1.9183  -33.0500  -44.3885 C   0  0  0  0  0  0  0  0  0  0  0  0
   -2.7748  -33.5212  -43.3694 C   0  0  0  0  0  0  0  0  0  0  0  0
   -2.3849  -33.3316  -42.0159 C   0  0  0  0  0  0  0  0  0  0  0  0
   -3.0835  -33.7210  -41.1130 O   0  0  0  0  0  0  0  0  0  0  0  0
   -3.9228  -34.1253  -44.0380 C   0  0  0  0  0  0  0  0  0  0  0  0
   -3.7102  -34.0007  -45.3601 C   0  0  0  0  0  0  0  0  0  0  0  0
   -2.5101  -33.3568  -45.5763 N   0  0  0  0  0  0  0  0  0  0  0  0
   -5.1178  -34.7578  -43.3720 C   0  0  0  0  0  0  0  0  0  0  0  0
   -5.8165  -35.6146  -44.3516 N   0  0  0  0  0  0  0  0  0  0  0  0
  1  2  1  0  0  0  0
  1  7  1  0  0  0  0
  2  3  1  0  0  0  0
  2  4  2  0  0  0  0
  4  5  1  0  0  0  0
  5  6  2  0  0  0  0
  5 11  1  0  0  0  0
  6  7  1  0  0  0  0
  6  9  1  0  0  0  0
  7  8  2  0  0  0  0
  9 10  2  0  0  0  0
  9 12  1  0  0  0  0
 10 11  1  0  0  0  0
 12 13  1  0  0  0  0
M  END
>  <CHROM.1>
-161.89865882,-2.53352322,-33.42908884,-43.39020045,0.28741963,0.52137015
1.57855833

>  <Name>
ligand

>  <RI>
0

>  <Rbt.Current_Directory>
/home/itssahil/PROJECTS/Mol_Feturizer/Test_systems_manuscript/rnas/3fu2

>  <Rbt.Executable>
rbdock ($Id: //depot/dev/client3/rdock/2013.1/src/exe/rbdock.cxx#4 $)

>  <Rbt.Library>
libRbt.so (2013.1, Build901 2013/11/27)

>  <Rbt.Parameter_File>
/export/apps/rDock/src/rDock_2013.1_src/data/scripts/dock_solv.prm

>  <Rbt.Receptor>
prm/pocket_docking_8.prm

>  <SCORE>
-16.2637

>  <SCORE.INTER>
-16.095

>  <SCORE.INTER.CONST>
1

>  <SCORE.INTER.POLAR>
0

>  <SCORE.INTER.ROT>
1

>  <SCORE.INTER.SOLV>
15.8759

>  <SCORE.INTER.VDW>
-20.2887

>  <SCORE.INTER.norm>
-1.23808

>  <SCORE.INTRA>
-0.168661

>  <SCORE.INTRA.DIHEDRAL>
-0.00115106

>  <SCORE.INTRA.DIHEDRAL.0>
1.66609

>  <SCORE.INTRA.POLAR>
0

>  <SCORE.INTRA.POLAR.0>
0

>  <SCORE.INTRA.REPUL>
0

>  <SCORE.INTRA.REPUL.0>
0

>  <SCORE.INTRA.SOLV>
-0.98207

>  <SCORE.INTRA.SOLV.lig_0>
-45.868

>  <SCORE.INTRA.VDW>
0.32295

>  <SCORE.INTRA.VDW.0>
-0.397919

>  <SCORE.INTRA.norm>
-0.0129739

>  <SCORE.RESTR>
0

>  <SCORE.RESTR.CAVITY>
0

>  <SCORE.RESTR.norm>
0

>  <SCORE.SYSTEM>
0

>  <SCORE.SYSTEM.CONST>
0

>  <SCORE.SYSTEM.DIHEDRAL>
0

>  <SCORE.SYSTEM.SOLV>
0

>  <SCORE.SYSTEM.norm>
0

>  <SCORE.heavy>
13

>  <SCORE.norm>
-1.25105

>  <RMSD>
4.825

$$$$
ligand
 OpenBabel02271912143D
libRbt.so/2013.1/901 2013/11/27
 13 14  0  0  0  0  0  0  0  0999 V2000
   -1.2200  -32.6962  -41.7792 N   0  0  0  0  0  0  0  0  0  0  0  0
   -0.4211  -32.2520  -42.7987 C   0  0  0  0  0  0  0  0  0  0  0  0
    0.7525  -31.6195  -42.4911 N   0  0  0  0  0  0  0  0  0  0  0  0
   -0.7644  -32.4255  -44.0754 N   0  0  0  0  0  0  0  0  0  0  0  0
   -1.9255  -33.0500  -44.4166 C   0  0  0  0  0  0  0  0  0  0  0  0
   -2.7831  -33.5217  -43.3988 C   0  0  0  0  0  0  0  0  0  0  0  0
   -2.3966  -33.3295  -42.0447 C   0  0  0  0  0  0  0  0  0  0  0  0
   -3.0963  -33.7192  -41.1427 O   0  0  0  0  0  0  0  0  0  0  0  0
   -3.9285  -34.1291  -44.0690 C   0  0  0  0  0  0  0  0  0  0  0  0
   -3.7133  -34.0058  -45.3908 C   0  0  0  0  0  0  0  0  0  0  0  0
   -2.5140  -33.3596  -45.6053 N   0  0  0  0  0  0  0  0  0  0  0  0
   -5.1236  -34.7633  -43.4048 C   0  0  0  0  0  0  0  0  0  0  0  0
   -5.8103  -35.6337  -44.3807 N   0  0  0  0  0  0  0  0  0  0  0  0
  1  2  1  0  0  0  0
  1  7  1  0  0  0  0
  2  3  1  0  0  0  0
  2  4  2  0  0  0  0
  4  5  1  0  0  0  0
  5  6  2  0  0  0  0
  5 11  1  0  0  0  0
  6  7  1  0  0  0  0
  6  9  1  0  0  0  0
  7  8  2  0  0  0  0
  9 10  2  0  0  0  0
  9 12  1  0  0  0  0
 10 11  1  0  0  0  0
 12 13  1  0  0  0  0
M  END
>  <CHROM.1>
-161.32167322,-2.54140427,-33.42998594,-43.41885756,0.28957269,0.52446874
1.57591601

>  <Name>
ligand

>  <RI>
0

>  <Rbt.Current_Directory>
/home/itssahil/PROJECTS/Mol_Feturizer/Test_systems_manuscript/rnas/3fu2

>  <Rbt.Executable>
rbdock ($Id: //depot/dev/client3/rdock/2013.1/src/exe/rbdock.cxx#4 $)

>  <Rbt.Library>
libRbt.so (2013.1, Build901 2013/11/27)

>  <Rbt.Parameter_File>
/export/apps/rDock/src/rDock_2013.1_src/data/scripts/dock_solv.prm

>  <Rbt.Receptor>
prm/blind_docking_100.prm

>  <SCORE>
-16.3058

>  <SCORE.INTER>
-16.1347

>  <SCORE.INTER.CONST>
1

>  <SCORE.INTER.POLAR>
0

>  <SCORE.INTER.ROT>
1

>  <SCORE.INTER.SOLV>
15.9452

>  <SCORE.INTER.VDW>
-20.3382

>  <SCORE.INTER.norm>
-1.24113

>  <SCORE.INTRA>
-0.171107

>  <SCORE.INTRA.DIHEDRAL>
-0.00146355

>  <SCORE.INTRA.DIHEDRAL.0>
1.66609

>  <SCORE.INTRA.POLAR>
0

>  <SCORE.INTRA.POLAR.0>
0

>  <SCORE.INTRA.REPUL>
0

>  <SCORE.INTRA.REPUL.0>
0

>  <SCORE.INTRA.SOLV>
-0.98224

>  <SCORE.INTRA.SOLV.lig_0>
-45.868

>  <SCORE.INTRA.VDW>
0.320745

>  <SCORE.INTRA.VDW.0>
-0.397919

>  <SCORE.INTRA.norm>
-0.0131621

>  <SCORE.RESTR>
0

>  <SCORE.RESTR.CAVITY>
0

>  <SCORE.RESTR.norm>
0

>  <SCORE.SYSTEM>
0

>  <SCORE.SYSTEM.CONST>
0

>  <SCORE.SYSTEM.DIHEDRAL>
0

>  <SCORE.SYSTEM.SOLV>
0

>  <SCORE.SYSTEM.norm>
0

>  <SCORE.heavy>
13

>  <SCORE.norm>
-1.25429

>  <RMSD>
4.826

$$$$
ligand
 OpenBabel02271912143D
libRbt.so/2013.1/901 2013/11/27
 13 14  0  0  0  0  0  0  0  0999 V2000
   -1.2302  -32.6508  -41.8099 N   0  0  0  0  0  0  0  0  0  0  0  0
   -0.4178  -32.2416  -42.8333 C   0  0  0  0  0  0  0  0  0  0  0  0
    0.7599  -31.6138  -42.5318 N   0  0  0  0  0  0  0  0  0  0  0  0
   -0.7519  -32.4444  -44.1081 N   0  0  0  0  0  0  0  0  0  0  0  0
   -1.9167  -33.0653  -44.4435 C   0  0  0  0  0  0  0  0  0  0  0  0
   -2.7882  -33.5013  -43.4214 C   0  0  0  0  0  0  0  0  0  0  0  0
   -2.4113  -33.2782  -42.0693 C   0  0  0  0  0  0  0  0  0  0  0  0
   -3.1228  -33.6370  -41.1639 O   0  0  0  0  0  0  0  0  0  0  0  0
   -3.9342  -34.1137  -44.0860 C   0  0  0  0  0  0  0  0  0  0  0  0
   -3.7063  -34.0269  -45.4085 C   0  0  0  0  0  0  0  0  0  0  0  0
   -2.4983  -33.3993  -45.6289 N   0  0  0  0  0  0  0  0  0  0  0  0
   -5.1418  -34.7178  -43.4162 C   0  0  0  0  0  0  0  0  0  0  0  0
   -5.8028  -35.6419  -44.3599 N   0  0  0  0  0  0  0  0  0  0  0  0
  1  2  1  0  0  0  0
  1  7  1  0  0  0  0
  2  3  1  0  0  0  0
  2  4  2  0  0  0  0
  4  5  1  0  0  0  0
  5  6  2  0  0  0  0
  5 11  1  0  0  0  0
  6  7  1  0  0  0  0
  6  9  1  0  0  0  0
  7  8  2  0  0  0  0
  9 10  2  0  0  0  0
  9 12  1  0  0  0  0
 10 11  1  0  0  0  0
 12 13  1  0  0  0  0
M  END
>  <CHROM.1>
-159.37661082,-2.54311883,-33.41566427,-43.44046709,0.29841218,0.51686716
1.54484723

>  <Name>
ligand

>  <RI>
0

>  <Rbt.Current_Directory>
/home/itssahil/PROJECTS/Mol_Feturizer/Test_systems_manuscript/rnas/3fu2

>  <Rbt.Executable>
rbdock ($Id: //depot/dev/client3/rdock/2013.1/src/exe/rbdock.cxx#4 $)

>  <Rbt.Library>
libRbt.so (2013.1, Build901 2013/11/27)

>  <Rbt.Parameter_File>
/export/apps/rDock/src/rDock_2013.1_src/data/scripts/dock_solv.prm

>  <Rbt.Receptor>
prm/blind_docking_60.prm

>  <SCORE>
-16.269

>  <SCORE.INTER>
-16.0894

>  <SCORE.INTER.CONST>
1

>  <SCORE.INTER.POLAR>
0

>  <SCORE.INTER.ROT>
1

>  <SCORE.INTER.SOLV>
16.1537

>  <SCORE.INTER.VDW>
-20.3775

>  <SCORE.INTER.norm>
-1.23765

>  <SCORE.INTRA>
-0.179605

>  <SCORE.INTRA.DIHEDRAL>
-0.00241208

>  <SCORE.INTRA.DIHEDRAL.0>
1.66609

>  <SCORE.INTRA.POLAR>
0

>  <SCORE.INTRA.POLAR.0>
0

>  <SCORE.INTRA.REPUL>
0

>  <SCORE.INTRA.REPUL.0>
0

>  <SCORE.INTRA.SOLV>
-0.982839

>  <SCORE.INTRA.SOLV.lig_0>
-45.868

>  <SCORE.INTRA.VDW>
0.31302

>  <SCORE.INTRA.VDW.0>
-0.397919

>  <SCORE.INTRA.norm>
-0.0138158

>  <SCORE.RESTR>
0

>  <SCORE.RESTR.CAVITY>
0

>  <SCORE.RESTR.norm>
0

>  <SCORE.SYSTEM>
0

>  <SCORE.SYSTEM.CONST>
0

>  <SCORE.SYSTEM.DIHEDRAL>
0

>  <SCORE.SYSTEM.SOLV>
0

>  <SCORE.SYSTEM.norm>
0

>  <SCORE.heavy>
13

>  <SCORE.norm>
-1.25146

>  <RMSD>
4.826

$$$$
ligand
 OpenBabel02271912143D
libRbt.so/2013.1/901 2013/11/27
 13 14  0  0  0  0  0  0  0  0999 V2000
   -1.2160  -32.6947  -41.7819 N   0  0  0  0  0  0  0  0  0  0  0  0
   -0.4175  -32.2538  -42.8031 C   0  0  0  0  0  0  0  0  0  0  0  0
    0.7569  -31.6215  -42.4980 N   0  0  0  0  0  0  0  0  0  0  0  0
   -0.7620  -32.4302  -44.0791 N   0  0  0  0  0  0  0  0  0  0  0  0
   -1.9238  -33.0545  -44.4179 C   0  0  0  0  0  0  0  0  0  0  0  0
   -2.7812  -33.5229  -43.3982 C   0  0  0  0  0  0  0  0  0  0  0  0
   -2.3934  -33.3276  -42.0449 C   0  0  0  0  0  0  0  0  0  0  0  0
   -3.0927  -33.7144  -41.1414 O   0  0  0  0  0  0  0  0  0  0  0  0
   -3.9275  -34.1309  -44.0660 C   0  0  0  0  0  0  0  0  0  0  0  0
   -3.7133  -34.0111  -45.3883 C   0  0  0  0  0  0  0  0  0  0  0  0
   -2.5136  -33.3666  -45.6053 N   0  0  0  0  0  0  0  0  0  0  0  0
   -5.1227  -34.7624  -43.3993 C   0  0  0  0  0  0  0  0  0  0  0  0
   -5.8222  -35.6193  -44.3781 N   0  0  0  0  0  0  0  0  0  0  0  0
  1  2  1  0  0  0  0
  1  7  1  0  0  0  0
  2  3  1  0  0  0  0
  2  4  2  0  0  0  0
  4  5  1  0  0  0  0
  5  6  2  0  0  0  0
  5 11  1  0  0  0  0
  6  7  1  0  0  0  0
  6  9  1  0  0  0  0
  7  8  2  0  0  0  0
  9 10  2  0  0  0  0
  9 12  1  0  0  0  0
 10 11  1  0  0  0  0
 12 13  1  0  0  0  0
M  END
>  <CHROM.1>
-162.13421665,-2.54026351,-33.43016273,-43.41913978,0.28912542,0.52221366
1.57395039

>  <Name>
ligand

>  <RI>
0

>  <Rbt.Current_Directory>
/home/itssahil/PROJECTS/Mol_Feturizer/Test_systems_manuscript/rnas/3fu2

>  <Rbt.Executable>
rbdock ($Id: //depot/dev/client3/rdock/2013.1/src/exe/rbdock.cxx#4 $)

>  <Rbt.Library>
libRbt.so (2013.1, Build901 2013/11/27)

>  <Rbt.Parameter_File>
/export/apps/rDock/src/rDock_2013.1_src/data/scripts/dock_solv.prm

>  <Rbt.Receptor>
prm/blind_docking_80.prm

>  <SCORE>
-16.3091

>  <SCORE.INTER>
-16.1415

>  <SCORE.INTER.CONST>
1

>  <SCORE.INTER.POLAR>
0

>  <SCORE.INTER.ROT>
1

>  <SCORE.INTER.SOLV>
15.9559

>  <SCORE.INTER.VDW>
-20.3463

>  <SCORE.INTER.norm>
-1.24165

>  <SCORE.INTRA>
-0.167673

>  <SCORE.INTRA.DIHEDRAL>
-0.00101951

>  <SCORE.INTRA.DIHEDRAL.0>
1.66609

>  <SCORE.INTRA.POLAR>
0

>  <SCORE.INTRA.POLAR.0>
0

>  <SCORE.INTRA.REPUL>
0

>  <SCORE.INTRA.REPUL.0>
0

>  <SCORE.INTRA.SOLV>
-0.982002

>  <SCORE.INTRA.SOLV.lig_0>
-45.868

>  <SCORE.INTRA.VDW>
0.323837

>  <SCORE.INTRA.VDW.0>
-0.397919

>  <SCORE.INTRA.norm>
-0.012898

>  <SCORE.RESTR>
0

>  <SCORE.RESTR.CAVITY>
0

>  <SCORE.RESTR.norm>
0

>  <SCORE.SYSTEM>
0

>  <SCORE.SYSTEM.CONST>
0

>  <SCORE.SYSTEM.DIHEDRAL>
0

>  <SCORE.SYSTEM.SOLV>
0

>  <SCORE.SYSTEM.norm>
0

>  <SCORE.heavy>
13

>  <SCORE.norm>
-1.25455

>  <RMSD>
4.826

$$$$
ligand
 OpenBabel02271912143D
libRbt.so/2013.1/901 2013/11/27
 13 14  0  0  0  0  0  0  0  0999 V2000
   -1.2270  -32.6974  -41.7740 N   0  0  0  0  0  0  0  0  0  0  0  0
   -0.4226  -32.2570  -42.7907 C   0  0  0  0  0  0  0  0  0  0  0  0
    0.7503  -31.6251  -42.4791 N   0  0  0  0  0  0  0  0  0  0  0  0
   -0.7599  -32.4335  -44.0686 N   0  0  0  0  0  0  0  0  0  0  0  0
   -1.9200  -33.0575  -44.4139 C   0  0  0  0  0  0  0  0  0  0  0  0
   -2.7833  -33.5253  -43.3989 C   0  0  0  0  0  0  0  0  0  0  0  0
   -2.4032  -33.3299  -42.0435 C   0  0  0  0  0  0  0  0  0  0  0  0
   -3.1078  -33.7162  -41.1439 O   0  0  0  0  0  0  0  0  0  0  0  0
   -3.9261  -34.1331  -44.0731 C   0  0  0  0  0  0  0  0  0  0  0  0
   -3.7043  -34.0136  -45.3942 C   0  0  0  0  0  0  0  0  0  0  0  0
   -2.5032  -33.3696  -45.6045 N   0  0  0  0  0  0  0  0  0  0  0  0
   -5.1253  -34.7639  -43.4130 C   0  0  0  0  0  0  0  0  0  0  0  0
   -5.7832  -35.6698  -44.3765 N   0  0  0  0  0  0  0  0  0  0  0  0
  1  2  1  0  0  0  0
  1  7  1  0  0  0  0
  2  3  1  0  0  0  0
  2  4  2  0  0  0  0
  4  5  1  0  0  0  0
  5  6  2  0  0  0  0
  5 11  1  0  0  0  0
  6  7  1  0  0  0  0
  6  9  1  0  0  0  0
  7  8  2  0  0  0  0
  9 10  2  0  0  0  0
  9 12  1  0  0  0  0
 10 11  1  0  0  0  0
 12 13  1  0  0  0  0
M  END
>  <CHROM.1>
-159.51332168,-2.53931649,-33.43667224,-43.41698686,0.29420527,0.52617492
1.57010235

>  <Name>
ligand

>  <RI>
0

>  <Rbt.Current_Directory>
/home/itssahil/PROJECTS/Mol_Feturizer/Test_systems_manuscript/rnas/3fu2

>  <Rbt.Executable>
rbdock ($Id: //depot/dev/client3/rdock/2013.1/src/exe/rbdock.cxx#4 $)

>  <Rbt.Library>
libRbt.so (2013.1, Build901 2013/11/27)

>  <Rbt.Parameter_File>
/export/apps/rDock/src/rDock_2013.1_src/data/scripts/dock_solv.prm

>  <Rbt.Receptor>
prm/blind_docking_80.prm

>  <SCORE>
-16.3004

>  <SCORE.INTER>
-16.1214

>  <SCORE.INTER.CONST>
1

>  <SCORE.INTER.POLAR>
0

>  <SCORE.INTER.ROT>
1

>  <SCORE.INTER.SOLV>
15.9521

>  <SCORE.INTER.VDW>
-20.3317

>  <SCORE.INTER.norm>
-1.24011

>  <SCORE.INTRA>
-0.178996

>  <SCORE.INTRA.DIHEDRAL>
-0.00235083

>  <SCORE.INTRA.DIHEDRAL.0>
1.66609

>  <SCORE.INTRA.POLAR>
0

>  <SCORE.INTRA.POLAR.0>
0

>  <SCORE.INTRA.REPUL>
0

>  <SCORE.INTRA.REPUL.0>
0

>  <SCORE.INTRA.SOLV>
-0.982796

>  <SCORE.INTRA.SOLV.lig_0>
-45.868

>  <SCORE.INTRA.VDW>
0.313577

>  <SCORE.INTRA.VDW.0>
-0.397919

>  <SCORE.INTRA.norm>
-0.013769

>  <SCORE.RESTR>
0

>  <SCORE.RESTR.CAVITY>
0

>  <SCORE.RESTR.norm>
0

>  <SCORE.SYSTEM>
0

>  <SCORE.SYSTEM.CONST>
0

>  <SCORE.SYSTEM.DIHEDRAL>
0

>  <SCORE.SYSTEM.SOLV>
0

>  <SCORE.SYSTEM.norm>
0

>  <SCORE.heavy>
13

>  <SCORE.norm>
-1.25388

>  <RMSD>
4.826

$$$$
ligand
 OpenBabel02271912143D
libRbt.so/2013.1/901 2013/11/27
 13 14  0  0  0  0  0  0  0  0999 V2000
   -1.2175  -32.6874  -41.7793 N   0  0  0  0  0  0  0  0  0  0  0  0
   -0.4178  -32.2495  -42.8009 C   0  0  0  0  0  0  0  0  0  0  0  0
    0.7563  -31.6163  -42.4963 N   0  0  0  0  0  0  0  0  0  0  0  0
   -0.7607  -32.4297  -44.0767 N   0  0  0  0  0  0  0  0  0  0  0  0
   -1.9221  -33.0551  -44.4151 C   0  0  0  0  0  0  0  0  0  0  0  0
   -2.7806  -33.5204  -43.3950 C   0  0  0  0  0  0  0  0  0  0  0  0
   -2.3945  -33.3211  -42.0418 C   0  0  0  0  0  0  0  0  0  0  0  0
   -3.0949  -33.7053  -41.1381 O   0  0  0  0  0  0  0  0  0  0  0  0
   -3.9262  -34.1305  -44.0625 C   0  0  0  0  0  0  0  0  0  0  0  0
   -3.7104  -34.0146  -45.3848 C   0  0  0  0  0  0  0  0  0  0  0  0
   -2.5104  -33.3707  -45.6023 N   0  0  0  0  0  0  0  0  0  0  0  0
   -5.1221  -34.7600  -43.3952 C   0  0  0  0  0  0  0  0  0  0  0  0
   -5.8104  -35.6335  -44.3673 N   0  0  0  0  0  0  0  0  0  0  0  0
  1  2  1  0  0  0  0
  1  7  1  0  0  0  0
  2  3  1  0  0  0  0
  2  4  2  0  0  0  0
  4  5  1  0  0  0  0
  5  6  2  0  0  0  0
  5 11  1  0  0  0  0
  6  7  1  0  0  0  0
  6  9  1  0  0  0  0
  7  8  2  0  0  0  0
  9 10  2  0  0  0  0
  9 12  1  0  0  0  0
 10 11  1  0  0  0  0
 12 13  1  0  0  0  0
M  END
>  <CHROM.1>
-161.41264071,-2.53890816,-33.42888808,-43.41556447,0.29012786,0.52345493
1.57020168

>  <Name>
ligand

>  <RI>
0

>  <Rbt.Current_Directory>
/home/itssahil/PROJECTS/Mol_Feturizer/Test_systems_manuscript/rnas/3fu2

>  <Rbt.Executable>
rbdock ($Id: //depot/dev/client3/rdock/2013.1/src/exe/rbdock.cxx#4 $)

>  <Rbt.Library>
libRbt.so (2013.1, Build901 2013/11/27)

>  <Rbt.Parameter_File>
/export/apps/rDock/src/rDock_2013.1_src/data/scripts/dock_solv.prm

>  <Rbt.Receptor>
prm/pocket_docking_3.prm

>  <SCORE>
-16.3128

>  <SCORE.INTER>
-16.1421

>  <SCORE.INTER.CONST>
1

>  <SCORE.INTER.POLAR>
0

>  <SCORE.INTER.ROT>
1

>  <SCORE.INTER.SOLV>
15.9595

>  <SCORE.INTER.VDW>
-20.3479

>  <SCORE.INTER.norm>
-1.2417

>  <SCORE.INTRA>
-0.170719

>  <SCORE.INTRA.DIHEDRAL>
-0.00141521

>  <SCORE.INTRA.DIHEDRAL.0>
1.66609

>  <SCORE.INTRA.POLAR>
0

>  <SCORE.INTRA.POLAR.0>
0

>  <SCORE.INTRA.REPUL>
0

>  <SCORE.INTRA.REPUL.0>
0

>  <SCORE.INTRA.SOLV>
-0.982213

>  <SCORE.INTRA.SOLV.lig_0>
-45.868

>  <SCORE.INTRA.VDW>
0.321095

>  <SCORE.INTRA.VDW.0>
-0.397919

>  <SCORE.INTRA.norm>
-0.0131322

>  <SCORE.RESTR>
0

>  <SCORE.RESTR.CAVITY>
0

>  <SCORE.RESTR.norm>
0

>  <SCORE.SYSTEM>
0

>  <SCORE.SYSTEM.CONST>
0

>  <SCORE.SYSTEM.DIHEDRAL>
0

>  <SCORE.SYSTEM.SOLV>
0

>  <SCORE.SYSTEM.norm>
0

>  <SCORE.heavy>
13

>  <SCORE.norm>
-1.25483

>  <RMSD>
4.826

$$$$
ligand
 OpenBabel02271912143D
libRbt.so/2013.1/901 2013/11/27
 13 14  0  0  0  0  0  0  0  0999 V2000
   -1.2181  -32.6950  -41.7727 N   0  0  0  0  0  0  0  0  0  0  0  0
   -0.4138  -32.2579  -42.7910 C   0  0  0  0  0  0  0  0  0  0  0  0
    0.7608  -31.6280  -42.4814 N   0  0  0  0  0  0  0  0  0  0  0  0
   -0.7525  -32.4358  -44.0682 N   0  0  0  0  0  0  0  0  0  0  0  0
   -1.9143  -33.0580  -44.4114 C   0  0  0  0  0  0  0  0  0  0  0  0
   -2.7776  -33.5224  -43.3949 C   0  0  0  0  0  0  0  0  0  0  0  0
   -2.3958  -33.3256  -42.0401 C   0  0  0  0  0  0  0  0  0  0  0  0
   -3.1003  -33.7090  -41.1393 O   0  0  0  0  0  0  0  0  0  0  0  0
   -3.9222  -34.1290  -44.0671 C   0  0  0  0  0  0  0  0  0  0  0  0
   -3.7014  -34.0121  -45.3885 C   0  0  0  0  0  0  0  0  0  0  0  0
   -2.4992  -33.3708  -45.6010 N   0  0  0  0  0  0  0  0  0  0  0  0
   -5.1221  -34.7563  -43.4048 C   0  0  0  0  0  0  0  0  0  0  0  0
   -5.7679  -35.6817  -44.3577 N   0  0  0  0  0  0  0  0  0  0  0  0
  1  2  1  0  0  0  0
  1  7  1  0  0  0  0
  2  3  1  0  0  0  0
  2  4  2  0  0  0  0
  4  5  1  0  0  0  0
  5  6  2  0  0  0  0
  5 11  1  0  0  0  0
  6  7  1  0  0  0  0
  6  9  1  0  0  0  0
  7  8  2  0  0  0  0
  9 10  2  0  0  0  0
  9 12  1  0  0  0  0
 10 11  1  0  0  0  0
 12 13  1  0  0  0  0
M  END
>  <CHROM.1>
-158.45462293,-2.53220783,-33.43589120,-43.41264024,0.29246832,0.52585739
1.56889700

>  <Name>
ligand

>  <RI>
0

>  <Rbt.Current_Directory>
/home/itssahil/PROJECTS/Mol_Feturizer/Test_systems_manuscript/rnas/3fu2

>  <Rbt.Executable>
rbdock ($Id: //depot/dev/client3/rdock/2013.1/src/exe/rbdock.cxx#4 $)

>  <Rbt.Library>
libRbt.so (2013.1, Build901 2013/11/27)

>  <Rbt.Parameter_File>
/export/apps/rDock/src/rDock_2013.1_src/data/scripts/dock_solv.prm

>  <Rbt.Receptor>
prm/pocket_docking_3.prm

>  <SCORE>
-16.3015

>  <SCORE.INTER>
-16.1178

>  <SCORE.INTER.CONST>
1

>  <SCORE.INTER.POLAR>
0

>  <SCORE.INTER.ROT>
1

>  <SCORE.INTER.SOLV>
15.9504

>  <SCORE.INTER.VDW>
-20.3286

>  <SCORE.INTER.norm>
-1.23983

>  <SCORE.INTRA>
-0.183753

>  <SCORE.INTRA.DIHEDRAL>
-0.00280313

>  <SCORE.INTRA.DIHEDRAL.0>
1.66609

>  <SCORE.INTRA.POLAR>
0

>  <SCORE.INTRA.POLAR.0>
0

>  <SCORE.INTRA.REPUL>
0

>  <SCORE.INTRA.REPUL.0>
0

>  <SCORE.INTRA.SOLV>
-0.983136

>  <SCORE.INTRA.SOLV.lig_0>
-45.868

>  <SCORE.INTRA.VDW>
0.309217

>  <SCORE.INTRA.VDW.0>
-0.397919

>  <SCORE.INTRA.norm>
-0.0141348

>  <SCORE.RESTR>
0

>  <SCORE.RESTR.CAVITY>
0

>  <SCORE.RESTR.norm>
0

>  <SCORE.SYSTEM>
0

>  <SCORE.SYSTEM.CONST>
0

>  <SCORE.SYSTEM.DIHEDRAL>
0

>  <SCORE.SYSTEM.SOLV>
0

>  <SCORE.SYSTEM.norm>
0

>  <SCORE.heavy>
13

>  <SCORE.norm>
-1.25396

>  <RMSD>
4.826

$$$$
ligand
 OpenBabel02271912143D
libRbt.so/2013.1/901 2013/11/27
 13 14  0  0  0  0  0  0  0  0999 V2000
   -1.2185  -32.6952  -41.7796 N   0  0  0  0  0  0  0  0  0  0  0  0
   -0.4193  -32.2562  -42.8010 C   0  0  0  0  0  0  0  0  0  0  0  0
    0.7547  -31.6229  -42.4963 N   0  0  0  0  0  0  0  0  0  0  0  0
   -0.7626  -32.4354  -44.0769 N   0  0  0  0  0  0  0  0  0  0  0  0
   -1.9239  -33.0608  -44.4154 C   0  0  0  0  0  0  0  0  0  0  0  0
   -2.7820  -33.5273  -43.3954 C   0  0  0  0  0  0  0  0  0  0  0  0
   -2.3955  -33.3290  -42.0422 C   0  0  0  0  0  0  0  0  0  0  0  0
   -3.0954  -33.7142  -41.1385 O   0  0  0  0  0  0  0  0  0  0  0  0
   -3.9276  -34.1372  -44.0630 C   0  0  0  0  0  0  0  0  0  0  0  0
   -3.7123  -34.0201  -45.3853 C   0  0  0  0  0  0  0  0  0  0  0  0
   -2.5126  -33.3756  -45.6026 N   0  0  0  0  0  0  0  0  0  0  0  0
   -5.1231  -34.7676  -43.3959 C   0  0  0  0  0  0  0  0  0  0  0  0
   -5.7842  -35.6769  -44.3539 N   0  0  0  0  0  0  0  0  0  0  0  0
  1  2  1  0  0  0  0
  1  7  1  0  0  0  0
  2  3  1  0  0  0  0
  2  4  2  0  0  0  0
  4  5  1  0  0  0  0
  5  6  2  0  0  0  0
  5 11  1  0  0  0  0
  6  7  1  0  0  0  0
  6  9  1  0  0  0  0
  7  8  2  0  0  0  0
  9 10  2  0  0  0  0
  9 12  1  0  0  0  0
 10 11  1  0  0  0  0
 12 13  1  0  0  0  0
M  END
>  <CHROM.1>
-159.45202657,-2.53808001,-33.43864512,-43.41477946,0.28859452,0.52698306
1.57098687

>  <Name>
ligand

>  <RI>
0

>  <Rbt.Current_Directory>
/home/itssahil/PROJECTS/Mol_Feturizer/Test_systems_manuscript/rnas/3fu2

>  <Rbt.Executable>
rbdock ($Id: //depot/dev/client3/rdock/2013.1/src/exe/rbdock.cxx#4 $)

>  <Rbt.Library>
libRbt.so (2013.1, Build901 2013/11/27)

>  <Rbt.Parameter_File>
/export/apps/rDock/src/rDock_2013.1_src/data/scripts/dock_solv.prm

>  <Rbt.Receptor>
prm/pocket_docking_3.prm

>  <SCORE>
-16.3101

>  <SCORE.INTER>
-16.1308

>  <SCORE.INTER.CONST>
1

>  <SCORE.INTER.POLAR>
0

>  <SCORE.INTER.ROT>
1

>  <SCORE.INTER.SOLV>
15.9658

>  <SCORE.INTER.VDW>
-20.3425

>  <SCORE.INTER.norm>
-1.24083

>  <SCORE.INTRA>
-0.179269

>  <SCORE.INTRA.DIHEDRAL>
-0.00237839

>  <SCORE.INTRA.DIHEDRAL.0>
1.66609

>  <SCORE.INTRA.POLAR>
0

>  <SCORE.INTRA.POLAR.0>
0

>  <SCORE.INTRA.REPUL>
0

>  <SCORE.INTRA.REPUL.0>
0

>  <SCORE.INTRA.SOLV>
-0.982815

>  <SCORE.INTRA.SOLV.lig_0>
-45.868

>  <SCORE.INTRA.VDW>
0.313328

>  <SCORE.INTRA.VDW.0>
-0.397919

>  <SCORE.INTRA.norm>
-0.0137899

>  <SCORE.RESTR>
0

>  <SCORE.RESTR.CAVITY>
0

>  <SCORE.RESTR.norm>
0

>  <SCORE.SYSTEM>
0

>  <SCORE.SYSTEM.CONST>
0

>  <SCORE.SYSTEM.DIHEDRAL>
0

>  <SCORE.SYSTEM.SOLV>
0

>  <SCORE.SYSTEM.norm>
0

>  <SCORE.heavy>
13

>  <SCORE.norm>
-1.25462

>  <RMSD>
4.826

$$$$
ligand
 OpenBabel02271912143D
libRbt.so/2013.1/901 2013/11/27
 13 14  0  0  0  0  0  0  0  0999 V2000
   -1.2060  -32.6971  -41.7704 N   0  0  0  0  0  0  0  0  0  0  0  0
   -0.4048  -32.2563  -42.7895 C   0  0  0  0  0  0  0  0  0  0  0  0
    0.7686  -31.6235  -42.4813 N   0  0  0  0  0  0  0  0  0  0  0  0
   -0.7454  -32.4333  -44.0664 N   0  0  0  0  0  0  0  0  0  0  0  0
   -1.9061  -33.0583  -44.4083 C   0  0  0  0  0  0  0  0  0  0  0  0
   -2.7662  -33.5265  -43.3909 C   0  0  0  0  0  0  0  0  0  0  0  0
   -2.3824  -33.3306  -42.0365 C   0  0  0  0  0  0  0  0  0  0  0  0
   -3.0842  -33.7173  -41.1350 O   0  0  0  0  0  0  0  0  0  0  0  0
   -3.9104  -34.1353  -44.0618 C   0  0  0  0  0  0  0  0  0  0  0  0
   -3.6924  -34.0159  -45.3835 C   0  0  0  0  0  0  0  0  0  0  0  0
   -2.4923  -33.3710  -45.5973 N   0  0  0  0  0  0  0  0  0  0  0  0
   -5.1072  -34.7670  -43.3983 C   0  0  0  0  0  0  0  0  0  0  0  0
   -5.8021  -35.6265  -44.3780 N   0  0  0  0  0  0  0  0  0  0  0  0
  1  2  1  0  0  0  0
  1  7  1  0  0  0  0
  2  3  1  0  0  0  0
  2  4  2  0  0  0  0
  4  5  1  0  0  0  0
  5  6  2  0  0  0  0
  5 11  1  0  0  0  0
  6  7  1  0  0  0  0
  6  9  1  0  0  0  0
  7  8  2  0  0  0  0
  9 10  2  0  0  0  0
  9 12  1  0  0  0  0
 10 11  1  0  0  0  0
 12 13  1  0  0  0  0
M  END
>  <CHROM.1>
-162.03156970,-2.52512688,-33.43392149,-43.41115068,0.29239761,0.52278168
1.57189496

>  <Name>
ligand

>  <RI>
0

>  <Rbt.Current_Directory>
/home/itssahil/PROJECTS/Mol_Feturizer/Test_systems_manuscript/rnas/3fu2

>  <Rbt.Executable>
rbdock ($Id: //depot/dev/client3/rdock/2013.1/src/exe/rbdock.cxx#4 $)

>  <Rbt.Library>
libRbt.so (2013.1, Build901 2013/11/27)

>  <Rbt.Parameter_File>
/export/apps/rDock/src/rDock_2013.1_src/data/scripts/dock_solv.prm

>  <Rbt.Receptor>
prm/pocket_docking_4.prm

>  <SCORE>
-16.2776

>  <SCORE.INTER>
-16.1095

>  <SCORE.INTER.CONST>
1

>  <SCORE.INTER.POLAR>
0

>  <SCORE.INTER.ROT>
1

>  <SCORE.INTER.SOLV>
15.9271

>  <SCORE.INTER.VDW>
-20.3154

>  <SCORE.INTER.norm>
-1.23919

>  <SCORE.INTRA>
-0.168103

>  <SCORE.INTRA.DIHEDRAL>
-0.00107711

>  <SCORE.INTRA.DIHEDRAL.0>
1.66609

>  <SCORE.INTRA.POLAR>
0

>  <SCORE.INTRA.POLAR.0>
0

>  <SCORE.INTRA.REPUL>
0

>  <SCORE.INTRA.REPUL.0>
0

>  <SCORE.INTRA.SOLV>
-0.982031

>  <SCORE.INTRA.SOLV.lig_0>
-45.868

>  <SCORE.INTRA.VDW>
0.323451

>  <SCORE.INTRA.VDW.0>
-0.397919

>  <SCORE.INTRA.norm>
-0.012931

>  <SCORE.RESTR>
0

>  <SCORE.RESTR.CAVITY>
0

>  <SCORE.RESTR.norm>
0

>  <SCORE.SYSTEM>
0

>  <SCORE.SYSTEM.CONST>
0

>  <SCORE.SYSTEM.DIHEDRAL>
0

>  <SCORE.SYSTEM.SOLV>
0

>  <SCORE.SYSTEM.norm>
0

>  <SCORE.heavy>
13

>  <SCORE.norm>
-1.25212

>  <RMSD>
4.826

$$$$
ligand
 OpenBabel02271912143D
libRbt.so/2013.1/901 2013/11/27
 13 14  0  0  0  0  0  0  0  0999 V2000
   -1.2360  -32.6897  -41.7955 N   0  0  0  0  0  0  0  0  0  0  0  0
   -0.4279  -32.2563  -42.8123 C   0  0  0  0  0  0  0  0  0  0  0  0
    0.7442  -31.6228  -42.5008 N   0  0  0  0  0  0  0  0  0  0  0  0
   -0.7608  -32.4411  -44.0902 N   0  0  0  0  0  0  0  0  0  0  0  0
   -1.9200  -33.0670  -44.4353 C   0  0  0  0  0  0  0  0  0  0  0  0
   -2.7869  -33.5278  -43.4203 C   0  0  0  0  0  0  0  0  0  0  0  0
   -2.4114  -33.3236  -42.0648 C   0  0  0  0  0  0  0  0  0  0  0  0
   -3.1192  -33.7038  -41.1652 O   0  0  0  0  0  0  0  0  0  0  0  0
   -3.9276  -34.1396  -44.0944 C   0  0  0  0  0  0  0  0  0  0  0  0
   -3.7012  -34.0289  -45.4155 C   0  0  0  0  0  0  0  0  0  0  0  0
   -2.4991  -33.3867  -45.6259 N   0  0  0  0  0  0  0  0  0  0  0  0
   -5.1293  -34.7657  -43.4343 C   0  0  0  0  0  0  0  0  0  0  0  0
   -5.8205  -35.6286  -44.4137 N   0  0  0  0  0  0  0  0  0  0  0  0
  1  2  1  0  0  0  0
  1  7  1  0  0  0  0
  2  3  1  0  0  0  0
  2  4  2  0  0  0  0
  4  5  1  0  0  0  0
  5  6  2  0  0  0  0
  5 11  1  0  0  0  0
  6  7  1  0  0  0  0
  6  9  1  0  0  0  0
  7  8  2  0  0  0  0
  9 10  2  0  0  0  0
  9 12  1  0  0  0  0
 10 11  1  0  0  0  0
 12 13  1  0  0  0  0
M  END
>  <CHROM.1>
-162.14164060,-2.54578219,-33.43539571,-43.43969505,0.29963914,0.52147322
1.56194058

>  <Name>
ligand

>  <RI>
0

>  <Rbt.Current_Directory>
/home/itssahil/PROJECTS/Mol_Feturizer/Test_systems_manuscript/rnas/3fu2

>  <Rbt.Executable>
rbdock ($Id: //depot/dev/client3/rdock/2013.1/src/exe/rbdock.cxx#4 $)

>  <Rbt.Library>
libRbt.so (2013.1, Build901 2013/11/27)

>  <Rbt.Parameter_File>
/export/apps/rDock/src/rDock_2013.1_src/data/scripts/dock_solv.prm

>  <Rbt.Receptor>
prm/pocket_docking_4.prm

>  <SCORE>
-16.2774

>  <SCORE.INTER>
-16.1097

>  <SCORE.INTER.CONST>
1

>  <SCORE.INTER.POLAR>
0

>  <SCORE.INTER.ROT>
1

>  <SCORE.INTER.SOLV>
16.0087

>  <SCORE.INTER.VDW>
-20.3427

>  <SCORE.INTER.norm>
-1.23921

>  <SCORE.INTRA>
-0.167642

>  <SCORE.INTRA.DIHEDRAL>
-0.00101533

>  <SCORE.INTRA.DIHEDRAL.0>
1.66609

>  <SCORE.INTRA.POLAR>
0

>  <SCORE.INTRA.POLAR.0>
0

>  <SCORE.INTRA.REPUL>
0

>  <SCORE.INTRA.REPUL.0>
0

>  <SCORE.INTRA.SOLV>
-0.982

>  <SCORE.INTRA.SOLV.lig_0>
-45.868

>  <SCORE.INTRA.VDW>
0.323865

>  <SCORE.INTRA.VDW.0>
-0.397919

>  <SCORE.INTRA.norm>
-0.0128956

>  <SCORE.RESTR>
0

>  <SCORE.RESTR.CAVITY>
0

>  <SCORE.RESTR.norm>
0

>  <SCORE.SYSTEM>
0

>  <SCORE.SYSTEM.CONST>
0

>  <SCORE.SYSTEM.DIHEDRAL>
0

>  <SCORE.SYSTEM.SOLV>
0

>  <SCORE.SYSTEM.norm>
0

>  <SCORE.heavy>
13

>  <SCORE.norm>
-1.25211

>  <RMSD>
4.826

$$$$
ligand
 OpenBabel02271912143D
libRbt.so/2013.1/901 2013/11/27
 13 14  0  0  0  0  0  0  0  0999 V2000
   -1.2254  -32.6880  -41.7714 N   0  0  0  0  0  0  0  0  0  0  0  0
   -0.4175  -32.2564  -42.7892 C   0  0  0  0  0  0  0  0  0  0  0  0
    0.7563  -31.6255  -42.4791 N   0  0  0  0  0  0  0  0  0  0  0  0
   -0.7523  -32.4405  -44.0667 N   0  0  0  0  0  0  0  0  0  0  0  0
   -1.9133  -33.0638  -44.4104 C   0  0  0  0  0  0  0  0  0  0  0  0
   -2.7800  -33.5227  -43.3944 C   0  0  0  0  0  0  0  0  0  0  0  0
   -2.4025  -33.3192  -42.0394 C   0  0  0  0  0  0  0  0  0  0  0  0
   -3.1101  -33.6978  -41.1390 O   0  0  0  0  0  0  0  0  0  0  0  0
   -3.9229  -34.1320  -44.0672 C   0  0  0  0  0  0  0  0  0  0  0  0
   -3.6978  -34.0219  -45.3885 C   0  0  0  0  0  0  0  0  0  0  0  0
   -2.4945  -33.3823  -45.6003 N   0  0  0  0  0  0  0  0  0  0  0  0
   -5.1252  -34.7554  -43.4057 C   0  0  0  0  0  0  0  0  0  0  0  0
   -5.7716  -35.6811  -44.3579 N   0  0  0  0  0  0  0  0  0  0  0  0
  1  2  1  0  0  0  0
  1  7  1  0  0  0  0
  2  3  1  0  0  0  0
  2  4  2  0  0  0  0
  4  5  1  0  0  0  0
  5  6  2  0  0  0  0
  5 11  1  0  0  0  0
  6  7  1  0  0  0  0
  6  9  1  0  0  0  0
  7  8  2  0  0  0  0
  9 10  2  0  0  0  0
  9 12  1  0  0  0  0
 10 11  1  0  0  0  0
 12 13  1  0  0  0  0
M  END
>  <CHROM.1>
-158.68087213,-2.53483944,-33.43603750,-43.41195026,0.29631947,0.52495502
1.56204341

>  <Name>
ligand

>  <RI>
0

>  <Rbt.Current_Directory>
/home/itssahil/PROJECTS/Mol_Feturizer/Test_systems_manuscript/rnas/3fu2

>  <Rbt.Executable>
rbdock ($Id: //depot/dev/client3/rdock/2013.1/src/exe/rbdock.cxx#4 $)

>  <Rbt.Library>
libRbt.so (2013.1, Build901 2013/11/27)

>  <Rbt.Parameter_File>
/export/apps/rDock/src/rDock_2013.1_src/data/scripts/dock_solv.prm

>  <Rbt.Receptor>
prm/pocket_docking_5.prm

>  <SCORE>
-16.2987

>  <SCORE.INTER>
-16.1159

>  <SCORE.INTER.CONST>
1

>  <SCORE.INTER.POLAR>
0

>  <SCORE.INTER.ROT>
1

>  <SCORE.INTER.SOLV>
15.9652

>  <SCORE.INTER.VDW>
-20.3324

>  <SCORE.INTER.norm>
-1.23969

>  <SCORE.INTRA>
-0.182729

>  <SCORE.INTRA.DIHEDRAL>
-0.00271074

>  <SCORE.INTRA.DIHEDRAL.0>
1.66609

>  <SCORE.INTRA.POLAR>
0

>  <SCORE.INTRA.POLAR.0>
0

>  <SCORE.INTRA.REPUL>
0

>  <SCORE.INTRA.REPUL.0>
0

>  <SCORE.INTRA.SOLV>
-0.983063

>  <SCORE.INTRA.SOLV.lig_0>
-45.868

>  <SCORE.INTRA.VDW>
0.310158

>  <SCORE.INTRA.VDW.0>
-0.397919

>  <SCORE.INTRA.norm>
-0.0140561

>  <SCORE.RESTR>
0

>  <SCORE.RESTR.CAVITY>
0

>  <SCORE.RESTR.norm>
0

>  <SCORE.SYSTEM>
0

>  <SCORE.SYSTEM.CONST>
0

>  <SCORE.SYSTEM.DIHEDRAL>
0

>  <SCORE.SYSTEM.SOLV>
0

>  <SCORE.SYSTEM.norm>
0

>  <SCORE.heavy>
13

>  <SCORE.norm>
-1.25374

>  <RMSD>
4.826

$$$$
ligand
 OpenBabel02271912143D
libRbt.so/2013.1/901 2013/11/27
 13 14  0  0  0  0  0  0  0  0999 V2000
   -1.2118  -32.6941  -41.7758 N   0  0  0  0  0  0  0  0  0  0  0  0
   -0.4122  -32.2532  -42.7962 C   0  0  0  0  0  0  0  0  0  0  0  0
    0.7611  -31.6194  -42.4898 N   0  0  0  0  0  0  0  0  0  0  0  0
   -0.7545  -32.4310  -44.0725 N   0  0  0  0  0  0  0  0  0  0  0  0
   -1.9151  -33.0569  -44.4126 C   0  0  0  0  0  0  0  0  0  0  0  0
   -2.7735  -33.5254  -43.3938 C   0  0  0  0  0  0  0  0  0  0  0  0
   -2.3881  -33.3285  -42.0401 C   0  0  0  0  0  0  0  0  0  0  0  0
   -3.0884  -33.7154  -41.1374 O   0  0  0  0  0  0  0  0  0  0  0  0
   -3.9182  -34.1353  -44.0629 C   0  0  0  0  0  0  0  0  0  0  0  0
   -3.7020  -34.0163  -45.3850 C   0  0  0  0  0  0  0  0  0  0  0  0
   -2.5027  -33.3706  -45.6007 N   0  0  0  0  0  0  0  0  0  0  0  0
   -5.1137  -34.7675  -43.3975 C   0  0  0  0  0  0  0  0  0  0  0  0
   -5.8202  -35.6128  -44.3813 N   0  0  0  0  0  0  0  0  0  0  0  0
  1  2  1  0  0  0  0
  1  7  1  0  0  0  0
  2  3  1  0  0  0  0
  2  4  2  0  0  0  0
  4  5  1  0  0  0  0
  5  6  2  0  0  0  0
  5 11  1  0  0  0  0
  6  7  1  0  0  0  0
  6  9  1  0  0  0  0
  7  8  2  0  0  0  0
  9 10  2  0  0  0  0
  9 12  1  0  0  0  0
 10 11  1  0  0  0  0
 12 13  1  0  0  0  0
M  END
>  <CHROM.1>
-162.82806741,-2.53344717,-33.43135378,-43.41486952,0.29124491,0.52216421
1.57235544

>  <Name>
ligand

>  <RI>
0

>  <Rbt.Current_Directory>
/home/itssahil/PROJECTS/Mol_Feturizer/Test_systems_manuscript/rnas/3fu2

>  <Rbt.Executable>
rbdock ($Id: //depot/dev/client3/rdock/2013.1/src/exe/rbdock.cxx#4 $)

>  <Rbt.Library>
libRbt.so (2013.1, Build901 2013/11/27)

>  <Rbt.Parameter_File>
/export/apps/rDock/src/rDock_2013.1_src/data/scripts/dock_solv.prm

>  <Rbt.Receptor>
prm/pocket_docking_5.prm

>  <SCORE>
-16.2792

>  <SCORE.INTER>
-16.1144

>  <SCORE.INTER.CONST>
1

>  <SCORE.INTER.POLAR>
0

>  <SCORE.INTER.ROT>
1

>  <SCORE.INTER.SOLV>
15.9379

>  <SCORE.INTER.VDW>
-20.3222

>  <SCORE.INTER.norm>
-1.23957

>  <SCORE.INTRA>
-0.164803

>  <SCORE.INTRA.DIHEDRAL>
-0.000618907

>  <SCORE.INTRA.DIHEDRAL.0>
1.66609

>  <SCORE.INTRA.POLAR>
0

>  <SCORE.INTRA.POLAR.0>
0

>  <SCORE.INTRA.REPUL>
0

>  <SCORE.INTRA.REPUL.0>
0

>  <SCORE.INTRA.SOLV>
-0.981804

>  <SCORE.INTRA.SOLV.lig_0>
-45.868

>  <SCORE.INTRA.VDW>
0.326409

>  <SCORE.INTRA.VDW.0>
-0.397919

>  <SCORE.INTRA.norm>
-0.0126771

>  <SCORE.RESTR>
0

>  <SCORE.RESTR.CAVITY>
0

>  <SCORE.RESTR.norm>
0

>  <SCORE.SYSTEM>
0

>  <SCORE.SYSTEM.CONST>
0

>  <SCORE.SYSTEM.DIHEDRAL>
0

>  <SCORE.SYSTEM.SOLV>
0

>  <SCORE.SYSTEM.norm>
0

>  <SCORE.heavy>
13

>  <SCORE.norm>
-1.25224

>  <RMSD>
4.826

$$$$
ligand
 OpenBabel02271912143D
libRbt.so/2013.1/901 2013/11/27
 13 14  0  0  0  0  0  0  0  0999 V2000
   -1.2112  -32.7036  -41.7752 N   0  0  0  0  0  0  0  0  0  0  0  0
   -0.4148  -32.2572  -42.7957 C   0  0  0  0  0  0  0  0  0  0  0  0
    0.7563  -31.6193  -42.4894 N   0  0  0  0  0  0  0  0  0  0  0  0
   -0.7580  -32.4337  -44.0720 N   0  0  0  0  0  0  0  0  0  0  0  0
   -1.9165  -33.0635  -44.4119 C   0  0  0  0  0  0  0  0  0  0  0  0
   -2.7717  -33.5376  -43.3930 C   0  0  0  0  0  0  0  0  0  0  0  0
   -2.3853  -33.3422  -42.0393 C   0  0  0  0  0  0  0  0  0  0  0  0
   -3.0828  -33.7338  -41.1366 O   0  0  0  0  0  0  0  0  0  0  0  0
   -3.9148  -34.1507  -44.0620 C   0  0  0  0  0  0  0  0  0  0  0  0
   -3.7008  -34.0280  -45.3840 C   0  0  0  0  0  0  0  0  0  0  0  0
   -2.5044  -33.3770  -45.5998 N   0  0  0  0  0  0  0  0  0  0  0  0
   -5.1068  -34.7892  -43.3963 C   0  0  0  0  0  0  0  0  0  0  0  0
   -5.8063  -35.6419  -44.3787 N   0  0  0  0  0  0  0  0  0  0  0  0
  1  2  1  0  0  0  0
  1  7  1  0  0  0  0
  2  3  1  0  0  0  0
  2  4  2  0  0  0  0
  4  5  1  0  0  0  0
  5  6  2  0  0  0  0
  5 11  1  0  0  0  0
  6  7  1  0  0  0  0
  6  9  1  0  0  0  0
  7  8  2  0  0  0  0
  9 10  2  0  0  0  0
  9 12  1  0  0  0  0
 10 11  1  0  0  0  0
 12 13  1  0  0  0  0
M  END
>  <CHROM.1>
-162.47492924,-2.53165954,-33.44314713,-43.41396941,0.28956279,0.52679810
1.57520990

>  <Name>
ligand

>  <RI>
0

>  <Rbt.Current_Directory>
/home/itssahil/PROJECTS/Mol_Feturizer/Test_systems_manuscript/rnas/3fu2

>  <Rbt.Executable>
rbdock ($Id: //depot/dev/client3/rdock/2013.1/src/exe/rbdock.cxx#4 $)

>  <Rbt.Library>
libRbt.so (2013.1, Build901 2013/11/27)

>  <Rbt.Parameter_File>
/export/apps/rDock/src/rDock_2013.1_src/data/scripts/dock_solv.prm

>  <Rbt.Receptor>
prm/pocket_docking_6.prm

>  <SCORE>
-16.2775

>  <SCORE.INTER>
-16.1112

>  <SCORE.INTER.CONST>
1

>  <SCORE.INTER.POLAR>
0

>  <SCORE.INTER.ROT>
1

>  <SCORE.INTER.SOLV>
15.9388

>  <SCORE.INTER.VDW>
-20.3204

>  <SCORE.INTER.norm>
-1.23932

>  <SCORE.INTRA>
-0.166257

>  <SCORE.INTRA.DIHEDRAL>
-0.000825225

>  <SCORE.INTRA.DIHEDRAL.0>
1.66609

>  <SCORE.INTRA.POLAR>
0

>  <SCORE.INTRA.POLAR.0>
0

>  <SCORE.INTRA.REPUL>
0

>  <SCORE.INTRA.REPUL.0>
0

>  <SCORE.INTRA.SOLV>
-0.981904

>  <SCORE.INTRA.SOLV.lig_0>
-45.868

>  <SCORE.INTRA.VDW>
0.325108

>  <SCORE.INTRA.VDW.0>
-0.397919

>  <SCORE.INTRA.norm>
-0.012789

>  <SCORE.RESTR>
0

>  <SCORE.RESTR.CAVITY>
0

>  <SCORE.RESTR.norm>
0

>  <SCORE.SYSTEM>
0

>  <SCORE.SYSTEM.CONST>
0

>  <SCORE.SYSTEM.DIHEDRAL>
0

>  <SCORE.SYSTEM.SOLV>
0

>  <SCORE.SYSTEM.norm>
0

>  <SCORE.heavy>
13

>  <SCORE.norm>
-1.25211

>  <RMSD>
4.826

$$$$
ligand
 OpenBabel02271912143D
libRbt.so/2013.1/901 2013/11/27
 13 14  0  0  0  0  0  0  0  0999 V2000
   -1.2195  -32.6864  -41.7801 N   0  0  0  0  0  0  0  0  0  0  0  0
   -0.4196  -32.2496  -42.8020 C   0  0  0  0  0  0  0  0  0  0  0  0
    0.7541  -31.6156  -42.4978 N   0  0  0  0  0  0  0  0  0  0  0  0
   -0.7620  -32.4315  -44.0777 N   0  0  0  0  0  0  0  0  0  0  0  0
   -1.9231  -33.0577  -44.4156 C   0  0  0  0  0  0  0  0  0  0  0  0
   -2.7819  -33.5220  -43.3952 C   0  0  0  0  0  0  0  0  0  0  0  0
   -2.3963  -33.3209  -42.0422 C   0  0  0  0  0  0  0  0  0  0  0  0
   -3.0968  -33.7041  -41.1382 O   0  0  0  0  0  0  0  0  0  0  0  0
   -3.9270  -34.1334  -44.0623 C   0  0  0  0  0  0  0  0  0  0  0  0
   -3.7108  -34.0191  -45.3847 C   0  0  0  0  0  0  0  0  0  0  0  0
   -2.5110  -33.3750  -45.6026 N   0  0  0  0  0  0  0  0  0  0  0  0
   -5.1229  -34.7624  -43.3946 C   0  0  0  0  0  0  0  0  0  0  0  0
   -5.7874  -35.6683  -44.3535 N   0  0  0  0  0  0  0  0  0  0  0  0
  1  2  1  0  0  0  0
  1  7  1  0  0  0  0
  2  3  1  0  0  0  0
  2  4  2  0  0  0  0
  4  5  1  0  0  0  0
  5  6  2  0  0  0  0
  5 11  1  0  0  0  0
  6  7  1  0  0  0  0
  6  9  1  0  0  0  0
  7  8  2  0  0  0  0
  9 10  2  0  0  0  0
  9 12  1  0  0  0  0
 10 11  1  0  0  0  0
 12 13  1  0  0  0  0
M  END
>  <CHROM.1>
-159.74711919,-2.53826894,-33.43295103,-43.41481736,0.28955805,0.52653090
1.56850595

>  <Name>
ligand

>  <RI>
0

>  <Rbt.Current_Directory>
/home/itssahil/PROJECTS/Mol_Feturizer/Test_systems_manuscript/rnas/3fu2

>  <Rbt.Executable>
rbdock ($Id: //depot/dev/client3/rdock/2013.1/src/exe/rbdock.cxx#4 $)

>  <Rbt.Library>
libRbt.so (2013.1, Build901 2013/11/27)

>  <Rbt.Parameter_File>
/export/apps/rDock/src/rDock_2013.1_src/data/scripts/dock_solv.prm

>  <Rbt.Receptor>
prm/pocket_docking_7.prm

>  <SCORE>
-16.3113

>  <SCORE.INTER>
-16.1333

>  <SCORE.INTER.CONST>
1

>  <SCORE.INTER.POLAR>
0

>  <SCORE.INTER.ROT>
1

>  <SCORE.INTER.SOLV>
15.9695

>  <SCORE.INTER.VDW>
-20.3454

>  <SCORE.INTER.norm>
-1.24103

>  <SCORE.INTRA>
-0.177959

>  <SCORE.INTRA.DIHEDRAL>
-0.00224416

>  <SCORE.INTRA.DIHEDRAL.0>
1.66609

>  <SCORE.INTRA.POLAR>
0

>  <SCORE.INTRA.POLAR.0>
0

>  <SCORE.INTRA.REPUL>
0

>  <SCORE.INTRA.REPUL.0>
0

>  <SCORE.INTRA.SOLV>
-0.982722

>  <SCORE.INTRA.SOLV.lig_0>
-45.868

>  <SCORE.INTRA.VDW>
0.314524

>  <SCORE.INTRA.VDW.0>
-0.397919

>  <SCORE.INTRA.norm>
-0.0136891

>  <SCORE.RESTR>
0

>  <SCORE.RESTR.CAVITY>
0

>  <SCORE.RESTR.norm>
0

>  <SCORE.SYSTEM>
0

>  <SCORE.SYSTEM.CONST>
0

>  <SCORE.SYSTEM.DIHEDRAL>
0

>  <SCORE.SYSTEM.SOLV>
0

>  <SCORE.SYSTEM.norm>
0

>  <SCORE.heavy>
13

>  <SCORE.norm>
-1.25471

>  <RMSD>
4.826

$$$$
ligand
 OpenBabel02271912143D
libRbt.so/2013.1/901 2013/11/27
 13 14  0  0  0  0  0  0  0  0999 V2000
   -1.2205  -32.6921  -41.7677 N   0  0  0  0  0  0  0  0  0  0  0  0
   -0.4201  -32.2537  -42.7884 C   0  0  0  0  0  0  0  0  0  0  0  0
    0.7534  -31.6200  -42.4826 N   0  0  0  0  0  0  0  0  0  0  0  0
   -0.7617  -32.4337  -44.0646 N   0  0  0  0  0  0  0  0  0  0  0  0
   -1.9226  -33.0596  -44.4042 C   0  0  0  0  0  0  0  0  0  0  0  0
   -2.7818  -33.5255  -43.3850 C   0  0  0  0  0  0  0  0  0  0  0  0
   -2.3971  -33.3263  -42.0314 C   0  0  0  0  0  0  0  0  0  0  0  0
   -3.0981  -33.7110  -41.1284 O   0  0  0  0  0  0  0  0  0  0  0  0
   -3.9265  -34.1360  -44.0536 C   0  0  0  0  0  0  0  0  0  0  0  0
   -3.7095  -34.0197  -45.3757 C   0  0  0  0  0  0  0  0  0  0  0  0
   -2.5097  -33.3752  -45.5920 N   0  0  0  0  0  0  0  0  0  0  0  0
   -5.1228  -34.7662  -43.3876 C   0  0  0  0  0  0  0  0  0  0  0  0
   -5.7697  -35.6928  -44.3387 N   0  0  0  0  0  0  0  0  0  0  0  0
  1  2  1  0  0  0  0
  1  7  1  0  0  0  0
  2  3  1  0  0  0  0
  2  4  2  0  0  0  0
  4  5  1  0  0  0  0
  5  6  2  0  0  0  0
  5 11  1  0  0  0  0
  6  7  1  0  0  0  0
  6  9  1  0  0  0  0
  7  8  2  0  0  0  0
  9 10  2  0  0  0  0
  9 12  1  0  0  0  0
 10 11  1  0  0  0  0
 12 13  1  0  0  0  0
M  END
>  <CHROM.1>
-158.54034339,-2.53687588,-33.43818481,-43.40351396,0.28948083,0.52861213
1.56952235

>  <Name>
ligand

>  <RI>
0

>  <Rbt.Current_Directory>
/home/itssahil/PROJECTS/Mol_Feturizer/Test_systems_manuscript/rnas/3fu2

>  <Rbt.Executable>
rbdock ($Id: //depot/dev/client3/rdock/2013.1/src/exe/rbdock.cxx#4 $)

>  <Rbt.Library>
libRbt.so (2013.1, Build901 2013/11/27)

>  <Rbt.Parameter_File>
/export/apps/rDock/src/rDock_2013.1_src/data/scripts/dock_solv.prm

>  <Rbt.Receptor>
prm/pocket_docking_7.prm

>  <SCORE>
-16.2882

>  <SCORE.INTER>
-16.1049

>  <SCORE.INTER.CONST>
1

>  <SCORE.INTER.POLAR>
0

>  <SCORE.INTER.ROT>
1

>  <SCORE.INTER.SOLV>
15.9443

>  <SCORE.INTER.VDW>
-20.318

>  <SCORE.INTER.norm>
-1.23884

>  <SCORE.INTRA>
-0.183364

>  <SCORE.INTRA.DIHEDRAL>
-0.00276841

>  <SCORE.INTRA.DIHEDRAL.0>
1.66609

>  <SCORE.INTRA.POLAR>
0

>  <SCORE.INTRA.POLAR.0>
0

>  <SCORE.INTRA.REPUL>
0

>  <SCORE.INTRA.REPUL.0>
0

>  <SCORE.INTRA.SOLV>
-0.983108

>  <SCORE.INTRA.SOLV.lig_0>
-45.868

>  <SCORE.INTRA.VDW>
0.309574

>  <SCORE.INTRA.VDW.0>
-0.397919

>  <SCORE.INTRA.norm>
-0.014105

>  <SCORE.RESTR>
0

>  <SCORE.RESTR.CAVITY>
0

>  <SCORE.RESTR.norm>
0

>  <SCORE.SYSTEM>
0

>  <SCORE.SYSTEM.CONST>
0

>  <SCORE.SYSTEM.DIHEDRAL>
0

>  <SCORE.SYSTEM.SOLV>
0

>  <SCORE.SYSTEM.norm>
0

>  <SCORE.heavy>
13

>  <SCORE.norm>
-1.25294

>  <RMSD>
4.826

$$$$
ligand
 OpenBabel02271912143D
libRbt.so/2013.1/901 2013/11/27
 13 14  0  0  0  0  0  0  0  0999 V2000
   -1.1945  -32.6833  -41.7763 N   0  0  0  0  0  0  0  0  0  0  0  0
   -0.3873  -32.2646  -42.8001 C   0  0  0  0  0  0  0  0  0  0  0  0
    0.7919  -31.6395  -42.4986 N   0  0  0  0  0  0  0  0  0  0  0  0
   -0.7279  -32.4556  -44.0750 N   0  0  0  0  0  0  0  0  0  0  0  0
   -1.8943  -33.0734  -44.4102 C   0  0  0  0  0  0  0  0  0  0  0  0
   -2.7606  -33.5190  -43.3878 C   0  0  0  0  0  0  0  0  0  0  0  0
   -2.3769  -33.3084  -42.0356 C   0  0  0  0  0  0  0  0  0  0  0  0
   -3.0838  -33.6756  -41.1300 O   0  0  0  0  0  0  0  0  0  0  0  0
   -3.9099  -34.1253  -44.0522 C   0  0  0  0  0  0  0  0  0  0  0  0
   -3.6888  -34.0262  -45.3750 C   0  0  0  0  0  0  0  0  0  0  0  0
   -2.4819  -33.3964  -45.5957 N   0  0  0  0  0  0  0  0  0  0  0  0
   -5.1141  -34.7356  -43.3819 C   0  0  0  0  0  0  0  0  0  0  0  0
   -5.8147  -35.6034  -44.3502 N   0  0  0  0  0  0  0  0  0  0  0  0
  1  2  1  0  0  0  0
  1  7  1  0  0  0  0
  2  3  1  0  0  0  0
  2  4  2  0  0  0  0
  4  5  1  0  0  0  0
  5  6  2  0  0  0  0
  5 11  1  0  0  0  0
  6  7  1  0  0  0  0
  6  9  1  0  0  0  0
  7  8  2  0  0  0  0
  9 10  2  0  0  0  0
  9 12  1  0  0  0  0
 10 11  1  0  0  0  0
 12 13  1  0  0  0  0
M  END
>  <CHROM.1>
-161.92076665,-2.51848935,-33.42923736,-43.40886105,0.29403167,0.51281629
1.55735910

>  <Name>
ligand

>  <RI>
0

>  <Rbt.Current_Directory>
/home/itssahil/PROJECTS/Mol_Feturizer/Test_systems_manuscript/rnas/3fu2

>  <Rbt.Executable>
rbdock ($Id: //depot/dev/client3/rdock/2013.1/src/exe/rbdock.cxx#4 $)

>  <Rbt.Library>
libRbt.so (2013.1, Build901 2013/11/27)

>  <Rbt.Parameter_File>
/export/apps/rDock/src/rDock_2013.1_src/data/scripts/dock_solv.prm

>  <Rbt.Receptor>
prm/pocket_docking_8.prm

>  <SCORE>
-16.2919

>  <SCORE.INTER>
-16.1233

>  <SCORE.INTER.CONST>
1

>  <SCORE.INTER.POLAR>
0

>  <SCORE.INTER.ROT>
1

>  <SCORE.INTER.SOLV>
16.0223

>  <SCORE.INTER.VDW>
-20.3563

>  <SCORE.INTER.norm>
-1.24025

>  <SCORE.INTRA>
-0.168568

>  <SCORE.INTRA.DIHEDRAL>
-0.00113881

>  <SCORE.INTRA.DIHEDRAL.0>
1.66609

>  <SCORE.INTRA.POLAR>
0

>  <SCORE.INTRA.POLAR.0>
0

>  <SCORE.INTRA.REPUL>
0

>  <SCORE.INTRA.REPUL.0>
0

>  <SCORE.INTRA.SOLV>
-0.982064

>  <SCORE.INTRA.SOLV.lig_0>
-45.868

>  <SCORE.INTRA.VDW>
0.323033

>  <SCORE.INTRA.VDW.0>
-0.397919

>  <SCORE.INTRA.norm>
-0.0129668

>  <SCORE.RESTR>
0

>  <SCORE.RESTR.CAVITY>
0

>  <SCORE.RESTR.norm>
0

>  <SCORE.SYSTEM>
0

>  <SCORE.SYSTEM.CONST>
0

>  <SCORE.SYSTEM.DIHEDRAL>
0

>  <SCORE.SYSTEM.SOLV>
0

>  <SCORE.SYSTEM.norm>
0

>  <SCORE.heavy>
13

>  <SCORE.norm>
-1.25322

>  <RMSD>
4.826

$$$$
ligand
 OpenBabel02271912143D
libRbt.so/2013.1/901 2013/11/27
 13 14  0  0  0  0  0  0  0  0999 V2000
   -1.2018  -32.7016  -41.7751 N   0  0  0  0  0  0  0  0  0  0  0  0
   -0.4060  -32.2547  -42.7958 C   0  0  0  0  0  0  0  0  0  0  0  0
    0.7672  -31.6205  -42.4900 N   0  0  0  0  0  0  0  0  0  0  0  0
   -0.7519  -32.4271  -44.0719 N   0  0  0  0  0  0  0  0  0  0  0  0
   -1.9126  -33.0532  -44.4114 C   0  0  0  0  0  0  0  0  0  0  0  0
   -2.7672  -33.5277  -43.3922 C   0  0  0  0  0  0  0  0  0  0  0  0
   -2.3779  -33.3366  -42.0387 C   0  0  0  0  0  0  0  0  0  0  0  0
   -3.0748  -33.7287  -41.1357 O   0  0  0  0  0  0  0  0  0  0  0  0
   -3.9129  -34.1362  -44.0607 C   0  0  0  0  0  0  0  0  0  0  0  0
   -3.7010  -34.0107  -45.3828 C   0  0  0  0  0  0  0  0  0  0  0  0
   -2.5033  -33.3622  -45.5991 N   0  0  0  0  0  0  0  0  0  0  0  0
   -5.1054  -34.7734  -43.3945 C   0  0  0  0  0  0  0  0  0  0  0  0
   -5.7909  -35.6463  -44.3691 N   0  0  0  0  0  0  0  0  0  0  0  0
  1  2  1  0  0  0  0
  1  7  1  0  0  0  0
  2  3  1  0  0  0  0
  2  4  2  0  0  0  0
  4  5  1  0  0  0  0
  5  6  2  0  0  0  0
  5 11  1  0  0  0  0
  6  7  1  0  0  0  0
  6  9  1  0  0  0  0
  7  8  2  0  0  0  0
  9 10  2  0  0  0  0
  9 12  1  0  0  0  0
 10 11  1  0  0  0  0
 12 13  1  0  0  0  0
M  END
>  <CHROM.1>
-161.17994833,-2.52546450,-33.43573597,-43.41261680,0.28686371,0.52642268
1.57855203

>  <Name>
ligand

>  <RI>
0

>  <Rbt.Current_Directory>
/home/itssahil/PROJECTS/Mol_Feturizer/Test_systems_manuscript/rnas/3fu2

>  <Rbt.Executable>
rbdock ($Id: //depot/dev/client3/rdock/2013.1/src/exe/rbdock.cxx#4 $)

>  <Rbt.Library>
libRbt.so (2013.1, Build901 2013/11/27)

>  <Rbt.Parameter_File>
/export/apps/rDock/src/rDock_2013.1_src/data/scripts/dock_solv.prm

>  <Rbt.Receptor>
prm/blind_docking_80.prm

>  <SCORE>
-16.2772

>  <SCORE.INTER>
-16.1055

>  <SCORE.INTER.CONST>
1

>  <SCORE.INTER.POLAR>
0

>  <SCORE.INTER.ROT>
1

>  <SCORE.INTER.SOLV>
15.9287

>  <SCORE.INTER.VDW>
-20.3133

>  <SCORE.INTER.norm>
-1.23889

>  <SCORE.INTRA>
-0.171713

>  <SCORE.INTRA.DIHEDRAL>
-0.00153818

>  <SCORE.INTRA.DIHEDRAL.0>
1.66609

>  <SCORE.INTRA.POLAR>
0

>  <SCORE.INTRA.POLAR.0>
0

>  <SCORE.INTRA.REPUL>
0

>  <SCORE.INTRA.REPUL.0>
0

>  <SCORE.INTRA.SOLV>
-0.982282

>  <SCORE.INTRA.SOLV.lig_0>
-45.868

>  <SCORE.INTRA.VDW>
0.320197

>  <SCORE.INTRA.VDW.0>
-0.397919

>  <SCORE.INTRA.norm>
-0.0132087

>  <SCORE.RESTR>
0

>  <SCORE.RESTR.CAVITY>
0

>  <SCORE.RESTR.norm>
0

>  <SCORE.SYSTEM>
0

>  <SCORE.SYSTEM.CONST>
0

>  <SCORE.SYSTEM.DIHEDRAL>
0

>  <SCORE.SYSTEM.SOLV>
0

>  <SCORE.SYSTEM.norm>
0

>  <SCORE.heavy>
13

>  <SCORE.norm>
-1.2521

>  <RMSD>
4.827

$$$$
ligand
 OpenBabel02271912143D
libRbt.so/2013.1/901 2013/11/27
 13 14  0  0  0  0  0  0  0  0999 V2000
   -1.1906  -32.6962  -41.7819 N   0  0  0  0  0  0  0  0  0  0  0  0
   -0.3880  -32.2672  -42.8048 C   0  0  0  0  0  0  0  0  0  0  0  0
    0.7887  -31.6379  -42.5023 N   0  0  0  0  0  0  0  0  0  0  0  0
   -0.7305  -32.4522  -44.0801 N   0  0  0  0  0  0  0  0  0  0  0  0
   -1.8945  -33.0739  -44.4164 C   0  0  0  0  0  0  0  0  0  0  0  0
   -2.7561  -33.5301  -43.3948 C   0  0  0  0  0  0  0  0  0  0  0  0
   -2.3704  -33.3258  -42.0423 C   0  0  0  0  0  0  0  0  0  0  0  0
   -3.0734  -33.7021  -41.1373 O   0  0  0  0  0  0  0  0  0  0  0  0
   -3.9038  -34.1383  -44.0603 C   0  0  0  0  0  0  0  0  0  0  0  0
   -3.6862  -34.0300  -45.3830 C   0  0  0  0  0  0  0  0  0  0  0  0
   -2.4831  -33.3928  -45.6025 N   0  0  0  0  0  0  0  0  0  0  0  0
   -5.1033  -34.7589  -43.3911 C   0  0  0  0  0  0  0  0  0  0  0  0
   -5.8089  -35.6144  -44.3667 N   0  0  0  0  0  0  0  0  0  0  0  0
  1  2  1  0  0  0  0
  1  7  1  0  0  0  0
  2  3  1  0  0  0  0
  2  4  2  0  0  0  0
  4  5  1  0  0  0  0
  5  6  2  0  0  0  0
  5 11  1  0  0  0  0
  6  7  1  0  0  0  0
  6  9  1  0  0  0  0
  7  8  2  0  0  0  0
  9 10  2  0  0  0  0
  9 12  1  0  0  0  0
 10 11  1  0  0  0  0
 12 13  1  0  0  0  0
M  END
>  <CHROM.1>
-162.44759199,-2.51510154,-33.43820522,-43.41619448,0.29175821,0.51710404
1.56476305

>  <Name>
ligand

>  <RI>
0

>  <Rbt.Current_Directory>
/home/itssahil/PROJECTS/Mol_Feturizer/Test_systems_manuscript/rnas/3fu2

>  <Rbt.Executable>
rbdock ($Id: //depot/dev/client3/rdock/2013.1/src/exe/rbdock.cxx#4 $)

>  <Rbt.Library>
libRbt.so (2013.1, Build901 2013/11/27)

>  <Rbt.Parameter_File>
/export/apps/rDock/src/rDock_2013.1_src/data/scripts/dock_solv.prm

>  <Rbt.Receptor>
prm/blind_docking_80.prm

>  <SCORE>
-16.3015

>  <SCORE.INTER>
-16.1351

>  <SCORE.INTER.CONST>
1

>  <SCORE.INTER.POLAR>
0

>  <SCORE.INTER.ROT>
1

>  <SCORE.INTER.SOLV>
16.0115

>  <SCORE.INTER.VDW>
-20.3606

>  <SCORE.INTER.norm>
-1.24116

>  <SCORE.INTRA>
-0.16637

>  <SCORE.INTRA.DIHEDRAL>
-0.000840987

>  <SCORE.INTRA.DIHEDRAL.0>
1.66609

>  <SCORE.INTRA.POLAR>
0

>  <SCORE.INTRA.POLAR.0>
0

>  <SCORE.INTRA.REPUL>
0

>  <SCORE.INTRA.REPUL.0>
0

>  <SCORE.INTRA.SOLV>
-0.981912

>  <SCORE.INTRA.SOLV.lig_0>
-45.868

>  <SCORE.INTRA.VDW>
0.325007

>  <SCORE.INTRA.VDW.0>
-0.397919

>  <SCORE.INTRA.norm>
-0.0127977

>  <SCORE.RESTR>
0

>  <SCORE.RESTR.CAVITY>
0

>  <SCORE.RESTR.norm>
0

>  <SCORE.SYSTEM>
0

>  <SCORE.SYSTEM.CONST>
0

>  <SCORE.SYSTEM.DIHEDRAL>
0

>  <SCORE.SYSTEM.SOLV>
0

>  <SCORE.SYSTEM.norm>
0

>  <SCORE.heavy>
13

>  <SCORE.norm>
-1.25396

>  <RMSD>
4.827

$$$$
ligand
 OpenBabel02271912143D
libRbt.so/2013.1/901 2013/11/27
 13 14  0  0  0  0  0  0  0  0999 V2000
   -1.2026  -32.7029  -41.7701 N   0  0  0  0  0  0  0  0  0  0  0  0
   -0.4032  -32.2577  -42.7888 C   0  0  0  0  0  0  0  0  0  0  0  0
    0.7699  -31.6248  -42.4800 N   0  0  0  0  0  0  0  0  0  0  0  0
   -0.7455  -32.4305  -44.0658 N   0  0  0  0  0  0  0  0  0  0  0  0
   -1.9060  -33.0554  -44.4083 C   0  0  0  0  0  0  0  0  0  0  0  0
   -2.7642  -33.5281  -43.3913 C   0  0  0  0  0  0  0  0  0  0  0  0
   -2.3787  -33.3365  -42.0368 C   0  0  0  0  0  0  0  0  0  0  0  0
   -3.0789  -33.7271  -41.1357 O   0  0  0  0  0  0  0  0  0  0  0  0
   -3.9087  -34.1357  -44.0628 C   0  0  0  0  0  0  0  0  0  0  0  0
   -3.6927  -34.0114  -45.3843 C   0  0  0  0  0  0  0  0  0  0  0  0
   -2.4936  -33.3646  -45.5975 N   0  0  0  0  0  0  0  0  0  0  0  0
   -5.1040  -34.7708  -43.3998 C   0  0  0  0  0  0  0  0  0  0  0  0
   -5.8122  -35.6100  -44.3877 N   0  0  0  0  0  0  0  0  0  0  0  0
  1  2  1  0  0  0  0
  1  7  1  0  0  0  0
  2  3  1  0  0  0  0
  2  4  2  0  0  0  0
  4  5  1  0  0  0  0
  5  6  2  0  0  0  0
  5 11  1  0  0  0  0
  6  7  1  0  0  0  0
  6  9  1  0  0  0  0
  7  8  2  0  0  0  0
  9 10  2  0  0  0  0
  9 12  1  0  0  0  0
 10 11  1  0  0  0  0
 12 13  1  0  0  0  0
M  END
>  <CHROM.1>
-162.95588981,-2.52431383,-33.43374240,-43.41207675,0.29123920,0.52222616
1.57637302

>  <Name>
ligand

>  <RI>
0

>  <Rbt.Current_Directory>
/home/itssahil/PROJECTS/Mol_Feturizer/Test_systems_manuscript/rnas/3fu2

>  <Rbt.Executable>
rbdock ($Id: //depot/dev/client3/rdock/2013.1/src/exe/rbdock.cxx#4 $)

>  <Rbt.Library>
libRbt.so (2013.1, Build901 2013/11/27)

>  <Rbt.Parameter_File>
/export/apps/rDock/src/rDock_2013.1_src/data/scripts/dock_solv.prm

>  <Rbt.Receptor>
prm/pocket_docking_4.prm

>  <SCORE>
-16.2779

>  <SCORE.INTER>
-16.1136

>  <SCORE.INTER.CONST>
1

>  <SCORE.INTER.POLAR>
0

>  <SCORE.INTER.ROT>
1

>  <SCORE.INTER.SOLV>
15.9138

>  <SCORE.INTER.VDW>
-20.3137

>  <SCORE.INTER.norm>
-1.23951

>  <SCORE.INTRA>
-0.164281

>  <SCORE.INTRA.DIHEDRAL>
-0.000543

>  <SCORE.INTRA.DIHEDRAL.0>
1.66609

>  <SCORE.INTRA.POLAR>
0

>  <SCORE.INTRA.POLAR.0>
0

>  <SCORE.INTRA.REPUL>
0

>  <SCORE.INTRA.REPUL.0>
0

>  <SCORE.INTRA.SOLV>
-0.981768

>  <SCORE.INTRA.SOLV.lig_0>
-45.868

>  <SCORE.INTRA.VDW>
0.326875

>  <SCORE.INTRA.VDW.0>
-0.397919

>  <SCORE.INTRA.norm>
-0.012637

>  <SCORE.RESTR>
0

>  <SCORE.RESTR.CAVITY>
0

>  <SCORE.RESTR.norm>
0

>  <SCORE.SYSTEM>
0

>  <SCORE.SYSTEM.CONST>
0

>  <SCORE.SYSTEM.DIHEDRAL>
0

>  <SCORE.SYSTEM.SOLV>
0

>  <SCORE.SYSTEM.norm>
0

>  <SCORE.heavy>
13

>  <SCORE.norm>
-1.25215

>  <RMSD>
4.827

$$$$
ligand
 OpenBabel02271912143D
libRbt.so/2013.1/901 2013/11/27
 13 14  0  0  0  0  0  0  0  0999 V2000
   -1.2078  -32.7048  -41.7802 N   0  0  0  0  0  0  0  0  0  0  0  0
   -0.4147  -32.2557  -42.8020 C   0  0  0  0  0  0  0  0  0  0  0  0
    0.7573  -31.6184  -42.4979 N   0  0  0  0  0  0  0  0  0  0  0  0
   -0.7618  -32.4291  -44.0777 N   0  0  0  0  0  0  0  0  0  0  0  0
   -1.9213  -33.0583  -44.4155 C   0  0  0  0  0  0  0  0  0  0  0  0
   -2.7732  -33.5351  -43.3951 C   0  0  0  0  0  0  0  0  0  0  0  0
   -2.3826  -33.3429  -42.0422 C   0  0  0  0  0  0  0  0  0  0  0  0
   -3.0772  -33.7369  -41.1383 O   0  0  0  0  0  0  0  0  0  0  0  0
   -3.9182  -34.1468  -44.0620 C   0  0  0  0  0  0  0  0  0  0  0  0
   -3.7085  -34.0207  -45.3844 C   0  0  0  0  0  0  0  0  0  0  0  0
   -2.5129  -33.3690  -45.6024 N   0  0  0  0  0  0  0  0  0  0  0  0
   -5.1081  -34.7871  -43.3943 C   0  0  0  0  0  0  0  0  0  0  0  0
   -5.7926  -35.6619  -44.3678 N   0  0  0  0  0  0  0  0  0  0  0  0
  1  2  1  0  0  0  0
  1  7  1  0  0  0  0
  2  3  1  0  0  0  0
  2  4  2  0  0  0  0
  4  5  1  0  0  0  0
  5  6  2  0  0  0  0
  5 11  1  0  0  0  0
  6  7  1  0  0  0  0
  6  9  1  0  0  0  0
  7  8  2  0  0  0  0
  9 10  2  0  0  0  0
  9 12  1  0  0  0  0
 10 11  1  0  0  0  0
 12 13  1  0  0  0  0
M  END
>  <CHROM.1>
-161.18264247,-2.53179454,-33.44249755,-43.41591839,0.28525143,0.52911033
1.57932977

>  <Name>
ligand

>  <RI>
0

>  <Rbt.Current_Directory>
/home/itssahil/PROJECTS/Mol_Feturizer/Test_systems_manuscript/rnas/3fu2

>  <Rbt.Executable>
rbdock ($Id: //depot/dev/client3/rdock/2013.1/src/exe/rbdock.cxx#4 $)

>  <Rbt.Library>
libRbt.so (2013.1, Build901 2013/11/27)

>  <Rbt.Parameter_File>
/export/apps/rDock/src/rDock_2013.1_src/data/scripts/dock_solv.prm

>  <Rbt.Receptor>
prm/pocket_docking_5.prm

>  <SCORE>
-16.2767

>  <SCORE.INTER>
-16.105

>  <SCORE.INTER.CONST>
1

>  <SCORE.INTER.POLAR>
0

>  <SCORE.INTER.ROT>
1

>  <SCORE.INTER.SOLV>
15.9432

>  <SCORE.INTER.VDW>
-20.3177

>  <SCORE.INTER.norm>
-1.23885

>  <SCORE.INTRA>
-0.171702

>  <SCORE.INTRA.DIHEDRAL>
-0.00153677

>  <SCORE.INTRA.DIHEDRAL.0>
1.66609

>  <SCORE.INTRA.POLAR>
0

>  <SCORE.INTRA.POLAR.0>
0

>  <SCORE.INTRA.REPUL>
0

>  <SCORE.INTRA.REPUL.0>
0

>  <SCORE.INTRA.SOLV>
-0.982282

>  <SCORE.INTRA.SOLV.lig_0>
-45.868

>  <SCORE.INTRA.VDW>
0.320207

>  <SCORE.INTRA.VDW.0>
-0.397919

>  <SCORE.INTRA.norm>
-0.0132078

>  <SCORE.RESTR>
0

>  <SCORE.RESTR.CAVITY>
0

>  <SCORE.RESTR.norm>
0

>  <SCORE.SYSTEM>
0

>  <SCORE.SYSTEM.CONST>
0

>  <SCORE.SYSTEM.DIHEDRAL>
0

>  <SCORE.SYSTEM.SOLV>
0

>  <SCORE.SYSTEM.norm>
0

>  <SCORE.heavy>
13

>  <SCORE.norm>
-1.25205

>  <RMSD>
4.827

$$$$
ligand
 OpenBabel02271912143D
libRbt.so/2013.1/901 2013/11/27
 13 14  0  0  0  0  0  0  0  0999 V2000
   -1.2064  -32.6713  -41.7720 N   0  0  0  0  0  0  0  0  0  0  0  0
   -0.4082  -32.2280  -42.7924 C   0  0  0  0  0  0  0  0  0  0  0  0
    0.7607  -31.5861  -42.4861 N   0  0  0  0  0  0  0  0  0  0  0  0
   -0.7476  -32.4113  -44.0688 N   0  0  0  0  0  0  0  0  0  0  0  0
   -1.9038  -33.0453  -44.4088 C   0  0  0  0  0  0  0  0  0  0  0  0
   -2.7606  -33.5165  -43.3900 C   0  0  0  0  0  0  0  0  0  0  0  0
   -2.3784  -33.3138  -42.0362 C   0  0  0  0  0  0  0  0  0  0  0  0
   -3.0774  -33.7026  -41.1335 O   0  0  0  0  0  0  0  0  0  0  0  0
   -3.9005  -34.1353  -44.0591 C   0  0  0  0  0  0  0  0  0  0  0  0
   -3.6833  -34.0184  -45.3811 C   0  0  0  0  0  0  0  0  0  0  0  0
   -2.4878  -33.3658  -45.5969 N   0  0  0  0  0  0  0  0  0  0  0  0
   -5.0930  -34.7732  -43.3937 C   0  0  0  0  0  0  0  0  0  0  0  0
   -5.8040  -35.6101  -44.3815 N   0  0  0  0  0  0  0  0  0  0  0  0
  1  2  1  0  0  0  0
  1  7  1  0  0  0  0
  2  3  1  0  0  0  0
  2  4  2  0  0  0  0
  4  5  1  0  0  0  0
  5  6  2  0  0  0  0
  5 11  1  0  0  0  0
  6  7  1  0  0  0  0
  6  9  1  0  0  0  0
  7  8  2  0  0  0  0
  9 10  2  0  0  0  0
  9 12  1  0  0  0  0
 10 11  1  0  0  0  0
 12 13  1  0  0  0  0
M  END
>  <CHROM.1>
-163.63838145,-2.52207499,-33.41976947,-43.41139401,0.29322202,0.52708819
1.56911056

>  <Name>
ligand

>  <RI>
0

>  <Rbt.Current_Directory>
/home/itssahil/PROJECTS/Mol_Feturizer/Test_systems_manuscript/rnas/3fu2

>  <Rbt.Executable>
rbdock ($Id: //depot/dev/client3/rdock/2013.1/src/exe/rbdock.cxx#4 $)

>  <Rbt.Library>
libRbt.so (2013.1, Build901 2013/11/27)

>  <Rbt.Parameter_File>
/export/apps/rDock/src/rDock_2013.1_src/data/scripts/dock_solv.prm

>  <Rbt.Receptor>
prm/pocket_docking_5.prm

>  <SCORE>
-16.256

>  <SCORE.INTER>
-16.0945

>  <SCORE.INTER.CONST>
1

>  <SCORE.INTER.POLAR>
0

>  <SCORE.INTER.ROT>
1

>  <SCORE.INTER.SOLV>
15.9157

>  <SCORE.INTER.VDW>
-20.3016

>  <SCORE.INTER.norm>
-1.23804

>  <SCORE.INTRA>
-0.161527

>  <SCORE.INTRA.DIHEDRAL>
-0.00012683

>  <SCORE.INTRA.DIHEDRAL.0>
1.66609

>  <SCORE.INTRA.POLAR>
0

>  <SCORE.INTRA.POLAR.0>
0

>  <SCORE.INTRA.REPUL>
0

>  <SCORE.INTRA.REPUL.0>
0

>  <SCORE.INTRA.SOLV>
-0.98158

>  <SCORE.INTRA.SOLV.lig_0>
-45.868

>  <SCORE.INTRA.VDW>
0.329326

>  <SCORE.INTRA.VDW.0>
-0.397919

>  <SCORE.INTRA.norm>
-0.0124252

>  <SCORE.RESTR>
0

>  <SCORE.RESTR.CAVITY>
0

>  <SCORE.RESTR.norm>
0

>  <SCORE.SYSTEM>
0

>  <SCORE.SYSTEM.CONST>
0

>  <SCORE.SYSTEM.DIHEDRAL>
0

>  <SCORE.SYSTEM.SOLV>
0

>  <SCORE.SYSTEM.norm>
0

>  <SCORE.heavy>
13

>  <SCORE.norm>
-1.25046

>  <RMSD>
4.827

$$$$
ligand
 OpenBabel02271912143D
libRbt.so/2013.1/901 2013/11/27
 13 14  0  0  0  0  0  0  0  0999 V2000
   -1.1972  -32.7113  -41.7845 N   0  0  0  0  0  0  0  0  0  0  0  0
   -0.3954  -32.2814  -42.8077 C   0  0  0  0  0  0  0  0  0  0  0  0
    0.7839  -31.6568  -42.5056 N   0  0  0  0  0  0  0  0  0  0  0  0
   -0.7412  -32.4610  -44.0829 N   0  0  0  0  0  0  0  0  0  0  0  0
   -1.9078  -33.0780  -44.4188 C   0  0  0  0  0  0  0  0  0  0  0  0
   -2.7687  -33.5349  -43.3969 C   0  0  0  0  0  0  0  0  0  0  0  0
   -2.3795  -33.3363  -42.0445 C   0  0  0  0  0  0  0  0  0  0  0  0
   -3.0817  -33.7135  -41.1393 O   0  0  0  0  0  0  0  0  0  0  0  0
   -3.9198  -34.1372  -44.0619 C   0  0  0  0  0  0  0  0  0  0  0  0
   -3.7047  -34.0252  -45.3847 C   0  0  0  0  0  0  0  0  0  0  0  0
   -2.5000  -33.3910  -45.6047 N   0  0  0  0  0  0  0  0  0  0  0  0
   -5.1198  -34.7563  -43.3922 C   0  0  0  0  0  0  0  0  0  0  0  0
   -5.8095  -35.6350  -44.3586 N   0  0  0  0  0  0  0  0  0  0  0  0
  1  2  1  0  0  0  0
  1  7  1  0  0  0  0
  2  3  1  0  0  0  0
  2  4  2  0  0  0  0
  4  5  1  0  0  0  0
  5  6  2  0  0  0  0
  5 11  1  0  0  0  0
  6  7  1  0  0  0  0
  6  9  1  0  0  0  0
  7  8  2  0  0  0  0
  9 10  2  0  0  0  0
  9 12  1  0  0  0  0
 10 11  1  0  0  0  0
 12 13  1  0  0  0  0
M  END
>  <CHROM.1>
-160.93529325,-2.52580869,-33.44601944,-43.41757181,0.28848048,0.51647856
1.56912000

>  <Name>
ligand

>  <RI>
0

>  <Rbt.Current_Directory>
/home/itssahil/PROJECTS/Mol_Feturizer/Test_systems_manuscript/rnas/3fu2

>  <Rbt.Executable>
rbdock ($Id: //depot/dev/client3/rdock/2013.1/src/exe/rbdock.cxx#4 $)

>  <Rbt.Library>
libRbt.so (2013.1, Build901 2013/11/27)

>  <Rbt.Parameter_File>
/export/apps/rDock/src/rDock_2013.1_src/data/scripts/dock_solv.prm

>  <Rbt.Receptor>
prm/pocket_docking_5.prm

>  <SCORE>
-16.3333

>  <SCORE.INTER>
-16.1605

>  <SCORE.INTER.CONST>
1

>  <SCORE.INTER.POLAR>
0

>  <SCORE.INTER.ROT>
1

>  <SCORE.INTER.SOLV>
16.0339

>  <SCORE.INTER.VDW>
-20.385

>  <SCORE.INTER.norm>
-1.24312

>  <SCORE.INTRA>
-0.172765

>  <SCORE.INTRA.DIHEDRAL>
-0.00166499

>  <SCORE.INTRA.DIHEDRAL.0>
1.66609

>  <SCORE.INTRA.POLAR>
0

>  <SCORE.INTRA.POLAR.0>
0

>  <SCORE.INTRA.REPUL>
0

>  <SCORE.INTRA.REPUL.0>
0

>  <SCORE.INTRA.SOLV>
-0.982356

>  <SCORE.INTRA.SOLV.lig_0>
-45.868

>  <SCORE.INTRA.VDW>
0.319245

>  <SCORE.INTRA.VDW.0>
-0.397919

>  <SCORE.INTRA.norm>
-0.0132896

>  <SCORE.RESTR>
0

>  <SCORE.RESTR.CAVITY>
0

>  <SCORE.RESTR.norm>
0

>  <SCORE.SYSTEM>
0

>  <SCORE.SYSTEM.CONST>
0

>  <SCORE.SYSTEM.DIHEDRAL>
0

>  <SCORE.SYSTEM.SOLV>
0

>  <SCORE.SYSTEM.norm>
0

>  <SCORE.heavy>
13

>  <SCORE.norm>
-1.25641

>  <RMSD>
4.827

$$$$
ligand
 OpenBabel02271912143D
libRbt.so/2013.1/901 2013/11/27
 13 14  0  0  0  0  0  0  0  0999 V2000
   -1.2101  -32.6703  -41.7732 N   0  0  0  0  0  0  0  0  0  0  0  0
   -0.4129  -32.2226  -42.7925 C   0  0  0  0  0  0  0  0  0  0  0  0
    0.7545  -31.5787  -42.4845 N   0  0  0  0  0  0  0  0  0  0  0  0
   -0.7519  -32.4033  -44.0693 N   0  0  0  0  0  0  0  0  0  0  0  0
   -1.9067  -33.0392  -44.4110 C   0  0  0  0  0  0  0  0  0  0  0  0
   -2.7624  -33.5149  -43.3933 C   0  0  0  0  0  0  0  0  0  0  0  0
   -2.3806  -33.3148  -42.0391 C   0  0  0  0  0  0  0  0  0  0  0  0
   -3.0788  -33.7076  -41.1374 O   0  0  0  0  0  0  0  0  0  0  0  0
   -3.9009  -34.1346  -44.0640 C   0  0  0  0  0  0  0  0  0  0  0  0
   -3.6840  -34.0138  -45.3858 C   0  0  0  0  0  0  0  0  0  0  0  0
   -2.4899  -33.3579  -45.5998 N   0  0  0  0  0  0  0  0  0  0  0  0
   -5.0919  -34.7770  -43.4002 C   0  0  0  0  0  0  0  0  0  0  0  0
   -5.7973  -35.6181  -44.3885 N   0  0  0  0  0  0  0  0  0  0  0  0
  1  2  1  0  0  0  0
  1  7  1  0  0  0  0
  2  3  1  0  0  0  0
  2  4  2  0  0  0  0
  4  5  1  0  0  0  0
  5  6  2  0  0  0  0
  5 11  1  0  0  0  0
  6  7  1  0  0  0  0
  6  9  1  0  0  0  0
  7  8  2  0  0  0  0
  9 10  2  0  0  0  0
  9 12  1  0  0  0  0
 10 11  1  0  0  0  0
 12 13  1  0  0  0  0
M  END
>  <CHROM.1>
-163.36941933,-2.52377232,-33.41801690,-43.41435016,0.29308899,0.52983226
1.57163504

>  <Name>
ligand

>  <RI>
0

>  <Rbt.Current_Directory>
/home/itssahil/PROJECTS/Mol_Feturizer/Test_systems_manuscript/rnas/3fu2

>  <Rbt.Executable>
rbdock ($Id: //depot/dev/client3/rdock/2013.1/src/exe/rbdock.cxx#4 $)

>  <Rbt.Library>
libRbt.so (2013.1, Build901 2013/11/27)

>  <Rbt.Parameter_File>
/export/apps/rDock/src/rDock_2013.1_src/data/scripts/dock_solv.prm

>  <Rbt.Receptor>
prm/pocket_docking_6.prm

>  <SCORE>
-16.2553

>  <SCORE.INTER>
-16.0927

>  <SCORE.INTER.CONST>
1

>  <SCORE.INTER.POLAR>
0

>  <SCORE.INTER.ROT>
1

>  <SCORE.INTER.SOLV>
15.9102

>  <SCORE.INTER.VDW>
-20.2985

>  <SCORE.INTER.norm>
-1.2379

>  <SCORE.INTRA>
-0.162605

>  <SCORE.INTRA.DIHEDRAL>
-0.000293008

>  <SCORE.INTRA.DIHEDRAL.0>
1.66609

>  <SCORE.INTRA.POLAR>
0

>  <SCORE.INTRA.POLAR.0>
0

>  <SCORE.INTRA.REPUL>
0

>  <SCORE.INTRA.REPUL.0>
0

>  <SCORE.INTRA.SOLV>
-0.981654

>  <SCORE.INTRA.SOLV.lig_0>
-45.868

>  <SCORE.INTRA.VDW>
0.328368

>  <SCORE.INTRA.VDW.0>
-0.397919

>  <SCORE.INTRA.norm>
-0.0125081

>  <SCORE.RESTR>
0

>  <SCORE.RESTR.CAVITY>
0

>  <SCORE.RESTR.norm>
0

>  <SCORE.SYSTEM>
0

>  <SCORE.SYSTEM.CONST>
0

>  <SCORE.SYSTEM.DIHEDRAL>
0

>  <SCORE.SYSTEM.SOLV>
0

>  <SCORE.SYSTEM.norm>
0

>  <SCORE.heavy>
13

>  <SCORE.norm>
-1.2504

>  <RMSD>
4.827

$$$$
ligand
 OpenBabel02271912143D
libRbt.so/2013.1/901 2013/11/27
 13 14  0  0  0  0  0  0  0  0999 V2000
   -1.1940  -32.7106  -41.7869 N   0  0  0  0  0  0  0  0  0  0  0  0
   -0.4034  -32.2635  -42.8115 C   0  0  0  0  0  0  0  0  0  0  0  0
    0.7751  -31.6362  -42.5117 N   0  0  0  0  0  0  0  0  0  0  0  0
   -0.7593  -32.4290  -44.0858 N   0  0  0  0  0  0  0  0  0  0  0  0
   -1.9254  -33.0481  -44.4194 C   0  0  0  0  0  0  0  0  0  0  0  0
   -2.7750  -33.5226  -43.3960 C   0  0  0  0  0  0  0  0  0  0  0  0
   -2.3751  -33.3388  -42.0446 C   0  0  0  0  0  0  0  0  0  0  0  0
   -3.0674  -33.7312  -41.1382 O   0  0  0  0  0  0  0  0  0  0  0  0
   -3.9285  -34.1228  -44.0587 C   0  0  0  0  0  0  0  0  0  0  0  0
   -3.7254  -33.9930  -45.3818 C   0  0  0  0  0  0  0  0  0  0  0  0
   -2.5262  -33.3495  -45.6041 N   0  0  0  0  0  0  0  0  0  0  0  0
   -5.1192  -34.7569  -43.3866 C   0  0  0  0  0  0  0  0  0  0  0  0
   -5.8131  -35.6264  -44.3582 N   0  0  0  0  0  0  0  0  0  0  0  0
  1  2  1  0  0  0  0
  1  7  1  0  0  0  0
  2  3  1  0  0  0  0
  2  4  2  0  0  0  0
  4  5  1  0  0  0  0
  5  6  2  0  0  0  0
  5 11  1  0  0  0  0
  6  7  1  0  0  0  0
  6  9  1  0  0  0  0
  7  8  2  0  0  0  0
  9 10  2  0  0  0  0
  9 12  1  0  0  0  0
 10 11  1  0  0  0  0
 12 13  1  0  0  0  0
M  END
>  <CHROM.1>
-160.97675462,-2.53275379,-33.43201738,-43.41772465,0.27852709,0.52181312
1.58665526

>  <Name>
ligand

>  <RI>
0

>  <Rbt.Current_Directory>
/home/itssahil/PROJECTS/Mol_Feturizer/Test_systems_manuscript/rnas/3fu2

>  <Rbt.Executable>
rbdock ($Id: //depot/dev/client3/rdock/2013.1/src/exe/rbdock.cxx#4 $)

>  <Rbt.Library>
libRbt.so (2013.1, Build901 2013/11/27)

>  <Rbt.Parameter_File>
/export/apps/rDock/src/rDock_2013.1_src/data/scripts/dock_solv.prm

>  <Rbt.Receptor>
prm/pocket_docking_7.prm

>  <SCORE>
-16.3086

>  <SCORE.INTER>
-16.136

>  <SCORE.INTER.CONST>
1

>  <SCORE.INTER.POLAR>
0

>  <SCORE.INTER.ROT>
1

>  <SCORE.INTER.SOLV>
15.9917

>  <SCORE.INTER.VDW>
-20.3546

>  <SCORE.INTER.norm>
-1.24123

>  <SCORE.INTRA>
-0.172586

>  <SCORE.INTRA.DIHEDRAL>
-0.00164368

>  <SCORE.INTRA.DIHEDRAL.0>
1.66609

>  <SCORE.INTRA.POLAR>
0

>  <SCORE.INTRA.POLAR.0>
0

>  <SCORE.INTRA.REPUL>
0

>  <SCORE.INTRA.REPUL.0>
0

>  <SCORE.INTRA.SOLV>
-0.982343

>  <SCORE.INTRA.SOLV.lig_0>
-45.868

>  <SCORE.INTRA.VDW>
0.319407

>  <SCORE.INTRA.VDW.0>
-0.397919

>  <SCORE.INTRA.norm>
-0.0132759

>  <SCORE.RESTR>
0

>  <SCORE.RESTR.CAVITY>
0

>  <SCORE.RESTR.norm>
0

>  <SCORE.SYSTEM>
0

>  <SCORE.SYSTEM.CONST>
0

>  <SCORE.SYSTEM.DIHEDRAL>
0

>  <SCORE.SYSTEM.SOLV>
0

>  <SCORE.SYSTEM.norm>
0

>  <SCORE.heavy>
13

>  <SCORE.norm>
-1.25451

>  <RMSD>
4.827

$$$$
ligand
 OpenBabel02271912143D
libRbt.so/2013.1/901 2013/11/27
 13 14  0  0  0  0  0  0  0  0999 V2000
   -1.1879  -32.6904  -41.7771 N   0  0  0  0  0  0  0  0  0  0  0  0
   -0.3907  -32.2579  -42.8029 C   0  0  0  0  0  0  0  0  0  0  0  0
    0.7886  -31.6315  -42.5044 N   0  0  0  0  0  0  0  0  0  0  0  0
   -0.7408  -32.4369  -44.0769 N   0  0  0  0  0  0  0  0  0  0  0  0
   -1.9076  -33.0556  -44.4091 C   0  0  0  0  0  0  0  0  0  0  0  0
   -2.7639  -33.5151  -43.3845 C   0  0  0  0  0  0  0  0  0  0  0  0
   -2.3700  -33.3173  -42.0334 C   0  0  0  0  0  0  0  0  0  0  0  0
   -3.0682  -33.6966  -41.1260 O   0  0  0  0  0  0  0  0  0  0  0  0
   -3.9163  -34.1189  -44.0459 C   0  0  0  0  0  0  0  0  0  0  0  0
   -3.7063  -34.0051  -45.3694 C   0  0  0  0  0  0  0  0  0  0  0  0
   -2.5036  -33.3684  -45.5932 N   0  0  0  0  0  0  0  0  0  0  0  0
   -5.1127  -34.7408  -43.3725 C   0  0  0  0  0  0  0  0  0  0  0  0
   -5.7639  -35.6732  -44.3148 N   0  0  0  0  0  0  0  0  0  0  0  0
  1  2  1  0  0  0  0
  1  7  1  0  0  0  0
  2  3  1  0  0  0  0
  2  4  2  0  0  0  0
  4  5  1  0  0  0  0
  5  6  2  0  0  0  0
  5 11  1  0  0  0  0
  6  7  1  0  0  0  0
  6  9  1  0  0  0  0
  7  8  2  0  0  0  0
  9 10  2  0  0  0  0
  9 12  1  0  0  0  0
 10 11  1  0  0  0  0
 12 13  1  0  0  0  0
M  END
>  <CHROM.1>
-158.03947608,-2.51789779,-33.43013500,-43.40423904,0.28243074,0.52305035
1.57197055

>  <Name>
ligand

>  <RI>
0

>  <Rbt.Current_Directory>
/home/itssahil/PROJECTS/Mol_Feturizer/Test_systems_manuscript/rnas/3fu2

>  <Rbt.Executable>
rbdock ($Id: //depot/dev/client3/rdock/2013.1/src/exe/rbdock.cxx#4 $)

>  <Rbt.Library>
libRbt.so (2013.1, Build901 2013/11/27)

>  <Rbt.Parameter_File>
/export/apps/rDock/src/rDock_2013.1_src/data/scripts/dock_solv.prm

>  <Rbt.Receptor>
prm/pocket_docking_8.prm

>  <SCORE>
-16.2856

>  <SCORE.INTER>
-16.1

>  <SCORE.INTER.CONST>
1

>  <SCORE.INTER.POLAR>
0

>  <SCORE.INTER.ROT>
1

>  <SCORE.INTER.SOLV>
15.9922

>  <SCORE.INTER.VDW>
-20.3307

>  <SCORE.INTER.norm>
-1.23846

>  <SCORE.INTRA>
-0.185642

>  <SCORE.INTRA.DIHEDRAL>
-0.00296655

>  <SCORE.INTRA.DIHEDRAL.0>
1.66609

>  <SCORE.INTRA.POLAR>
0

>  <SCORE.INTRA.POLAR.0>
0

>  <SCORE.INTRA.REPUL>
0

>  <SCORE.INTRA.REPUL.0>
0

>  <SCORE.INTRA.SOLV>
-0.983273

>  <SCORE.INTRA.SOLV.lig_0>
-45.868

>  <SCORE.INTRA.VDW>
0.307478

>  <SCORE.INTRA.VDW.0>
-0.397919

>  <SCORE.INTRA.norm>
-0.0142802

>  <SCORE.RESTR>
0

>  <SCORE.RESTR.CAVITY>
0

>  <SCORE.RESTR.norm>
0

>  <SCORE.SYSTEM>
0

>  <SCORE.SYSTEM.CONST>
0

>  <SCORE.SYSTEM.DIHEDRAL>
0

>  <SCORE.SYSTEM.SOLV>
0

>  <SCORE.SYSTEM.norm>
0

>  <SCORE.heavy>
13

>  <SCORE.norm>
-1.25274

>  <RMSD>
4.827

$$$$
ligand
 OpenBabel02271912143D
libRbt.so/2013.1/901 2013/11/27
 13 14  0  0  0  0  0  0  0  0999 V2000
   -1.1786  -32.6987  -41.7807 N   0  0  0  0  0  0  0  0  0  0  0  0
   -0.3780  -32.2710  -42.8058 C   0  0  0  0  0  0  0  0  0  0  0  0
    0.8041  -31.6504  -42.5064 N   0  0  0  0  0  0  0  0  0  0  0  0
   -0.7276  -32.4491  -44.0801 N   0  0  0  0  0  0  0  0  0  0  0  0
   -1.8971  -33.0621  -44.4133 C   0  0  0  0  0  0  0  0  0  0  0  0
   -2.7569  -33.5166  -43.3894 C   0  0  0  0  0  0  0  0  0  0  0  0
   -2.3636  -33.3198  -42.0379 C   0  0  0  0  0  0  0  0  0  0  0  0
   -3.0648  -33.6950  -41.1311 O   0  0  0  0  0  0  0  0  0  0  0  0
   -3.9115  -34.1150  -44.0518 C   0  0  0  0  0  0  0  0  0  0  0  0
   -3.6994  -34.0032  -45.3751 C   0  0  0  0  0  0  0  0  0  0  0  0
   -2.4933  -33.3728  -45.5979 N   0  0  0  0  0  0  0  0  0  0  0  0
   -5.1119  -34.7304  -43.3793 C   0  0  0  0  0  0  0  0  0  0  0  0
   -5.7689  -35.6573  -44.3230 N   0  0  0  0  0  0  0  0  0  0  0  0
  1  2  1  0  0  0  0
  1  7  1  0  0  0  0
  2  3  1  0  0  0  0
  2  4  2  0  0  0  0
  4  5  1  0  0  0  0
  5  6  2  0  0  0  0
  5 11  1  0  0  0  0
  6  7  1  0  0  0  0
  6  9  1  0  0  0  0
  7  8  2  0  0  0  0
  9 10  2  0  0  0  0
  9 12  1  0  0  0  0
 10 11  1  0  0  0  0
 12 13  1  0  0  0  0
M  END
>  <CHROM.1>
-158.18930721,-2.51061902,-33.43264356,-43.40898356,0.28389169,0.51773397
1.57062208

>  <Name>
ligand

>  <RI>
0

>  <Rbt.Current_Directory>
/home/itssahil/PROJECTS/Mol_Feturizer/Test_systems_manuscript/rnas/3fu2

>  <Rbt.Executable>
rbdock ($Id: //depot/dev/client3/rdock/2013.1/src/exe/rbdock.cxx#4 $)

>  <Rbt.Library>
libRbt.so (2013.1, Build901 2013/11/27)

>  <Rbt.Parameter_File>
/export/apps/rDock/src/rDock_2013.1_src/data/scripts/dock_solv.prm

>  <Rbt.Receptor>
prm/blind_docking_60.prm

>  <SCORE>
-16.2901

>  <SCORE.INTER>
-16.1052

>  <SCORE.INTER.CONST>
1

>  <SCORE.INTER.POLAR>
0

>  <SCORE.INTER.ROT>
1

>  <SCORE.INTER.SOLV>
16.0228

>  <SCORE.INTER.VDW>
-20.3444

>  <SCORE.INTER.norm>
-1.23886

>  <SCORE.INTRA>
-0.184959

>  <SCORE.INTRA.DIHEDRAL>
-0.00290849

>  <SCORE.INTRA.DIHEDRAL.0>
1.66609

>  <SCORE.INTRA.POLAR>
0

>  <SCORE.INTRA.POLAR.0>
0

>  <SCORE.INTRA.REPUL>
0

>  <SCORE.INTRA.REPUL.0>
0

>  <SCORE.INTRA.SOLV>
-0.983223

>  <SCORE.INTRA.SOLV.lig_0>
-45.868

>  <SCORE.INTRA.VDW>
0.308107

>  <SCORE.INTRA.VDW.0>
-0.397919

>  <SCORE.INTRA.norm>
-0.0142276

>  <SCORE.RESTR>
0

>  <SCORE.RESTR.CAVITY>
0

>  <SCORE.RESTR.norm>
0

>  <SCORE.SYSTEM>
0

>  <SCORE.SYSTEM.CONST>
0

>  <SCORE.SYSTEM.DIHEDRAL>
0

>  <SCORE.SYSTEM.SOLV>
0

>  <SCORE.SYSTEM.norm>
0

>  <SCORE.heavy>
13

>  <SCORE.norm>
-1.25309

>  <RMSD>
4.828

$$$$
ligand
 OpenBabel02271912143D
libRbt.so/2013.1/901 2013/11/27
 13 14  0  0  0  0  0  0  0  0999 V2000
   -1.1816  -32.6846  -41.7761 N   0  0  0  0  0  0  0  0  0  0  0  0
   -0.3780  -32.2651  -42.8023 C   0  0  0  0  0  0  0  0  0  0  0  0
    0.8043  -31.6440  -42.5044 N   0  0  0  0  0  0  0  0  0  0  0  0
   -0.7249  -32.4514  -44.0762 N   0  0  0  0  0  0  0  0  0  0  0  0
   -1.8944  -33.0651  -44.4079 C   0  0  0  0  0  0  0  0  0  0  0  0
   -2.7572  -33.5114  -43.3829 C   0  0  0  0  0  0  0  0  0  0  0  0
   -2.3668  -33.3059  -42.0319 C   0  0  0  0  0  0  0  0  0  0  0  0
   -3.0706  -33.6739  -41.1241 O   0  0  0  0  0  0  0  0  0  0  0  0
   -3.9112  -34.1128  -44.0438 C   0  0  0  0  0  0  0  0  0  0  0  0
   -3.6958  -34.0104  -45.3673 C   0  0  0  0  0  0  0  0  0  0  0  0
   -2.4883  -33.3831  -45.5916 N   0  0  0  0  0  0  0  0  0  0  0  0
   -5.1139  -34.7219  -43.3699 C   0  0  0  0  0  0  0  0  0  0  0  0
   -5.7354  -35.6987  -44.2870 N   0  0  0  0  0  0  0  0  0  0  0  0
  1  2  1  0  0  0  0
  1  7  1  0  0  0  0
  2  3  1  0  0  0  0
  2  4  2  0  0  0  0
  4  5  1  0  0  0  0
  5  6  2  0  0  0  0
  5 11  1  0  0  0  0
  6  7  1  0  0  0  0
  6  9  1  0  0  0  0
  7  8  2  0  0  0  0
  9 10  2  0  0  0  0
  9 12  1  0  0  0  0
 10 11  1  0  0  0  0
 12 13  1  0  0  0  0
M  END
>  <CHROM.1>
-155.71951519,-2.50798187,-33.43153306,-43.40068730,0.28478158,0.52035619
1.56228379

>  <Name>
ligand

>  <RI>
0

>  <Rbt.Current_Directory>
/home/itssahil/PROJECTS/Mol_Feturizer/Test_systems_manuscript/rnas/3fu2

>  <Rbt.Executable>
rbdock ($Id: //depot/dev/client3/rdock/2013.1/src/exe/rbdock.cxx#4 $)

>  <Rbt.Library>
libRbt.so (2013.1, Build901 2013/11/27)

>  <Rbt.Parameter_File>
/export/apps/rDock/src/rDock_2013.1_src/data/scripts/dock_solv.prm

>  <Rbt.Receptor>
prm/pocket_docking_6.prm

>  <SCORE>
-16.2991

>  <SCORE.INTER>
-16.085

>  <SCORE.INTER.CONST>
1

>  <SCORE.INTER.POLAR>
0

>  <SCORE.INTER.ROT>
1

>  <SCORE.INTER.SOLV>
16.0319

>  <SCORE.INTER.VDW>
-20.334

>  <SCORE.INTER.norm>
-1.23731

>  <SCORE.INTRA>
-0.214026

>  <SCORE.INTRA.DIHEDRAL>
-0.00373102

>  <SCORE.INTRA.DIHEDRAL.0>
1.66609

>  <SCORE.INTRA.POLAR>
0

>  <SCORE.INTRA.POLAR.0>
0

>  <SCORE.INTRA.REPUL>
0

>  <SCORE.INTRA.REPUL.0>
0

>  <SCORE.INTRA.SOLV>
-0.984064

>  <SCORE.INTRA.SOLV.lig_0>
-45.868

>  <SCORE.INTRA.VDW>
0.279871

>  <SCORE.INTRA.VDW.0>
-0.397919

>  <SCORE.INTRA.norm>
-0.0164636

>  <SCORE.RESTR>
0

>  <SCORE.RESTR.CAVITY>
0

>  <SCORE.RESTR.norm>
0

>  <SCORE.SYSTEM>
0

>  <SCORE.SYSTEM.CONST>
0

>  <SCORE.SYSTEM.DIHEDRAL>
0

>  <SCORE.SYSTEM.SOLV>
0

>  <SCORE.SYSTEM.norm>
0

>  <SCORE.heavy>
13

>  <SCORE.norm>
-1.25377

>  <RMSD>
4.828

$$$$
ligand
 OpenBabel02271912143D
libRbt.so/2013.1/901 2013/11/27
 13 14  0  0  0  0  0  0  0  0999 V2000
   -1.1850  -32.7091  -41.7864 N   0  0  0  0  0  0  0  0  0  0  0  0
   -0.3860  -32.2702  -42.8081 C   0  0  0  0  0  0  0  0  0  0  0  0
    0.7890  -31.6386  -42.5036 N   0  0  0  0  0  0  0  0  0  0  0  0
   -0.7305  -32.4477  -44.0839 N   0  0  0  0  0  0  0  0  0  0  0  0
   -1.8929  -33.0714  -44.4221 C   0  0  0  0  0  0  0  0  0  0  0  0
   -2.7508  -33.5377  -43.4019 C   0  0  0  0  0  0  0  0  0  0  0  0
   -2.3630  -33.3412  -42.0488 C   0  0  0  0  0  0  0  0  0  0  0  0
   -3.0628  -33.7262  -41.1450 O   0  0  0  0  0  0  0  0  0  0  0  0
   -3.8976  -34.1455  -44.0692 C   0  0  0  0  0  0  0  0  0  0  0  0
   -3.6831  -34.0275  -45.3915 C   0  0  0  0  0  0  0  0  0  0  0  0
   -2.4828  -33.3844  -45.6092 N   0  0  0  0  0  0  0  0  0  0  0  0
   -5.0935  -34.7751  -43.4018 C   0  0  0  0  0  0  0  0  0  0  0  0
   -5.8083  -35.6120  -44.3867 N   0  0  0  0  0  0  0  0  0  0  0  0
  1  2  1  0  0  0  0
  1  7  1  0  0  0  0
  2  3  1  0  0  0  0
  2  4  2  0  0  0  0
  4  5  1  0  0  0  0
  5  6  2  0  0  0  0
  5 11  1  0  0  0  0
  6  7  1  0  0  0  0
  6  9  1  0  0  0  0
  7  8  2  0  0  0  0
  9 10  2  0  0  0  0
  9 12  1  0  0  0  0
 10 11  1  0  0  0  0
 12 13  1  0  0  0  0
M  END
>  <CHROM.1>
-163.20764745,-2.51097425,-33.44361523,-43.42352935,0.28979297,0.51949859
1.57286447

>  <Name>
ligand

>  <RI>
0

>  <Rbt.Current_Directory>
/home/itssahil/PROJECTS/Mol_Feturizer/Test_systems_manuscript/rnas/3fu2

>  <Rbt.Executable>
rbdock ($Id: //depot/dev/client3/rdock/2013.1/src/exe/rbdock.cxx#4 $)

>  <Rbt.Library>
libRbt.so (2013.1, Build901 2013/11/27)

>  <Rbt.Parameter_File>
/export/apps/rDock/src/rDock_2013.1_src/data/scripts/dock_solv.prm

>  <Rbt.Receptor>
prm/pocket_docking_6.prm

>  <SCORE>
-16.298

>  <SCORE.INTER>
-16.1347

>  <SCORE.INTER.CONST>
1

>  <SCORE.INTER.POLAR>
0

>  <SCORE.INTER.ROT>
1

>  <SCORE.INTER.SOLV>
15.9987

>  <SCORE.INTER.VDW>
-20.356

>  <SCORE.INTER.norm>
-1.24113

>  <SCORE.INTRA>
-0.163258

>  <SCORE.INTRA.DIHEDRAL>
-0.000391603

>  <SCORE.INTRA.DIHEDRAL.0>
1.66609

>  <SCORE.INTRA.POLAR>
0

>  <SCORE.INTRA.POLAR.0>
0

>  <SCORE.INTRA.REPUL>
0

>  <SCORE.INTRA.REPUL.0>
0

>  <SCORE.INTRA.SOLV>
-0.981698

>  <SCORE.INTRA.SOLV.lig_0>
-45.868

>  <SCORE.INTRA.VDW>
0.327787

>  <SCORE.INTRA.VDW.0>
-0.397919

>  <SCORE.INTRA.norm>
-0.0125583

>  <SCORE.RESTR>
0

>  <SCORE.RESTR.CAVITY>
0

>  <SCORE.RESTR.norm>
0

>  <SCORE.SYSTEM>
0

>  <SCORE.SYSTEM.CONST>
0

>  <SCORE.SYSTEM.DIHEDRAL>
0

>  <SCORE.SYSTEM.SOLV>
0

>  <SCORE.SYSTEM.norm>
0

>  <SCORE.heavy>
13

>  <SCORE.norm>
-1.25369

>  <RMSD>
4.828

$$$$
ligand
 OpenBabel02271912143D
libRbt.so/2013.1/901 2013/11/27
 13 14  0  0  0  0  0  0  0  0999 V2000
   -1.1786  -32.7000  -41.7772 N   0  0  0  0  0  0  0  0  0  0  0  0
   -0.3779  -32.2688  -42.8008 C   0  0  0  0  0  0  0  0  0  0  0  0
    0.8000  -31.6412  -42.4991 N   0  0  0  0  0  0  0  0  0  0  0  0
   -0.7233  -32.4500  -44.0758 N   0  0  0  0  0  0  0  0  0  0  0  0
   -1.8885  -33.0699  -44.4112 C   0  0  0  0  0  0  0  0  0  0  0  0
   -2.7483  -33.5283  -43.3890 C   0  0  0  0  0  0  0  0  0  0  0  0
   -2.3594  -33.3280  -42.0367 C   0  0  0  0  0  0  0  0  0  0  0  0
   -3.0607  -33.7063  -41.1313 O   0  0  0  0  0  0  0  0  0  0  0  0
   -3.8979  -34.1338  -44.0536 C   0  0  0  0  0  0  0  0  0  0  0  0
   -3.6832  -34.0220  -45.3765 C   0  0  0  0  0  0  0  0  0  0  0  0
   -2.4801  -33.3851  -45.5969 N   0  0  0  0  0  0  0  0  0  0  0  0
   -5.0964  -34.7553  -43.3834 C   0  0  0  0  0  0  0  0  0  0  0  0
   -5.7587  -35.6700  -44.3353 N   0  0  0  0  0  0  0  0  0  0  0  0
  1  2  1  0  0  0  0
  1  7  1  0  0  0  0
  2  3  1  0  0  0  0
  2  4  2  0  0  0  0
  4  5  1  0  0  0  0
  5  6  2  0  0  0  0
  5 11  1  0  0  0  0
  6  7  1  0  0  0  0
  6  9  1  0  0  0  0
  7  8  2  0  0  0  0
  9 10  2  0  0  0  0
  9 12  1  0  0  0  0
 10 11  1  0  0  0  0
 12 13  1  0  0  0  0
M  END
>  <CHROM.1>
-159.10905260,-2.50349414,-33.44160218,-43.40864758,0.28731177,0.52185623
1.56834338

>  <Name>
ligand

>  <RI>
0

>  <Rbt.Current_Directory>
/home/itssahil/PROJECTS/Mol_Feturizer/Test_systems_manuscript/rnas/3fu2

>  <Rbt.Executable>
rbdock ($Id: //depot/dev/client3/rdock/2013.1/src/exe/rbdock.cxx#4 $)

>  <Rbt.Library>
libRbt.so (2013.1, Build901 2013/11/27)

>  <Rbt.Parameter_File>
/export/apps/rDock/src/rDock_2013.1_src/data/scripts/dock_solv.prm

>  <Rbt.Receptor>
prm/pocket_docking_5.prm

>  <SCORE>
-16.2974

>  <SCORE.INTER>
-16.1166

>  <SCORE.INTER.CONST>
1

>  <SCORE.INTER.POLAR>
0

>  <SCORE.INTER.ROT>
1

>  <SCORE.INTER.SOLV>
16.0052

>  <SCORE.INTER.VDW>
-20.3461

>  <SCORE.INTER.norm>
-1.23974

>  <SCORE.INTRA>
-0.180802

>  <SCORE.INTRA.DIHEDRAL>
-0.00252952

>  <SCORE.INTRA.DIHEDRAL.0>
1.66609

>  <SCORE.INTRA.POLAR>
0

>  <SCORE.INTRA.POLAR.0>
0

>  <SCORE.INTRA.REPUL>
0

>  <SCORE.INTRA.REPUL.0>
0

>  <SCORE.INTRA.SOLV>
-0.982925

>  <SCORE.INTRA.SOLV.lig_0>
-45.868

>  <SCORE.INTRA.VDW>
0.311925

>  <SCORE.INTRA.VDW.0>
-0.397919

>  <SCORE.INTRA.norm>
-0.0139078

>  <SCORE.RESTR>
0

>  <SCORE.RESTR.CAVITY>
0

>  <SCORE.RESTR.norm>
0

>  <SCORE.SYSTEM>
0

>  <SCORE.SYSTEM.CONST>
0

>  <SCORE.SYSTEM.DIHEDRAL>
0

>  <SCORE.SYSTEM.SOLV>
0

>  <SCORE.SYSTEM.norm>
0

>  <SCORE.heavy>
13

>  <SCORE.norm>
-1.25364

>  <RMSD>
4.829

$$$$
ligand
 OpenBabel02271912143D
libRbt.so/2013.1/901 2013/11/27
 13 14  0  0  0  0  0  0  0  0999 V2000
   -1.1632  -32.6511  -41.7884 N   0  0  0  0  0  0  0  0  0  0  0  0
   -0.3497  -32.2286  -42.8055 C   0  0  0  0  0  0  0  0  0  0  0  0
    0.8250  -31.5998  -42.4943 N   0  0  0  0  0  0  0  0  0  0  0  0
   -0.6798  -32.4194  -44.0831 N   0  0  0  0  0  0  0  0  0  0  0  0
   -1.8414  -33.0409  -44.4279 C   0  0  0  0  0  0  0  0  0  0  0  0
   -2.7140  -33.4905  -43.4127 C   0  0  0  0  0  0  0  0  0  0  0  0
   -2.3414  -33.2801  -42.0574 C   0  0  0  0  0  0  0  0  0  0  0  0
   -3.0540  -33.6507  -41.1576 O   0  0  0  0  0  0  0  0  0  0  0  0
   -3.8561  -34.1001  -44.0865 C   0  0  0  0  0  0  0  0  0  0  0  0
   -3.6251  -33.9989  -45.4075 C   0  0  0  0  0  0  0  0  0  0  0  0
   -2.4188  -33.3647  -45.6182 N   0  0  0  0  0  0  0  0  0  0  0  0
   -5.0632  -34.7153  -43.4262 C   0  0  0  0  0  0  0  0  0  0  0  0
   -5.7570  -35.5795  -44.4026 N   0  0  0  0  0  0  0  0  0  0  0  0
  1  2  1  0  0  0  0
  1  7  1  0  0  0  0
  2  3  1  0  0  0  0
  2  4  2  0  0  0  0
  4  5  1  0  0  0  0
  5  6  2  0  0  0  0
  5 11  1  0  0  0  0
  6  7  1  0  0  0  0
  6  9  1  0  0  0  0
  7  8  2  0  0  0  0
  9 10  2  0  0  0  0
  9 12  1  0  0  0  0
 10 11  1  0  0  0  0
 12 13  1  0  0  0  0
M  END
>  <CHROM.1>
-162.18774105,-2.47233677,-33.39954427,-43.43196771,0.30305565,0.51572638
1.55406510

>  <Name>
ligand

>  <RI>
0

>  <Rbt.Current_Directory>
/home/itssahil/PROJECTS/Mol_Feturizer/Test_systems_manuscript/rnas/3fu2

>  <Rbt.Executable>
rbdock ($Id: //depot/dev/client3/rdock/2013.1/src/exe/rbdock.cxx#4 $)

>  <Rbt.Library>
libRbt.so (2013.1, Build901 2013/11/27)

>  <Rbt.Parameter_File>
/export/apps/rDock/src/rDock_2013.1_src/data/scripts/dock_solv.prm

>  <Rbt.Receptor>
prm/pocket_docking_8.prm

>  <SCORE>
-16.2149

>  <SCORE.INTER>
-16.0475

>  <SCORE.INTER.CONST>
1

>  <SCORE.INTER.POLAR>
0

>  <SCORE.INTER.ROT>
1

>  <SCORE.INTER.SOLV>
16.0045

>  <SCORE.INTER.VDW>
-20.2998

>  <SCORE.INTER.norm>
-1.23442

>  <SCORE.INTRA>
-0.16745

>  <SCORE.INTRA.DIHEDRAL>
-0.000989301

>  <SCORE.INTRA.DIHEDRAL.0>
1.66609

>  <SCORE.INTRA.POLAR>
0

>  <SCORE.INTRA.POLAR.0>
0

>  <SCORE.INTRA.REPUL>
0

>  <SCORE.INTRA.REPUL.0>
0

>  <SCORE.INTRA.SOLV>
-0.981986

>  <SCORE.INTRA.SOLV.lig_0>
-45.868

>  <SCORE.INTRA.VDW>
0.324038

>  <SCORE.INTRA.VDW.0>
-0.397919

>  <SCORE.INTRA.norm>
-0.0128808

>  <SCORE.RESTR>
0

>  <SCORE.RESTR.CAVITY>
0

>  <SCORE.RESTR.norm>
0

>  <SCORE.SYSTEM>
0

>  <SCORE.SYSTEM.CONST>
0

>  <SCORE.SYSTEM.DIHEDRAL>
0

>  <SCORE.SYSTEM.SOLV>
0

>  <SCORE.SYSTEM.norm>
0

>  <SCORE.heavy>
13

>  <SCORE.norm>
-1.2473

>  <RMSD>
4.832

$$$$
ligand
 OpenBabel02271912143D
libRbt.so/2013.1/901 2013/11/27
 13 14  0  0  0  0  0  0  0  0999 V2000
    1.2622  -32.1631  -41.8249 N   0  0  0  0  0  0  0  0  0  0  0  0
    1.4129  -32.1503  -40.4640 C   0  0  0  0  0  0  0  0  0  0  0  0
    2.6104  -31.7518  -39.9354 N   0  0  0  0  0  0  0  0  0  0  0  0
    0.4200  -32.5152  -39.6524 N   0  0  0  0  0  0  0  0  0  0  0  0
   -0.7841  -32.9177  -40.1450 C   0  0  0  0  0  0  0  0  0  0  0  0
   -0.9845  -32.9507  -41.5425 C   0  0  0  0  0  0  0  0  0  0  0  0
    0.0858  -32.5545  -42.3895 C   0  0  0  0  0  0  0  0  0  0  0  0
   -0.0417  -32.5635  -43.5889 O   0  0  0  0  0  0  0  0  0  0  0  0
   -2.3494  -33.4215  -41.7554 C   0  0  0  0  0  0  0  0  0  0  0  0
   -2.8802  -33.6326  -40.5379 C   0  0  0  0  0  0  0  0  0  0  0  0
   -1.9464  -33.3323  -39.5685 N   0  0  0  0  0  0  0  0  0  0  0  0
   -3.0268  -33.6365  -43.0846 C   0  0  0  0  0  0  0  0  0  0  0  0
   -2.8399  -32.4326  -43.9196 N   0  0  0  0  0  0  0  0  0  0  0  0
  1  2  1  0  0  0  0
  1  7  1  0  0  0  0
  2  3  1  0  0  0  0
  2  4  2  0  0  0  0
  4  5  1  0  0  0  0
  5  6  2  0  0  0  0
  5 11  1  0  0  0  0
  6  7  1  0  0  0  0
  6  9  1  0  0  0  0
  7  8  2  0  0  0  0
  9 10  2  0  0  0  0
  9 12  1  0  0  0  0
 10 11  1  0  0  0  0
 12 13  1  0  0  0  0
M  END
>  <CHROM.1>
-49.61853428,-0.67445509,-32.75703724,-41.46067329,-0.45517646,-0.30626313
-1.45411249

>  <Name>
ligand

>  <RI>
0

>  <Rbt.Current_Directory>
/home/itssahil/PROJECTS/Mol_Feturizer/Test_systems_manuscript/rnas/3fu2

>  <Rbt.Executable>
rbdock ($Id: //depot/dev/client3/rdock/2013.1/src/exe/rbdock.cxx#4 $)

>  <Rbt.Library>
libRbt.so (2013.1, Build901 2013/11/27)

>  <Rbt.Parameter_File>
/export/apps/rDock/src/rDock_2013.1_src/data/scripts/dock_solv.prm

>  <Rbt.Receptor>
prm/blind_docking_60.prm

>  <SCORE>
-12.5826

>  <SCORE.INTER>
-12.9892

>  <SCORE.INTER.CONST>
1

>  <SCORE.INTER.POLAR>
0

>  <SCORE.INTER.ROT>
1

>  <SCORE.INTER.SOLV>
8.83829

>  <SCORE.INTER.VDW>
-15.8722

>  <SCORE.INTER.norm>
-0.999167

>  <SCORE.INTRA>
0.40659

>  <SCORE.INTRA.DIHEDRAL>
0.00422101

>  <SCORE.INTRA.DIHEDRAL.0>
1.66609

>  <SCORE.INTRA.POLAR>
0

>  <SCORE.INTRA.POLAR.0>
0

>  <SCORE.INTRA.REPUL>
0

>  <SCORE.INTRA.REPUL.0>
0

>  <SCORE.INTRA.SOLV>
0.791598

>  <SCORE.INTRA.SOLV.lig_0>
-45.868

>  <SCORE.INTRA.VDW>
0.00868051

>  <SCORE.INTRA.VDW.0>
-0.397919

>  <SCORE.INTRA.norm>
0.0312762

>  <SCORE.RESTR>
0

>  <SCORE.RESTR.CAVITY>
0

>  <SCORE.RESTR.norm>
0

>  <SCORE.SYSTEM>
0

>  <SCORE.SYSTEM.CONST>
0

>  <SCORE.SYSTEM.DIHEDRAL>
0

>  <SCORE.SYSTEM.SOLV>
0

>  <SCORE.SYSTEM.norm>
0

>  <SCORE.heavy>
13

>  <SCORE.norm>
-0.967891

>  <RMSD>
4.892

$$$$
ligand
 OpenBabel02271912143D
libRbt.so/2013.1/901 2013/11/27
 13 14  0  0  0  0  0  0  0  0999 V2000
    1.0837  -32.1435  -41.9561 N   0  0  0  0  0  0  0  0  0  0  0  0
    1.3139  -32.2356  -40.6095 C   0  0  0  0  0  0  0  0  0  0  0  0
    2.5471  -31.8941  -40.1249 N   0  0  0  0  0  0  0  0  0  0  0  0
    0.3639  -32.6476  -39.7696 N   0  0  0  0  0  0  0  0  0  0  0  0
   -0.8739  -32.9958  -40.2182 C   0  0  0  0  0  0  0  0  0  0  0  0
   -1.1562  -32.9204  -41.5998 C   0  0  0  0  0  0  0  0  0  0  0  0
   -0.1305  -32.4755  -42.4772 C   0  0  0  0  0  0  0  0  0  0  0  0
   -0.3280  -32.3920  -43.6641 O   0  0  0  0  0  0  0  0  0  0  0  0
   -2.5394  -33.3556  -41.7654 C   0  0  0  0  0  0  0  0  0  0  0  0
   -3.0017  -33.6511  -40.5376 C   0  0  0  0  0  0  0  0  0  0  0  0
   -2.0076  -33.4373  -39.6059 N   0  0  0  0  0  0  0  0  0  0  0  0
   -3.2970  -33.4605  -43.0641 C   0  0  0  0  0  0  0  0  0  0  0  0
   -4.3978  -34.4318  -42.9012 N   0  0  0  0  0  0  0  0  0  0  0  0
  1  2  1  0  0  0  0
  1  7  1  0  0  0  0
  2  3  1  0  0  0  0
  2  4  2  0  0  0  0
  4  5  1  0  0  0  0
  5  6  2  0  0  0  0
  5 11  1  0  0  0  0
  6  7  1  0  0  0  0
  6  9  1  0  0  0  0
  7  8  2  0  0  0  0
  9 10  2  0  0  0  0
  9 12  1  0  0  0  0
 10 11  1  0  0  0  0
 12 13  1  0  0  0  0
M  END
>  <CHROM.1>
156.36931772,-0.94107745,-32.91919922,-41.44785382,-0.27033289,-0.35164934
-1.46829750

>  <Name>
ligand

>  <RI>
0

>  <Rbt.Current_Directory>
/home/itssahil/PROJECTS/Mol_Feturizer/Test_systems_manuscript/rnas/3fu2

>  <Rbt.Executable>
rbdock ($Id: //depot/dev/client3/rdock/2013.1/src/exe/rbdock.cxx#4 $)

>  <Rbt.Library>
libRbt.so (2013.1, Build901 2013/11/27)

>  <Rbt.Parameter_File>
/export/apps/rDock/src/rDock_2013.1_src/data/scripts/dock_solv.prm

>  <Rbt.Receptor>
prm/blind_docking_100.prm

>  <SCORE>
-12.9251

>  <SCORE.INTER>
-12.7533

>  <SCORE.INTER.CONST>
1

>  <SCORE.INTER.POLAR>
0

>  <SCORE.INTER.ROT>
1

>  <SCORE.INTER.SOLV>
9.64773

>  <SCORE.INTER.VDW>
-15.9848

>  <SCORE.INTER.norm>
-0.981022

>  <SCORE.INTRA>
-0.171829

>  <SCORE.INTRA.DIHEDRAL>
0.0312317

>  <SCORE.INTRA.DIHEDRAL.0>
1.66609

>  <SCORE.INTRA.POLAR>
0

>  <SCORE.INTRA.POLAR.0>
0

>  <SCORE.INTRA.REPUL>
0

>  <SCORE.INTRA.REPUL.0>
0

>  <SCORE.INTRA.SOLV>
-0.981835

>  <SCORE.INTRA.SOLV.lig_0>
-45.868

>  <SCORE.INTRA.VDW>
0.303473

>  <SCORE.INTRA.VDW.0>
-0.397919

>  <SCORE.INTRA.norm>
-0.0132176

>  <SCORE.RESTR>
0

>  <SCORE.RESTR.CAVITY>
0

>  <SCORE.RESTR.norm>
0

>  <SCORE.SYSTEM>
0

>  <SCORE.SYSTEM.CONST>
0

>  <SCORE.SYSTEM.DIHEDRAL>
0

>  <SCORE.SYSTEM.SOLV>
0

>  <SCORE.SYSTEM.norm>
0

>  <SCORE.heavy>
13

>  <SCORE.norm>
-0.99424

>  <RMSD>
4.937

$$$$
ligand
 OpenBabel02271912143D
libRbt.so/2013.1/901 2013/11/27
 13 14  0  0  0  0  0  0  0  0999 V2000
   -0.6121  -42.0132  -38.8621 N   0  0  0  0  0  0  0  0  0  0  0  0
   -1.6180  -41.8684  -39.7797 C   0  0  0  0  0  0  0  0  0  0  0  0
   -2.5095  -42.8923  -39.9502 N   0  0  0  0  0  0  0  0  0  0  0  0
   -1.7429  -40.7551  -40.5028 N   0  0  0  0  0  0  0  0  0  0  0  0
   -0.8728  -39.7174  -40.3589 C   0  0  0  0  0  0  0  0  0  0  0  0
    0.1830  -39.8231  -39.4270 C   0  0  0  0  0  0  0  0  0  0  0  0
    0.2959  -41.0170  -38.6642 C   0  0  0  0  0  0  0  0  0  0  0  0
    1.1797  -41.1496  -37.8542 O   0  0  0  0  0  0  0  0  0  0  0  0
    0.9337  -38.5740  -39.5064 C   0  0  0  0  0  0  0  0  0  0  0  0
    0.3214  -37.8128  -40.4307 C   0  0  0  0  0  0  0  0  0  0  0  0
   -0.7622  -38.4930  -40.9452 N   0  0  0  0  0  0  0  0  0  0  0  0
    2.1623  -38.2141  -38.7110 C   0  0  0  0  0  0  0  0  0  0  0  0
    2.6584  -36.8981  -39.1622 N   0  0  0  0  0  0  0  0  0  0  0  0
  1  2  1  0  0  0  0
  1  7  1  0  0  0  0
  2  3  1  0  0  0  0
  2  4  2  0  0  0  0
  4  5  1  0  0  0  0
  5  6  2  0  0  0  0
  5 11  1  0  0  0  0
  6  7  1  0  0  0  0
  6  9  1  0  0  0  0
  7  8  2  0  0  0  0
  9 10  2  0  0  0  0
  9 12  1  0  0  0  0
 10 11  1  0  0  0  0
 12 13  1  0  0  0  0
M  END
>  <CHROM.1>
176.20678873,-0.00850103,-39.96405982,-39.52059744,-2.43895203,-0.61884031
-0.51399580

>  <Name>
ligand

>  <RI>
0

>  <Rbt.Current_Directory>
/home/itssahil/PROJECTS/Mol_Feturizer/Test_systems_manuscript/rnas/3fu2

>  <Rbt.Executable>
rbdock ($Id: //depot/dev/client3/rdock/2013.1/src/exe/rbdock.cxx#4 $)

>  <Rbt.Library>
libRbt.so (2013.1, Build901 2013/11/27)

>  <Rbt.Parameter_File>
/export/apps/rDock/src/rDock_2013.1_src/data/scripts/dock_solv.prm

>  <Rbt.Receptor>
prm/blind_docking_100.prm

>  <SCORE>
-12.9742

>  <SCORE.INTER>
-12.8533

>  <SCORE.INTER.CONST>
1

>  <SCORE.INTER.POLAR>
0

>  <SCORE.INTER.ROT>
1

>  <SCORE.INTER.SOLV>
7.69436

>  <SCORE.INTER.VDW>
-15.4003

>  <SCORE.INTER.norm>
-0.988716

>  <SCORE.INTRA>
-0.120865

>  <SCORE.INTRA.DIHEDRAL>
0.0173436

>  <SCORE.INTRA.DIHEDRAL.0>
1.66609

>  <SCORE.INTRA.POLAR>
0

>  <SCORE.INTRA.POLAR.0>
0

>  <SCORE.INTRA.REPUL>
0

>  <SCORE.INTRA.REPUL.0>
0

>  <SCORE.INTRA.SOLV>
-0.978864

>  <SCORE.INTRA.SOLV.lig_0>
-45.868

>  <SCORE.INTRA.VDW>
0.359895

>  <SCORE.INTRA.VDW.0>
-0.397919

>  <SCORE.INTRA.norm>
-0.00929729

>  <SCORE.RESTR>
0

>  <SCORE.RESTR.CAVITY>
0

>  <SCORE.RESTR.norm>
0

>  <SCORE.SYSTEM>
0

>  <SCORE.SYSTEM.CONST>
0

>  <SCORE.SYSTEM.DIHEDRAL>
0

>  <SCORE.SYSTEM.SOLV>
0

>  <SCORE.SYSTEM.norm>
0

>  <SCORE.heavy>
13

>  <SCORE.norm>
-0.998013

>  <RMSD>
8.391

$$$$
ligand
 OpenBabel02271912143D
libRbt.so/2013.1/901 2013/11/27
 13 14  0  0  0  0  0  0  0  0999 V2000
   -2.1539  -40.6977  -40.8029 N   0  0  0  0  0  0  0  0  0  0  0  0
   -2.4706  -41.8733  -40.1763 C   0  0  0  0  0  0  0  0  0  0  0  0
   -3.5244  -42.6092  -40.6455 N   0  0  0  0  0  0  0  0  0  0  0  0
   -1.7741  -42.3097  -39.1264 N   0  0  0  0  0  0  0  0  0  0  0  0
   -0.7203  -41.6019  -38.6335 C   0  0  0  0  0  0  0  0  0  0  0  0
   -0.3591  -40.3814  -39.2451 C   0  0  0  0  0  0  0  0  0  0  0  0
   -1.1126  -39.9362  -40.3649 C   0  0  0  0  0  0  0  0  0  0  0  0
   -0.8376  -38.9017  -40.9208 O   0  0  0  0  0  0  0  0  0  0  0  0
    0.7848  -39.8658  -38.4997 C   0  0  0  0  0  0  0  0  0  0  0  0
    1.0478  -40.7582  -37.5286 C   0  0  0  0  0  0  0  0  0  0  0  0
    0.1487  -41.8011  -37.6038 N   0  0  0  0  0  0  0  0  0  0  0  0
    1.5209  -38.5775  -38.7647 C   0  0  0  0  0  0  0  0  0  0  0  0
    0.5980  -37.4441  -38.5523 N   0  0  0  0  0  0  0  0  0  0  0  0
  1  2  1  0  0  0  0
  1  7  1  0  0  0  0
  2  3  1  0  0  0  0
  2  4  2  0  0  0  0
  4  5  1  0  0  0  0
  5  6  2  0  0  0  0
  5 11  1  0  0  0  0
  6  7  1  0  0  0  0
  6  9  1  0  0  0  0
  7  8  2  0  0  0  0
  9 10  2  0  0  0  0
  9 12  1  0  0  0  0
 10 11  1  0  0  0  0
 12 13  1  0  0  0  0
M  END
>  <CHROM.1>
63.52248497,-0.69707682,-40.48581685,-39.33149389,2.78073066,0.72127144,2.58781291

>  <Name>
ligand

>  <RI>
0

>  <Rbt.Current_Directory>
/home/itssahil/PROJECTS/Mol_Feturizer/Test_systems_manuscript/rnas/3fu2

>  <Rbt.Executable>
rbdock ($Id: //depot/dev/client3/rdock/2013.1/src/exe/rbdock.cxx#4 $)

>  <Rbt.Library>
libRbt.so (2013.1, Build901 2013/11/27)

>  <Rbt.Parameter_File>
/export/apps/rDock/src/rDock_2013.1_src/data/scripts/dock_solv.prm

>  <Rbt.Receptor>
prm/blind_docking_100.prm

>  <SCORE>
-11.6803

>  <SCORE.INTER>
-11.8455

>  <SCORE.INTER.CONST>
1

>  <SCORE.INTER.POLAR>
0

>  <SCORE.INTER.ROT>
1

>  <SCORE.INTER.SOLV>
9.69566

>  <SCORE.INTER.VDW>
-15.3956

>  <SCORE.INTER.norm>
-0.911194

>  <SCORE.INTRA>
0.165262

>  <SCORE.INTRA.DIHEDRAL>
0.0103377

>  <SCORE.INTRA.DIHEDRAL.0>
1.66609

>  <SCORE.INTRA.POLAR>
0

>  <SCORE.INTRA.POLAR.0>
0

>  <SCORE.INTRA.REPUL>
0

>  <SCORE.INTRA.REPUL.0>
0

>  <SCORE.INTRA.SOLV>
0.377762

>  <SCORE.INTRA.SOLV.lig_0>
-45.868

>  <SCORE.INTRA.VDW>
-0.0287884

>  <SCORE.INTRA.VDW.0>
-0.397919

>  <SCORE.INTRA.norm>
0.0127124

>  <SCORE.RESTR>
0

>  <SCORE.RESTR.CAVITY>
0

>  <SCORE.RESTR.norm>
0

>  <SCORE.SYSTEM>
0

>  <SCORE.SYSTEM.CONST>
0

>  <SCORE.SYSTEM.DIHEDRAL>
0

>  <SCORE.SYSTEM.SOLV>
0

>  <SCORE.SYSTEM.norm>
0

>  <SCORE.heavy>
13

>  <SCORE.norm>
-0.898482

>  <RMSD>
8.455

$$$$
ligand
 OpenBabel02271912143D
libRbt.so/2013.1/901 2013/11/27
 13 14  0  0  0  0  0  0  0  0999 V2000
   -2.4127  -40.5690  -40.5607 N   0  0  0  0  0  0  0  0  0  0  0  0
   -2.6304  -41.8135  -40.0328 C   0  0  0  0  0  0  0  0  0  0  0  0
   -3.8334  -42.4255  -40.2572 N   0  0  0  0  0  0  0  0  0  0  0  0
   -1.6968  -42.4341  -39.3109 N   0  0  0  0  0  0  0  0  0  0  0  0
   -0.4891  -41.8536  -39.0679 C   0  0  0  0  0  0  0  0  0  0  0  0
   -0.2210  -40.5688  -39.5891 C   0  0  0  0  0  0  0  0  0  0  0  0
   -1.2286  -39.9264  -40.3586 C   0  0  0  0  0  0  0  0  0  0  0  0
   -1.0420  -38.8305  -40.8264 O   0  0  0  0  0  0  0  0  0  0  0  0
    1.1301  -40.2206  -39.1610 C   0  0  0  0  0  0  0  0  0  0  0  0
    1.5893  -41.2618  -38.4444 C   0  0  0  0  0  0  0  0  0  0  0  0
    0.6229  -42.2438  -38.3851 N   0  0  0  0  0  0  0  0  0  0  0  0
    1.8625  -38.9374  -39.4590 C   0  0  0  0  0  0  0  0  0  0  0  0
    1.3815  -37.8851  -38.5410 N   0  0  0  0  0  0  0  0  0  0  0  0
  1  2  1  0  0  0  0
  1  7  1  0  0  0  0
  2  3  1  0  0  0  0
  2  4  2  0  0  0  0
  4  5  1  0  0  0  0
  5  6  2  0  0  0  0
  5 11  1  0  0  0  0
  6  7  1  0  0  0  0
  6  9  1  0  0  0  0
  7  8  2  0  0  0  0
  9 10  2  0  0  0  0
  9 12  1  0  0  0  0
 10 11  1  0  0  0  0
 12 13  1  0  0  0  0
M  END
>  <CHROM.1>
79.17342519,-0.55739958,-40.65081611,-39.55956972,2.71431821,0.43488169,2.78507622

>  <Name>
ligand

>  <RI>
0

>  <Rbt.Current_Directory>
/home/itssahil/PROJECTS/Mol_Feturizer/Test_systems_manuscript/rnas/3fu2

>  <Rbt.Executable>
rbdock ($Id: //depot/dev/client3/rdock/2013.1/src/exe/rbdock.cxx#4 $)

>  <Rbt.Library>
libRbt.so (2013.1, Build901 2013/11/27)

>  <Rbt.Parameter_File>
/export/apps/rDock/src/rDock_2013.1_src/data/scripts/dock_solv.prm

>  <Rbt.Receptor>
prm/blind_docking_100.prm

>  <SCORE>
-11.7917

>  <SCORE.INTER>
-11.7545

>  <SCORE.INTER.CONST>
1

>  <SCORE.INTER.POLAR>
0

>  <SCORE.INTER.ROT>
1

>  <SCORE.INTER.SOLV>
10.8269

>  <SCORE.INTER.VDW>
-15.712

>  <SCORE.INTER.norm>
-0.904193

>  <SCORE.INTRA>
-0.0371543

>  <SCORE.INTRA.DIHEDRAL>
-0.00172053

>  <SCORE.INTRA.DIHEDRAL.0>
1.66609

>  <SCORE.INTRA.POLAR>
0

>  <SCORE.INTRA.POLAR.0>
0

>  <SCORE.INTRA.REPUL>
0

>  <SCORE.INTRA.REPUL.0>
0

>  <SCORE.INTRA.SOLV>
-0.0904149

>  <SCORE.INTRA.SOLV.lig_0>
-45.868

>  <SCORE.INTRA.VDW>
0.00891337

>  <SCORE.INTRA.VDW.0>
-0.397919

>  <SCORE.INTRA.norm>
-0.00285802

>  <SCORE.RESTR>
0

>  <SCORE.RESTR.CAVITY>
0

>  <SCORE.RESTR.norm>
0

>  <SCORE.SYSTEM>
0

>  <SCORE.SYSTEM.CONST>
0

>  <SCORE.SYSTEM.DIHEDRAL>
0

>  <SCORE.SYSTEM.SOLV>
0

>  <SCORE.SYSTEM.norm>
0

>  <SCORE.heavy>
13

>  <SCORE.norm>
-0.907051

>  <RMSD>
8.558

$$$$
ligand
 OpenBabel02271912143D
libRbt.so/2013.1/901 2013/11/27
 13 14  0  0  0  0  0  0  0  0999 V2000
   -2.3069  -41.6123  -41.0853 N   0  0  0  0  0  0  0  0  0  0  0  0
   -2.0124  -42.9347  -40.8868 C   0  0  0  0  0  0  0  0  0  0  0  0
   -2.7900  -43.8833  -41.4932 N   0  0  0  0  0  0  0  0  0  0  0  0
   -0.9882  -43.3101  -40.1200 N   0  0  0  0  0  0  0  0  0  0  0  0
   -0.1948  -42.3924  -39.5012 C   0  0  0  0  0  0  0  0  0  0  0  0
   -0.4628  -41.0167  -39.6738 C   0  0  0  0  0  0  0  0  0  0  0  0
   -1.5571  -40.6383  -40.4979 C   0  0  0  0  0  0  0  0  0  0  0  0
   -1.8207  -39.4749  -40.6766 O   0  0  0  0  0  0  0  0  0  0  0  0
    0.5399  -40.2973  -38.8948 C   0  0  0  0  0  0  0  0  0  0  0  0
    1.3271  -41.2268  -38.3247 C   0  0  0  0  0  0  0  0  0  0  0  0
    0.8914  -42.4847  -38.6846 N   0  0  0  0  0  0  0  0  0  0  0  0
    0.6613  -38.8017  -38.7522 C   0  0  0  0  0  0  0  0  0  0  0  0
    1.9776  -38.3749  -39.2688 N   0  0  0  0  0  0  0  0  0  0  0  0
  1  2  1  0  0  0  0
  1  7  1  0  0  0  0
  2  3  1  0  0  0  0
  2  4  2  0  0  0  0
  4  5  1  0  0  0  0
  5  6  2  0  0  0  0
  5 11  1  0  0  0  0
  6  7  1  0  0  0  0
  6  9  1  0  0  0  0
  7  8  2  0  0  0  0
  9 10  2  0  0  0  0
  9 12  1  0  0  0  0
 10 11  1  0  0  0  0
 12 13  1  0  0  0  0
M  END
>  <CHROM.1>
-119.51774105,-0.54175183,-41.23361809,-39.85928561,2.43460292,0.60784698
3.06715414

>  <Name>
ligand

>  <RI>
0

>  <Rbt.Current_Directory>
/home/itssahil/PROJECTS/Mol_Feturizer/Test_systems_manuscript/rnas/3fu2

>  <Rbt.Executable>
rbdock ($Id: //depot/dev/client3/rdock/2013.1/src/exe/rbdock.cxx#4 $)

>  <Rbt.Library>
libRbt.so (2013.1, Build901 2013/11/27)

>  <Rbt.Parameter_File>
/export/apps/rDock/src/rDock_2013.1_src/data/scripts/dock_solv.prm

>  <Rbt.Receptor>
prm/blind_docking_100.prm

>  <SCORE>
-12.8976

>  <SCORE.INTER>
-12.5771

>  <SCORE.INTER.CONST>
1

>  <SCORE.INTER.POLAR>
0

>  <SCORE.INTER.ROT>
1

>  <SCORE.INTER.SOLV>
7.80943

>  <SCORE.INTER.VDW>
-15.2545

>  <SCORE.INTER.norm>
-0.967469

>  <SCORE.INTRA>
-0.320467

>  <SCORE.INTRA.DIHEDRAL>
0.0145766

>  <SCORE.INTRA.DIHEDRAL.0>
1.66609

>  <SCORE.INTRA.POLAR>
0

>  <SCORE.INTRA.POLAR.0>
0

>  <SCORE.INTRA.REPUL>
0

>  <SCORE.INTRA.REPUL.0>
0

>  <SCORE.INTRA.SOLV>
-0.905171

>  <SCORE.INTRA.SOLV.lig_0>
-45.868

>  <SCORE.INTRA.VDW>
0.12483

>  <SCORE.INTRA.VDW.0>
-0.397919

>  <SCORE.INTRA.norm>
-0.0246513

>  <SCORE.RESTR>
0

>  <SCORE.RESTR.CAVITY>
0

>  <SCORE.RESTR.norm>
0

>  <SCORE.SYSTEM>
0

>  <SCORE.SYSTEM.CONST>
0

>  <SCORE.SYSTEM.DIHEDRAL>
0

>  <SCORE.SYSTEM.SOLV>
0

>  <SCORE.SYSTEM.norm>
0

>  <SCORE.heavy>
13

>  <SCORE.norm>
-0.99212

>  <RMSD>
8.985

$$$$
ligand
 OpenBabel02271912143D
libRbt.so/2013.1/901 2013/11/27
 13 14  0  0  0  0  0  0  0  0999 V2000
   -2.3070  -41.6129  -41.0855 N   0  0  0  0  0  0  0  0  0  0  0  0
   -2.0123  -42.9354  -40.8882 C   0  0  0  0  0  0  0  0  0  0  0  0
   -2.7896  -43.8834  -41.4959 N   0  0  0  0  0  0  0  0  0  0  0  0
   -0.9883  -43.3114  -40.1215 N   0  0  0  0  0  0  0  0  0  0  0  0
   -0.1952  -42.3943  -39.5016 C   0  0  0  0  0  0  0  0  0  0  0  0
   -0.4634  -41.0184  -39.6728 C   0  0  0  0  0  0  0  0  0  0  0  0
   -1.5575  -40.6393  -40.4969 C   0  0  0  0  0  0  0  0  0  0  0  0
   -1.8212  -39.4758  -40.6744 O   0  0  0  0  0  0  0  0  0  0  0  0
    0.5391  -40.2997  -38.8928 C   0  0  0  0  0  0  0  0  0  0  0  0
    1.3261  -41.2297  -38.3234 C   0  0  0  0  0  0  0  0  0  0  0  0
    0.8908  -42.4873  -38.6848 N   0  0  0  0  0  0  0  0  0  0  0  0
    0.6602  -38.8042  -38.7486 C   0  0  0  0  0  0  0  0  0  0  0  0
    1.9747  -38.3762  -39.2685 N   0  0  0  0  0  0  0  0  0  0  0  0
  1  2  1  0  0  0  0
  1  7  1  0  0  0  0
  2  3  1  0  0  0  0
  2  4  2  0  0  0  0
  4  5  1  0  0  0  0
  5  6  2  0  0  0  0
  5 11  1  0  0  0  0
  6  7  1  0  0  0  0
  6  9  1  0  0  0  0
  7  8  2  0  0  0  0
  9 10  2  0  0  0  0
  9 12  1  0  0  0  0
 10 11  1  0  0  0  0
 12 13  1  0  0  0  0
M  END
>  <CHROM.1>
-119.33071354,-0.54236776,-41.23511908,-39.85889397,2.43432191,0.60818071
3.06797954

>  <Name>
ligand

>  <RI>
0

>  <Rbt.Current_Directory>
/home/itssahil/PROJECTS/Mol_Feturizer/Test_systems_manuscript/rnas/3fu2

>  <Rbt.Executable>
rbdock ($Id: //depot/dev/client3/rdock/2013.1/src/exe/rbdock.cxx#4 $)

>  <Rbt.Library>
libRbt.so (2013.1, Build901 2013/11/27)

>  <Rbt.Parameter_File>
/export/apps/rDock/src/rDock_2013.1_src/data/scripts/dock_solv.prm

>  <Rbt.Receptor>
prm/blind_docking_100.prm

>  <SCORE>
-12.8967

>  <SCORE.INTER>
-12.5769

>  <SCORE.INTER.CONST>
1

>  <SCORE.INTER.POLAR>
0

>  <SCORE.INTER.ROT>
1

>  <SCORE.INTER.SOLV>
7.81131

>  <SCORE.INTER.VDW>
-15.2551

>  <SCORE.INTER.norm>
-0.967457

>  <SCORE.INTRA>
-0.319715

>  <SCORE.INTRA.DIHEDRAL>
0.0147566

>  <SCORE.INTRA.DIHEDRAL.0>
1.66609

>  <SCORE.INTRA.POLAR>
0

>  <SCORE.INTRA.POLAR.0>
0

>  <SCORE.INTRA.REPUL>
0

>  <SCORE.INTRA.REPUL.0>
0

>  <SCORE.INTRA.SOLV>
-0.902624

>  <SCORE.INTRA.SOLV.lig_0>
-45.868

>  <SCORE.INTRA.VDW>
0.124219

>  <SCORE.INTRA.VDW.0>
-0.397919

>  <SCORE.INTRA.norm>
-0.0245934

>  <SCORE.RESTR>
0

>  <SCORE.RESTR.CAVITY>
0

>  <SCORE.RESTR.norm>
0

>  <SCORE.SYSTEM>
0

>  <SCORE.SYSTEM.CONST>
0

>  <SCORE.SYSTEM.DIHEDRAL>
0

>  <SCORE.SYSTEM.SOLV>
0

>  <SCORE.SYSTEM.norm>
0

>  <SCORE.heavy>
13

>  <SCORE.norm>
-0.99205

>  <RMSD>
8.987

$$$$
ligand
 OpenBabel02271912143D
libRbt.so/2013.1/901 2013/11/27
 13 14  0  0  0  0  0  0  0  0999 V2000
    0.4263  -37.9675  -40.4644 N   0  0  0  0  0  0  0  0  0  0  0  0
    1.6874  -38.0198  -39.9335 C   0  0  0  0  0  0  0  0  0  0  0  0
    2.5221  -36.9495  -40.1061 N   0  0  0  0  0  0  0  0  0  0  0  0
    2.1113  -39.0869  -39.2556 N   0  0  0  0  0  0  0  0  0  0  0  0
    1.3069  -40.1692  -39.0659 C   0  0  0  0  0  0  0  0  0  0  0  0
   -0.0008  -40.1620  -39.5987 C   0  0  0  0  0  0  0  0  0  0  0  0
   -0.4338  -39.0133  -40.3149 C   0  0  0  0  0  0  0  0  0  0  0  0
   -1.5437  -38.9618  -40.7842 O   0  0  0  0  0  0  0  0  0  0  0  0
   -0.6029  -41.4420  -39.2392 C   0  0  0  0  0  0  0  0  0  0  0  0
    0.3219  -42.1211  -38.5378 C   0  0  0  0  0  0  0  0  0  0  0  0
    1.4690  -41.3631  -38.4307 N   0  0  0  0  0  0  0  0  0  0  0  0
   -1.9902  -41.9117  -39.5947 C   0  0  0  0  0  0  0  0  0  0  0  0
   -1.8960  -43.2241  -40.2659 N   0  0  0  0  0  0  0  0  0  0  0  0
  1  2  1  0  0  0  0
  1  7  1  0  0  0  0
  2  3  1  0  0  0  0
  2  4  2  0  0  0  0
  4  5  1  0  0  0  0
  5  6  2  0  0  0  0
  5 11  1  0  0  0  0
  6  7  1  0  0  0  0
  6  9  1  0  0  0  0
  7  8  2  0  0  0  0
  9 10  2  0  0  0  0
  9 12  1  0  0  0  0
 10 11  1  0  0  0  0
 12 13  1  0  0  0  0
M  END
>  <CHROM.1>
126.06115612,0.23030718,-40.00933888,-39.68867114,0.91236806,-0.41981384
-0.39143971

>  <Name>
ligand

>  <RI>
0

>  <Rbt.Current_Directory>
/home/itssahil/PROJECTS/Mol_Feturizer/Test_systems_manuscript/rnas/3fu2

>  <Rbt.Executable>
rbdock ($Id: //depot/dev/client3/rdock/2013.1/src/exe/rbdock.cxx#4 $)

>  <Rbt.Library>
libRbt.so (2013.1, Build901 2013/11/27)

>  <Rbt.Parameter_File>
/export/apps/rDock/src/rDock_2013.1_src/data/scripts/dock_solv.prm

>  <Rbt.Receptor>
prm/blind_docking_100.prm

>  <SCORE>
-13.5598

>  <SCORE.INTER>
-13.2237

>  <SCORE.INTER.CONST>
1

>  <SCORE.INTER.POLAR>
0

>  <SCORE.INTER.ROT>
1

>  <SCORE.INTER.SOLV>
8.87815

>  <SCORE.INTER.VDW>
-16.0418

>  <SCORE.INTER.norm>
-1.01721

>  <SCORE.INTRA>
-0.336115

>  <SCORE.INTRA.DIHEDRAL>
0.0198442

>  <SCORE.INTRA.DIHEDRAL.0>
1.66609

>  <SCORE.INTRA.POLAR>
0

>  <SCORE.INTRA.POLAR.0>
0

>  <SCORE.INTRA.REPUL>
0

>  <SCORE.INTRA.REPUL.0>
0

>  <SCORE.INTRA.SOLV>
-0.9915

>  <SCORE.INTRA.SOLV.lig_0>
-45.868

>  <SCORE.INTRA.VDW>
0.149712

>  <SCORE.INTRA.VDW.0>
-0.397919

>  <SCORE.INTRA.norm>
-0.025855

>  <SCORE.RESTR>
0

>  <SCORE.RESTR.CAVITY>
0

>  <SCORE.RESTR.norm>
0

>  <SCORE.SYSTEM>
0

>  <SCORE.SYSTEM.CONST>
0

>  <SCORE.SYSTEM.DIHEDRAL>
0

>  <SCORE.SYSTEM.SOLV>
0

>  <SCORE.SYSTEM.norm>
0

>  <SCORE.heavy>
13

>  <SCORE.norm>
-1.04306

>  <RMSD>
9.154

$$$$
ligand
 OpenBabel02271912143D
libRbt.so/2013.1/901 2013/11/27
 13 14  0  0  0  0  0  0  0  0999 V2000
    0.4346  -37.9778  -40.4798 N   0  0  0  0  0  0  0  0  0  0  0  0
    1.6922  -38.0258  -39.9402 C   0  0  0  0  0  0  0  0  0  0  0  0
    2.5266  -36.9552  -40.1127 N   0  0  0  0  0  0  0  0  0  0  0  0
    2.1129  -39.0889  -39.2542 N   0  0  0  0  0  0  0  0  0  0  0  0
    1.3087  -40.1713  -39.0644 C   0  0  0  0  0  0  0  0  0  0  0  0
    0.0045  -40.1685  -39.6059 C   0  0  0  0  0  0  0  0  0  0  0  0
   -0.4252  -39.0240  -40.3308 C   0  0  0  0  0  0  0  0  0  0  0  0
   -1.5320  -38.9763  -40.8077 O   0  0  0  0  0  0  0  0  0  0  0  0
   -0.5983  -41.4474  -39.2440 C   0  0  0  0  0  0  0  0  0  0  0  0
    0.3228  -42.1219  -38.5331 C   0  0  0  0  0  0  0  0  0  0  0  0
    1.4681  -41.3618  -38.4222 N   0  0  0  0  0  0  0  0  0  0  0  0
   -1.9826  -41.9208  -39.6064 C   0  0  0  0  0  0  0  0  0  0  0  0
   -1.8785  -43.2109  -40.3180 N   0  0  0  0  0  0  0  0  0  0  0  0
  1  2  1  0  0  0  0
  1  7  1  0  0  0  0
  2  3  1  0  0  0  0
  2  4  2  0  0  0  0
  4  5  1  0  0  0  0
  5  6  2  0  0  0  0
  5 11  1  0  0  0  0
  6  7  1  0  0  0  0
  6  9  1  0  0  0  0
  7  8  2  0  0  0  0
  9 10  2  0  0  0  0
  9 12  1  0  0  0  0
 10 11  1  0  0  0  0
 12 13  1  0  0  0  0
M  END
>  <CHROM.1>
123.83979711,0.23638380,-40.01392234,-39.69902996,0.90765363,-0.42934368
-0.39685409

>  <Name>
ligand

>  <RI>
0

>  <Rbt.Current_Directory>
/home/itssahil/PROJECTS/Mol_Feturizer/Test_systems_manuscript/rnas/3fu2

>  <Rbt.Executable>
rbdock ($Id: //depot/dev/client3/rdock/2013.1/src/exe/rbdock.cxx#4 $)

>  <Rbt.Library>
libRbt.so (2013.1, Build901 2013/11/27)

>  <Rbt.Parameter_File>
/export/apps/rDock/src/rDock_2013.1_src/data/scripts/dock_solv.prm

>  <Rbt.Receptor>
prm/blind_docking_80.prm

>  <SCORE>
-13.5285

>  <SCORE.INTER>
-13.1933

>  <SCORE.INTER.CONST>
1

>  <SCORE.INTER.POLAR>
0

>  <SCORE.INTER.ROT>
1

>  <SCORE.INTER.SOLV>
8.93652

>  <SCORE.INTER.VDW>
-16.041

>  <SCORE.INTER.norm>
-1.01487

>  <SCORE.INTRA>
-0.335279

>  <SCORE.INTRA.DIHEDRAL>
0.0177827

>  <SCORE.INTRA.DIHEDRAL.0>
1.66609

>  <SCORE.INTRA.POLAR>
0

>  <SCORE.INTRA.POLAR.0>
0

>  <SCORE.INTRA.REPUL>
0

>  <SCORE.INTRA.REPUL.0>
0

>  <SCORE.INTRA.SOLV>
-0.9714

>  <SCORE.INTRA.SOLV.lig_0>
-45.868

>  <SCORE.INTRA.VDW>
0.14153

>  <SCORE.INTRA.VDW.0>
-0.397919

>  <SCORE.INTRA.norm>
-0.0257907

>  <SCORE.RESTR>
0

>  <SCORE.RESTR.CAVITY>
0

>  <SCORE.RESTR.norm>
0

>  <SCORE.SYSTEM>
0

>  <SCORE.SYSTEM.CONST>
0

>  <SCORE.SYSTEM.DIHEDRAL>
0

>  <SCORE.SYSTEM.SOLV>
0

>  <SCORE.SYSTEM.norm>
0

>  <SCORE.heavy>
13

>  <SCORE.norm>
-1.04066

>  <RMSD>
9.154

$$$$
