@<TRIPOS>MOLECULE
3fu2_rdock.pdb
 656 733 0 0 0
SMALL
GASTEIGER

@<TRIPOS>ATOM
      1  C5'       -7.1220  -17.1940  -49.1140 C.3     1  A1          0.2141
      2  O5'       -7.4220  -18.4880  -48.5810 O.3     1  A1         -0.2176
      3  C4'       -6.6350  -16.2230  -48.0630 C.3     1  A1          0.1802
      4  O4'       -7.7180  -15.8740  -47.1670 O.3     1  A1         -0.3306
      5  C3'       -5.5440  -16.7410  -47.1470 C.3     1  A1          0.1861
      6  O3'       -4.2900  -16.5360  -47.7580 O.3     1  A1         -0.3112
      7  C2'       -5.6950  -15.8340  -45.9370 C.3     1  A1          0.2309
      8  O2'       -5.1340  -14.5590  -46.1640 O.3     1  A1         -0.2156
      9  C1'       -7.2140  -15.7010  -45.8570 C.3     1  A1          0.2408
     10  N1        -7.9250  -17.4020  -41.0700 N.ar    1  A1         -0.2040
     11  C2        -7.2650  -16.3430  -41.5590 C.ar    1  A1          0.2016
     12  N3        -7.1150  -15.9550  -42.8240 N.ar    1  A1         -0.2048
     13  C4        -7.7450  -16.8020  -43.6530 C.ar    1  A1          0.1692
     14  C5        -8.4630  -17.9290  -43.3020 C.ar    1  A1          0.1518
     15  C6        -8.5520  -18.2290  -41.9380 C.ar    1  A1          0.1919
     16  N6        -9.2190  -19.2780  -41.4570 N.pl3   1  A1         -0.1054
     17  N7        -8.9690  -18.5580  -44.4280 N.ar    1  A1         -0.2193
     18  C8        -8.5530  -17.8080  -45.4160 C.ar    1  A1          0.1816
     19  N9        -7.8120  -16.7280  -45.0170 N.ar    1  A1         -0.2693
     20  P         -3.0890  -17.5460  -47.4630 P.3     2  G2          0.2141
     21  C5'       -1.9880  -16.1750  -45.5290 C.3     2  G2          0.1812
     22  O5'       -2.7430  -17.3090  -45.9300 O.3     2  G2         -0.3114
     23  C4'       -1.8740  -16.1310  -44.0290 C.3     2  G2          0.1773
     24  O4'       -3.2080  -16.0680  -43.4610 O.3     2  G2         -0.3307
     25  C3'       -1.2930  -17.3730  -43.3940 C.3     2  G2          0.1860
     26  O3'        0.1180  -17.3590  -43.4570 O.3     2  G2         -0.3112
     27  C2'       -1.8210  -17.2610  -41.9740 C.3     2  G2          0.2309
     28  O2'       -1.1680  -16.2740  -41.2030 O.3     2  G2         -0.2156
     29  C1'       -3.2450  -16.7920  -42.2420 C.3     2  G2          0.2408
     30  N1        -6.1190  -20.2370  -39.9130 N.ar    2  G2         -0.1709
     31  C2        -5.3630  -19.2270  -39.3690 C.ar    2  G2          0.2606
     32  N2        -5.3660  -19.1300  -38.0340 N.pl3   2  G2         -0.0859
     33  N3        -4.6590  -18.3770  -40.0830 N.ar    2  G2         -0.1918
     34  C4        -4.7750  -18.6170  -41.4040 C.ar    2  G2          0.1723
     35  C5        -5.5060  -19.5930  -42.0400 C.ar    2  G2          0.1748
     36  C6        -6.2500  -20.4950  -41.2730 C.ar    2  G2          0.3023
     37  O6        -6.9560  -21.4300  -41.6620 O.2     2  G2         -0.2633
     38  N7        -5.3620  -19.5000  -43.4130 N.ar    2  G2         -0.2173
     39  C8        -4.5560  -18.4890  -43.5840 C.ar    2  G2          0.1817
     40  N9        -4.1570  -17.9150  -42.4070 N.ar    2  G2         -0.2693
     41  OP1       -1.9410  -17.0560  -48.2730 O.2     2  G2         -0.5172
     42  OP2       -3.5830  -18.9380  -47.6320 O.co2   2  G2         -0.4373
     43  P          0.9010  -18.7390  -43.6580 P.3     3  A3          0.2141
     44  C5'        1.3850  -18.6380  -41.0830 C.3     3  A3          0.1812
     45  O5'        0.9050  -19.3770  -42.1990 O.3     3  A3         -0.3114
     46  C4'        0.8460  -19.2190  -39.7980 C.3     3  A3          0.1773
     47  O4'       -0.5950  -19.0710  -39.7600 O.3     3  A3         -0.3307
     48  C3'        1.0470  -20.7070  -39.6140 C.3     3  A3          0.1860
     49  O3'        2.3470  -20.9730  -39.1300 O.3     3  A3         -0.3112
     50  C2'       -0.0200  -21.0370  -38.5830 C.3     3  A3          0.2309
     51  O2'        0.3270  -20.6040  -37.2910 O.3     3  A3         -0.2156
     52  C1'       -1.1700  -20.1650  -39.0690 C.3     3  A3          0.2408
     53  N1        -4.9390  -23.6030  -39.4850 N.ar    3  A3         -0.2040
     54  C2        -4.2880  -23.1010  -38.4280 C.ar    3  A3          0.2016
     55  N3        -3.3110  -22.2020  -38.3940 N.ar    3  A3         -0.2048
     56  C4        -2.9990  -21.7960  -39.6350 C.ar    3  A3          0.1692
     57  C5        -3.5760  -22.2180  -40.8180 C.ar    3  A3          0.1518
     58  C6        -4.5990  -23.1720  -40.7200 C.ar    3  A3          0.1919
     59  N6        -5.2490  -23.6720  -41.7710 N.pl3   3  A3         -0.1054
     60  N7        -2.9990  -21.5730  -41.9020 N.ar    3  A3         -0.2193
     61  C8        -2.0980  -20.7900  -41.3590 C.ar    3  A3          0.1816
     62  N9        -2.0450  -20.8780  -39.9910 N.ar    3  A3         -0.2693
     63  OP1        2.3010  -18.4450  -44.0550 O.3     3  A3         -0.4373
     64  OP2        0.0420  -19.5770  -44.5370 O.co2   3  A3         -0.5172
     65  P          3.1380  -22.2540  -39.6720 P.3     4  G4          0.2141
     66  C5'        2.6720  -23.6130  -37.4990 C.3     4  G4          0.1812
     67  O5'        2.4590  -23.4650  -38.8940 O.3     4  G4         -0.3114
     68  C4'        1.6660  -24.5600  -36.8930 C.3     4  G4          0.1773
     69  O4'        0.3170  -24.1400  -37.2340 O.3     4  G4         -0.3307
     70  C3'        1.6500  -26.0040  -37.3530 C.3     4  G4          0.1860
     71  O3'        2.6900  -26.7760  -36.7810 O.3     4  G4         -0.3112
     72  C2'        0.3220  -26.4530  -36.7750 C.3     4  G4          0.2309
     73  O2'        0.4220  -26.5880  -35.3660 O.3     4  G4         -0.2156
     74  C1'       -0.5560  -25.2490  -37.1090 C.3     4  G4          0.2408
     75  N1        -4.6050  -27.3380  -39.2860 N.ar    4  G4         -0.1709
     76  C2        -4.2390  -27.3100  -37.9670 C.ar    4  G4          0.2606
     77  N2        -5.0630  -27.9290  -37.1080 N.pl3   4  G4         -0.0859
     78  N3        -3.1460  -26.7190  -37.5180 N.ar    4  G4         -0.1918
     79  C4        -2.4390  -26.1390  -38.5130 C.ar    4  G4          0.1723
     80  C5        -2.7210  -26.1040  -39.8590 C.ar    4  G4          0.1748
     81  C6        -3.8970  -26.7540  -40.3240 C.ar    4  G4          0.3023
     82  O6        -4.3200  -26.8460  -41.4650 O.2     4  G4         -0.2633
     83  N7        -1.7480  -25.3900  -40.5450 N.ar    4  G4         -0.2173
     84  C8        -0.9040  -25.0190  -39.6180 C.ar    4  G4          0.1817
     85  N9        -1.2630  -25.4480  -38.3660 N.ar    4  G4         -0.2693
     86  OP1        4.5450  -22.1200  -39.2180 O.3     4  G4         -0.4373
     87  OP2        2.8400  -22.4180  -41.1180 O.co2   4  G4         -0.5172
     88  P          2.9840  -28.2450  -37.3570 P.3     5  G5          0.2141
     89  C5'        1.4350  -29.3140  -35.5250 C.3     5  G5          0.1812
     90  O5'        1.7240  -29.1070  -36.9010 O.3     5  G5         -0.3114
     91  C4'        0.2520  -30.2390  -35.3780 C.3     5  G5          0.1773
     92  O4'       -0.9110  -29.6360  -35.9990 O.3     5  G5         -0.3307
     93  C3'        0.3850  -31.5820  -36.0730 C.3     5  G5          0.1860
     94  O3'        1.0890  -32.4850  -35.2250 O.3     5  G5         -0.3112
     95  C2'       -1.0720  -31.9930  -36.2530 C.3     5  G5          0.2309
     96  O2'       -1.6350  -32.5110  -35.0640 O.3     5  G5         -0.2156
     97  C1'       -1.7340  -30.6470  -36.5590 C.3     5  G5          0.2408
     98  N1        -4.7070  -31.1310  -40.6680 N.ar    5  G5         -0.1709
     99  C2        -4.9190  -31.5770  -39.3860 C.ar    5  G5          0.2606
    100  N2        -6.0690  -32.2400  -39.1760 N.pl3   5  G5         -0.0859
    101  N3        -4.0670  -31.3890  -38.3860 N.ar    5  G5         -0.1918
    102  C4        -2.9660  -30.7140  -38.7790 C.ar    5  G5          0.1723
    103  C5        -2.6590  -30.2290  -40.0310 C.ar    5  G5          0.1748
    104  C6        -3.5790  -30.4340  -41.0950 C.ar    5  G5          0.3023
    105  O6        -3.4770  -30.0840  -42.2810 O.2     5  G5         -0.2633
    106  N7        -1.4260  -29.5980  -40.0240 N.ar    5  G5         -0.2173
    107  C8        -1.0110  -29.7060  -38.7920 C.ar    5  G5          0.1817
    108  N9        -1.8960  -30.3690  -37.9830 N.ar    5  G5         -0.2693
    109  OP1        4.2010  -28.7560  -36.6780 O.3     5  G5         -0.4373
    110  OP2        2.9430  -28.1770  -38.8440 O.co2   5  G5         -0.5172
    111  P          1.6190  -33.8830  -35.8080 P.3     6  U6          0.2141
    112  C5'        0.7600  -35.0290  -33.6000 C.3     6  U6          0.1812
    113  O5'        0.7660  -34.9760  -35.0250 O.3     6  U6         -0.3114
    114  C4'       -0.3010  -35.9870  -33.1240 C.3     6  U6          0.1773
    115  O4'       -1.6150  -35.4000  -33.3060 O.3     6  U6         -0.3307
    116  C3'       -0.3600  -37.2950  -33.8940 C.3     6  U6          0.1860
    117  O3'        0.5960  -38.2290  -33.3990 O.3     6  U6         -0.3112
    118  C2'       -1.7960  -37.7450  -33.6580 C.3     6  U6          0.2309
    119  O2'       -1.9600  -38.3920  -32.4170 O.3     6  U6         -0.2156
    120  C1'       -2.5430  -36.4080  -33.6630 C.3     6  U6          0.2420
    121  N1        -3.0720  -36.0790  -34.9900 N.ar    6  U6         -0.2534
    122  C2        -4.2880  -36.6150  -35.3470 C.ar    6  U6          0.3546
    123  O2        -4.9370  -37.3230  -34.6020 O.2     6  U6         -0.2443
    124  N3        -4.7160  -36.2920  -36.6140 N.ar    6  U6         -0.1530
    125  C4        -4.0560  -35.4980  -37.5390 C.ar    6  U6          0.2846
    126  O4        -4.5640  -35.2960  -38.6460 O.2     6  U6         -0.2650
    127  C5        -2.8030  -34.9730  -37.0820 C.ar    6  U6          0.0814
    128  C6        -2.3690  -35.2730  -35.8530 C.ar    6  U6          0.0870
    129  OP1        3.0380  -33.9970  -35.4210 O.3     6  U6         -0.4373
    130  OP2        1.2380  -33.9480  -37.2400 O.co2   6  U6         -0.5172
    131  P          1.2480  -39.3090  -34.3960 P.3     7  U7          0.2141
    132  C5'       -0.3320  -41.2210  -33.5820 C.3     7  U7          0.1812
    133  O5'        0.0600  -40.3440  -34.6280 O.3     7  U7         -0.3114
    134  C4'       -1.5650  -41.9940  -33.9710 C.3     7  U7          0.1773
    135  O4'       -2.6780  -41.0790  -34.1610 O.3     7  U7         -0.3307
    136  C3'       -1.4910  -42.7430  -35.2870 C.3     7  U7          0.1860
    137  O3'       -0.8210  -43.9860  -35.1410 O.3     7  U7         -0.3112
    138  C2'       -2.9670  -42.9370  -35.6070 C.3     7  U7          0.2309
    139  O2'       -3.5380  -43.9930  -34.8630 O.3     7  U7         -0.2156
    140  C1'       -3.5560  -41.5950  -35.1540 C.3     7  U7          0.2420
    141  N1        -3.6240  -40.6340  -36.2660 N.ar    7  U7         -0.2534
    142  C2        -4.8240  -40.4950  -36.9390 C.ar    7  U7          0.3546
    143  O2        -5.8420  -41.0820  -36.6130 O.2     7  U7         -0.2443
    144  N3        -4.7880  -39.6370  -38.0120 N.ar    7  U7         -0.1530
    145  C4        -3.7040  -38.9110  -38.4620 C.ar    7  U7          0.2846
    146  O4        -3.8190  -38.1980  -39.4610 O.2     7  U7         -0.2650
    147  C5        -2.5150  -39.0870  -37.6960 C.ar    7  U7          0.0814
    148  C6        -2.5150  -39.9170  -36.6480 C.ar    7  U7          0.0870
    149  OP1        2.3520  -40.0060  -33.6770 O.3     7  U7         -0.4373
    150  OP2        1.5410  -38.6290  -35.6870 O.co2   7  U7         -0.5172
    151  P         -0.1300  -44.6760  -36.4190 P.3     8  C8          0.2141
    152  C5'        2.2530  -44.0310  -35.5270 C.3     8  C8          0.1812
    153  O5'        1.2710  -43.9320  -36.5530 O.3     8  C8         -0.3114
    154  C4'        3.6040  -44.3220  -36.1330 C.3     8  C8          0.1773
    155  O4'        3.4770  -45.4970  -36.9740 O.3     8  C8         -0.3307
    156  C3'        4.1490  -43.2700  -37.0800 C.3     8  C8          0.1860
    157  O3'        4.8590  -42.2740  -36.3610 O.3     8  C8         -0.3112
    158  C2'        5.1130  -44.0800  -37.9270 C.3     8  C8          0.2309
    159  O2'        6.3260  -44.2980  -37.2380 O.3     8  C8         -0.2156
    160  C1'        4.3490  -45.3950  -38.0800 C.3     8  C8          0.2420
    161  N1         3.5360  -45.4580  -39.2950 N.ar    8  C8         -0.2535
    162  C2         4.1570  -45.7660  -40.5030 C.ar    8  C8          0.3532
    163  O2         5.3710  -46.0020  -40.5050 O.2     8  C8         -0.2443
    164  N3         3.4230  -45.8050  -41.6410 N.ar    8  C8         -0.1739
    165  C4         2.1130  -45.5590  -41.5950 C.ar    8  C8          0.1759
    166  N4         1.4260  -45.6030  -42.7450 N.pl3   8  C8         -0.1070
    167  C5         1.4470  -45.2530  -40.3670 C.ar    8  C8          0.0566
    168  C6         2.1930  -45.2140  -39.2520 C.ar    8  C8          0.0850
    169  OP1       -0.9230  -44.3920  -37.6500 O.2     8  C8         -0.5172
    170  OP2        0.1390  -46.0800  -36.0290 O.co2   8  C8         -0.4373
    171  P          4.9480  -40.7870  -36.9540 P.3     9  U9          0.2141
    172  C5'        6.9570  -41.2210  -38.5790 C.3     9  U9          0.1812
    173  O5'        5.5640  -40.9990  -38.4060 O.3     9  U9         -0.3114
    174  C4'        7.2990  -41.2320  -40.0450 C.3     9  U9          0.1773
    175  O4'        6.6740  -42.3760  -40.6780 O.3     9  U9         -0.3307
    176  C3'        6.7810  -40.0490  -40.8400 C.3     9  U9          0.1860
    177  O3'        7.6770  -38.9590  -40.7270 O.3     9  U9         -0.3112
    178  C2'        6.7710  -40.6110  -42.2520 C.3     9  U9          0.2309
    179  O2'        8.0590  -40.6550  -42.8200 O.3     9  U9         -0.2156
    180  C1'        6.3020  -42.0410  -41.9980 C.3     9  U9          0.2420
    181  N1         4.8490  -42.1560  -42.0900 N.ar    9  U9         -0.2534
    182  C2         4.3000  -42.1800  -43.3440 C.ar    9  U9          0.3546
    183  O2         4.9820  -42.0940  -44.3550 O.2     9  U9         -0.2443
    184  N3         2.9320  -42.3020  -43.3740 N.ar    9  U9         -0.1530
    185  C4         2.0920  -42.3900  -42.2820 C.ar    9  U9          0.2846
    186  O4         0.8820  -42.5150  -42.4550 O.2     9  U9         -0.2650
    187  C5         2.7500  -42.3460  -41.0170 C.ar    9  U9          0.0814
    188  C6         4.0720  -42.2380  -40.9660 C.ar    9  U9          0.0870
    189  OP1        5.9310  -40.0360  -36.1230 O.3     9  U9         -0.4373
    190  OP2        3.5650  -40.2610  -37.1180 O.co2   9  U9         -0.5172
    191  P          7.1000  -37.4710  -40.5620 P.3    10  A10         0.2141
    192  C5'        7.1510  -36.9580  -43.1210 C.3    10  A10         0.1812
    193  O5'        6.3800  -37.1850  -41.9540 O.3    10  A10        -0.3114
    194  C4'        6.2770  -36.9650  -44.3500 C.3    10  A10         0.1773
    195  O4'        5.5850  -38.2380  -44.4630 O.3    10  A10        -0.3307
    196  C3'        5.1240  -35.9850  -44.3930 C.3    10  A10         0.1860
    197  O3'        5.5400  -34.6610  -44.6780 O.3    10  A10        -0.3112
    198  C2'        4.3060  -36.5670  -45.5320 C.3    10  A10         0.2309
    199  O2'        4.9400  -36.3490  -46.7770 O.3    10  A10        -0.2156
    200  C1'        4.3880  -38.0550  -45.2070 C.3    10  A10         0.2408
    201  N1        -0.4630  -39.7020  -45.3770 N.ar   10  A10        -0.2040
    202  C2         0.3650  -39.2410  -46.3160 C.ar   10  A10         0.2016
    203  N3         1.6210  -38.8120  -46.1970 N.ar   10  A10        -0.2048
    204  C4         2.0240  -38.8790  -44.9190 C.ar   10  A10         0.1692
    205  C5         1.2810  -39.3200  -43.8390 C.ar   10  A10         0.1518
    206  C6        -0.0250  -39.7570  -44.1030 C.ar   10  A10         0.1919
    207  N6        -0.8490  -40.2260  -43.1720 N.pl3  10  A10        -0.1054
    208  N7         2.0180  -39.2320  -42.6680 N.ar   10  A10        -0.2193
    209  C8         3.1780  -38.7580  -43.0620 C.ar   10  A10         0.1816
    210  N9         3.2540  -38.5350  -44.4150 N.ar   10  A10        -0.2693
    211  OP1        8.2520  -36.5410  -40.4360 O.2    10  A10        -0.5172
    212  OP2        6.0720  -37.5160  -39.4940 O.co2  10  A10        -0.4373
    213  P          4.6450  -33.4310  -44.1620 P.3    11  G11         0.2141
    214  C5'        3.5840  -33.2730  -46.5380 C.3    11  G11         0.1812
    215  O5'        3.3940  -33.4560  -45.1450 O.3    11  G11        -0.3114
    216  C4'        2.3070  -33.5440  -47.2880 C.3    11  G11         0.1773
    217  O4'        1.8630  -34.8910  -47.0010 O.3    11  G11        -0.3307
    218  C3'        1.1030  -32.6990  -46.9270 C.3    11  G11         0.1871
    219  O3'        1.1550  -31.4720  -47.6300 O.3    11  G11        -0.2999
    220  C2'       -0.0290  -33.5520  -47.4740 C.3    11  G11         0.2309
    221  O2'       -0.1180  -33.4470  -48.8780 O.3    11  G11        -0.2156
    222  C1'        0.4560  -34.9590  -47.1280 C.3    11  G11         0.2408
    223  N1        -3.4270  -37.3640  -44.9330 N.ar   11  G11        -0.1709
    224  C2        -3.2530  -37.0080  -46.2460 C.ar   11  G11         0.2606
    225  N2        -4.2450  -37.3400  -47.0860 N.pl3  11  G11        -0.0859
    226  N3        -2.1880  -36.3730  -46.7030 N.ar   11  G11        -0.1918
    227  C4        -1.2960  -36.1190  -45.7270 C.ar   11  G11         0.1723
    228  C5        -1.3750  -36.4290  -44.3900 C.ar   11  G11         0.1748
    229  C6        -2.5200  -37.1090  -43.9110 C.ar   11  G11         0.3023
    230  O6        -2.7740  -37.4710  -42.7510 O.2    11  G11        -0.2633
    231  N7        -0.2460  -35.9900  -43.7160 N.ar   11  G11        -0.2173
    232  C8         0.4860  -35.4330  -44.6400 C.ar   11  G11         0.1817
    233  N9        -0.0930  -35.4790  -45.8820 N.ar   11  G11        -0.2693
    234  OP1        5.4230  -32.1910  -44.4000 O.2    11  G11        -0.5172
    235  OP2        4.1530  -33.7340  -42.7910 O.co2  11  G11        -0.4373
    236  P          1.0840  -30.0870  -46.8240 P.3    12  C12         0.3006
    237  O5'        2.2340  -29.2160  -47.5060 O.2    12  C12        -0.2722
    238  OP1        1.4560  -30.3430  -45.4040 O.3    12  C12        -0.1534
    239  OP2       -0.2270  -29.4560  -47.1350 O.co2  12  C12        -0.7578
    240  C5'       -0.2150  -29.9080  -53.5160 C.3    15  C15         0.2141
    241  O5'       -0.6480  -30.7010  -52.4100 O.3    15  C15        -0.2176
    242  C4'       -0.5980  -30.5740  -54.8210 C.3    15  C15         0.1802
    243  O4'        0.0350  -31.8790  -54.8810 O.3    15  C15        -0.3306
    244  C3'       -2.0880  -30.8360  -55.0060 C.3    15  C15         0.1861
    245  O3'       -2.7100  -29.6970  -55.6200 O.3    15  C15        -0.3112
    246  C2'       -2.1050  -32.0590  -55.9260 C.3    15  C15         0.2309
    247  O2'       -2.0140  -31.7280  -57.2980 O.3    15  C15        -0.2156
    248  C1'       -0.8350  -32.8070  -55.4980 C.3    15  C15         0.2420
    249  N1        -1.0320  -33.9360  -54.5700 N.ar   15  C15        -0.2535
    250  C2        -1.7150  -35.0680  -55.0250 C.ar   15  C15         0.3532
    251  O2        -2.1350  -35.0820  -56.1950 O.2    15  C15        -0.2443
    252  N3        -1.8980  -36.1180  -54.1790 N.ar   15  C15        -0.1739
    253  C4        -1.4260  -36.0610  -52.9300 C.ar   15  C15         0.1759
    254  N4        -1.6330  -37.1150  -52.1340 N.pl3  15  C15        -0.1070
    255  C5        -0.7210  -34.9180  -52.4430 C.ar   15  C15         0.0566
    256  C6        -0.5500  -33.8880  -53.2880 C.ar   15  C15         0.0850
    257  P         -3.8510  -28.8660  -54.8300 P.3    16  A16         0.2141
    258  C5'       -5.7990  -30.4530  -55.5380 C.3    16  A16         0.1812
    259  O5'       -4.9590  -29.9640  -54.5070 O.3    16  A16        -0.3114
    260  C4'       -6.4910  -31.7110  -55.0940 C.3    16  A16         0.1773
    261  O4'       -5.5130  -32.7580  -54.8720 O.3    16  A16        -0.3307
    262  C3'       -7.2170  -31.6470  -53.7650 C.3    16  A16         0.1860
    263  O3'       -8.4740  -30.9960  -53.8780 O.3    16  A16        -0.3112
    264  C2'       -7.3670  -33.1280  -53.4430 C.3    16  A16         0.2309
    265  O2'       -8.3960  -33.7600  -54.1780 O.3    16  A16        -0.2156
    266  C1'       -6.0150  -33.6690  -53.9060 C.3    16  A16         0.2408
    267  N1        -4.5770  -36.3330  -49.7710 N.ar   16  A16        -0.2040
    268  C2        -5.5470  -36.5230  -50.6760 C.ar   16  A16         0.2016
    269  N3        -5.8620  -35.7880  -51.7380 N.ar   16  A16        -0.2048
    270  C4        -5.0420  -34.7280  -51.8390 C.ar   16  A16         0.1692
    271  C5        -4.0030  -34.3980  -50.9900 C.ar   16  A16         0.1518
    272  C6        -3.7710  -35.2560  -49.9030 C.ar   16  A16         0.1919
    273  N6        -2.8040  -35.0620  -49.0010 N.pl3  16  A16        -0.1054
    274  N7        -3.3790  -33.2320  -51.4080 N.ar   16  A16        -0.2193
    275  C8        -4.0450  -32.8890  -52.4850 C.ar   16  A16         0.1816
    276  N9        -5.0660  -33.7480  -52.8000 N.ar   16  A16        -0.2693
    277  OP1       -4.4550  -27.8820  -55.7770 O.2    16  A16        -0.5172
    278  OP2       -3.2710  -28.3830  -53.5430 O.co2  16  A16        -0.4373
    279  P         -9.0190  -30.1190  -52.6530 P.3    17  C17         0.2141
    280  C5'      -10.2010  -32.2030  -51.6450 C.3    17  C17         0.1812
    281  O5'       -9.2290  -31.1830  -51.4950 O.3    17  C17        -0.3114
    282  C4'      -10.0800  -33.2170  -50.5370 C.3    17  C17         0.1773
    283  O4'       -8.7860  -33.8710  -50.6050 O.3    17  C17        -0.3307
    284  C3'      -10.1320  -32.6770  -49.1230 C.3    17  C17         0.1860
    285  O3'      -11.4790  -32.4470  -48.7420 O.3    17  C17        -0.3112
    286  C2'       -9.4970  -33.8250  -48.3510 C.3    17  C17         0.2309
    287  O2'      -10.3720  -34.9210  -48.2270 O.3    17  C17        -0.2156
    288  C1'       -8.3670  -34.2300  -49.2990 C.3    17  C17         0.2420
    289  N1        -7.1170  -33.5200  -49.0070 N.ar   17  C17        -0.2535
    290  C2        -6.3150  -33.9790  -47.9690 C.ar   17  C17         0.3532
    291  O2        -6.6650  -34.9950  -47.3530 O.2    17  C17        -0.2443
    292  N3        -5.1810  -33.3080  -47.6610 N.ar   17  C17        -0.1739
    293  C4        -4.8400  -32.2240  -48.3590 C.ar   17  C17         0.1759
    294  N4        -3.7270  -31.5870  -48.0190 N.pl3  17  C17        -0.1070
    295  C5        -5.6320  -31.7430  -49.4380 C.ar   17  C17         0.0566
    296  C6        -6.7510  -32.4170  -49.7270 C.ar   17  C17         0.0850
    297  OP1      -10.3530  -29.5850  -52.9980 O.2    17  C17        -0.5172
    298  OP2       -7.9300  -29.1920  -52.2710 O.co2  17  C17        -0.4373
    299  P        -11.8060  -31.4180  -47.5550 P.3    18  C18         0.2141
    300  C5'      -11.9050  -33.4650  -45.9120 C.3    18  C18         0.1812
    301  O5'      -11.3270  -32.2040  -46.2510 O.3    18  C18        -0.3114
    302  C4'      -11.4200  -33.9250  -44.5580 C.3    18  C18         0.1773
    303  O4'      -10.0270  -34.3110  -44.6350 O.3    18  C18        -0.3307
    304  C3'      -11.4500  -32.8730  -43.4700 C.3    18  C18         0.1860
    305  O3'      -12.7320  -32.7770  -42.8840 O.3    18  C18        -0.3112
    306  C2'      -10.4270  -33.4110  -42.4850 C.3    18  C18         0.2309
    307  O2'      -10.9270  -34.4690  -41.6980 O.3    18  C18        -0.2156
    308  C1'       -9.3640  -33.9460  -43.4380 C.3    18  C18         0.2420
    309  N1        -8.3550  -32.9370  -43.7740 N.ar   18  C18        -0.2535
    310  C2        -7.4380  -32.5390  -42.7940 C.ar   18  C18         0.3532
    311  O2        -7.5200  -33.0320  -41.6530 O.2    18  C18        -0.2443
    312  N3        -6.4870  -31.6320  -43.1150 N.ar   18  C18        -0.1739
    313  C4        -6.4350  -31.1320  -44.3510 C.ar   18  C18         0.1759
    314  N4        -5.4760  -30.2520  -44.6300 N.pl3  18  C18        -0.1070
    315  C5        -7.3620  -31.5120  -45.3560 C.ar   18  C18         0.0566
    316  C6        -8.2990  -32.4040  -45.0280 C.ar   18  C18         0.0850
    317  OP1      -13.2800  -31.2690  -47.4880 O.3    18  C18        -0.4373
    318  OP2      -10.9570  -30.2100  -47.7190 O.co2  18  C18        -0.5172
    319  P        -13.2060  -31.3810  -42.2630 P.3    19  C19         0.2141
    320  C5'      -12.4220  -32.1470  -39.9050 C.3    19  C19         0.1812
    321  O5'      -12.3030  -31.2190  -40.9650 O.3    19  C19        -0.3114
    322  C4'      -11.4450  -31.8230  -38.8100 C.3    19  C19         0.1773
    323  O4'      -10.0940  -31.9990  -39.2960 O.3    19  C19        -0.3307
    324  C3'      -11.4490  -30.3980  -38.2940 C.3    19  C19         0.1860
    325  O3'      -12.5020  -30.1890  -37.3610 O.3    19  C19        -0.3112
    326  C2'      -10.0870  -30.3310  -37.6210 C.3    19  C19         0.2309
    327  O2'      -10.0490  -31.0030  -36.3710 O.3    19  C19        -0.2156
    328  C1'       -9.2330  -31.1000  -38.6250 C.3    19  C19         0.2420
    329  N1        -8.6180  -30.2300  -39.6300 N.ar   19  C19        -0.2535
    330  C2        -7.4850  -29.4990  -39.2860 C.ar   19  C19         0.3532
    331  O2        -7.0620  -29.5660  -38.1220 O.2    19  C19        -0.2443
    332  N3        -6.8790  -28.7370  -40.2250 N.ar   19  C19        -0.1739
    333  C4        -7.3760  -28.6840  -41.4600 C.ar   19  C19         0.1759
    334  N4        -6.7450  -27.9340  -42.3570 N.pl3  19  C19        -0.1070
    335  C5        -8.5430  -29.4000  -41.8310 C.ar   19  C19         0.0566
    336  C6        -9.1310  -30.1520  -40.8910 C.ar   19  C19         0.0850
    337  OP1      -14.6200  -31.5540  -41.8450 O.3    19  C19        -0.4373
    338  OP2      -12.8420  -30.3180  -43.2310 O.co2  19  C19        -0.5172
    339  P        -12.9980  -28.6960  -37.0450 P.3    20  U20         0.2141
    340  C5'      -11.2600  -28.6220  -35.0810 C.3    20  U20         0.1812
    341  O5'      -11.7650  -28.0410  -36.2790 O.3    20  U20        -0.3114
    342  C4'      -10.0830  -27.8240  -34.5670 C.3    20  U20         0.1773
    343  O4'       -8.9190  -28.0040  -35.4180 O.3    20  U20        -0.3307
    344  C3'      -10.2970  -26.3270  -34.5430 C.3    20  U20         0.1860
    345  O3'      -11.0040  -25.9680  -33.3760 O.3    20  U20        -0.3112
    346  C2'       -8.8690  -25.8000  -34.5620 C.3    20  U20         0.2309
    347  O2'       -8.2230  -25.9090  -33.3170 O.3    20  U20        -0.2156
    348  C1'       -8.2090  -26.7810  -35.5260 C.3    20  U20         0.2420
    349  N1        -8.2630  -26.3490  -36.9280 N.ar   20  U20        -0.2534
    350  C2        -7.3000  -25.4660  -37.3730 C.ar   20  U20         0.3546
    351  O2        -6.4360  -25.0030  -36.6460 O.2    20  U20        -0.2443
    352  N3        -7.3840  -25.1460  -38.7050 N.ar   20  U20        -0.1530
    353  C4        -8.3150  -25.6110  -39.6130 C.ar   20  U20         0.2846
    354  O4        -8.2370  -25.2650  -40.7890 O.2    20  U20        -0.2650
    355  C5        -9.2860  -26.5040  -39.0680 C.ar   20  U20         0.0814
    356  C6        -9.2320  -26.8300  -37.7770 C.ar   20  U20         0.0870
    357  OP1      -14.1370  -28.7800  -36.1010 O.3    20  U20        -0.4373
    358  OP2      -13.1770  -28.0200  -38.3540 O.co2  20  U20        -0.5172
    359  P        -11.5550  -24.4780  -33.2180 P.3    21  C21         0.2141
    360  C5'      -10.1800  -22.4440  -32.3840 C.3    21  C21         0.1812
    361  O5'      -10.4660  -23.8160  -32.2780 O.3    21  C21        -0.3114
    362  C4'       -8.6990  -22.2410  -32.4240 C.3    21  C21         0.1773
    363  O4'       -8.1150  -23.1020  -33.4320 O.3    21  C21        -0.3307
    364  C3'       -8.3240  -20.8340  -32.8230 C.3    21  C21         0.1860
    365  O3'       -8.2600  -20.0500  -31.6510 O.3    21  C21        -0.3112
    366  C2'       -6.9670  -21.0290  -33.4770 C.3    21  C21         0.2309
    367  O2'       -5.9350  -21.1470  -32.5210 O.3    21  C21        -0.2156
    368  C1'       -7.1740  -22.3670  -34.1940 C.3    21  C21         0.2420
    369  N1        -7.7190  -22.2490  -35.5520 N.ar   21  C21        -0.2535
    370  C2        -7.0260  -21.5080  -36.5100 C.ar   21  C21         0.3532
    371  O2        -5.9740  -20.9460  -36.1850 O.2    21  C21        -0.2443
    372  N3        -7.5220  -21.4290  -37.7650 N.ar   21  C21        -0.1739
    373  C4        -8.6610  -22.0580  -38.0720 C.ar   21  C21         0.1759
    374  N4        -9.1120  -21.9710  -39.3180 N.pl3  21  C21        -0.1070
    375  C5        -9.3890  -22.8080  -37.1110 C.ar   21  C21         0.0566
    376  C6        -8.8910  -22.8740  -35.8770 C.ar   21  C21         0.0850
    377  OP1      -12.8400  -24.5090  -32.4840 O.3    21  C21        -0.4373
    378  OP2      -11.4920  -23.8210  -34.5460 O.co2  21  C21        -0.5172
    379  P         -9.1610  -18.7370  -31.5350 P.3    22  U22         0.2141
    380  C5'       -6.9890  -17.3120  -31.9670 C.3    22  U22         0.1812
    381  O5'       -8.3230  -17.6500  -32.3600 O.3    22  U22        -0.3114
    382  C4'       -6.3570  -16.3260  -32.9330 C.3    22  U22         0.1773
    383  O4'       -6.3070  -16.9270  -34.2520 O.3    22  U22        -0.3307
    384  C3'       -7.1750  -15.0470  -33.0880 C.3    22  U22         0.1860
    385  O3'       -6.4580  -13.8180  -32.9950 O.3    22  U22        -0.3112
    386  C2'       -7.9750  -15.2010  -34.3740 C.3    22  U22         0.2309
    387  O2'       -7.8960  -14.0110  -35.1320 O.3    22  U22        -0.2156
    388  C1'       -7.1490  -16.2310  -35.1390 C.3    22  U22         0.2420
    389  N1        -7.8870  -17.1730  -35.9870 N.ar   22  U22        -0.2534
    390  C2        -7.7140  -17.0550  -37.3570 C.ar   22  U22         0.3546
    391  O2        -6.9490  -16.2400  -37.8660 O.2    22  U22        -0.2443
    392  N3        -8.4650  -17.9200  -38.1100 N.ar   22  U22        -0.1530
    393  C4        -9.3450  -18.8690  -37.6490 C.ar   22  U22         0.2846
    394  O4        -9.9730  -19.5540  -38.4550 O.2    22  U22        -0.2650
    395  C5        -9.4510  -18.9400  -36.2260 C.ar   22  U22         0.0814
    396  C6        -8.7310  -18.1110  -35.4630 C.ar   22  U22         0.0870
    397  OP1       -9.1560  -18.3580  -30.1010 O.3    22  U22        -0.4373
    398  OP2      -10.4550  -19.0030  -32.2160 O.co2  22  U22        -0.5172
    399  P         -5.6510  -13.4440  -31.6600 P.3    23  A23         0.2141
    400  C5'       -3.4730  -14.7600  -31.1070 C.3    23  A23         0.1812
    401  O5'       -4.1590  -13.8860  -31.9780 O.3    23  A23        -0.3114
    402  C4'       -2.0080  -14.7420  -31.4180 C.3    23  A23         0.1773
    403  O4'       -1.7970  -15.3410  -32.7200 O.3    23  A23        -0.3307
    404  C3'       -1.4490  -13.3440  -31.5270 C.3    23  A23         0.1860
    405  O3'       -0.5240  -12.9190  -30.5270 O.3    23  A23        -0.3112
    406  C2'       -1.3990  -12.9860  -33.0110 C.3    23  A23         0.2309
    407  O2'       -0.1850  -12.3770  -33.3880 O.3    23  A23        -0.2156
    408  C1'       -1.4370  -14.3620  -33.6770 C.3    23  A23         0.2408
    409  N1        -2.0660  -16.0570  -38.5060 N.ar   23  A23        -0.2040
    410  C2        -1.0000  -16.0370  -37.6940 C.ar   23  A23         0.2016
    411  N3        -0.8930  -15.5660  -36.4530 N.ar   23  A23        -0.2048
    412  C4        -2.0650  -15.0550  -36.0370 C.ar   23  A23         0.1692
    413  C5        -3.2440  -15.0030  -36.7580 C.ar   23  A23         0.1518
    414  C6        -3.2270  -15.5390  -38.0550 C.ar   23  A23         0.1919
    415  N6        -4.2930  -15.5640  -38.8530 N.pl3  23  A23        -0.1054
    416  N7        -4.2490  -14.4060  -36.0130 N.ar   23  A23        -0.2193
    417  C8        -3.6660  -14.1180  -34.8730 C.ar   23  A23         0.1816
    418  N9        -2.3510  -14.4930  -34.8120 N.ar   23  A23        -0.2693
    419  OP1       -6.1490  -14.2590  -30.5200 O.3    23  A23        -0.4373
    420  OP2       -5.6520  -11.9650  -31.5670 O.co2  23  A23        -0.5172
    421  P          0.9060  -13.6390  -30.4000 P.3    24  U24         0.2141
    422  C5'        1.3290  -16.2110  -30.0930 C.3    24  U24         0.1812
    423  O5'        0.5560  -15.0590  -29.7710 O.3    24  U24        -0.3114
    424  C4'        0.5540  -17.4680  -29.7710 C.3    24  U24         0.1773
    425  O4'       -0.7700  -17.3900  -30.3380 O.3    24  U24        -0.3307
    426  C3'        1.1620  -18.7430  -30.3250 C.3    24  U24         0.1860
    427  O3'        1.9950  -19.2990  -29.3290 O.3    24  U24        -0.3112
    428  C2'       -0.0340  -19.6650  -30.5210 C.3    24  U24         0.2309
    429  O2'       -0.2770  -20.4660  -29.3880 O.3    24  U24        -0.2156
    430  C1'       -1.1830  -18.6760  -30.7380 C.3    24  U24         0.2420
    431  N1        -1.7710  -18.5630  -32.0780 N.ar   24  U24        -0.2534
    432  C2        -1.0360  -18.9900  -33.1620 C.ar   24  U24         0.3546
    433  O2         0.0750  -19.4750  -33.0640 O.2    24  U24        -0.2443
    434  N3        -1.6480  -18.8240  -34.3730 N.ar   24  U24        -0.1530
    435  C4        -2.8870  -18.2980  -34.6030 C.ar   24  U24         0.2846
    436  O4        -3.2860  -18.1940  -35.7590 O.2    24  U24        -0.2650
    437  C5        -3.5950  -17.8960  -33.4300 C.ar   24  U24         0.0814
    438  C6        -3.0270  -18.0390  -32.2390 C.ar   24  U24         0.0870
    439  OP1        1.6920  -12.8830  -29.3970 O.3    24  U24        -0.4373
    440  OP2        1.4600  -13.8380  -31.7630 O.co2  24  U24        -0.5172
    441  P          3.4920  -19.7120  -29.6870 P.3    25  A25         0.2141
    442  C5'        3.7970  -21.8550  -31.1410 C.3    25  A25         0.1812
    443  O5'        3.3430  -20.5180  -31.0460 O.3    25  A25        -0.3114
    444  C4'        2.8460  -22.7740  -30.4170 C.3    25  A25         0.1773
    445  O4'        1.4920  -22.5010  -30.8560 O.3    25  A25        -0.3307
    446  C3'        3.1180  -24.2320  -30.7520 C.3    25  A25         0.1860
    447  O3'        3.4120  -25.0540  -29.6080 O.3    25  A25        -0.3112
    448  C2'        2.1260  -24.6000  -31.8600 C.3    25  A25         0.2309
    449  O2'        1.5510  -25.8850  -31.7720 O.3    25  A25        -0.2156
    450  C1'        1.0110  -23.5710  -31.6460 C.3    25  A25         0.2408
    451  N1        -3.3750  -21.9590  -33.7480 N.ar   25  A25        -0.2040
    452  C2        -3.0770  -22.4290  -32.5360 C.ar   25  A25         0.2016
    453  N3        -1.9070  -22.8310  -32.0540 N.ar   25  A25        -0.2048
    454  C4        -0.9440  -22.7140  -32.9850 C.ar   25  A25         0.1692
    455  C5        -1.0970  -22.2510  -34.2730 C.ar   25  A25         0.1518
    456  C6        -2.3880  -21.8570  -34.6600 C.ar   25  A25         0.1919
    457  N6        -2.6870  -21.3900  -35.8700 N.pl3  25  A25        -0.1054
    458  N7         0.1160  -22.2730  -34.9470 N.ar   25  A25        -0.2193
    459  C8         0.9630  -22.7400  -34.0620 C.ar   25  A25         0.1816
    460  N9         0.3890  -23.0300  -32.8540 N.ar   25  A25        -0.2693
    461  OP1        3.9570  -20.6490  -28.6340 O.3    25  A25        -0.4373
    462  OP2        4.2450  -18.4610  -29.9480 O.co2  25  A25        -0.5172
    463  P          3.2860  -26.6590  -29.6870 P.3    26  A26         0.2141
    464  C5'        0.9680  -26.3200  -28.4920 C.3    26  A26         0.1812
    465  O5'        1.7150  -26.9450  -29.5380 O.3    26  A26        -0.3114
    466  C4'       -0.4450  -26.8800  -28.3770 C.3    26  A26         0.1773
    467  O4'       -1.3240  -26.2410  -29.3490 O.3    26  A26        -0.3307
    468  C3'       -0.5160  -28.3830  -28.6700 C.3    26  A26         0.1860
    469  O3'       -1.1190  -29.1820  -27.6410 O.3    26  A26        -0.3112
    470  C2'       -1.0150  -28.5110  -30.1080 C.3    26  A26         0.2309
    471  O2'       -1.9600  -29.5400  -30.2970 O.3    26  A26        -0.2156
    472  C1'       -1.7820  -27.2050  -30.2680 C.3    26  A26         0.2408
    473  N1        -5.3790  -25.3600  -33.3830 N.ar   26  A26        -0.2040
    474  C2        -5.3840  -25.7100  -32.0940 C.ar   26  A26         0.2016
    475  N3        -4.3830  -26.1450  -31.3340 N.ar   26  A26        -0.2048
    476  C4        -3.2430  -26.2130  -32.0420 C.ar   26  A26         0.1692
    477  C5        -3.0750  -25.8840  -33.3720 C.ar   26  A26         0.1518
    478  C6        -4.2190  -25.4360  -34.0670 C.ar   26  A26         0.1919
    479  N6        -4.2200  -25.0880  -35.3560 N.pl3  26  A26        -0.1054
    480  N7        -1.7550  -26.0750  -33.7600 N.ar   26  A26        -0.2193
    481  C8        -1.1660  -26.5170  -32.6720 C.ar   26  A26         0.1816
    482  N9        -2.0150  -26.6500  -31.6020 N.ar   26  A26        -0.2693
    483  OP1        3.9690  -27.1550  -28.4730 O.3    26  A26        -0.4373
    484  OP2        3.7520  -27.1200  -31.0250 O.co2  26  A26        -0.5172
    485  P         -1.4000  -30.7570  -27.8820 P.3    27  A27         0.2141
    486  C5'       -3.8910  -31.1910  -27.1460 C.3    27  A27         0.1812
    487  O5'       -2.9660  -30.8660  -28.1850 O.3    27  A27        -0.3114
    488  C4'       -5.2490  -31.5720  -27.7180 C.3    27  A27         0.1773
    489  O4'       -5.7450  -30.4960  -28.5610 O.3    27  A27        -0.3307
    490  C3'       -5.3490  -32.8000  -28.6200 C.3    27  A27         0.1860
    491  O3'       -5.4360  -34.0210  -27.8740 O.3    27  A27        -0.3112
    492  C2'       -6.6720  -32.5500  -29.3380 C.3    27  A27         0.2309
    493  O2'       -7.7890  -32.9450  -28.5730 O.3    27  A27        -0.2156
    494  C1'       -6.6670  -31.0280  -29.4990 C.3    27  A27         0.2408
    495  N1        -8.1710  -30.7860  -34.3980 N.ar   27  A27        -0.2040
    496  C2        -8.7700  -31.2370  -33.2880 C.ar   27  A27         0.2016
    497  N3        -8.3130  -31.2660  -32.0340 N.ar   27  A27        -0.2048
    498  C4        -7.0700  -30.7510  -31.9680 C.ar   27  A27         0.1692
    499  C5        -6.3240  -30.2490  -33.0200 C.ar   27  A27         0.1518
    500  C6        -6.9210  -30.2760  -34.2970 C.ar   27  A27         0.1919
    501  N6        -6.3240  -29.8260  -35.4010 N.pl3  27  A27        -0.1054
    502  N7        -5.0880  -29.8020  -32.5740 N.ar   27  A27        -0.2193
    503  C8        -5.1130  -30.0390  -31.2840 C.ar   27  A27         0.1816
    504  N9        -6.2820  -30.6140  -30.8490 N.ar   27  A27        -0.2693
    505  OP1       -1.1520  -31.4550  -26.5990 O.3    27  A27        -0.4373
    506  OP2       -0.6680  -31.1880  -29.1000 O.co2  27  A27        -0.5172
    507  P         -5.1500  -35.4390  -28.5990 P.3    28  A28         0.2141
    508  C5'       -7.6630  -36.0120  -28.9950 C.3    28  A28         0.1812
    509  O5'       -6.4060  -35.6710  -29.5440 O.3    28  A28        -0.3114
    510  C4'       -8.6980  -36.0700  -30.0820 C.3    28  A28         0.1773
    511  O4'       -8.7630  -34.7760  -30.7360 O.3    28  A28        -0.3307
    512  C3'       -8.3980  -37.0450  -31.2050 C.3    28  A28         0.1860
    513  O3'       -8.8360  -38.3520  -30.8570 O.3    28  A28        -0.3112
    514  C2'       -9.1920  -36.4420  -32.3570 C.3    28  A28         0.2309
    515  O2'      -10.5740  -36.7060  -32.2820 O.3    28  A28        -0.2156
    516  C1'       -8.9500  -34.9510  -32.1270 C.3    28  A28         0.2408
    517  N1        -6.8940  -33.3860  -36.5570 N.ar   28  A28        -0.2040
    518  C2        -8.1300  -33.7660  -36.2290 C.ar   28  A28         0.2016
    519  N3        -8.6030  -34.1630  -35.0530 N.ar   28  A28        -0.2048
    520  C4        -7.6310  -34.1470  -34.1260 C.ar   28  A28         0.1692
    521  C5        -6.3120  -33.7790  -34.3130 C.ar   28  A28         0.1518
    522  C6        -5.9440  -33.3820  -35.5980 C.ar   28  A28         0.1919
    523  N6        -4.7120  -33.0000  -35.9200 N.pl3  28  A28        -0.1054
    524  N7        -5.5970  -33.8800  -33.1300 N.ar   28  A28        -0.2193
    525  C8        -6.4870  -34.3010  -32.2640 C.ar   28  A28         0.1816
    526  N9        -7.7400  -34.4850  -32.8000 N.ar   28  A28        -0.2693
    527  OP1       -5.1920  -36.5030  -27.5730 O.3    28  A28        -0.4373
    528  OP2       -3.9360  -35.2890  -29.4440 O.co2  28  A28        -0.5172
    529  P         -8.2020  -39.6330  -31.5950 P.3    29  A29         0.2141
    530  C5'      -10.5050  -39.9280  -32.7740 C.3    29  A29         0.1812
    531  O5'       -9.1000  -39.8050  -32.8960 O.3    29  A29        -0.3114
    532  C4'      -11.1130  -40.3620  -34.0790 C.3    29  A29         0.1773
    533  O4'      -10.9470  -39.2910  -35.0470 O.3    29  A29        -0.3307
    534  C3'      -10.3840  -41.5710  -34.6640 C.3    29  A29         0.1860
    535  O3'      -11.1950  -42.7370  -34.8700 O.3    29  A29        -0.3112
    536  C2'       -9.4140  -41.0270  -35.7170 C.3    29  A29         0.2309
    537  O2'       -9.3660  -41.7540  -36.9230 O.3    29  A29        -0.2156
    538  C1'      -10.0670  -39.6970  -36.0720 C.3    29  A29         0.2408
    539  N1        -9.5170  -35.9950  -39.5100 N.ar   29  A29        -0.2040
    540  C2       -10.4730  -36.8950  -39.2890 C.ar   29  A29         0.2016
    541  N3       -10.5490  -37.8250  -38.3470 N.ar   29  A29        -0.2048
    542  C4        -9.4730  -37.7780  -37.5450 C.ar   29  A29         0.1692
    543  C5        -8.4090  -36.9100  -37.6380 C.ar   29  A29         0.1518
    544  C6        -8.4480  -35.9720  -38.6860 C.ar   29  A29         0.1919
    545  N6        -7.4950  -35.0650  -38.9090 N.pl3  29  A29        -0.1054
    546  N7        -7.4850  -37.1590  -36.6300 N.ar   29  A29        -0.2193
    547  C8        -8.0080  -38.1620  -35.9640 C.ar   29  A29         0.1816
    548  N9        -9.2030  -38.5930  -36.4750 N.ar   29  A29        -0.2693
    549  OP1       -8.4280  -40.8060  -30.7150 O.3    29  A29        -0.4373
    550  OP2       -6.8230  -39.2930  -32.0290 O.co2  29  A29        -0.5172
    551  P        -10.6980  -43.9190  -35.8460 P.3    30  A30         0.2141
    552  C5'      -10.4940  -43.7870  -38.4800 C.3    30  A30         0.1812
    553  O5'      -11.2170  -43.4700  -37.2880 O.3    30  A30        -0.3114
    554  C4'      -11.0050  -42.9470  -39.6270 C.3    30  A30         0.1773
    555  O4'      -10.9110  -41.5440  -39.2630 O.3    30  A30        -0.3307
    556  C3'      -10.2240  -43.0120  -40.9270 C.3    30  A30         0.1860
    557  O3'      -10.5750  -44.1250  -41.7230 O.3    30  A30        -0.3112
    558  C2'      -10.6550  -41.7270  -41.6130 C.3    30  A30         0.2309
    559  O2'      -11.9120  -41.8090  -42.2480 O.3    30  A30        -0.2156
    560  C1'      -10.7190  -40.7660  -40.4320 C.3    30  A30         0.2408
    561  N1        -7.8560  -37.0170  -42.4100 N.ar   30  A30        -0.2040
    562  C2        -9.0890  -37.4530  -42.6860 C.ar   30  A30         0.2016
    563  N3        -9.7850  -38.4330  -42.1110 N.ar   30  A30        -0.2048
    564  C4        -9.0710  -39.0090  -41.1260 C.ar   30  A30         0.1692
    565  C5        -7.7950  -38.6730  -40.7230 C.ar   30  A30         0.1518
    566  C6        -7.1660  -37.6160  -41.4140 C.ar   30  A30         0.1919
    567  N6        -5.9350  -37.1780  -41.1390 N.pl3  30  A30        -0.1054
    568  N7        -7.3840  -39.4860  -39.6740 N.ar   30  A30        -0.2193
    569  C8        -8.4070  -40.2810  -39.4730 C.ar   30  A30         0.1816
    570  N9        -9.4540  -40.0560  -40.3230 N.ar   30  A30        -0.2693
    571  OP1      -11.4600  -45.1320  -35.4550 O.3    30  A30        -0.4373
    572  OP2       -9.2060  -43.9510  -35.8390 O.co2  30  A30        -0.5172
    573  P         -9.6110  -44.5600  -42.9290 P.3    31  C31         0.2141
    574  C5'      -10.7180  -42.8980  -44.6410 C.3    31  C31         0.1812
    575  O5'       -9.5780  -43.2910  -43.8860 O.3    31  C31        -0.3114
    576  C4'      -10.3400  -41.7750  -45.5720 C.3    31  C31         0.1773
    577  O4'       -9.8780  -40.6460  -44.7830 O.3    31  C31        -0.3307
    578  C3'       -9.1630  -42.0920  -46.4780 C.3    31  C31         0.1860
    579  O3'       -9.5940  -42.7660  -47.6470 O.3    31  C31        -0.3112
    580  C2'       -8.5970  -40.7120  -46.7840 C.3    31  C31         0.2309
    581  O2'       -9.3220  -40.0310  -47.7860 O.3    31  C31        -0.2156
    582  C1'       -8.7880  -40.0090  -45.4400 C.3    31  C31         0.2420
    583  N1        -7.6080  -40.0800  -44.5570 N.ar   31  C31        -0.2535
    584  C2        -6.5830  -39.1420  -44.7120 C.ar   31  C31         0.3532
    585  O2        -6.6770  -38.2940  -45.6080 O.2    31  C31        -0.2443
    586  N3        -5.5150  -39.1880  -43.8830 N.ar   31  C31        -0.1739
    587  C4        -5.4470  -40.1240  -42.9370 C.ar   31  C31         0.1759
    588  N4        -4.3870  -40.1280  -42.1340 N.pl3  31  C31        -0.1070
    589  C5        -6.4660  -41.1000  -42.7680 C.ar   31  C31         0.0566
    590  C6        -7.5180  -41.0430  -43.5920 C.ar   31  C31         0.0850
    591  OP1      -10.2180  -45.7010  -43.6680 O.2    31  C31        -0.5172
    592  OP2       -8.2530  -44.6930  -42.3490 O.co2  31  C31        -0.4373
    593  P         -8.6100  -43.8070  -48.3640 P.3    32  U32         0.2141
    594  C5'       -7.8560  -41.9390  -50.0300 C.3    32  U32         0.1812
    595  O5'       -7.5020  -42.8790  -49.0270 O.3    32  U32        -0.3114
    596  C4'       -6.6680  -41.0850  -50.3800 C.3    32  U32         0.1773
    597  O4'       -6.3030  -40.2740  -49.2370 O.3    32  U32        -0.3307
    598  C3'       -5.4010  -41.8520  -50.6990 C.3    32  U32         0.1860
    599  O3'       -5.3980  -42.2680  -52.0530 O.3    32  U32        -0.3112
    600  C2'       -4.3240  -40.8110  -50.4390 C.3    32  U32         0.2309
    601  O2'       -4.1730  -39.9120  -51.5230 O.3    32  U32        -0.2156
    602  C1'       -4.9000  -40.0770  -49.2270 C.3    32  U32         0.2420
    603  N1        -4.3810  -40.5430  -47.9360 N.ar   32  U32        -0.2534
    604  C2        -3.1040  -40.1600  -47.5770 C.ar   32  U32         0.3546
    605  O2        -2.3930  -39.4860  -48.2940 O.2    32  U32        -0.2443
    606  N3        -2.6920  -40.5970  -46.3440 N.ar   32  U32        -0.1530
    607  C4        -3.4100  -41.3690  -45.4540 C.ar   32  U32         0.2846
    608  O4        -2.9010  -41.6900  -44.3780 O.2    32  U32        -0.2650
    609  C5        -4.7170  -41.7340  -45.9060 C.ar   32  U32         0.0814
    610  C6        -5.1450  -41.3190  -47.1040 C.ar   32  U32         0.0870
    611  OP1       -9.3810  -44.4810  -49.4390 O.2    32  U32        -0.5172
    612  OP2       -7.9500  -44.6190  -47.3110 O.co2  32  U32        -0.4373
    613  P         -4.4670  -43.4940  -52.4980 P.3    33  A33         0.2141
    614  C5'       -2.4140  -42.0110  -53.1770 C.3    33  A33         0.1812
    615  O5'       -2.9860  -42.9540  -52.2780 O.3    33  A33        -0.3114
    616  C4'       -0.9450  -41.8340  -52.8780 C.3    33  A33         0.1773
    617  O4'       -0.7850  -41.1270  -51.6230 O.3    33  A33        -0.3307
    618  C3'       -0.1750  -43.1270  -52.6800 C.3    33  A33         0.1860
    619  O3'        0.2620  -43.6470  -53.9240 O.3    33  A33        -0.3112
    620  C2'        1.0030  -42.6780  -51.8320 C.3    33  A33         0.2309
    621  O2'        1.9900  -42.0650  -52.6320 O.3    33  A33        -0.2156
    622  C1'        0.3430  -41.6330  -50.9300 C.3    33  A33         0.2408
    623  N1         1.4940  -42.1500  -45.9370 N.ar   33  A33        -0.2040
    624  C2         2.1780  -41.6520  -46.9700 C.ar   33  A33         0.2016
    625  N3         1.8220  -41.5580  -48.2560 N.ar   33  A33        -0.2048
    626  C4         0.5920  -42.0620  -48.4480 C.ar   33  A33         0.1692
    627  C5        -0.2320  -42.6120  -47.4880 C.ar   33  A33         0.1518
    628  C6         0.2600  -42.6470  -46.1670 C.ar   33  A33         0.1919
    629  N6        -0.4250  -43.1410  -45.1390 N.pl3  33  A33        -0.1054
    630  N7        -1.4260  -43.0340  -48.0510 N.ar   33  A33        -0.2193
    631  C8        -1.3020  -42.7280  -49.3190 C.ar   33  A33         0.1816
    632  N9        -0.1090  -42.1300  -49.6280 N.ar   33  A33        -0.2693
    633  OP1       -4.6970  -43.7170  -53.9480 O.2    33  A33        -0.5172
    634  OP2       -4.6810  -44.6030  -51.5340 O.co2  33  A33        -0.4373
    635  P          0.5940  -45.2090  -54.0520 P.3    34  A34         0.2141
    636  C5'        3.1340  -44.8190  -53.5030 C.3    34  A34         0.1813
    637  O5'        1.8840  -45.3970  -53.1310 O.3    34  A34        -0.3114
    638  C4'        4.1540  -44.9990  -52.4010 C.3    34  A34         0.1801
    639  O4'        3.6890  -44.3130  -51.2110 O.3    34  A34        -0.3306
    640  C3'        4.4160  -46.4250  -51.9330 C.3    34  A34         0.2161
    641  O3'        5.3660  -47.0820  -52.7700 O.3    34  A34        -0.2175
    642  C2'        4.9690  -46.2000  -50.5290 C.3    34  A34         0.2337
    643  O2'        6.3360  -45.8350  -50.5070 O.3    34  A34        -0.2155
    644  C1'        4.1240  -45.0150  -50.0570 C.3    34  A34         0.2409
    645  N1         2.0790  -45.5760  -45.3860 N.ar   34  A34        -0.2040
    646  C2         3.2690  -45.1280  -45.8000 C.ar   34  A34         0.2016
    647  N3         3.7380  -45.0050  -47.0390 N.ar   34  A34        -0.2048
    648  C4         2.8220  -45.4100  -47.9330 C.ar   34  A34         0.1692
    649  C5         1.5580  -45.8950  -47.6630 C.ar   34  A34         0.1518
    650  C6         1.1830  -45.9750  -46.3150 C.ar   34  A34         0.1919
    651  N6        -0.0040  -46.4210  -45.9080 N.pl3  34  A34        -0.1054
    652  N7         0.8930  -46.2160  -48.8380 N.ar   34  A34        -0.2193
    653  C8         1.7580  -45.9220  -49.7770 C.ar   34  A34         0.1816
    654  N9         2.9470  -45.4310  -49.2990 N.ar   34  A34        -0.2693
    655  OP1        0.9700  -45.4580  -55.4690 O.2    34  A34        -0.5172
    656  OP2       -0.5320  -45.9720  -53.4430 O.co2  34  A34        -0.4373
@<TRIPOS>BOND
     1   247   246    1
     2   251   250    2
     3   246   248    1
     4   246   244    1
     5   277   257    2
     6   245   244    1
     7   245   257    1
     8   258   260    1
     9   258   259    1
    10   248   243    1
    11   248   249    1
    12   655   635    2
    13   260   261    1
    14   260   262    1
    15   250   249   ar
    16   250   252   ar
    17   244   242    1
    18   243   242    1
    19   261   266    1
    20   257   259    1
    21   257   278    1
    22   242   240    1
    23   249   256   ar
    24   252   253   ar
    25   265   264    1
    26   635   619    1
    27   635   656    1
    28   635   637    1
    29   633   613    2
    30   619   618    1
    31   266   264    1
    32   266   276    1
    33   263   262    1
    34   263   279    1
    35   262   264    1
    36   240   241    1
    37   636   637    1
    38   636   638    1
    39   256   255   ar
    40   614   616    1
    41   614   615    1
    42   297   279    2
    43   253   255   ar
    44   253   254    1
    45   616   618    1
    46   616   617    1
    47   276   275   ar
    48   276   270   ar
    49   641   640    1
    50   618   620    1
    51   279   298    1
    52   279   281    1
    53   621   620    1
    54   613   615    1
    55   613   599    1
    56   613   634    1
    57   275   274   ar
    58   638   640    1
    59   638   639    1
    60   599   598    1
    61   640   642    1
    62   270   269   ar
    63   270   271   ar
    64   620   622    1
    65   269   268   ar
    66   280   281    1
    67   280   282    1
    68   617   622    1
    69   601   600    1
    70   274   271   ar
    71   639   644    1
    72   271   272   ar
    73   622   632    1
    74   598   600    1
    75   598   596    1
    76   268   267   ar
    77   283   282    1
    78   283   288    1
    79   282   284    1
    80   642   643    1
    81   642   644    1
    82   600   602    1
    83   596   594    1
    84   596   597    1
    85   644   654    1
    86   594   595    1
    87   272   267   ar
    88   272   273    1
    89   653   654   ar
    90   653   652   ar
    91   296   295   ar
    92   296   289   ar
    93   632   631   ar
    94   632   626   ar
    95   611   593    2
    96   295   293   ar
    97   631   630   ar
    98   288   289    1
    99   288   286    1
   100   654   648   ar
   101   597   602    1
   102   602   603    1
   103   284   285    1
   104   284   286    1
   105     1     2    1
   106     1     3    1
   107   595   593    1
   108   289   290   ar
   109   221   220    1
   110   652   649   ar
   111   285   299    1
   112   626   625   ar
   113   626   627   ar
   114   593   579    1
   115   593   612    1
   116   293   294    1
   117   293   292   ar
   118   286   287    1
   119   605   604    2
   120    41    20    2
   121   625   624   ar
   122     3     4    1
   123     3     5    1
   124   630   627   ar
   125   290   292   ar
   126   290   291    2
   127   603   604   ar
   128   603   610   ar
   129   648   649   ar
   130   648   647   ar
   131   581   580    1
   132     6    20    1
   133     6     5    1
   134   318   299    2
   135   649   650   ar
   136   579   578    1
   137    42    20    1
   138   219   218    1
   139   219   236    1
   140   604   606   ar
   141   299   317    1
   142   299   301    1
   143   237   236    2
   144   627   628   ar
   145   220   222    1
   146   220   218    1
   147    20    22    1
   148   216   217    1
   149   216   218    1
   150   216   214    1
   151     4     9    1
   152     5     7    1
   153   239   236    1
   154   222   217    1
   155   222   233    1
   156   610   609   ar
   157   225   224    1
   158   647   646   ar
   159   624   623   ar
   160   236   238    1
   161   580   578    1
   162   580   582    1
   163   199   198    1
   164   226   224   ar
   165   226   227   ar
   166   214   215    1
   167   578   576    1
   168   606   607   ar
   169   202   203   ar
   170   202   201   ar
   171   650   651    1
   172   650   645   ar
   173   301   300    1
   174   224   223   ar
   175   203   204   ar
   176   628   623   ar
   177   628   629    1
   178     8     7    1
   179     7     9    1
   180    22    21    1
   181   300   302    1
   182   609   607   ar
   183   233   227   ar
   184   233   232   ar
   185     9    19    1
   186   646   645   ar
   187   227   228   ar
   188   585   584    2
   189   576   577    1
   190   576   574    1
   191   198   200    1
   192   198   196    1
   193    21    23    1
   194   607   608    2
   195   582   577    1
   196   582   583    1
   197    18    19   ar
   198    18    17   ar
   199   201   206   ar
   200   315   316   ar
   201   315   313   ar
   202   200   195    1
   203   200   210    1
   204   215   213    1
   205   316   309   ar
   206    19    13   ar
   207   223   229   ar
   208   204   210   ar
   209   204   205   ar
   210   584   583   ar
   211   584   586   ar
   212   197   196    1
   213   197   213    1
   214   574   575    1
   215   232   231   ar
   216   303   302    1
   217   303   308    1
   218   314   313    1
   219   302   304    1
   220   583   590   ar
   221    64    43    2
   222   195   194    1
   223    17    14   ar
   224   210   209   ar
   225   234   213    2
   226   196   194    1
   227   228   229   ar
   228   228   231   ar
   229   183   182    2
   230   313   312   ar
   231   194   192    1
   232   213   235    1
   233   206   205   ar
   234   206   207    1
   235    63    43    1
   236    23    24    1
   237    23    25    1
   238   229   230    2
   239   575   573    1
   240   586   587   ar
   241   205   208   ar
   242   309   308    1
   243   309   310   ar
   244   591   573    2
   245    43    26    1
   246    43    45    1
   247    13    14   ar
   248    13    12   ar
   249   590   589   ar
   250    39    38   ar
   251    39    40   ar
   252   304   305    1
   253   304   306    1
   254    24    29    1
   255    26    25    1
   256   308   306    1
   257    38    35   ar
   258    25    27    1
   259   184   182   ar
   260   184   185   ar
   261   182   181   ar
   262    14    15   ar
   263   338   319    2
   264   192   193    1
   265   312   310   ar
   266   209   208   ar
   267   587   589   ar
   268   587   588    1
   269   573   592    1
   270   573   557    1
   271   305   319    1
   272    12    11   ar
   273   179   178    1
   274   310   311    2
   275   166   165    1
   276   562   561   ar
   277   562   563   ar
   278   306   307    1
   279   186   185    2
   280   561   566   ar
   281    40    29    1
   282    40    34   ar
   283   334   333    1
   284   185   187   ar
   285   105   104    2
   286   319   337    1
   287   319   321    1
   288   178   180    1
   289   178   176    1
   290   559   558    1
   291    29    27    1
   292    45    44    1
   293   563   564   ar
   294   181   180    1
   295   181   188   ar
   296    35    34   ar
   297    35    36   ar
   298   180   175    1
   299    27    28    1
   300   193   191    1
   301    15    16    1
   302    15    10   ar
   303    60    61   ar
   304    60    57   ar
   305   335   333   ar
   306   335   336   ar
   307    59    58    1
   308   557   556    1
   309    37    36    2
   310   164   165   ar
   311   164   162   ar
   312   558   556    1
   313   558   560    1
   314   165   167   ar
   315    11    10   ar
   316    82    81    2
   317   333   332   ar
   318   566   567    1
   319   566   565   ar
   320    34    33   ar
   321    61    62   ar
   322    36    30   ar
   323   564   565   ar
   324   564   570   ar
   325    87    65    2
   326   104    98   ar
   327   104   103   ar
   328    44    46    1
   329   187   188   ar
   330   321   320    1
   331   556   554    1
   332   336   329   ar
   333   176   177    1
   334   176   174    1
   335    57    58   ar
   336    57    56   ar
   337   354   353    2
   338   177   191    1
   339   565   568   ar
   340    58    53   ar
   341   175   174    1
   342    98    99   ar
   343   191   211    2
   344   191   212    1
   345    83    80   ar
   346    83    84   ar
   347   163   162    2
   348   162   161   ar
   349   560   570    1
   350   560   555    1
   351   167   168   ar
   352    81    80   ar
   353    81    75   ar
   354   570   569   ar
   355   332   330   ar
   356    33    31   ar
   357   174   172    1
   358   103   106   ar
   359   103   102   ar
   360   106   107   ar
   361    62    56   ar
   362    62    52    1
   363    30    31   ar
   364   320   322    1
   365    80    79   ar
   366    46    47    1
   367    46    48    1
   368    47    52    1
   369   568   569   ar
   370    65    86    1
   371    65    49    1
   372    65    67    1
   373    56    55   ar
   374   329   330   ar
   375   329   328    1
   376   554   555    1
   377   554   552    1
   378    84    85   ar
   379    48    49    1
   380    48    50    1
   381   353   355   ar
   382   353   352   ar
   383   539   540   ar
   384   539   544   ar
   385    53    54   ar
   386   146   145    2
   387    99   100    1
   388    99   101   ar
   389    31    32    1
   390   374   373    1
   391   323   322    1
   392   323   328    1
   393   161   168   ar
   394   161   160    1
   395   540   541   ar
   396   330   331    2
   397    75    76   ar
   398    52    50    1
   399   355   356   ar
   400   545   544    1
   401    67    66    1
   402   415   414    1
   403   110    88    2
   404   322   324    1
   405   107   108   ar
   406   102   101   ar
   407   102   108   ar
   408   352   350   ar
   409   544   543   ar
   410   126   125    2
   411   328   326    1
   412    50    51    1
   413   172   173    1
   414    79    85   ar
   415    79    78   ar
   416   409   414   ar
   417   409   410   ar
   418   552   553    1
   419   145   144   ar
   420   145   147   ar
   421   394   393    2
   422    54    55   ar
   423   173   171    1
   424    85    74    1
   425   358   339    2
   426   541   542   ar
   427   324   326    1
   428   324   325    1
   429   392   393   ar
   430   392   390   ar
   431   160   158    1
   432   160   155    1
   433   373   372   ar
   434   373   375   ar
   435   414   413   ar
   436   144   142   ar
   437   108    97    1
   438    76    78   ar
   439    76    77    1
   440   158   159    1
   441   158   156    1
   442   391   390    2
   443   356   349   ar
   444   372   370   ar
   445   147   148   ar
   446   410   411   ar
   447   169   151    2
   448   393   395   ar
   449   543   542   ar
   450   543   546   ar
   451   326   327    1
   452   542   548   ar
   453   125   127   ar
   454   125   124   ar
   455    66    68    1
   456   350   349   ar
   457   350   351    2
   458   325   339    1
   459   390   389   ar
   460    88    90    1
   461    88    71    1
   462    88   109    1
   463    70    68    1
   464    70    71    1
   465    70    72    1
   466   553   551    1
   467   130   111    2
   468    69    74    1
   469    69    68    1
   470   190   171    2
   471   375   376   ar
   472    74    72    1
   473   127   128   ar
   474   156   157    1
   475   156   154    1
   476   339   341    1
   477   339   357    1
   478   155   154    1
   479   171   157    1
   480   171   189    1
   481   142   143    2
   482   142   141   ar
   483   349   348    1
   484   537   536    1
   485    90    89    1
   486    72    73    1
   487   413   412   ar
   488   413   416   ar
   489   148   141   ar
   490   546   547   ar
   491   124   122   ar
   492    97    95    1
   493    97    92    1
   494   517   518   ar
   495   517   522   ar
   496   153   151    1
   497   153   152    1
   498   370   371    2
   499   370   369   ar
   500   548   538    1
   501   548   547   ar
   502   411   412   ar
   503   151   170    1
   504   151   137    1
   505   341   340    1
   506   141   140    1
   507    95    93    1
   508    95    96    1
   509   518   519   ar
   510   395   396   ar
   511   154   152    1
   512    93    91    1
   513    93    94    1
   514   538   536    1
   515   538   533    1
   516   412   418   ar
   517   416   417   ar
   518    92    91    1
   519   389   396   ar
   520   389   388    1
   521   523   522    1
   522   376   369   ar
   523   457   456    1
   524   128   121   ar
   525   551   572    2
   526   551   571    1
   527   551   535    1
   528   111   129    1
   529   111    94    1
   530   111   113    1
   531   436   435    2
   532   536   534    1
   533   150   131    2
   534   138   136    1
   535   138   140    1
   536   138   139    1
   537   522   521   ar
   538   369   368    1
   539   348   343    1
   540   348   346    1
   541    89    91    1
   542   343   342    1
   543   501   500    1
   544   479   478    1
   545   122   121   ar
   546   122   123    2
   547   136   137    1
   548   136   134    1
   549   140   135    1
   550   388   386    1
   551   388   383    1
   552   387   386    1
   553   340   342    1
   554   519   520   ar
   555   533   532    1
   556   113   112    1
   557   121   120    1
   558   458   455   ar
   559   458   459   ar
   560   417   418   ar
   561   535   534    1
   562   418   408    1
   563   534   532    1
   564   456   455   ar
   565   456   451   ar
   566   133   131    1
   567   133   132    1
   568   435   434   ar
   569   435   437   ar
   570   342   344    1
   571   346   344    1
   572   346   347    1
   573   378   359    2
   574   344   345    1
   575   495   500   ar
   576   495   496   ar
   577   131   149    1
   578   131   117    1
   579   386   384    1
   580   434   432   ar
   581   521   520   ar
   582   521   524   ar
   583   500   499   ar
   584   455   454   ar
   585   383   382    1
   586   368   366    1
   587   368   363    1
   588   135   134    1
   589   520   526   ar
   590   532   530    1
   591   478   473   ar
   592   478   477   ar
   593   459   460   ar
   594   134   132    1
   595   116   118    1
   596   116   117    1
   597   116   114    1
   598   480   477   ar
   599   480   481   ar
   600   451   452   ar
   601   408   406    1
   602   408   403    1
   603   120   118    1
   604   120   115    1
   605   118   119    1
   606   112   114    1
   607   366   364    1
   608   366   367    1
   609   363   362    1
   610   437   438   ar
   611   407   406    1
   612   473   474   ar
   613   345   359    1
   614   477   476   ar
   615   115   114    1
   616   496   497   ar
   617   359   377    1
   618   359   361    1
   619   432   433    2
   620   432   431   ar
   621   524   525   ar
   622   384   385    1
   623   384   382    1
   624   499   502   ar
   625   499   498   ar
   626   406   404    1
   627   385   399    1
   628   454   460   ar
   629   454   453   ar
   630   382   380    1
   631   531   530    1
   632   531   529    1
   633   460   450    1
   634   364   362    1
   635   364   365    1
   636   526   525   ar
   637   526   516    1
   638   403   402    1
   639   481   482   ar
   640   502   503   ar
   641   452   453   ar
   642   362   360    1
   643   360   361    1
   644   381   380    1
   645   381   379    1
   646   514   515    1
   647   514   516    1
   648   514   512    1
   649   438   431   ar
   650   398   379    2
   651   516   511    1
   652   474   475   ar
   653   431   430    1
   654   476   482   ar
   655   476   475   ar
   656   497   498   ar
   657   550   529    2
   658   401   399    1
   659   401   400    1
   660   498   504   ar
   661   448   449    1
   662   448   450    1
   663   448   446    1
   664   440   421    2
   665   399   420    2
   666   399   419    1
   667   365   379    1
   668   450   445    1
   669   482   472    1
   670   529   513    1
   671   529   549    1
   672   379   397    1
   673   404   402    1
   674   404   405    1
   675   402   400    1
   676   503   504   ar
   677   512   513    1
   678   512   510    1
   679   442   443    1
   680   442   444    1
   681   443   441    1
   682   484   463    2
   683   445   444    1
   684   504   494    1
   685   446   444    1
   686   446   447    1
   687   430   428    1
   688   430   425    1
   689   511   510    1
   690   405   421    1
   691   428   426    1
   692   428   429    1
   693   421   423    1
   694   421   439    1
   695   425   424    1
   696   426   424    1
   697   426   427    1
   698   471   470    1
   699   472   470    1
   700   472   467    1
   701   470   468    1
   702   422   424    1
   703   422   423    1
   704   510   508    1
   705   462   441    2
   706   463   447    1
   707   463   465    1
   708   463   483    1
   709   441   427    1
   710   441   461    1
   711   509   508    1
   712   509   507    1
   713   465   464    1
   714   494   492    1
   715   494   489    1
   716   528   507    2
   717   467   466    1
   718   492   490    1
   719   492   493    1
   720   506   485    2
   721   468   466    1
   722   468   469    1
   723   490   491    1
   724   490   488    1
   725   507   491    1
   726   507   527    1
   727   489   488    1
   728   464   466    1
   729   487   485    1
   730   487   486    1
   731   485   469    1
   732   485   505    1
   733   488   486    1
