ligand
  PyMOL2.2          3D                             0

 10 11  0  0  0  0  0  0  0  0999 V2000
   12.1930   11.0040    8.8600 N   0  0  0  0  0  0  0  0  0  0  0  0
   11.7720   12.2920    9.0750 C   0  0  0  0  0  0  0  0  0  0  0  0
   11.2800   13.0450    8.0780 N   0  0  0  0  0  0  0  0  0  0  0  0
   11.2480   12.4120    6.8870 C   0  0  0  0  0  0  0  0  0  0  0  0
   11.6550   11.1260    6.6080 C   0  0  0  0  0  0  0  0  0  0  0  0
   12.1720   10.3190    7.6410 C   0  0  0  0  0  0  0  0  0  0  0  0
   12.5820    9.1670    7.6020 O   0  0  0  0  0  0  0  0  0  0  0  0
   11.4510   10.8790    5.2820 N   0  0  0  0  0  0  0  0  0  0  0  0
   10.9260   12.0070    4.7590 C   0  0  0  0  0  0  0  0  0  0  0  0
   10.7910   12.9710    5.7250 N   0  0  0  0  0  0  0  0  0  0  0  0
  1  2  4  0  0  0  0
  1  6  4  0  0  0  0
  2  3  4  0  0  0  0
  3  4  4  0  0  0  0
  4  5  4  0  0  0  0
  4 10  4  0  0  0  0
  5  6  4  0  0  0  0
  5  8  4  0  0  0  0
  6  7  2  0  0  0  0
  8  9  4  0  0  0  0
  9 10  4  0  0  0  0
M  END
$$$$
