ligand
 OpenBabel11021811493D
libRbt.so/2013.1/901 2013/11/27
 10 11  0  0  0  0  0  0  0  0999 V2000
   11.9500   11.1331    8.6247 N   0  0  0  0  0  0  0  0  0  0  0  0
   11.6742   12.4699    8.7633 C   0  0  0  0  0  0  0  0  0  0  0  0
   11.3189   13.2258    7.7119 N   0  0  0  0  0  0  0  0  0  0  0  0
   11.2656   12.5440    6.5488 C   0  0  0  0  0  0  0  0  0  0  0  0
   11.5306   11.2077    6.3456 C   0  0  0  0  0  0  0  0  0  0  0  0
   11.9027   10.3971    7.4365 C   0  0  0  0  0  0  0  0  0  0  0  0
   12.1758    9.2050    7.4672 O   0  0  0  0  0  0  0  0  0  0  0  0
   11.3580   10.9223    5.0228 N   0  0  0  0  0  0  0  0  0  0  0  0
   10.9930   12.0768    4.4267 C   0  0  0  0  0  0  0  0  0  0  0  0
   10.9295   13.0954    5.3428 N   0  0  0  0  0  0  0  0  0  0  0  0
  1  2  1  0  0  0  0
  1  6  1  0  0  0  0
  2  3  2  0  0  0  0
  3  4  1  0  0  0  0
  4  5  2  0  0  0  0
  4 10  1  0  0  0  0
  5  6  1  0  0  0  0
  5  8  1  0  0  0  0
  6  7  2  0  0  0  0
  8  9  1  0  0  0  0
  9 10  2  0  0  0  0
M  END
>  <CHROM.1>
11.52264494,11.58273386,6.78445639,0.36317604,-1.29270608,0.90099202

>  <Name>
ligand

>  <RI>
0

>  <Rbt.Current_Directory>
/home/itssahil/PROJECTS/Mol_Feturizer/New_Systems/rnas/4FEJ

>  <Rbt.Executable>
rbdock ($Id: //depot/dev/client3/rdock/2013.1/src/exe/rbdock.cxx#4 $)

>  <Rbt.Library>
libRbt.so (2013.1, Build901 2013/11/27)

>  <Rbt.Parameter_File>
/export/apps/rDock/src/rDock_2013.1_src/data/scripts/dock_solv.prm

>  <Rbt.Receptor>
prm/pocket_docking_4.prm

>  <SCORE>
-17.3933

>  <SCORE.INTER>
-17.3933

>  <SCORE.INTER.CONST>
1

>  <SCORE.INTER.POLAR>
0

>  <SCORE.INTER.ROT>
0

>  <SCORE.INTER.SOLV>
3.67825

>  <SCORE.INTER.VDW>
-16.4216

>  <SCORE.INTER.norm>
-1.73933

>  <SCORE.INTRA>
0

>  <SCORE.INTRA.DIHEDRAL>
0

>  <SCORE.INTRA.DIHEDRAL.0>
0

>  <SCORE.INTRA.POLAR>
0

>  <SCORE.INTRA.POLAR.0>
0

>  <SCORE.INTRA.REPUL>
0

>  <SCORE.INTRA.REPUL.0>
0

>  <SCORE.INTRA.SOLV>
0

>  <SCORE.INTRA.SOLV.lig_0>
-4.26631

>  <SCORE.INTRA.VDW>
0

>  <SCORE.INTRA.VDW.0>
0

>  <SCORE.INTRA.norm>
0

>  <SCORE.RESTR>
0

>  <SCORE.RESTR.CAVITY>
0

>  <SCORE.RESTR.norm>
0

>  <SCORE.SYSTEM>
0

>  <SCORE.SYSTEM.CONST>
0

>  <SCORE.SYSTEM.DIHEDRAL>
0

>  <SCORE.SYSTEM.SOLV>
0

>  <SCORE.SYSTEM.norm>
0

>  <SCORE.heavy>
10

>  <SCORE.norm>
-1.73933

>  <RMSD>
0.367

$$$$
ligand
 OpenBabel11021811493D
libRbt.so/2013.1/901 2013/11/27
 10 11  0  0  0  0  0  0  0  0999 V2000
   11.9388   11.1471    8.6272 N   0  0  0  0  0  0  0  0  0  0  0  0
   11.6543   12.4826    8.7608 C   0  0  0  0  0  0  0  0  0  0  0  0
   11.2976   13.2330    7.7059 N   0  0  0  0  0  0  0  0  0  0  0  0
   11.2521   12.5473    6.5449 C   0  0  0  0  0  0  0  0  0  0  0  0
   11.5260   11.2120    6.3466 C   0  0  0  0  0  0  0  0  0  0  0  0
   11.8998   10.4072    7.4412 C   0  0  0  0  0  0  0  0  0  0  0  0
   12.1801    9.2169    7.4764 O   0  0  0  0  0  0  0  0  0  0  0  0
   11.3593   10.9214    5.0242 N   0  0  0  0  0  0  0  0  0  0  0  0
   10.9889   12.0718    4.4234 C   0  0  0  0  0  0  0  0  0  0  0  0
   10.9163   13.0928    5.3361 N   0  0  0  0  0  0  0  0  0  0  0  0
  1  2  1  0  0  0  0
  1  6  1  0  0  0  0
  2  3  2  0  0  0  0
  3  4  1  0  0  0  0
  4  5  2  0  0  0  0
  4 10  1  0  0  0  0
  5  6  1  0  0  0  0
  5  8  1  0  0  0  0
  6  7  2  0  0  0  0
  8  9  1  0  0  0  0
  9 10  2  0  0  0  0
M  END
>  <CHROM.1>
11.51436904,11.58838077,6.78428370,0.38580342,-1.28968173,0.91962940

>  <Name>
ligand

>  <RI>
0

>  <Rbt.Current_Directory>
/home/itssahil/PROJECTS/Mol_Feturizer/New_Systems/rnas/4FEJ

>  <Rbt.Executable>
rbdock ($Id: //depot/dev/client3/rdock/2013.1/src/exe/rbdock.cxx#4 $)

>  <Rbt.Library>
libRbt.so (2013.1, Build901 2013/11/27)

>  <Rbt.Parameter_File>
/export/apps/rDock/src/rDock_2013.1_src/data/scripts/dock_solv.prm

>  <Rbt.Receptor>
prm/pocket_docking_7.prm

>  <SCORE>
-17.3823

>  <SCORE.INTER>
-17.3823

>  <SCORE.INTER.CONST>
1

>  <SCORE.INTER.POLAR>
0

>  <SCORE.INTER.ROT>
0

>  <SCORE.INTER.SOLV>
3.67447

>  <SCORE.INTER.VDW>
-16.413

>  <SCORE.INTER.norm>
-1.73823

>  <SCORE.INTRA>
0

>  <SCORE.INTRA.DIHEDRAL>
0

>  <SCORE.INTRA.DIHEDRAL.0>
0

>  <SCORE.INTRA.POLAR>
0

>  <SCORE.INTRA.POLAR.0>
0

>  <SCORE.INTRA.REPUL>
0

>  <SCORE.INTRA.REPUL.0>
0

>  <SCORE.INTRA.SOLV>
0

>  <SCORE.INTRA.SOLV.lig_0>
-4.26631

>  <SCORE.INTRA.VDW>
0

>  <SCORE.INTRA.VDW.0>
0

>  <SCORE.INTRA.norm>
0

>  <SCORE.RESTR>
0

>  <SCORE.RESTR.CAVITY>
0

>  <SCORE.RESTR.norm>
0

>  <SCORE.SYSTEM>
0

>  <SCORE.SYSTEM.CONST>
0

>  <SCORE.SYSTEM.DIHEDRAL>
0

>  <SCORE.SYSTEM.SOLV>
0

>  <SCORE.SYSTEM.norm>
0

>  <SCORE.heavy>
10

>  <SCORE.norm>
-1.73823

>  <RMSD>
0.370

$$$$
ligand
 OpenBabel11021811493D
libRbt.so/2013.1/901 2013/11/27
 10 11  0  0  0  0  0  0  0  0999 V2000
   11.9811   11.1625    8.6162 N   0  0  0  0  0  0  0  0  0  0  0  0
   11.7260   12.5040    8.7496 C   0  0  0  0  0  0  0  0  0  0  0  0
   11.3577   13.2559    7.6999 N   0  0  0  0  0  0  0  0  0  0  0  0
   11.2700   12.5656    6.5440 C   0  0  0  0  0  0  0  0  0  0  0  0
   11.5129   11.2243    6.3462 C   0  0  0  0  0  0  0  0  0  0  0  0
   11.8982   10.4177    7.4355 C   0  0  0  0  0  0  0  0  0  0  0  0
   12.1562    9.2223    7.4701 O   0  0  0  0  0  0  0  0  0  0  0  0
   11.3077   10.9305    5.0300 N   0  0  0  0  0  0  0  0  0  0  0  0
   10.9449   12.0850    4.4323 C   0  0  0  0  0  0  0  0  0  0  0  0
   10.9148   13.1117    5.3410 N   0  0  0  0  0  0  0  0  0  0  0  0
  1  2  1  0  0  0  0
  1  6  1  0  0  0  0
  2  3  2  0  0  0  0
  3  4  1  0  0  0  0
  4  5  2  0  0  0  0
  4 10  1  0  0  0  0
  5  6  1  0  0  0  0
  5  8  1  0  0  0  0
  6  7  2  0  0  0  0
  8  9  1  0  0  0  0
  9 10  2  0  0  0  0
M  END
>  <CHROM.1>
11.51948189,11.60293110,6.78199691,0.27228470,-1.28829006,0.80543826

>  <Name>
ligand

>  <RI>
0

>  <Rbt.Current_Directory>
/home/itssahil/PROJECTS/Mol_Feturizer/New_Systems/rnas/4FEJ

>  <Rbt.Executable>
rbdock ($Id: //depot/dev/client3/rdock/2013.1/src/exe/rbdock.cxx#4 $)

>  <Rbt.Library>
libRbt.so (2013.1, Build901 2013/11/27)

>  <Rbt.Parameter_File>
/export/apps/rDock/src/rDock_2013.1_src/data/scripts/dock_solv.prm

>  <Rbt.Receptor>
prm/pocket_docking_7.prm

>  <SCORE>
-17.3802

>  <SCORE.INTER>
-17.3802

>  <SCORE.INTER.CONST>
1

>  <SCORE.INTER.POLAR>
0

>  <SCORE.INTER.ROT>
0

>  <SCORE.INTER.SOLV>
3.68918

>  <SCORE.INTER.VDW>
-16.4165

>  <SCORE.INTER.norm>
-1.73802

>  <SCORE.INTRA>
0

>  <SCORE.INTRA.DIHEDRAL>
0

>  <SCORE.INTRA.DIHEDRAL.0>
0

>  <SCORE.INTRA.POLAR>
0

>  <SCORE.INTRA.POLAR.0>
0

>  <SCORE.INTRA.REPUL>
0

>  <SCORE.INTRA.REPUL.0>
0

>  <SCORE.INTRA.SOLV>
0

>  <SCORE.INTRA.SOLV.lig_0>
-4.26631

>  <SCORE.INTRA.VDW>
0

>  <SCORE.INTRA.VDW.0>
0

>  <SCORE.INTRA.norm>
0

>  <SCORE.RESTR>
0

>  <SCORE.RESTR.CAVITY>
0

>  <SCORE.RESTR.norm>
0

>  <SCORE.SYSTEM>
0

>  <SCORE.SYSTEM.CONST>
0

>  <SCORE.SYSTEM.DIHEDRAL>
0

>  <SCORE.SYSTEM.SOLV>
0

>  <SCORE.SYSTEM.norm>
0

>  <SCORE.heavy>
10

>  <SCORE.norm>
-1.73802

>  <RMSD>
0.378

$$$$
ligand
 OpenBabel11021811493D
libRbt.so/2013.1/901 2013/11/27
 10 11  0  0  0  0  0  0  0  0999 V2000
   11.9267   11.2137    8.6075 N   0  0  0  0  0  0  0  0  0  0  0  0
   11.7015   12.5639    8.6996 C   0  0  0  0  0  0  0  0  0  0  0  0
   11.3673   13.2945    7.6236 N   0  0  0  0  0  0  0  0  0  0  0  0
   11.2811   12.5742    6.4861 C   0  0  0  0  0  0  0  0  0  0  0  0
   11.4951   11.2225    6.3294 C   0  0  0  0  0  0  0  0  0  0  0  0
   11.8444   10.4381    7.4467 C   0  0  0  0  0  0  0  0  0  0  0  0
   12.0734    9.2385    7.5186 O   0  0  0  0  0  0  0  0  0  0  0  0
   11.3033   10.8968    5.0187 N   0  0  0  0  0  0  0  0  0  0  0  0
   10.9772   12.0421    4.3835 C   0  0  0  0  0  0  0  0  0  0  0  0
   10.9575   13.0943    5.2628 N   0  0  0  0  0  0  0  0  0  0  0  0
  1  2  1  0  0  0  0
  1  6  1  0  0  0  0
  2  3  2  0  0  0  0
  3  4  1  0  0  0  0
  4  5  2  0  0  0  0
  4 10  1  0  0  0  0
  5  6  1  0  0  0  0
  5  8  1  0  0  0  0
  6  7  2  0  0  0  0
  8  9  1  0  0  0  0
  9 10  2  0  0  0  0
M  END
>  <CHROM.1>
11.50398393,11.61301139,6.75461499,0.25115156,-1.31600153,0.75714624

>  <Name>
ligand

>  <RI>
0

>  <Rbt.Current_Directory>
/home/itssahil/PROJECTS/Mol_Feturizer/New_Systems/rnas/4FEJ

>  <Rbt.Executable>
rbdock ($Id: //depot/dev/client3/rdock/2013.1/src/exe/rbdock.cxx#4 $)

>  <Rbt.Library>
libRbt.so (2013.1, Build901 2013/11/27)

>  <Rbt.Parameter_File>
/export/apps/rDock/src/rDock_2013.1_src/data/scripts/dock_solv.prm

>  <Rbt.Receptor>
prm/blind_docking_40.prm

>  <SCORE>
-17.3767

>  <SCORE.INTER>
-17.3767

>  <SCORE.INTER.CONST>
1

>  <SCORE.INTER.POLAR>
0

>  <SCORE.INTER.ROT>
0

>  <SCORE.INTER.SOLV>
3.8076

>  <SCORE.INTER.VDW>
-16.4537

>  <SCORE.INTER.norm>
-1.73767

>  <SCORE.INTRA>
0

>  <SCORE.INTRA.DIHEDRAL>
0

>  <SCORE.INTRA.DIHEDRAL.0>
0

>  <SCORE.INTRA.POLAR>
0

>  <SCORE.INTRA.POLAR.0>
0

>  <SCORE.INTRA.REPUL>
0

>  <SCORE.INTRA.REPUL.0>
0

>  <SCORE.INTRA.SOLV>
0

>  <SCORE.INTRA.SOLV.lig_0>
-4.26631

>  <SCORE.INTRA.VDW>
0

>  <SCORE.INTRA.VDW.0>
0

>  <SCORE.INTRA.norm>
0

>  <SCORE.RESTR>
0

>  <SCORE.RESTR.CAVITY>
0

>  <SCORE.RESTR.norm>
0

>  <SCORE.SYSTEM>
0

>  <SCORE.SYSTEM.CONST>
0

>  <SCORE.SYSTEM.DIHEDRAL>
0

>  <SCORE.SYSTEM.SOLV>
0

>  <SCORE.SYSTEM.norm>
0

>  <SCORE.heavy>
10

>  <SCORE.norm>
-1.73767

>  <RMSD>
0.436

$$$$
ligand
 OpenBabel11021811493D
libRbt.so/2013.1/901 2013/11/27
 10 11  0  0  0  0  0  0  0  0999 V2000
   11.9516   11.1119    8.5443 N   0  0  0  0  0  0  0  0  0  0  0  0
   11.7112   12.4556    8.6819 C   0  0  0  0  0  0  0  0  0  0  0  0
   11.3648   13.2176    7.6318 N   0  0  0  0  0  0  0  0  0  0  0  0
   11.2829   12.5345    6.4713 C   0  0  0  0  0  0  0  0  0  0  0  0
   11.5119   11.1914    6.2691 C   0  0  0  0  0  0  0  0  0  0  0  0
   11.8741   10.3744    7.3586 C   0  0  0  0  0  0  0  0  0  0  0  0
   12.1171    9.1758    7.3899 O   0  0  0  0  0  0  0  0  0  0  0  0
   11.3192   10.9071    4.9489 N   0  0  0  0  0  0  0  0  0  0  0  0
   10.9778   12.0691    4.3532 C   0  0  0  0  0  0  0  0  0  0  0  0
   10.9491   13.0912    5.2670 N   0  0  0  0  0  0  0  0  0  0  0  0
  1  2  1  0  0  0  0
  1  6  1  0  0  0  0
  2  3  2  0  0  0  0
  3  4  1  0  0  0  0
  4  5  2  0  0  0  0
  4 10  1  0  0  0  0
  5  6  1  0  0  0  0
  5  8  1  0  0  0  0
  6  7  2  0  0  0  0
  8  9  1  0  0  0  0
  9 10  2  0  0  0  0
M  END
>  <CHROM.1>
11.51778833,11.56761728,6.70703480,0.27380824,-1.30548880,0.81226994

>  <Name>
ligand

>  <RI>
0

>  <Rbt.Current_Directory>
/home/itssahil/PROJECTS/Mol_Feturizer/New_Systems/rnas/4FEJ

>  <Rbt.Executable>
rbdock ($Id: //depot/dev/client3/rdock/2013.1/src/exe/rbdock.cxx#4 $)

>  <Rbt.Library>
libRbt.so (2013.1, Build901 2013/11/27)

>  <Rbt.Parameter_File>
/export/apps/rDock/src/rDock_2013.1_src/data/scripts/dock_solv.prm

>  <Rbt.Receptor>
prm/pocket_docking_3.prm

>  <SCORE>
-17.3879

>  <SCORE.INTER>
-17.3879

>  <SCORE.INTER.CONST>
1

>  <SCORE.INTER.POLAR>
0

>  <SCORE.INTER.ROT>
0

>  <SCORE.INTER.SOLV>
3.71709

>  <SCORE.INTER.VDW>
-16.4309

>  <SCORE.INTER.norm>
-1.73879

>  <SCORE.INTRA>
0

>  <SCORE.INTRA.DIHEDRAL>
0

>  <SCORE.INTRA.DIHEDRAL.0>
0

>  <SCORE.INTRA.POLAR>
0

>  <SCORE.INTRA.POLAR.0>
0

>  <SCORE.INTRA.REPUL>
0

>  <SCORE.INTRA.REPUL.0>
0

>  <SCORE.INTRA.SOLV>
0

>  <SCORE.INTRA.SOLV.lig_0>
-4.26631

>  <SCORE.INTRA.VDW>
0

>  <SCORE.INTRA.VDW.0>
0

>  <SCORE.INTRA.norm>
0

>  <SCORE.RESTR>
0

>  <SCORE.RESTR.CAVITY>
0

>  <SCORE.RESTR.norm>
0

>  <SCORE.SYSTEM>
0

>  <SCORE.SYSTEM.CONST>
0

>  <SCORE.SYSTEM.DIHEDRAL>
0

>  <SCORE.SYSTEM.SOLV>
0

>  <SCORE.SYSTEM.norm>
0

>  <SCORE.heavy>
10

>  <SCORE.norm>
-1.73879

>  <RMSD>
0.436

$$$$
ligand
 OpenBabel11021811493D
libRbt.so/2013.1/901 2013/11/27
 10 11  0  0  0  0  0  0  0  0999 V2000
   11.9466   11.1805    8.5693 N   0  0  0  0  0  0  0  0  0  0  0  0
   11.7020   12.5258    8.6822 C   0  0  0  0  0  0  0  0  0  0  0  0
   11.3586   13.2683    7.6175 N   0  0  0  0  0  0  0  0  0  0  0  0
   11.2839   12.5649    6.4687 C   0  0  0  0  0  0  0  0  0  0  0  0
   11.5173   11.2190    6.2911 C   0  0  0  0  0  0  0  0  0  0  0  0
   11.8765   10.4222    7.3964 C   0  0  0  0  0  0  0  0  0  0  0  0
   12.1226    9.2250    7.4497 O   0  0  0  0  0  0  0  0  0  0  0  0
   11.3316   10.9112    4.9752 N   0  0  0  0  0  0  0  0  0  0  0  0
   10.9899   12.0616    4.3576 C   0  0  0  0  0  0  0  0  0  0  0  0
   10.9542   13.0995    5.2533 N   0  0  0  0  0  0  0  0  0  0  0  0
  1  2  1  0  0  0  0
  1  6  1  0  0  0  0
  2  3  2  0  0  0  0
  3  4  1  0  0  0  0
  4  5  2  0  0  0  0
  4 10  1  0  0  0  0
  5  6  1  0  0  0  0
  5  8  1  0  0  0  0
  6  7  2  0  0  0  0
  8  9  1  0  0  0  0
  9 10  2  0  0  0  0
M  END
>  <CHROM.1>
11.52017949,11.60286169,6.72237745,0.29370063,-1.30675086,0.81397421

>  <Name>
ligand

>  <RI>
0

>  <Rbt.Current_Directory>
/home/itssahil/PROJECTS/Mol_Feturizer/New_Systems/rnas/4FEJ

>  <Rbt.Executable>
rbdock ($Id: //depot/dev/client3/rdock/2013.1/src/exe/rbdock.cxx#4 $)

>  <Rbt.Library>
libRbt.so (2013.1, Build901 2013/11/27)

>  <Rbt.Parameter_File>
/export/apps/rDock/src/rDock_2013.1_src/data/scripts/dock_solv.prm

>  <Rbt.Receptor>
prm/blind_docking_40.prm

>  <SCORE>
-17.4054

>  <SCORE.INTER>
-17.4054

>  <SCORE.INTER.CONST>
1

>  <SCORE.INTER.POLAR>
0

>  <SCORE.INTER.ROT>
0

>  <SCORE.INTER.SOLV>
3.74306

>  <SCORE.INTER.VDW>
-16.4513

>  <SCORE.INTER.norm>
-1.74054

>  <SCORE.INTRA>
0

>  <SCORE.INTRA.DIHEDRAL>
0

>  <SCORE.INTRA.DIHEDRAL.0>
0

>  <SCORE.INTRA.POLAR>
0

>  <SCORE.INTRA.POLAR.0>
0

>  <SCORE.INTRA.REPUL>
0

>  <SCORE.INTRA.REPUL.0>
0

>  <SCORE.INTRA.SOLV>
0

>  <SCORE.INTRA.SOLV.lig_0>
-4.26631

>  <SCORE.INTRA.VDW>
0

>  <SCORE.INTRA.VDW.0>
0

>  <SCORE.INTRA.norm>
0

>  <SCORE.RESTR>
0

>  <SCORE.RESTR.CAVITY>
0

>  <SCORE.RESTR.norm>
0

>  <SCORE.SYSTEM>
0

>  <SCORE.SYSTEM.CONST>
0

>  <SCORE.SYSTEM.DIHEDRAL>
0

>  <SCORE.SYSTEM.SOLV>
0

>  <SCORE.SYSTEM.norm>
0

>  <SCORE.heavy>
10

>  <SCORE.norm>
-1.74054

>  <RMSD>
0.439

$$$$
ligand
 OpenBabel11021811493D
libRbt.so/2013.1/901 2013/11/27
 10 11  0  0  0  0  0  0  0  0999 V2000
   11.9561   11.2191    8.5838 N   0  0  0  0  0  0  0  0  0  0  0  0
   11.7065   12.5647    8.6818 C   0  0  0  0  0  0  0  0  0  0  0  0
   11.3658   13.2951    7.6078 N   0  0  0  0  0  0  0  0  0  0  0  0
   11.2989   12.5797    6.4660 C   0  0  0  0  0  0  0  0  0  0  0  0
   11.5376   11.2329    6.3033 C   0  0  0  0  0  0  0  0  0  0  0  0
   11.8942   10.4486    7.4184 C   0  0  0  0  0  0  0  0  0  0  0  0
   12.1438    9.2528    7.4851 O   0  0  0  0  0  0  0  0  0  0  0  0
   11.3592   10.9110    4.9897 N   0  0  0  0  0  0  0  0  0  0  0  0
   11.0166   12.0539    4.3588 C   0  0  0  0  0  0  0  0  0  0  0  0
   10.9733   13.1008    5.2436 N   0  0  0  0  0  0  0  0  0  0  0  0
  1  2  1  0  0  0  0
  1  6  1  0  0  0  0
  2  3  2  0  0  0  0
  3  4  1  0  0  0  0
  4  5  2  0  0  0  0
  4 10  1  0  0  0  0
  5  6  1  0  0  0  0
  5  8  1  0  0  0  0
  6  7  2  0  0  0  0
  8  9  1  0  0  0  0
  9 10  2  0  0  0  0
M  END
>  <CHROM.1>
11.53713706,11.62113114,6.73062365,0.31575787,-1.30758369,0.82504219

>  <Name>
ligand

>  <RI>
0

>  <Rbt.Current_Directory>
/home/itssahil/PROJECTS/Mol_Feturizer/New_Systems/rnas/4FEJ

>  <Rbt.Executable>
rbdock ($Id: //depot/dev/client3/rdock/2013.1/src/exe/rbdock.cxx#4 $)

>  <Rbt.Library>
libRbt.so (2013.1, Build901 2013/11/27)

>  <Rbt.Parameter_File>
/export/apps/rDock/src/rDock_2013.1_src/data/scripts/dock_solv.prm

>  <Rbt.Receptor>
prm/pocket_docking_5.prm

>  <SCORE>
-17.3934

>  <SCORE.INTER>
-17.3934

>  <SCORE.INTER.CONST>
1

>  <SCORE.INTER.POLAR>
0

>  <SCORE.INTER.ROT>
0

>  <SCORE.INTER.SOLV>
3.74868

>  <SCORE.INTER.VDW>
-16.4451

>  <SCORE.INTER.norm>
-1.73934

>  <SCORE.INTRA>
0

>  <SCORE.INTRA.DIHEDRAL>
0

>  <SCORE.INTRA.DIHEDRAL.0>
0

>  <SCORE.INTRA.POLAR>
0

>  <SCORE.INTRA.POLAR.0>
0

>  <SCORE.INTRA.REPUL>
0

>  <SCORE.INTRA.REPUL.0>
0

>  <SCORE.INTRA.SOLV>
0

>  <SCORE.INTRA.SOLV.lig_0>
-4.26631

>  <SCORE.INTRA.VDW>
0

>  <SCORE.INTRA.VDW.0>
0

>  <SCORE.INTRA.norm>
0

>  <SCORE.RESTR>
0

>  <SCORE.RESTR.CAVITY>
0

>  <SCORE.RESTR.norm>
0

>  <SCORE.SYSTEM>
0

>  <SCORE.SYSTEM.CONST>
0

>  <SCORE.SYSTEM.DIHEDRAL>
0

>  <SCORE.SYSTEM.SOLV>
0

>  <SCORE.SYSTEM.norm>
0

>  <SCORE.heavy>
10

>  <SCORE.norm>
-1.73934

>  <RMSD>
0.440

$$$$
ligand
 OpenBabel11021811493D
libRbt.so/2013.1/901 2013/11/27
 10 11  0  0  0  0  0  0  0  0999 V2000
   11.9452   11.1137    8.5432 N   0  0  0  0  0  0  0  0  0  0  0  0
   11.7073   12.4582    8.6780 C   0  0  0  0  0  0  0  0  0  0  0  0
   11.3662   13.2193    7.6256 N   0  0  0  0  0  0  0  0  0  0  0  0
   11.2866   12.5346    6.4658 C   0  0  0  0  0  0  0  0  0  0  0  0
   11.5134   11.1907    6.2665 C   0  0  0  0  0  0  0  0  0  0  0  0
   11.8700   10.3746    7.3584 C   0  0  0  0  0  0  0  0  0  0  0  0
   12.1103    9.1755    7.3924 O   0  0  0  0  0  0  0  0  0  0  0  0
   11.3245   10.9048    4.9461 N   0  0  0  0  0  0  0  0  0  0  0  0
   10.9876   12.0666    4.3474 C   0  0  0  0  0  0  0  0  0  0  0  0
   10.9582   13.0902    5.2596 N   0  0  0  0  0  0  0  0  0  0  0  0
  1  2  1  0  0  0  0
  1  6  1  0  0  0  0
  2  3  2  0  0  0  0
  3  4  1  0  0  0  0
  4  5  2  0  0  0  0
  4 10  1  0  0  0  0
  5  6  1  0  0  0  0
  5  8  1  0  0  0  0
  6  7  2  0  0  0  0
  8  9  1  0  0  0  0
  9 10  2  0  0  0  0
M  END
>  <CHROM.1>
11.51859541,11.56756671,6.70383249,0.27735557,-1.30941829,0.81415653

>  <Name>
ligand

>  <RI>
0

>  <Rbt.Current_Directory>
/home/itssahil/PROJECTS/Mol_Feturizer/New_Systems/rnas/4FEJ

>  <Rbt.Executable>
rbdock ($Id: //depot/dev/client3/rdock/2013.1/src/exe/rbdock.cxx#4 $)

>  <Rbt.Library>
libRbt.so (2013.1, Build901 2013/11/27)

>  <Rbt.Parameter_File>
/export/apps/rDock/src/rDock_2013.1_src/data/scripts/dock_solv.prm

>  <Rbt.Receptor>
prm/pocket_docking_8.prm

>  <SCORE>
-17.3867

>  <SCORE.INTER>
-17.3867

>  <SCORE.INTER.CONST>
1

>  <SCORE.INTER.POLAR>
0

>  <SCORE.INTER.ROT>
0

>  <SCORE.INTER.SOLV>
3.7297

>  <SCORE.INTER.VDW>
-16.4344

>  <SCORE.INTER.norm>
-1.73867

>  <SCORE.INTRA>
0

>  <SCORE.INTRA.DIHEDRAL>
0

>  <SCORE.INTRA.DIHEDRAL.0>
0

>  <SCORE.INTRA.POLAR>
0

>  <SCORE.INTRA.POLAR.0>
0

>  <SCORE.INTRA.REPUL>
0

>  <SCORE.INTRA.REPUL.0>
0

>  <SCORE.INTRA.SOLV>
0

>  <SCORE.INTRA.SOLV.lig_0>
-4.26631

>  <SCORE.INTRA.VDW>
0

>  <SCORE.INTRA.VDW.0>
0

>  <SCORE.INTRA.norm>
0

>  <SCORE.RESTR>
0

>  <SCORE.RESTR.CAVITY>
0

>  <SCORE.RESTR.norm>
0

>  <SCORE.SYSTEM>
0

>  <SCORE.SYSTEM.CONST>
0

>  <SCORE.SYSTEM.DIHEDRAL>
0

>  <SCORE.SYSTEM.SOLV>
0

>  <SCORE.SYSTEM.norm>
0

>  <SCORE.heavy>
10

>  <SCORE.norm>
-1.73867

>  <RMSD>
0.441

$$$$
ligand
 OpenBabel11021811493D
libRbt.so/2013.1/901 2013/11/27
 10 11  0  0  0  0  0  0  0  0999 V2000
   11.9709   11.1743    8.5503 N   0  0  0  0  0  0  0  0  0  0  0  0
   11.7210   12.5178    8.6723 C   0  0  0  0  0  0  0  0  0  0  0  0
   11.3657   13.2643    7.6141 N   0  0  0  0  0  0  0  0  0  0  0  0
   11.2851   12.5664    6.4623 C   0  0  0  0  0  0  0  0  0  0  0  0
   11.5233   11.2227    6.2758 C   0  0  0  0  0  0  0  0  0  0  0  0
   11.8950   10.4217    7.3740 C   0  0  0  0  0  0  0  0  0  0  0  0
   12.1469    9.2254    7.4192 O   0  0  0  0  0  0  0  0  0  0  0  0
   11.3285   10.9208    4.9598 N   0  0  0  0  0  0  0  0  0  0  0  0
   10.9766   12.0728    4.3511 C   0  0  0  0  0  0  0  0  0  0  0  0
   10.9434   13.1059    5.2524 N   0  0  0  0  0  0  0  0  0  0  0  0
  1  2  1  0  0  0  0
  1  6  1  0  0  0  0
  2  3  2  0  0  0  0
  3  4  1  0  0  0  0
  4  5  2  0  0  0  0
  4 10  1  0  0  0  0
  5  6  1  0  0  0  0
  5  8  1  0  0  0  0
  6  7  2  0  0  0  0
  8  9  1  0  0  0  0
  9 10  2  0  0  0  0
M  END
>  <CHROM.1>
11.52784551,11.60424215,6.70907743,0.28400926,-1.29792723,0.80986095

>  <Name>
ligand

>  <RI>
0

>  <Rbt.Current_Directory>
/home/itssahil/PROJECTS/Mol_Feturizer/New_Systems/rnas/4FEJ

>  <Rbt.Executable>
rbdock ($Id: //depot/dev/client3/rdock/2013.1/src/exe/rbdock.cxx#4 $)

>  <Rbt.Library>
libRbt.so (2013.1, Build901 2013/11/27)

>  <Rbt.Parameter_File>
/export/apps/rDock/src/rDock_2013.1_src/data/scripts/dock_solv.prm

>  <Rbt.Receptor>
prm/pocket_docking_8.prm

>  <SCORE>
-17.4079

>  <SCORE.INTER>
-17.4079

>  <SCORE.INTER.CONST>
1

>  <SCORE.INTER.POLAR>
0

>  <SCORE.INTER.ROT>
0

>  <SCORE.INTER.SOLV>
3.71097

>  <SCORE.INTER.VDW>
-16.4422

>  <SCORE.INTER.norm>
-1.74079

>  <SCORE.INTRA>
0

>  <SCORE.INTRA.DIHEDRAL>
0

>  <SCORE.INTRA.DIHEDRAL.0>
0

>  <SCORE.INTRA.POLAR>
0

>  <SCORE.INTRA.POLAR.0>
0

>  <SCORE.INTRA.REPUL>
0

>  <SCORE.INTRA.REPUL.0>
0

>  <SCORE.INTRA.SOLV>
0

>  <SCORE.INTRA.SOLV.lig_0>
-4.26631

>  <SCORE.INTRA.VDW>
0

>  <SCORE.INTRA.VDW.0>
0

>  <SCORE.INTRA.norm>
0

>  <SCORE.RESTR>
0

>  <SCORE.RESTR.CAVITY>
0

>  <SCORE.RESTR.norm>
0

>  <SCORE.SYSTEM>
0

>  <SCORE.SYSTEM.CONST>
0

>  <SCORE.SYSTEM.DIHEDRAL>
0

>  <SCORE.SYSTEM.SOLV>
0

>  <SCORE.SYSTEM.norm>
0

>  <SCORE.heavy>
10

>  <SCORE.norm>
-1.74079

>  <RMSD>
0.441

$$$$
ligand
 OpenBabel11021811493D
libRbt.so/2013.1/901 2013/11/27
 10 11  0  0  0  0  0  0  0  0999 V2000
   11.9169   11.1935    8.5704 N   0  0  0  0  0  0  0  0  0  0  0  0
   11.6264   12.5312    8.6622 C   0  0  0  0  0  0  0  0  0  0  0  0
   11.2654   13.2464    7.5846 N   0  0  0  0  0  0  0  0  0  0  0  0
   11.2221   12.5243    6.4457 C   0  0  0  0  0  0  0  0  0  0  0  0
   11.5019   11.1847    6.2893 C   0  0  0  0  0  0  0  0  0  0  0  0
   11.8803   10.4164    7.4083 C   0  0  0  0  0  0  0  0  0  0  0  0
   12.1660    9.2291    7.4807 O   0  0  0  0  0  0  0  0  0  0  0  0
   11.3354   10.8519    4.9769 N   0  0  0  0  0  0  0  0  0  0  0  0
   10.9593   11.9811    4.3405 C   0  0  0  0  0  0  0  0  0  0  0  0
   10.8828   13.0300    5.2207 N   0  0  0  0  0  0  0  0  0  0  0  0
  1  2  1  0  0  0  0
  1  6  1  0  0  0  0
  2  3  2  0  0  0  0
  3  4  1  0  0  0  0
  4  5  2  0  0  0  0
  4 10  1  0  0  0  0
  5  6  1  0  0  0  0
  5  8  1  0  0  0  0
  6  7  2  0  0  0  0
  8  9  1  0  0  0  0
  9 10  2  0  0  0  0
M  END
>  <CHROM.1>
11.48891276,11.57457632,6.71493946,0.39328882,-1.28555635,0.89534258

>  <Name>
ligand

>  <RI>
0

>  <Rbt.Current_Directory>
/home/itssahil/PROJECTS/Mol_Feturizer/New_Systems/rnas/4FEJ

>  <Rbt.Executable>
rbdock ($Id: //depot/dev/client3/rdock/2013.1/src/exe/rbdock.cxx#4 $)

>  <Rbt.Library>
libRbt.so (2013.1, Build901 2013/11/27)

>  <Rbt.Parameter_File>
/export/apps/rDock/src/rDock_2013.1_src/data/scripts/dock_solv.prm

>  <Rbt.Receptor>
prm/pocket_docking_4.prm

>  <SCORE>
-17.4016

>  <SCORE.INTER>
-17.4016

>  <SCORE.INTER.CONST>
1

>  <SCORE.INTER.POLAR>
0

>  <SCORE.INTER.ROT>
0

>  <SCORE.INTER.SOLV>
3.69561

>  <SCORE.INTER.VDW>
-16.4329

>  <SCORE.INTER.norm>
-1.74016

>  <SCORE.INTRA>
0

>  <SCORE.INTRA.DIHEDRAL>
0

>  <SCORE.INTRA.DIHEDRAL.0>
0

>  <SCORE.INTRA.POLAR>
0

>  <SCORE.INTRA.POLAR.0>
0

>  <SCORE.INTRA.REPUL>
0

>  <SCORE.INTRA.REPUL.0>
0

>  <SCORE.INTRA.SOLV>
0

>  <SCORE.INTRA.SOLV.lig_0>
-4.26631

>  <SCORE.INTRA.VDW>
0

>  <SCORE.INTRA.VDW.0>
0

>  <SCORE.INTRA.norm>
0

>  <SCORE.RESTR>
0

>  <SCORE.RESTR.CAVITY>
0

>  <SCORE.RESTR.norm>
0

>  <SCORE.SYSTEM>
0

>  <SCORE.SYSTEM.CONST>
0

>  <SCORE.SYSTEM.DIHEDRAL>
0

>  <SCORE.SYSTEM.SOLV>
0

>  <SCORE.SYSTEM.norm>
0

>  <SCORE.heavy>
10

>  <SCORE.norm>
-1.74016

>  <RMSD>
0.442

$$$$
ligand
 OpenBabel11021811493D
libRbt.so/2013.1/901 2013/11/27
 10 11  0  0  0  0  0  0  0  0999 V2000
   11.9646   11.1787    8.5604 N   0  0  0  0  0  0  0  0  0  0  0  0
   11.7241   12.5247    8.6734 C   0  0  0  0  0  0  0  0  0  0  0  0
   11.3782   13.2674    7.6095 N   0  0  0  0  0  0  0  0  0  0  0  0
   11.2968   12.5633    6.4616 C   0  0  0  0  0  0  0  0  0  0  0  0
   11.5260   11.2167    6.2840 C   0  0  0  0  0  0  0  0  0  0  0  0
   11.8876   10.4197    7.3884 C   0  0  0  0  0  0  0  0  0  0  0  0
   12.1307    9.2219    7.4417 O   0  0  0  0  0  0  0  0  0  0  0  0
   11.3339   10.9084    4.9691 N   0  0  0  0  0  0  0  0  0  0  0  0
   10.9927   12.0592    4.3522 C   0  0  0  0  0  0  0  0  0  0  0  0
   10.9636   13.0979    5.2472 N   0  0  0  0  0  0  0  0  0  0  0  0
  1  2  1  0  0  0  0
  1  6  1  0  0  0  0
  2  3  2  0  0  0  0
  3  4  1  0  0  0  0
  4  5  2  0  0  0  0
  4 10  1  0  0  0  0
  5  6  1  0  0  0  0
  5  8  1  0  0  0  0
  6  7  2  0  0  0  0
  8  9  1  0  0  0  0
  9 10  2  0  0  0  0
M  END
>  <CHROM.1>
11.53164650,11.60082716,6.71500964,0.27514323,-1.30579940,0.79531790

>  <Name>
ligand

>  <RI>
0

>  <Rbt.Current_Directory>
/home/itssahil/PROJECTS/Mol_Feturizer/New_Systems/rnas/4FEJ

>  <Rbt.Executable>
rbdock ($Id: //depot/dev/client3/rdock/2013.1/src/exe/rbdock.cxx#4 $)

>  <Rbt.Library>
libRbt.so (2013.1, Build901 2013/11/27)

>  <Rbt.Parameter_File>
/export/apps/rDock/src/rDock_2013.1_src/data/scripts/dock_solv.prm

>  <Rbt.Receptor>
prm/pocket_docking_5.prm

>  <SCORE>
-17.4102

>  <SCORE.INTER>
-17.4102

>  <SCORE.INTER.CONST>
1

>  <SCORE.INTER.POLAR>
0

>  <SCORE.INTER.ROT>
0

>  <SCORE.INTER.SOLV>
3.73864

>  <SCORE.INTER.VDW>
-16.453

>  <SCORE.INTER.norm>
-1.74102

>  <SCORE.INTRA>
0

>  <SCORE.INTRA.DIHEDRAL>
0

>  <SCORE.INTRA.DIHEDRAL.0>
0

>  <SCORE.INTRA.POLAR>
0

>  <SCORE.INTRA.POLAR.0>
0

>  <SCORE.INTRA.REPUL>
0

>  <SCORE.INTRA.REPUL.0>
0

>  <SCORE.INTRA.SOLV>
0

>  <SCORE.INTRA.SOLV.lig_0>
-4.26631

>  <SCORE.INTRA.VDW>
0

>  <SCORE.INTRA.VDW.0>
0

>  <SCORE.INTRA.norm>
0

>  <SCORE.RESTR>
0

>  <SCORE.RESTR.CAVITY>
0

>  <SCORE.RESTR.norm>
0

>  <SCORE.SYSTEM>
0

>  <SCORE.SYSTEM.CONST>
0

>  <SCORE.SYSTEM.DIHEDRAL>
0

>  <SCORE.SYSTEM.SOLV>
0

>  <SCORE.SYSTEM.norm>
0

>  <SCORE.heavy>
10

>  <SCORE.norm>
-1.74102

>  <RMSD>
0.442

$$$$
ligand
 OpenBabel11021811493D
libRbt.so/2013.1/901 2013/11/27
 10 11  0  0  0  0  0  0  0  0999 V2000
   11.9636   11.1791    8.5529 N   0  0  0  0  0  0  0  0  0  0  0  0
   11.7196   12.5241    8.6700 C   0  0  0  0  0  0  0  0  0  0  0  0
   11.3704   13.2688    7.6086 N   0  0  0  0  0  0  0  0  0  0  0  0
   11.2895   12.5677    6.4588 C   0  0  0  0  0  0  0  0  0  0  0  0
   11.5220   11.2223    6.2772 C   0  0  0  0  0  0  0  0  0  0  0  0
   11.8872   10.4232    7.3788 C   0  0  0  0  0  0  0  0  0  0  0  0
   12.1336    9.2258    7.4284 O   0  0  0  0  0  0  0  0  0  0  0  0
   11.3291   10.9172    4.9616 N   0  0  0  0  0  0  0  0  0  0  0  0
   10.9840   12.0688    4.3483 C   0  0  0  0  0  0  0  0  0  0  0  0
   10.9532   13.1049    5.2463 N   0  0  0  0  0  0  0  0  0  0  0  0
  1  2  1  0  0  0  0
  1  6  1  0  0  0  0
  2  3  2  0  0  0  0
  3  4  1  0  0  0  0
  4  5  2  0  0  0  0
  4 10  1  0  0  0  0
  5  6  1  0  0  0  0
  5  8  1  0  0  0  0
  6  7  2  0  0  0  0
  8  9  1  0  0  0  0
  9 10  2  0  0  0  0
M  END
>  <CHROM.1>
11.52718978,11.60521077,6.70920619,0.27881761,-1.30297354,0.80168132

>  <Name>
ligand

>  <RI>
0

>  <Rbt.Current_Directory>
/home/itssahil/PROJECTS/Mol_Feturizer/New_Systems/rnas/4FEJ

>  <Rbt.Executable>
rbdock ($Id: //depot/dev/client3/rdock/2013.1/src/exe/rbdock.cxx#4 $)

>  <Rbt.Library>
libRbt.so (2013.1, Build901 2013/11/27)

>  <Rbt.Parameter_File>
/export/apps/rDock/src/rDock_2013.1_src/data/scripts/dock_solv.prm

>  <Rbt.Receptor>
prm/blind_docking_100.prm

>  <SCORE>
-17.4104

>  <SCORE.INTER>
-17.4104

>  <SCORE.INTER.CONST>
1

>  <SCORE.INTER.POLAR>
0

>  <SCORE.INTER.ROT>
0

>  <SCORE.INTER.SOLV>
3.72883

>  <SCORE.INTER.VDW>
-16.4498

>  <SCORE.INTER.norm>
-1.74104

>  <SCORE.INTRA>
0

>  <SCORE.INTRA.DIHEDRAL>
0

>  <SCORE.INTRA.DIHEDRAL.0>
0

>  <SCORE.INTRA.POLAR>
0

>  <SCORE.INTRA.POLAR.0>
0

>  <SCORE.INTRA.REPUL>
0

>  <SCORE.INTRA.REPUL.0>
0

>  <SCORE.INTRA.SOLV>
0

>  <SCORE.INTRA.SOLV.lig_0>
-4.26631

>  <SCORE.INTRA.VDW>
0

>  <SCORE.INTRA.VDW.0>
0

>  <SCORE.INTRA.norm>
0

>  <SCORE.RESTR>
0

>  <SCORE.RESTR.CAVITY>
0

>  <SCORE.RESTR.norm>
0

>  <SCORE.SYSTEM>
0

>  <SCORE.SYSTEM.CONST>
0

>  <SCORE.SYSTEM.DIHEDRAL>
0

>  <SCORE.SYSTEM.SOLV>
0

>  <SCORE.SYSTEM.norm>
0

>  <SCORE.heavy>
10

>  <SCORE.norm>
-1.74104

>  <RMSD>
0.446

$$$$
ligand
 OpenBabel11021811493D
libRbt.so/2013.1/901 2013/11/27
 10 11  0  0  0  0  0  0  0  0999 V2000
   11.9557   11.1885    8.5546 N   0  0  0  0  0  0  0  0  0  0  0  0
   11.7203   12.5355    8.6659 C   0  0  0  0  0  0  0  0  0  0  0  0
   11.3754   13.2778    7.6015 N   0  0  0  0  0  0  0  0  0  0  0  0
   11.2895   12.5723    6.4547 C   0  0  0  0  0  0  0  0  0  0  0  0
   11.5134   11.2246    6.2789 C   0  0  0  0  0  0  0  0  0  0  0  0
   11.8740   10.4280    7.3839 C   0  0  0  0  0  0  0  0  0  0  0  0
   12.1128    9.2293    7.4386 O   0  0  0  0  0  0  0  0  0  0  0  0
   11.3181   10.9150    4.9648 N   0  0  0  0  0  0  0  0  0  0  0  0
   10.9801   12.0661    4.3466 C   0  0  0  0  0  0  0  0  0  0  0  0
   10.9562   13.1062    5.2401 N   0  0  0  0  0  0  0  0  0  0  0  0
  1  2  1  0  0  0  0
  1  6  1  0  0  0  0
  2  3  2  0  0  0  0
  3  4  1  0  0  0  0
  4  5  2  0  0  0  0
  4 10  1  0  0  0  0
  5  6  1  0  0  0  0
  5  8  1  0  0  0  0
  6  7  2  0  0  0  0
  8  9  1  0  0  0  0
  9 10  2  0  0  0  0
M  END
>  <CHROM.1>
11.52122798,11.60936530,6.70927654,0.26077531,-1.30721751,0.77992175

>  <Name>
ligand

>  <RI>
0

>  <Rbt.Current_Directory>
/home/itssahil/PROJECTS/Mol_Feturizer/New_Systems/rnas/4FEJ

>  <Rbt.Executable>
rbdock ($Id: //depot/dev/client3/rdock/2013.1/src/exe/rbdock.cxx#4 $)

>  <Rbt.Library>
libRbt.so (2013.1, Build901 2013/11/27)

>  <Rbt.Parameter_File>
/export/apps/rDock/src/rDock_2013.1_src/data/scripts/dock_solv.prm

>  <Rbt.Receptor>
prm/pocket_docking_4.prm

>  <SCORE>
-17.4081

>  <SCORE.INTER>
-17.4081

>  <SCORE.INTER.CONST>
1

>  <SCORE.INTER.POLAR>
0

>  <SCORE.INTER.ROT>
0

>  <SCORE.INTER.SOLV>
3.74968

>  <SCORE.INTER.VDW>
-16.4553

>  <SCORE.INTER.norm>
-1.74081

>  <SCORE.INTRA>
0

>  <SCORE.INTRA.DIHEDRAL>
0

>  <SCORE.INTRA.DIHEDRAL.0>
0

>  <SCORE.INTRA.POLAR>
0

>  <SCORE.INTRA.POLAR.0>
0

>  <SCORE.INTRA.REPUL>
0

>  <SCORE.INTRA.REPUL.0>
0

>  <SCORE.INTRA.SOLV>
0

>  <SCORE.INTRA.SOLV.lig_0>
-4.26631

>  <SCORE.INTRA.VDW>
0

>  <SCORE.INTRA.VDW.0>
0

>  <SCORE.INTRA.norm>
0

>  <SCORE.RESTR>
0

>  <SCORE.RESTR.CAVITY>
0

>  <SCORE.RESTR.norm>
0

>  <SCORE.SYSTEM>
0

>  <SCORE.SYSTEM.CONST>
0

>  <SCORE.SYSTEM.DIHEDRAL>
0

>  <SCORE.SYSTEM.SOLV>
0

>  <SCORE.SYSTEM.norm>
0

>  <SCORE.heavy>
10

>  <SCORE.norm>
-1.74081

>  <RMSD>
0.453

$$$$
ligand
 OpenBabel11021811493D
libRbt.so/2013.1/901 2013/11/27
 10 11  0  0  0  0  0  0  0  0999 V2000
   11.8830   11.2845    8.6482 N   0  0  0  0  0  0  0  0  0  0  0  0
   11.6729   12.6391    8.7054 C   0  0  0  0  0  0  0  0  0  0  0  0
   11.3606   13.3476    7.6083 N   0  0  0  0  0  0  0  0  0  0  0  0
   11.2797   12.6014    6.4872 C   0  0  0  0  0  0  0  0  0  0  0  0
   11.4794   11.2440    6.3654 C   0  0  0  0  0  0  0  0  0  0  0  0
   11.8055   10.4824    7.5052 C   0  0  0  0  0  0  0  0  0  0  0  0
   12.0192    9.2823    7.6084 O   0  0  0  0  0  0  0  0  0  0  0  0
   11.2997   10.8893    5.0605 N   0  0  0  0  0  0  0  0  0  0  0  0
   10.9951   12.0229    4.3943 C   0  0  0  0  0  0  0  0  0  0  0  0
   10.9774   13.0960    5.2480 N   0  0  0  0  0  0  0  0  0  0  0  0
  1  2  1  0  0  0  0
  1  6  1  0  0  0  0
  2  3  2  0  0  0  0
  3  4  1  0  0  0  0
  4  5  2  0  0  0  0
  4 10  1  0  0  0  0
  5  6  1  0  0  0  0
  5  8  1  0  0  0  0
  6  7  2  0  0  0  0
  8  9  1  0  0  0  0
  9 10  2  0  0  0  0
M  END
>  <CHROM.1>
11.48774146,11.64439727,6.78124384,0.24972239,-1.33312054,0.73195148

>  <Name>
ligand

>  <RI>
0

>  <Rbt.Current_Directory>
/home/itssahil/PROJECTS/Mol_Feturizer/New_Systems/rnas/4FEJ

>  <Rbt.Executable>
rbdock ($Id: //depot/dev/client3/rdock/2013.1/src/exe/rbdock.cxx#4 $)

>  <Rbt.Library>
libRbt.so (2013.1, Build901 2013/11/27)

>  <Rbt.Parameter_File>
/export/apps/rDock/src/rDock_2013.1_src/data/scripts/dock_solv.prm

>  <Rbt.Receptor>
prm/blind_docking_80.prm

>  <SCORE>
-17.46

>  <SCORE.INTER>
-17.46

>  <SCORE.INTER.CONST>
1

>  <SCORE.INTER.POLAR>
0

>  <SCORE.INTER.ROT>
0

>  <SCORE.INTER.SOLV>
3.89502

>  <SCORE.INTER.VDW>
-16.5383

>  <SCORE.INTER.norm>
-1.746

>  <SCORE.INTRA>
0

>  <SCORE.INTRA.DIHEDRAL>
0

>  <SCORE.INTRA.DIHEDRAL.0>
0

>  <SCORE.INTRA.POLAR>
0

>  <SCORE.INTRA.POLAR.0>
0

>  <SCORE.INTRA.REPUL>
0

>  <SCORE.INTRA.REPUL.0>
0

>  <SCORE.INTRA.SOLV>
0

>  <SCORE.INTRA.SOLV.lig_0>
-4.26631

>  <SCORE.INTRA.VDW>
0

>  <SCORE.INTRA.VDW.0>
0

>  <SCORE.INTRA.norm>
0

>  <SCORE.RESTR>
0

>  <SCORE.RESTR.CAVITY>
0

>  <SCORE.RESTR.norm>
0

>  <SCORE.SYSTEM>
0

>  <SCORE.SYSTEM.CONST>
0

>  <SCORE.SYSTEM.DIHEDRAL>
0

>  <SCORE.SYSTEM.SOLV>
0

>  <SCORE.SYSTEM.norm>
0

>  <SCORE.heavy>
10

>  <SCORE.norm>
-1.746

>  <RMSD>
0.459

$$$$
ligand
 OpenBabel11021811493D
libRbt.so/2013.1/901 2013/11/27
 10 11  0  0  0  0  0  0  0  0999 V2000
   11.8821   11.2840    8.6520 N   0  0  0  0  0  0  0  0  0  0  0  0
   11.6782   12.6398    8.7047 C   0  0  0  0  0  0  0  0  0  0  0  0
   11.3699   13.3462    7.6052 N   0  0  0  0  0  0  0  0  0  0  0  0
   11.2861   12.5968    6.4864 C   0  0  0  0  0  0  0  0  0  0  0  0
   11.4795   11.2381    6.3691 C   0  0  0  0  0  0  0  0  0  0  0  0
   11.8015   10.4787    7.5115 C   0  0  0  0  0  0  0  0  0  0  0  0
   12.0096    9.2779    7.6187 O   0  0  0  0  0  0  0  0  0  0  0  0
   11.2989   10.8800    5.0652 N   0  0  0  0  0  0  0  0  0  0  0  0
   11.0001   12.0129    4.3952 C   0  0  0  0  0  0  0  0  0  0  0  0
   10.9868   13.0888    5.2455 N   0  0  0  0  0  0  0  0  0  0  0  0
  1  2  1  0  0  0  0
  1  6  1  0  0  0  0
  2  3  2  0  0  0  0
  3  4  1  0  0  0  0
  4  5  2  0  0  0  0
  4 10  1  0  0  0  0
  5  6  1  0  0  0  0
  5  8  1  0  0  0  0
  6  7  2  0  0  0  0
  8  9  1  0  0  0  0
  9 10  2  0  0  0  0
M  END
>  <CHROM.1>
11.48954193,11.63977047,6.78364760,0.23648627,-1.33662998,0.71586911

>  <Name>
ligand

>  <RI>
0

>  <Rbt.Current_Directory>
/home/itssahil/PROJECTS/Mol_Feturizer/New_Systems/rnas/4FEJ

>  <Rbt.Executable>
rbdock ($Id: //depot/dev/client3/rdock/2013.1/src/exe/rbdock.cxx#4 $)

>  <Rbt.Library>
libRbt.so (2013.1, Build901 2013/11/27)

>  <Rbt.Parameter_File>
/export/apps/rDock/src/rDock_2013.1_src/data/scripts/dock_solv.prm

>  <Rbt.Receptor>
prm/pocket_docking_4.prm

>  <SCORE>
-17.461

>  <SCORE.INTER>
-17.461

>  <SCORE.INTER.CONST>
1

>  <SCORE.INTER.POLAR>
0

>  <SCORE.INTER.ROT>
0

>  <SCORE.INTER.SOLV>
3.91095

>  <SCORE.INTER.VDW>
-16.5443

>  <SCORE.INTER.norm>
-1.7461

>  <SCORE.INTRA>
0

>  <SCORE.INTRA.DIHEDRAL>
0

>  <SCORE.INTRA.DIHEDRAL.0>
0

>  <SCORE.INTRA.POLAR>
0

>  <SCORE.INTRA.POLAR.0>
0

>  <SCORE.INTRA.REPUL>
0

>  <SCORE.INTRA.REPUL.0>
0

>  <SCORE.INTRA.SOLV>
0

>  <SCORE.INTRA.SOLV.lig_0>
-4.26631

>  <SCORE.INTRA.VDW>
0

>  <SCORE.INTRA.VDW.0>
0

>  <SCORE.INTRA.norm>
0

>  <SCORE.RESTR>
0

>  <SCORE.RESTR.CAVITY>
0

>  <SCORE.RESTR.norm>
0

>  <SCORE.SYSTEM>
0

>  <SCORE.SYSTEM.CONST>
0

>  <SCORE.SYSTEM.DIHEDRAL>
0

>  <SCORE.SYSTEM.SOLV>
0

>  <SCORE.SYSTEM.norm>
0

>  <SCORE.heavy>
10

>  <SCORE.norm>
-1.7461

>  <RMSD>
0.460

$$$$
ligand
 OpenBabel11021811493D
libRbt.so/2013.1/901 2013/11/27
 10 11  0  0  0  0  0  0  0  0999 V2000
   11.8874   11.3298    8.6420 N   0  0  0  0  0  0  0  0  0  0  0  0
   11.5939   12.6698    8.6679 C   0  0  0  0  0  0  0  0  0  0  0  0
   11.2520   13.3349    7.5526 N   0  0  0  0  0  0  0  0  0  0  0  0
   11.2304   12.5620    6.4470 C   0  0  0  0  0  0  0  0  0  0  0  0
   11.5144   11.2173    6.3564 C   0  0  0  0  0  0  0  0  0  0  0  0
   11.8729   10.5010    7.5158 C   0  0  0  0  0  0  0  0  0  0  0  0
   12.1586    9.3187    7.6470 O   0  0  0  0  0  0  0  0  0  0  0  0
   11.3724   10.8252    5.0576 N   0  0  0  0  0  0  0  0  0  0  0  0
   11.0069   11.9238    4.3640 C   0  0  0  0  0  0  0  0  0  0  0  0
   10.9132   13.0112    5.1943 N   0  0  0  0  0  0  0  0  0  0  0  0
  1  2  1  0  0  0  0
  1  6  1  0  0  0  0
  2  3  2  0  0  0  0
  3  4  1  0  0  0  0
  4  5  2  0  0  0  0
  4 10  1  0  0  0  0
  5  6  1  0  0  0  0
  5  8  1  0  0  0  0
  6  7  2  0  0  0  0
  8  9  1  0  0  0  0
  9 10  2  0  0  0  0
M  END
>  <CHROM.1>
11.49320163,11.62593304,6.76370353,0.44850868,-1.29583876,0.90320114

>  <Name>
ligand

>  <RI>
0

>  <Rbt.Current_Directory>
/home/itssahil/PROJECTS/Mol_Feturizer/New_Systems/rnas/4FEJ

>  <Rbt.Executable>
rbdock ($Id: //depot/dev/client3/rdock/2013.1/src/exe/rbdock.cxx#4 $)

>  <Rbt.Library>
libRbt.so (2013.1, Build901 2013/11/27)

>  <Rbt.Parameter_File>
/export/apps/rDock/src/rDock_2013.1_src/data/scripts/dock_solv.prm

>  <Rbt.Receptor>
prm/blind_docking_100.prm

>  <SCORE>
-17.4594

>  <SCORE.INTER>
-17.4594

>  <SCORE.INTER.CONST>
1

>  <SCORE.INTER.POLAR>
0

>  <SCORE.INTER.ROT>
0

>  <SCORE.INTER.SOLV>
3.77421

>  <SCORE.INTER.VDW>
-16.4976

>  <SCORE.INTER.norm>
-1.74594

>  <SCORE.INTRA>
0

>  <SCORE.INTRA.DIHEDRAL>
0

>  <SCORE.INTRA.DIHEDRAL.0>
0

>  <SCORE.INTRA.POLAR>
0

>  <SCORE.INTRA.POLAR.0>
0

>  <SCORE.INTRA.REPUL>
0

>  <SCORE.INTRA.REPUL.0>
0

>  <SCORE.INTRA.SOLV>
0

>  <SCORE.INTRA.SOLV.lig_0>
-4.26631

>  <SCORE.INTRA.VDW>
0

>  <SCORE.INTRA.VDW.0>
0

>  <SCORE.INTRA.norm>
0

>  <SCORE.RESTR>
0

>  <SCORE.RESTR.CAVITY>
0

>  <SCORE.RESTR.norm>
0

>  <SCORE.SYSTEM>
0

>  <SCORE.SYSTEM.CONST>
0

>  <SCORE.SYSTEM.DIHEDRAL>
0

>  <SCORE.SYSTEM.SOLV>
0

>  <SCORE.SYSTEM.norm>
0

>  <SCORE.heavy>
10

>  <SCORE.norm>
-1.74594

>  <RMSD>
0.461

$$$$
ligand
 OpenBabel11021811493D
libRbt.so/2013.1/901 2013/11/27
 10 11  0  0  0  0  0  0  0  0999 V2000
   11.9517   11.1969    8.5414 N   0  0  0  0  0  0  0  0  0  0  0  0
   11.6799   12.5386    8.6324 C   0  0  0  0  0  0  0  0  0  0  0  0
   11.3173   13.2557    7.5566 N   0  0  0  0  0  0  0  0  0  0  0  0
   11.2526   12.5312    6.4203 C   0  0  0  0  0  0  0  0  0  0  0  0
   11.5130   11.1876    6.2647 C   0  0  0  0  0  0  0  0  0  0  0  0
   11.8927   10.4173    7.3819 C   0  0  0  0  0  0  0  0  0  0  0  0
   12.1634    9.2265    7.4546 O   0  0  0  0  0  0  0  0  0  0  0  0
   11.3285   10.8536    4.9550 N   0  0  0  0  0  0  0  0  0  0  0  0
   10.9609   11.9860    4.3194 C   0  0  0  0  0  0  0  0  0  0  0  0
   10.9074   13.0381    5.1974 N   0  0  0  0  0  0  0  0  0  0  0  0
  1  2  1  0  0  0  0
  1  6  1  0  0  0  0
  2  3  2  0  0  0  0
  3  4  1  0  0  0  0
  4  5  2  0  0  0  0
  4 10  1  0  0  0  0
  5  6  1  0  0  0  0
  5  8  1  0  0  0  0
  6  7  2  0  0  0  0
  8  9  1  0  0  0  0
  9 10  2  0  0  0  0
M  END
>  <CHROM.1>
11.50959206,11.57875157,6.68935466,0.33433979,-1.28898302,0.83602202

>  <Name>
ligand

>  <RI>
0

>  <Rbt.Current_Directory>
/home/itssahil/PROJECTS/Mol_Feturizer/New_Systems/rnas/4FEJ

>  <Rbt.Executable>
rbdock ($Id: //depot/dev/client3/rdock/2013.1/src/exe/rbdock.cxx#4 $)

>  <Rbt.Library>
libRbt.so (2013.1, Build901 2013/11/27)

>  <Rbt.Parameter_File>
/export/apps/rDock/src/rDock_2013.1_src/data/scripts/dock_solv.prm

>  <Rbt.Receptor>
prm/pocket_docking_3.prm

>  <SCORE>
-17.4065

>  <SCORE.INTER>
-17.4065

>  <SCORE.INTER.CONST>
1

>  <SCORE.INTER.POLAR>
0

>  <SCORE.INTER.ROT>
0

>  <SCORE.INTER.SOLV>
3.70501

>  <SCORE.INTER.VDW>
-16.4394

>  <SCORE.INTER.norm>
-1.74065

>  <SCORE.INTRA>
0

>  <SCORE.INTRA.DIHEDRAL>
0

>  <SCORE.INTRA.DIHEDRAL.0>
0

>  <SCORE.INTRA.POLAR>
0

>  <SCORE.INTRA.POLAR.0>
0

>  <SCORE.INTRA.REPUL>
0

>  <SCORE.INTRA.REPUL.0>
0

>  <SCORE.INTRA.SOLV>
0

>  <SCORE.INTRA.SOLV.lig_0>
-4.26631

>  <SCORE.INTRA.VDW>
0

>  <SCORE.INTRA.VDW.0>
0

>  <SCORE.INTRA.norm>
0

>  <SCORE.RESTR>
0

>  <SCORE.RESTR.CAVITY>
0

>  <SCORE.RESTR.norm>
0

>  <SCORE.SYSTEM>
0

>  <SCORE.SYSTEM.CONST>
0

>  <SCORE.SYSTEM.DIHEDRAL>
0

>  <SCORE.SYSTEM.SOLV>
0

>  <SCORE.SYSTEM.norm>
0

>  <SCORE.heavy>
10

>  <SCORE.norm>
-1.74065

>  <RMSD>
0.461

$$$$
ligand
 OpenBabel11021811493D
libRbt.so/2013.1/901 2013/11/27
 10 11  0  0  0  0  0  0  0  0999 V2000
   11.8990   11.3142    8.6658 N   0  0  0  0  0  0  0  0  0  0  0  0
   11.6897   12.6699    8.6930 C   0  0  0  0  0  0  0  0  0  0  0  0
   11.3781   13.3542    7.5804 N   0  0  0  0  0  0  0  0  0  0  0  0
   11.2970   12.5835    6.4761 C   0  0  0  0  0  0  0  0  0  0  0  0
   11.4959   11.2236    6.3843 C   0  0  0  0  0  0  0  0  0  0  0  0
   11.8213   10.4872    7.5408 C   0  0  0  0  0  0  0  0  0  0  0  0
   12.0342    9.2895    7.6705 O   0  0  0  0  0  0  0  0  0  0  0  0
   11.3162   10.8403    5.0875 N   0  0  0  0  0  0  0  0  0  0  0  0
   11.0126   11.9591    4.3964 C   0  0  0  0  0  0  0  0  0  0  0  0
   10.9952   13.0507    5.2262 N   0  0  0  0  0  0  0  0  0  0  0  0
  1  2  1  0  0  0  0
  1  6  1  0  0  0  0
  2  3  2  0  0  0  0
  3  4  1  0  0  0  0
  4  5  2  0  0  0  0
  4 10  1  0  0  0  0
  5  6  1  0  0  0  0
  5  8  1  0  0  0  0
  6  7  2  0  0  0  0
  8  9  1  0  0  0  0
  9 10  2  0  0  0  0
M  END
>  <CHROM.1>
11.50439343,11.63307896,6.79123743,0.24844901,-1.33369597,0.70862343

>  <Name>
ligand

>  <RI>
0

>  <Rbt.Current_Directory>
/home/itssahil/PROJECTS/Mol_Feturizer/New_Systems/rnas/4FEJ

>  <Rbt.Executable>
rbdock ($Id: //depot/dev/client3/rdock/2013.1/src/exe/rbdock.cxx#4 $)

>  <Rbt.Library>
libRbt.so (2013.1, Build901 2013/11/27)

>  <Rbt.Parameter_File>
/export/apps/rDock/src/rDock_2013.1_src/data/scripts/dock_solv.prm

>  <Rbt.Receptor>
prm/pocket_docking_3.prm

>  <SCORE>
-17.4435

>  <SCORE.INTER>
-17.4435

>  <SCORE.INTER.CONST>
1

>  <SCORE.INTER.POLAR>
0

>  <SCORE.INTER.ROT>
0

>  <SCORE.INTER.SOLV>
3.9183

>  <SCORE.INTER.VDW>
-16.5351

>  <SCORE.INTER.norm>
-1.74435

>  <SCORE.INTRA>
0

>  <SCORE.INTRA.DIHEDRAL>
0

>  <SCORE.INTRA.DIHEDRAL.0>
0

>  <SCORE.INTRA.POLAR>
0

>  <SCORE.INTRA.POLAR.0>
0

>  <SCORE.INTRA.REPUL>
0

>  <SCORE.INTRA.REPUL.0>
0

>  <SCORE.INTRA.SOLV>
0

>  <SCORE.INTRA.SOLV.lig_0>
-4.26631

>  <SCORE.INTRA.VDW>
0

>  <SCORE.INTRA.VDW.0>
0

>  <SCORE.INTRA.norm>
0

>  <SCORE.RESTR>
0

>  <SCORE.RESTR.CAVITY>
0

>  <SCORE.RESTR.norm>
0

>  <SCORE.SYSTEM>
0

>  <SCORE.SYSTEM.CONST>
0

>  <SCORE.SYSTEM.DIHEDRAL>
0

>  <SCORE.SYSTEM.SOLV>
0

>  <SCORE.SYSTEM.norm>
0

>  <SCORE.heavy>
10

>  <SCORE.norm>
-1.74435

>  <RMSD>
0.462

$$$$
ligand
 OpenBabel11021811493D
libRbt.so/2013.1/901 2013/11/27
 10 11  0  0  0  0  0  0  0  0999 V2000
   11.8781   11.2881    8.6493 N   0  0  0  0  0  0  0  0  0  0  0  0
   11.6734   12.6438    8.7007 C   0  0  0  0  0  0  0  0  0  0  0  0
   11.3675   13.3493    7.5999 N   0  0  0  0  0  0  0  0  0  0  0  0
   11.2869   12.5992    6.4815 C   0  0  0  0  0  0  0  0  0  0  0  0
   11.4813   11.2405    6.3654 C   0  0  0  0  0  0  0  0  0  0  0  0
   11.8008   10.4820    7.5092 C   0  0  0  0  0  0  0  0  0  0  0  0
   12.0092    9.2813    7.6177 O   0  0  0  0  0  0  0  0  0  0  0  0
   11.3041   10.8816    5.0614 N   0  0  0  0  0  0  0  0  0  0  0  0
   11.0064   12.0138    4.3899 C   0  0  0  0  0  0  0  0  0  0  0  0
   10.9905   13.0902    5.2395 N   0  0  0  0  0  0  0  0  0  0  0  0
  1  2  1  0  0  0  0
  1  6  1  0  0  0  0
  2  3  2  0  0  0  0
  3  4  1  0  0  0  0
  4  5  2  0  0  0  0
  4 10  1  0  0  0  0
  5  6  1  0  0  0  0
  5  8  1  0  0  0  0
  6  7  2  0  0  0  0
  8  9  1  0  0  0  0
  9 10  2  0  0  0  0
M  END
>  <CHROM.1>
11.49007327,11.64245729,6.77981548,0.24519556,-1.33818396,0.72371314

>  <Name>
ligand

>  <RI>
0

>  <Rbt.Current_Directory>
/home/itssahil/PROJECTS/Mol_Feturizer/New_Systems/rnas/4FEJ

>  <Rbt.Executable>
rbdock ($Id: //depot/dev/client3/rdock/2013.1/src/exe/rbdock.cxx#4 $)

>  <Rbt.Library>
libRbt.so (2013.1, Build901 2013/11/27)

>  <Rbt.Parameter_File>
/export/apps/rDock/src/rDock_2013.1_src/data/scripts/dock_solv.prm

>  <Rbt.Receptor>
prm/pocket_docking_3.prm

>  <SCORE>
-17.4605

>  <SCORE.INTER>
-17.4605

>  <SCORE.INTER.CONST>
1

>  <SCORE.INTER.POLAR>
0

>  <SCORE.INTER.ROT>
0

>  <SCORE.INTER.SOLV>
3.91282

>  <SCORE.INTER.VDW>
-16.5446

>  <SCORE.INTER.norm>
-1.74605

>  <SCORE.INTRA>
0

>  <SCORE.INTRA.DIHEDRAL>
0

>  <SCORE.INTRA.DIHEDRAL.0>
0

>  <SCORE.INTRA.POLAR>
0

>  <SCORE.INTRA.POLAR.0>
0

>  <SCORE.INTRA.REPUL>
0

>  <SCORE.INTRA.REPUL.0>
0

>  <SCORE.INTRA.SOLV>
0

>  <SCORE.INTRA.SOLV.lig_0>
-4.26631

>  <SCORE.INTRA.VDW>
0

>  <SCORE.INTRA.VDW.0>
0

>  <SCORE.INTRA.norm>
0

>  <SCORE.RESTR>
0

>  <SCORE.RESTR.CAVITY>
0

>  <SCORE.RESTR.norm>
0

>  <SCORE.SYSTEM>
0

>  <SCORE.SYSTEM.CONST>
0

>  <SCORE.SYSTEM.DIHEDRAL>
0

>  <SCORE.SYSTEM.SOLV>
0

>  <SCORE.SYSTEM.norm>
0

>  <SCORE.heavy>
10

>  <SCORE.norm>
-1.74605

>  <RMSD>
0.464

$$$$
ligand
 OpenBabel11021811493D
libRbt.so/2013.1/901 2013/11/27
 10 11  0  0  0  0  0  0  0  0999 V2000
   11.9371   11.1349    8.5227 N   0  0  0  0  0  0  0  0  0  0  0  0
   11.6797   12.4778    8.6352 C   0  0  0  0  0  0  0  0  0  0  0  0
   11.3231   13.2154    7.5714 N   0  0  0  0  0  0  0  0  0  0  0  0
   11.2490   12.5097    6.4239 C   0  0  0  0  0  0  0  0  0  0  0  0
   11.4949   11.1660    6.2469 C   0  0  0  0  0  0  0  0  0  0  0  0
   11.8681   10.3743    7.3512 C   0  0  0  0  0  0  0  0  0  0  0  0
   12.1263    9.1797    7.4047 O   0  0  0  0  0  0  0  0  0  0  0  0
   11.3049   10.8545    4.9324 N   0  0  0  0  0  0  0  0  0  0  0  0
   10.9483   12.0006    4.3153 C   0  0  0  0  0  0  0  0  0  0  0  0
   10.9073   13.0393    5.2097 N   0  0  0  0  0  0  0  0  0  0  0  0
  1  2  1  0  0  0  0
  1  6  1  0  0  0  0
  2  3  2  0  0  0  0
  3  4  1  0  0  0  0
  4  5  2  0  0  0  0
  4 10  1  0  0  0  0
  5  6  1  0  0  0  0
  5  8  1  0  0  0  0
  6  7  2  0  0  0  0
  8  9  1  0  0  0  0
  9 10  2  0  0  0  0
M  END
>  <CHROM.1>
11.49628358,11.55043929,6.67760287,0.30409721,-1.29569234,0.82265652

>  <Name>
ligand

>  <RI>
0

>  <Rbt.Current_Directory>
/home/itssahil/PROJECTS/Mol_Feturizer/New_Systems/rnas/4FEJ

>  <Rbt.Executable>
rbdock ($Id: //depot/dev/client3/rdock/2013.1/src/exe/rbdock.cxx#4 $)

>  <Rbt.Library>
libRbt.so (2013.1, Build901 2013/11/27)

>  <Rbt.Parameter_File>
/export/apps/rDock/src/rDock_2013.1_src/data/scripts/dock_solv.prm

>  <Rbt.Receptor>
prm/pocket_docking_8.prm

>  <SCORE>
-17.3479

>  <SCORE.INTER>
-17.3479

>  <SCORE.INTER.CONST>
1

>  <SCORE.INTER.POLAR>
0

>  <SCORE.INTER.ROT>
0

>  <SCORE.INTER.SOLV>
3.71073

>  <SCORE.INTER.VDW>
-16.4022

>  <SCORE.INTER.norm>
-1.73479

>  <SCORE.INTRA>
0

>  <SCORE.INTRA.DIHEDRAL>
0

>  <SCORE.INTRA.DIHEDRAL.0>
0

>  <SCORE.INTRA.POLAR>
0

>  <SCORE.INTRA.POLAR.0>
0

>  <SCORE.INTRA.REPUL>
0

>  <SCORE.INTRA.REPUL.0>
0

>  <SCORE.INTRA.SOLV>
0

>  <SCORE.INTRA.SOLV.lig_0>
-4.26631

>  <SCORE.INTRA.VDW>
0

>  <SCORE.INTRA.VDW.0>
0

>  <SCORE.INTRA.norm>
0

>  <SCORE.RESTR>
0

>  <SCORE.RESTR.CAVITY>
0

>  <SCORE.RESTR.norm>
0

>  <SCORE.SYSTEM>
0

>  <SCORE.SYSTEM.CONST>
0

>  <SCORE.SYSTEM.DIHEDRAL>
0

>  <SCORE.SYSTEM.SOLV>
0

>  <SCORE.SYSTEM.norm>
0

>  <SCORE.heavy>
10

>  <SCORE.norm>
-1.73479

>  <RMSD>
0.464

$$$$
ligand
 OpenBabel11021811493D
libRbt.so/2013.1/901 2013/11/27
 10 11  0  0  0  0  0  0  0  0999 V2000
   11.9262   11.1977    8.5479 N   0  0  0  0  0  0  0  0  0  0  0  0
   11.6683   12.5415    8.6485 C   0  0  0  0  0  0  0  0  0  0  0  0
   11.3290   13.2731    7.5749 N   0  0  0  0  0  0  0  0  0  0  0  0
   11.2724   12.5607    6.4306 C   0  0  0  0  0  0  0  0  0  0  0  0
   11.5198   11.2158    6.2653 C   0  0  0  0  0  0  0  0  0  0  0  0
   11.8750   10.4303    7.3799 C   0  0  0  0  0  0  0  0  0  0  0  0
   12.1313    9.2358    7.4445 O   0  0  0  0  0  0  0  0  0  0  0  0
   11.3502   10.8968    4.9498 N   0  0  0  0  0  0  0  0  0  0  0  0
   11.0044   12.0395    4.3205 C   0  0  0  0  0  0  0  0  0  0  0  0
   10.9503   13.0835    5.2081 N   0  0  0  0  0  0  0  0  0  0  0  0
  1  2  1  0  0  0  0
  1  6  1  0  0  0  0
  2  3  2  0  0  0  0
  3  4  1  0  0  0  0
  4  5  2  0  0  0  0
  4 10  1  0  0  0  0
  5  6  1  0  0  0  0
  5  8  1  0  0  0  0
  6  7  2  0  0  0  0
  8  9  1  0  0  0  0
  9 10  2  0  0  0  0
M  END
>  <CHROM.1>
11.51479202,11.60276673,6.69371467,0.34588471,-1.30679856,0.85706554

>  <Name>
ligand

>  <RI>
0

>  <Rbt.Current_Directory>
/home/itssahil/PROJECTS/Mol_Feturizer/New_Systems/rnas/4FEJ

>  <Rbt.Executable>
rbdock ($Id: //depot/dev/client3/rdock/2013.1/src/exe/rbdock.cxx#4 $)

>  <Rbt.Library>
libRbt.so (2013.1, Build901 2013/11/27)

>  <Rbt.Parameter_File>
/export/apps/rDock/src/rDock_2013.1_src/data/scripts/dock_solv.prm

>  <Rbt.Receptor>
prm/pocket_docking_4.prm

>  <SCORE>
-17.3636

>  <SCORE.INTER>
-17.3636

>  <SCORE.INTER.CONST>
1

>  <SCORE.INTER.POLAR>
0

>  <SCORE.INTER.ROT>
0

>  <SCORE.INTER.SOLV>
3.7433

>  <SCORE.INTER.VDW>
-16.4235

>  <SCORE.INTER.norm>
-1.73636

>  <SCORE.INTRA>
0

>  <SCORE.INTRA.DIHEDRAL>
0

>  <SCORE.INTRA.DIHEDRAL.0>
0

>  <SCORE.INTRA.POLAR>
0

>  <SCORE.INTRA.POLAR.0>
0

>  <SCORE.INTRA.REPUL>
0

>  <SCORE.INTRA.REPUL.0>
0

>  <SCORE.INTRA.SOLV>
0

>  <SCORE.INTRA.SOLV.lig_0>
-4.26631

>  <SCORE.INTRA.VDW>
0

>  <SCORE.INTRA.VDW.0>
0

>  <SCORE.INTRA.norm>
0

>  <SCORE.RESTR>
0

>  <SCORE.RESTR.CAVITY>
0

>  <SCORE.RESTR.norm>
0

>  <SCORE.SYSTEM>
0

>  <SCORE.SYSTEM.CONST>
0

>  <SCORE.SYSTEM.DIHEDRAL>
0

>  <SCORE.SYSTEM.SOLV>
0

>  <SCORE.SYSTEM.norm>
0

>  <SCORE.heavy>
10

>  <SCORE.norm>
-1.73636

>  <RMSD>
0.466

$$$$
ligand
 OpenBabel11021811493D
libRbt.so/2013.1/901 2013/11/27
 10 11  0  0  0  0  0  0  0  0999 V2000
   11.8917   11.2874    8.6415 N   0  0  0  0  0  0  0  0  0  0  0  0
   11.6885   12.6434    8.6914 C   0  0  0  0  0  0  0  0  0  0  0  0
   11.3812   13.3478    7.5903 N   0  0  0  0  0  0  0  0  0  0  0  0
   11.2975   12.5961    6.4730 C   0  0  0  0  0  0  0  0  0  0  0  0
   11.4902   11.2371    6.3585 C   0  0  0  0  0  0  0  0  0  0  0  0
   11.8112   10.4798    7.5027 C   0  0  0  0  0  0  0  0  0  0  0  0
   12.0185    9.2791    7.6124 O   0  0  0  0  0  0  0  0  0  0  0  0
   11.3100   10.8765    5.0553 N   0  0  0  0  0  0  0  0  0  0  0  0
   11.0121   12.0082    4.3828 C   0  0  0  0  0  0  0  0  0  0  0  0
   10.9990   13.0858    5.2309 N   0  0  0  0  0  0  0  0  0  0  0  0
  1  2  1  0  0  0  0
  1  6  1  0  0  0  0
  2  3  2  0  0  0  0
  3  4  1  0  0  0  0
  4  5  2  0  0  0  0
  4 10  1  0  0  0  0
  5  6  1  0  0  0  0
  5  8  1  0  0  0  0
  6  7  2  0  0  0  0
  8  9  1  0  0  0  0
  9 10  2  0  0  0  0
M  END
>  <CHROM.1>
11.50023324,11.63960150,6.77228428,0.23594321,-1.33735471,0.71331822

>  <Name>
ligand

>  <RI>
0

>  <Rbt.Current_Directory>
/home/itssahil/PROJECTS/Mol_Feturizer/New_Systems/rnas/4FEJ

>  <Rbt.Executable>
rbdock ($Id: //depot/dev/client3/rdock/2013.1/src/exe/rbdock.cxx#4 $)

>  <Rbt.Library>
libRbt.so (2013.1, Build901 2013/11/27)

>  <Rbt.Parameter_File>
/export/apps/rDock/src/rDock_2013.1_src/data/scripts/dock_solv.prm

>  <Rbt.Receptor>
prm/pocket_docking_4.prm

>  <SCORE>
-17.5139

>  <SCORE.INTER>
-17.5139

>  <SCORE.INTER.CONST>
1

>  <SCORE.INTER.POLAR>
0

>  <SCORE.INTER.ROT>
0

>  <SCORE.INTER.SOLV>
3.9082

>  <SCORE.INTER.VDW>
-16.5786

>  <SCORE.INTER.norm>
-1.75139

>  <SCORE.INTRA>
0

>  <SCORE.INTRA.DIHEDRAL>
0

>  <SCORE.INTRA.DIHEDRAL.0>
0

>  <SCORE.INTRA.POLAR>
0

>  <SCORE.INTRA.POLAR.0>
0

>  <SCORE.INTRA.REPUL>
0

>  <SCORE.INTRA.REPUL.0>
0

>  <SCORE.INTRA.SOLV>
0

>  <SCORE.INTRA.SOLV.lig_0>
-4.26631

>  <SCORE.INTRA.VDW>
0

>  <SCORE.INTRA.VDW.0>
0

>  <SCORE.INTRA.norm>
0

>  <SCORE.RESTR>
0

>  <SCORE.RESTR.CAVITY>
0

>  <SCORE.RESTR.norm>
0

>  <SCORE.SYSTEM>
0

>  <SCORE.SYSTEM.CONST>
0

>  <SCORE.SYSTEM.DIHEDRAL>
0

>  <SCORE.SYSTEM.SOLV>
0

>  <SCORE.SYSTEM.norm>
0

>  <SCORE.heavy>
10

>  <SCORE.norm>
-1.75139

>  <RMSD>
0.466

$$$$
ligand
 OpenBabel11021811493D
libRbt.so/2013.1/901 2013/11/27
 10 11  0  0  0  0  0  0  0  0999 V2000
   11.8871   11.3204    8.6576 N   0  0  0  0  0  0  0  0  0  0  0  0
   11.6616   12.6735    8.6825 C   0  0  0  0  0  0  0  0  0  0  0  0
   11.3458   13.3528    7.5681 N   0  0  0  0  0  0  0  0  0  0  0  0
   11.2776   12.5799    6.4644 C   0  0  0  0  0  0  0  0  0  0  0  0
   11.4930   11.2223    6.3749 C   0  0  0  0  0  0  0  0  0  0  0  0
   11.8231   10.4912    7.5334 C   0  0  0  0  0  0  0  0  0  0  0  0
   12.0499    9.2962    7.6653 O   0  0  0  0  0  0  0  0  0  0  0  0
   11.3224   10.8354    5.0780 N   0  0  0  0  0  0  0  0  0  0  0  0
   11.0078   11.9497    4.3844 C   0  0  0  0  0  0  0  0  0  0  0  0
   10.9746   13.0420    5.2129 N   0  0  0  0  0  0  0  0  0  0  0  0
  1  2  1  0  0  0  0
  1  6  1  0  0  0  0
  2  3  2  0  0  0  0
  3  4  1  0  0  0  0
  4  5  2  0  0  0  0
  4 10  1  0  0  0  0
  5  6  1  0  0  0  0
  5  8  1  0  0  0  0
  6  7  2  0  0  0  0
  8  9  1  0  0  0  0
  9 10  2  0  0  0  0
M  END
>  <CHROM.1>
11.49520482,11.63233993,6.78138001,0.29545270,-1.32831520,0.75310909

>  <Name>
ligand

>  <RI>
0

>  <Rbt.Current_Directory>
/home/itssahil/PROJECTS/Mol_Feturizer/New_Systems/rnas/4FEJ

>  <Rbt.Executable>
rbdock ($Id: //depot/dev/client3/rdock/2013.1/src/exe/rbdock.cxx#4 $)

>  <Rbt.Library>
libRbt.so (2013.1, Build901 2013/11/27)

>  <Rbt.Parameter_File>
/export/apps/rDock/src/rDock_2013.1_src/data/scripts/dock_solv.prm

>  <Rbt.Receptor>
prm/pocket_docking_3.prm

>  <SCORE>
-17.405

>  <SCORE.INTER>
-17.405

>  <SCORE.INTER.CONST>
1

>  <SCORE.INTER.POLAR>
0

>  <SCORE.INTER.ROT>
0

>  <SCORE.INTER.SOLV>
3.89544

>  <SCORE.INTER.VDW>
-16.5018

>  <SCORE.INTER.norm>
-1.7405

>  <SCORE.INTRA>
0

>  <SCORE.INTRA.DIHEDRAL>
0

>  <SCORE.INTRA.DIHEDRAL.0>
0

>  <SCORE.INTRA.POLAR>
0

>  <SCORE.INTRA.POLAR.0>
0

>  <SCORE.INTRA.REPUL>
0

>  <SCORE.INTRA.REPUL.0>
0

>  <SCORE.INTRA.SOLV>
0

>  <SCORE.INTRA.SOLV.lig_0>
-4.26631

>  <SCORE.INTRA.VDW>
0

>  <SCORE.INTRA.VDW.0>
0

>  <SCORE.INTRA.norm>
0

>  <SCORE.RESTR>
0

>  <SCORE.RESTR.CAVITY>
0

>  <SCORE.RESTR.norm>
0

>  <SCORE.SYSTEM>
0

>  <SCORE.SYSTEM.CONST>
0

>  <SCORE.SYSTEM.DIHEDRAL>
0

>  <SCORE.SYSTEM.SOLV>
0

>  <SCORE.SYSTEM.norm>
0

>  <SCORE.heavy>
10

>  <SCORE.norm>
-1.7405

>  <RMSD>
0.467

$$$$
ligand
 OpenBabel11021811493D
libRbt.so/2013.1/901 2013/11/27
 10 11  0  0  0  0  0  0  0  0999 V2000
   11.8928   11.2868    8.6371 N   0  0  0  0  0  0  0  0  0  0  0  0
   11.6918   12.6430    8.6892 C   0  0  0  0  0  0  0  0  0  0  0  0
   11.3827   13.3493    7.5898 N   0  0  0  0  0  0  0  0  0  0  0  0
   11.2950   12.5993    6.4718 C   0  0  0  0  0  0  0  0  0  0  0  0
   11.4854   11.2401    6.3550 C   0  0  0  0  0  0  0  0  0  0  0  0
   11.8081   10.4808    7.4974 C   0  0  0  0  0  0  0  0  0  0  0  0
   12.0139    9.2797    7.6050 O   0  0  0  0  0  0  0  0  0  0  0  0
   11.3013   10.8815    5.0518 N   0  0  0  0  0  0  0  0  0  0  0  0
   11.0034   12.0144    4.3816 C   0  0  0  0  0  0  0  0  0  0  0  0
   10.9942   13.0910    5.2311 N   0  0  0  0  0  0  0  0  0  0  0  0
  1  2  1  0  0  0  0
  1  6  1  0  0  0  0
  2  3  2  0  0  0  0
  3  4  1  0  0  0  0
  4  5  2  0  0  0  0
  4 10  1  0  0  0  0
  5  6  1  0  0  0  0
  5  8  1  0  0  0  0
  6  7  2  0  0  0  0
  8  9  1  0  0  0  0
  9 10  2  0  0  0  0
M  END
>  <CHROM.1>
11.49709932,11.64203791,6.76930013,0.22376062,-1.33641124,0.70276143

>  <Name>
ligand

>  <RI>
0

>  <Rbt.Current_Directory>
/home/itssahil/PROJECTS/Mol_Feturizer/New_Systems/rnas/4FEJ

>  <Rbt.Executable>
rbdock ($Id: //depot/dev/client3/rdock/2013.1/src/exe/rbdock.cxx#4 $)

>  <Rbt.Library>
libRbt.so (2013.1, Build901 2013/11/27)

>  <Rbt.Parameter_File>
/export/apps/rDock/src/rDock_2013.1_src/data/scripts/dock_solv.prm

>  <Rbt.Receptor>
prm/blind_docking_100.prm

>  <SCORE>
-17.5078

>  <SCORE.INTER>
-17.5078

>  <SCORE.INTER.CONST>
1

>  <SCORE.INTER.POLAR>
0

>  <SCORE.INTER.ROT>
0

>  <SCORE.INTER.SOLV>
3.90622

>  <SCORE.INTER.VDW>
-16.5739

>  <SCORE.INTER.norm>
-1.75078

>  <SCORE.INTRA>
0

>  <SCORE.INTRA.DIHEDRAL>
0

>  <SCORE.INTRA.DIHEDRAL.0>
0

>  <SCORE.INTRA.POLAR>
0

>  <SCORE.INTRA.POLAR.0>
0

>  <SCORE.INTRA.REPUL>
0

>  <SCORE.INTRA.REPUL.0>
0

>  <SCORE.INTRA.SOLV>
0

>  <SCORE.INTRA.SOLV.lig_0>
-4.26631

>  <SCORE.INTRA.VDW>
0

>  <SCORE.INTRA.VDW.0>
0

>  <SCORE.INTRA.norm>
0

>  <SCORE.RESTR>
0

>  <SCORE.RESTR.CAVITY>
0

>  <SCORE.RESTR.norm>
0

>  <SCORE.SYSTEM>
0

>  <SCORE.SYSTEM.CONST>
0

>  <SCORE.SYSTEM.DIHEDRAL>
0

>  <SCORE.SYSTEM.SOLV>
0

>  <SCORE.SYSTEM.norm>
0

>  <SCORE.heavy>
10

>  <SCORE.norm>
-1.75078

>  <RMSD>
0.468

$$$$
ligand
 OpenBabel11021811493D
libRbt.so/2013.1/901 2013/11/27
 10 11  0  0  0  0  0  0  0  0999 V2000
   11.8969   11.2927    8.6406 N   0  0  0  0  0  0  0  0  0  0  0  0
   11.7023   12.6500    8.6889 C   0  0  0  0  0  0  0  0  0  0  0  0
   11.3926   13.3540    7.5882 N   0  0  0  0  0  0  0  0  0  0  0  0
   11.2976   12.6007    6.4730 C   0  0  0  0  0  0  0  0  0  0  0  0
   11.4813   11.2402    6.3601 C   0  0  0  0  0  0  0  0  0  0  0  0
   11.8046   10.4833    7.5039 C   0  0  0  0  0  0  0  0  0  0  0  0
   12.0052    9.2816    7.6149 O   0  0  0  0  0  0  0  0  0  0  0  0
   11.2911   10.8781    5.0588 N   0  0  0  0  0  0  0  0  0  0  0  0
   10.9960   12.0102    4.3858 C   0  0  0  0  0  0  0  0  0  0  0  0
   10.9947   13.0896    5.2317 N   0  0  0  0  0  0  0  0  0  0  0  0
  1  2  1  0  0  0  0
  1  6  1  0  0  0  0
  2  3  2  0  0  0  0
  3  4  1  0  0  0  0
  4  5  2  0  0  0  0
  4 10  1  0  0  0  0
  5  6  1  0  0  0  0
  5  8  1  0  0  0  0
  6  7  2  0  0  0  0
  8  9  1  0  0  0  0
  9 10  2  0  0  0  0
M  END
>  <CHROM.1>
11.49632522,11.64351441,6.77300932,0.19902689,-1.33664622,0.67534710

>  <Name>
ligand

>  <RI>
0

>  <Rbt.Current_Directory>
/home/itssahil/PROJECTS/Mol_Feturizer/New_Systems/rnas/4FEJ

>  <Rbt.Executable>
rbdock ($Id: //depot/dev/client3/rdock/2013.1/src/exe/rbdock.cxx#4 $)

>  <Rbt.Library>
libRbt.so (2013.1, Build901 2013/11/27)

>  <Rbt.Parameter_File>
/export/apps/rDock/src/rDock_2013.1_src/data/scripts/dock_solv.prm

>  <Rbt.Receptor>
prm/pocket_docking_5.prm

>  <SCORE>
-17.4889

>  <SCORE.INTER>
-17.4889

>  <SCORE.INTER.CONST>
1

>  <SCORE.INTER.POLAR>
0

>  <SCORE.INTER.ROT>
0

>  <SCORE.INTER.SOLV>
3.91617

>  <SCORE.INTER.VDW>
-16.5647

>  <SCORE.INTER.norm>
-1.74889

>  <SCORE.INTRA>
0

>  <SCORE.INTRA.DIHEDRAL>
0

>  <SCORE.INTRA.DIHEDRAL.0>
0

>  <SCORE.INTRA.POLAR>
0

>  <SCORE.INTRA.POLAR.0>
0

>  <SCORE.INTRA.REPUL>
0

>  <SCORE.INTRA.REPUL.0>
0

>  <SCORE.INTRA.SOLV>
0

>  <SCORE.INTRA.SOLV.lig_0>
-4.26631

>  <SCORE.INTRA.VDW>
0

>  <SCORE.INTRA.VDW.0>
0

>  <SCORE.INTRA.norm>
0

>  <SCORE.RESTR>
0

>  <SCORE.RESTR.CAVITY>
0

>  <SCORE.RESTR.norm>
0

>  <SCORE.SYSTEM>
0

>  <SCORE.SYSTEM.CONST>
0

>  <SCORE.SYSTEM.DIHEDRAL>
0

>  <SCORE.SYSTEM.SOLV>
0

>  <SCORE.SYSTEM.norm>
0

>  <SCORE.heavy>
10

>  <SCORE.norm>
-1.74889

>  <RMSD>
0.470

$$$$
ligand
 OpenBabel11021811493D
libRbt.so/2013.1/901 2013/11/27
 10 11  0  0  0  0  0  0  0  0999 V2000
   11.8513   11.3163    8.6629 N   0  0  0  0  0  0  0  0  0  0  0  0
   11.6164   12.6678    8.6877 C   0  0  0  0  0  0  0  0  0  0  0  0
   11.3133   13.3479    7.5702 N   0  0  0  0  0  0  0  0  0  0  0  0
   11.2674   12.5774    6.4637 C   0  0  0  0  0  0  0  0  0  0  0  0
   11.4932   11.2216    6.3741 C   0  0  0  0  0  0  0  0  0  0  0  0
   11.8103   10.4897    7.5358 C   0  0  0  0  0  0  0  0  0  0  0  0
   12.0429    9.2959    7.6682 O   0  0  0  0  0  0  0  0  0  0  0  0
   11.3453   10.8369    5.0737 N   0  0  0  0  0  0  0  0  0  0  0  0
   11.0340   11.9508    4.3782 C   0  0  0  0  0  0  0  0  0  0  0  0
   10.9807   13.0408    5.2088 N   0  0  0  0  0  0  0  0  0  0  0  0
  1  2  1  0  0  0  0
  1  6  1  0  0  0  0
  2  3  2  0  0  0  0
  3  4  1  0  0  0  0
  4  5  2  0  0  0  0
  4 10  1  0  0  0  0
  5  6  1  0  0  0  0
  5  8  1  0  0  0  0
  6  7  2  0  0  0  0
  8  9  1  0  0  0  0
  9 10  2  0  0  0  0
M  END
>  <CHROM.1>
11.48640286,11.63054086,6.78162541,0.36151675,-1.33452028,0.81983340

>  <Name>
ligand

>  <RI>
0

>  <Rbt.Current_Directory>
/home/itssahil/PROJECTS/Mol_Feturizer/New_Systems/rnas/4FEJ

>  <Rbt.Executable>
rbdock ($Id: //depot/dev/client3/rdock/2013.1/src/exe/rbdock.cxx#4 $)

>  <Rbt.Library>
libRbt.so (2013.1, Build901 2013/11/27)

>  <Rbt.Parameter_File>
/export/apps/rDock/src/rDock_2013.1_src/data/scripts/dock_solv.prm

>  <Rbt.Receptor>
prm/blind_docking_60.prm

>  <SCORE>
-17.3906

>  <SCORE.INTER>
-17.3906

>  <SCORE.INTER.CONST>
1

>  <SCORE.INTER.POLAR>
0

>  <SCORE.INTER.ROT>
0

>  <SCORE.INTER.SOLV>
3.90686

>  <SCORE.INTER.VDW>
-16.496

>  <SCORE.INTER.norm>
-1.73906

>  <SCORE.INTRA>
0

>  <SCORE.INTRA.DIHEDRAL>
0

>  <SCORE.INTRA.DIHEDRAL.0>
0

>  <SCORE.INTRA.POLAR>
0

>  <SCORE.INTRA.POLAR.0>
0

>  <SCORE.INTRA.REPUL>
0

>  <SCORE.INTRA.REPUL.0>
0

>  <SCORE.INTRA.SOLV>
0

>  <SCORE.INTRA.SOLV.lig_0>
-4.26631

>  <SCORE.INTRA.VDW>
0

>  <SCORE.INTRA.VDW.0>
0

>  <SCORE.INTRA.norm>
0

>  <SCORE.RESTR>
0

>  <SCORE.RESTR.CAVITY>
0

>  <SCORE.RESTR.norm>
0

>  <SCORE.SYSTEM>
0

>  <SCORE.SYSTEM.CONST>
0

>  <SCORE.SYSTEM.DIHEDRAL>
0

>  <SCORE.SYSTEM.SOLV>
0

>  <SCORE.SYSTEM.norm>
0

>  <SCORE.heavy>
10

>  <SCORE.norm>
-1.73906

>  <RMSD>
0.471

$$$$
ligand
 OpenBabel11021811493D
libRbt.so/2013.1/901 2013/11/27
 10 11  0  0  0  0  0  0  0  0999 V2000
   11.8704   11.2785    8.6422 N   0  0  0  0  0  0  0  0  0  0  0  0
   11.6732   12.6352    8.6954 C   0  0  0  0  0  0  0  0  0  0  0  0
   11.3821   13.3456    7.5937 N   0  0  0  0  0  0  0  0  0  0  0  0
   11.3079   12.5990    6.4724 C   0  0  0  0  0  0  0  0  0  0  0  0
   11.4955   11.2395    6.3545 C   0  0  0  0  0  0  0  0  0  0  0  0
   11.7994   10.4760    7.4992 C   0  0  0  0  0  0  0  0  0  0  0  0
   11.9997    9.2739    7.6063 O   0  0  0  0  0  0  0  0  0  0  0  0
   11.3288   10.8852    5.0478 N   0  0  0  0  0  0  0  0  0  0  0  0
   11.0442   12.0210    4.3766 C   0  0  0  0  0  0  0  0  0  0  0  0
   11.0264   13.0952    5.2290 N   0  0  0  0  0  0  0  0  0  0  0  0
  1  2  1  0  0  0  0
  1  6  1  0  0  0  0
  2  3  2  0  0  0  0
  3  4  1  0  0  0  0
  4  5  2  0  0  0  0
  4 10  1  0  0  0  0
  5  6  1  0  0  0  0
  5  8  1  0  0  0  0
  6  7  2  0  0  0  0
  8  9  1  0  0  0  0
  9 10  2  0  0  0  0
M  END
>  <CHROM.1>
11.50256220,11.64028021,6.77005142,0.25438694,-1.34930938,0.73542141

>  <Name>
ligand

>  <RI>
0

>  <Rbt.Current_Directory>
/home/itssahil/PROJECTS/Mol_Feturizer/New_Systems/rnas/4FEJ

>  <Rbt.Executable>
rbdock ($Id: //depot/dev/client3/rdock/2013.1/src/exe/rbdock.cxx#4 $)

>  <Rbt.Library>
libRbt.so (2013.1, Build901 2013/11/27)

>  <Rbt.Parameter_File>
/export/apps/rDock/src/rDock_2013.1_src/data/scripts/dock_solv.prm

>  <Rbt.Receptor>
prm/blind_docking_40.prm

>  <SCORE>
-17.4646

>  <SCORE.INTER>
-17.4646

>  <SCORE.INTER.CONST>
1

>  <SCORE.INTER.POLAR>
0

>  <SCORE.INTER.ROT>
0

>  <SCORE.INTER.SOLV>
3.9323

>  <SCORE.INTER.VDW>
-16.5538

>  <SCORE.INTER.norm>
-1.74646

>  <SCORE.INTRA>
0

>  <SCORE.INTRA.DIHEDRAL>
0

>  <SCORE.INTRA.DIHEDRAL.0>
0

>  <SCORE.INTRA.POLAR>
0

>  <SCORE.INTRA.POLAR.0>
0

>  <SCORE.INTRA.REPUL>
0

>  <SCORE.INTRA.REPUL.0>
0

>  <SCORE.INTRA.SOLV>
0

>  <SCORE.INTRA.SOLV.lig_0>
-4.26631

>  <SCORE.INTRA.VDW>
0

>  <SCORE.INTRA.VDW.0>
0

>  <SCORE.INTRA.norm>
0

>  <SCORE.RESTR>
0

>  <SCORE.RESTR.CAVITY>
0

>  <SCORE.RESTR.norm>
0

>  <SCORE.SYSTEM>
0

>  <SCORE.SYSTEM.CONST>
0

>  <SCORE.SYSTEM.DIHEDRAL>
0

>  <SCORE.SYSTEM.SOLV>
0

>  <SCORE.SYSTEM.norm>
0

>  <SCORE.heavy>
10

>  <SCORE.norm>
-1.74646

>  <RMSD>
0.472

$$$$
ligand
 OpenBabel11021811493D
libRbt.so/2013.1/901 2013/11/27
 10 11  0  0  0  0  0  0  0  0999 V2000
   11.8477   11.2937    8.6539 N   0  0  0  0  0  0  0  0  0  0  0  0
   11.6387   12.6487    8.7055 C   0  0  0  0  0  0  0  0  0  0  0  0
   11.3472   13.3562    7.6021 N   0  0  0  0  0  0  0  0  0  0  0  0
   11.2852   12.6086    6.4807 C   0  0  0  0  0  0  0  0  0  0  0  0
   11.4850   11.2508    6.3642 C   0  0  0  0  0  0  0  0  0  0  0  0
   11.7895   10.4902    7.5107 C   0  0  0  0  0  0  0  0  0  0  0  0
   11.9994    9.2899    7.6193 O   0  0  0  0  0  0  0  0  0  0  0  0
   11.3281   10.8946    5.0568 N   0  0  0  0  0  0  0  0  0  0  0  0
   11.0373   12.0278    4.3837 C   0  0  0  0  0  0  0  0  0  0  0  0
   11.0059   13.1020    5.2356 N   0  0  0  0  0  0  0  0  0  0  0  0
  1  2  1  0  0  0  0
  1  6  1  0  0  0  0
  2  3  2  0  0  0  0
  3  4  1  0  0  0  0
  4  5  2  0  0  0  0
  4 10  1  0  0  0  0
  5  6  1  0  0  0  0
  5  8  1  0  0  0  0
  6  7  2  0  0  0  0
  8  9  1  0  0  0  0
  9 10  2  0  0  0  0
M  END
>  <CHROM.1>
11.48650739,11.65170096,6.77966720,0.29856249,-1.34722710,0.77817853

>  <Name>
ligand

>  <RI>
0

>  <Rbt.Current_Directory>
/home/itssahil/PROJECTS/Mol_Feturizer/New_Systems/rnas/4FEJ

>  <Rbt.Executable>
rbdock ($Id: //depot/dev/client3/rdock/2013.1/src/exe/rbdock.cxx#4 $)

>  <Rbt.Library>
libRbt.so (2013.1, Build901 2013/11/27)

>  <Rbt.Parameter_File>
/export/apps/rDock/src/rDock_2013.1_src/data/scripts/dock_solv.prm

>  <Rbt.Receptor>
prm/blind_docking_80.prm

>  <SCORE>
-17.3924

>  <SCORE.INTER>
-17.3924

>  <SCORE.INTER.CONST>
1

>  <SCORE.INTER.POLAR>
0

>  <SCORE.INTER.ROT>
0

>  <SCORE.INTER.SOLV>
3.92787

>  <SCORE.INTER.VDW>
-16.5042

>  <SCORE.INTER.norm>
-1.73924

>  <SCORE.INTRA>
0

>  <SCORE.INTRA.DIHEDRAL>
0

>  <SCORE.INTRA.DIHEDRAL.0>
0

>  <SCORE.INTRA.POLAR>
0

>  <SCORE.INTRA.POLAR.0>
0

>  <SCORE.INTRA.REPUL>
0

>  <SCORE.INTRA.REPUL.0>
0

>  <SCORE.INTRA.SOLV>
0

>  <SCORE.INTRA.SOLV.lig_0>
-4.26631

>  <SCORE.INTRA.VDW>
0

>  <SCORE.INTRA.VDW.0>
0

>  <SCORE.INTRA.norm>
0

>  <SCORE.RESTR>
0

>  <SCORE.RESTR.CAVITY>
0

>  <SCORE.RESTR.norm>
0

>  <SCORE.SYSTEM>
0

>  <SCORE.SYSTEM.CONST>
0

>  <SCORE.SYSTEM.DIHEDRAL>
0

>  <SCORE.SYSTEM.SOLV>
0

>  <SCORE.SYSTEM.norm>
0

>  <SCORE.heavy>
10

>  <SCORE.norm>
-1.73924

>  <RMSD>
0.473

$$$$
ligand
 OpenBabel11021811493D
libRbt.so/2013.1/901 2013/11/27
 10 11  0  0  0  0  0  0  0  0999 V2000
   11.8920   11.3078    8.6613 N   0  0  0  0  0  0  0  0  0  0  0  0
   11.7120   12.6676    8.6931 C   0  0  0  0  0  0  0  0  0  0  0  0
   11.4129   13.3619    7.5833 N   0  0  0  0  0  0  0  0  0  0  0  0
   11.3129   12.5965    6.4768 C   0  0  0  0  0  0  0  0  0  0  0  0
   11.4823   11.2329    6.3805 C   0  0  0  0  0  0  0  0  0  0  0  0
   11.7942   10.4861    7.5340 C   0  0  0  0  0  0  0  0  0  0  0  0
   11.9816    9.2837    7.6596 O   0  0  0  0  0  0  0  0  0  0  0  0
   11.2917   10.8576    5.0829 N   0  0  0  0  0  0  0  0  0  0  0  0
   11.0108   11.9847    4.3958 C   0  0  0  0  0  0  0  0  0  0  0  0
   11.0187   13.0740    5.2290 N   0  0  0  0  0  0  0  0  0  0  0  0
  1  2  1  0  0  0  0
  1  6  1  0  0  0  0
  2  3  2  0  0  0  0
  3  4  1  0  0  0  0
  4  5  2  0  0  0  0
  4 10  1  0  0  0  0
  5  6  1  0  0  0  0
  5  8  1  0  0  0  0
  6  7  2  0  0  0  0
  8  9  1  0  0  0  0
  9 10  2  0  0  0  0
M  END
>  <CHROM.1>
11.50045645,11.64086317,6.78861589,0.16916643,-1.34544349,0.63451729

>  <Name>
ligand

>  <RI>
0

>  <Rbt.Current_Directory>
/home/itssahil/PROJECTS/Mol_Feturizer/New_Systems/rnas/4FEJ

>  <Rbt.Executable>
rbdock ($Id: //depot/dev/client3/rdock/2013.1/src/exe/rbdock.cxx#4 $)

>  <Rbt.Library>
libRbt.so (2013.1, Build901 2013/11/27)

>  <Rbt.Parameter_File>
/export/apps/rDock/src/rDock_2013.1_src/data/scripts/dock_solv.prm

>  <Rbt.Receptor>
prm/blind_docking_100.prm

>  <SCORE>
-17.4732

>  <SCORE.INTER>
-17.4732

>  <SCORE.INTER.CONST>
1

>  <SCORE.INTER.POLAR>
0

>  <SCORE.INTER.ROT>
0

>  <SCORE.INTER.SOLV>
3.9631

>  <SCORE.INTER.VDW>
-16.5698

>  <SCORE.INTER.norm>
-1.74732

>  <SCORE.INTRA>
0

>  <SCORE.INTRA.DIHEDRAL>
0

>  <SCORE.INTRA.DIHEDRAL.0>
0

>  <SCORE.INTRA.POLAR>
0

>  <SCORE.INTRA.POLAR.0>
0

>  <SCORE.INTRA.REPUL>
0

>  <SCORE.INTRA.REPUL.0>
0

>  <SCORE.INTRA.SOLV>
0

>  <SCORE.INTRA.SOLV.lig_0>
-4.26631

>  <SCORE.INTRA.VDW>
0

>  <SCORE.INTRA.VDW.0>
0

>  <SCORE.INTRA.norm>
0

>  <SCORE.RESTR>
0

>  <SCORE.RESTR.CAVITY>
0

>  <SCORE.RESTR.norm>
0

>  <SCORE.SYSTEM>
0

>  <SCORE.SYSTEM.CONST>
0

>  <SCORE.SYSTEM.DIHEDRAL>
0

>  <SCORE.SYSTEM.SOLV>
0

>  <SCORE.SYSTEM.norm>
0

>  <SCORE.heavy>
10

>  <SCORE.norm>
-1.74732

>  <RMSD>
0.474

$$$$
ligand
 OpenBabel11021811493D
libRbt.so/2013.1/901 2013/11/27
 10 11  0  0  0  0  0  0  0  0999 V2000
   11.8801   11.2834    8.6445 N   0  0  0  0  0  0  0  0  0  0  0  0
   11.6970   12.6422    8.6958 C   0  0  0  0  0  0  0  0  0  0  0  0
   11.4004   13.3522    7.5953 N   0  0  0  0  0  0  0  0  0  0  0  0
   11.3060   12.6032    6.4772 C   0  0  0  0  0  0  0  0  0  0  0  0
   11.4787   11.2415    6.3613 C   0  0  0  0  0  0  0  0  0  0  0  0
   11.7881   10.4783    7.5047 C   0  0  0  0  0  0  0  0  0  0  0  0
   11.9776    9.2746    7.6132 O   0  0  0  0  0  0  0  0  0  0  0  0
   11.2936   10.8851    5.0576 N   0  0  0  0  0  0  0  0  0  0  0  0
   11.0127   12.0217    4.3863 C   0  0  0  0  0  0  0  0  0  0  0  0
   11.0153   13.0985    5.2356 N   0  0  0  0  0  0  0  0  0  0  0  0
  1  2  1  0  0  0  0
  1  6  1  0  0  0  0
  2  3  2  0  0  0  0
  3  4  1  0  0  0  0
  4  5  2  0  0  0  0
  4 10  1  0  0  0  0
  5  6  1  0  0  0  0
  5  8  1  0  0  0  0
  6  7  2  0  0  0  0
  8  9  1  0  0  0  0
  9 10  2  0  0  0  0
M  END
>  <CHROM.1>
11.49453863,11.64339463,6.77551911,0.18656649,-1.34700925,0.66631594

>  <Name>
ligand

>  <RI>
0

>  <Rbt.Current_Directory>
/home/itssahil/PROJECTS/Mol_Feturizer/New_Systems/rnas/4FEJ

>  <Rbt.Executable>
rbdock ($Id: //depot/dev/client3/rdock/2013.1/src/exe/rbdock.cxx#4 $)

>  <Rbt.Library>
libRbt.so (2013.1, Build901 2013/11/27)

>  <Rbt.Parameter_File>
/export/apps/rDock/src/rDock_2013.1_src/data/scripts/dock_solv.prm

>  <Rbt.Receptor>
prm/blind_docking_60.prm

>  <SCORE>
-17.4831

>  <SCORE.INTER>
-17.4831

>  <SCORE.INTER.CONST>
1

>  <SCORE.INTER.POLAR>
0

>  <SCORE.INTER.ROT>
0

>  <SCORE.INTER.SOLV>
3.94542

>  <SCORE.INTER.VDW>
-16.5706

>  <SCORE.INTER.norm>
-1.74831

>  <SCORE.INTRA>
0

>  <SCORE.INTRA.DIHEDRAL>
0

>  <SCORE.INTRA.DIHEDRAL.0>
0

>  <SCORE.INTRA.POLAR>
0

>  <SCORE.INTRA.POLAR.0>
0

>  <SCORE.INTRA.REPUL>
0

>  <SCORE.INTRA.REPUL.0>
0

>  <SCORE.INTRA.SOLV>
0

>  <SCORE.INTRA.SOLV.lig_0>
-4.26631

>  <SCORE.INTRA.VDW>
0

>  <SCORE.INTRA.VDW.0>
0

>  <SCORE.INTRA.norm>
0

>  <SCORE.RESTR>
0

>  <SCORE.RESTR.CAVITY>
0

>  <SCORE.RESTR.norm>
0

>  <SCORE.SYSTEM>
0

>  <SCORE.SYSTEM.CONST>
0

>  <SCORE.SYSTEM.DIHEDRAL>
0

>  <SCORE.SYSTEM.SOLV>
0

>  <SCORE.SYSTEM.norm>
0

>  <SCORE.heavy>
10

>  <SCORE.norm>
-1.74831

>  <RMSD>
0.474

$$$$
ligand
 OpenBabel11021811493D
libRbt.so/2013.1/901 2013/11/27
 10 11  0  0  0  0  0  0  0  0999 V2000
   11.8881   11.3251    8.6586 N   0  0  0  0  0  0  0  0  0  0  0  0
   11.6777   12.6807    8.6822 C   0  0  0  0  0  0  0  0  0  0  0  0
   11.3719   13.3628    7.5667 N   0  0  0  0  0  0  0  0  0  0  0  0
   11.2974   12.5900    6.4633 C   0  0  0  0  0  0  0  0  0  0  0  0
   11.4978   11.2301    6.3751 C   0  0  0  0  0  0  0  0  0  0  0  0
   11.8173   10.4960    7.5347 C   0  0  0  0  0  0  0  0  0  0  0  0
   12.0304    9.2987    7.6678 O   0  0  0  0  0  0  0  0  0  0  0  0
   11.3257   10.8444    5.0780 N   0  0  0  0  0  0  0  0  0  0  0  0
   11.0251   11.9617    4.3832 C   0  0  0  0  0  0  0  0  0  0  0  0
   11.0024   13.0548    5.2109 N   0  0  0  0  0  0  0  0  0  0  0  0
  1  2  1  0  0  0  0
  1  6  1  0  0  0  0
  2  3  2  0  0  0  0
  3  4  1  0  0  0  0
  4  5  2  0  0  0  0
  4 10  1  0  0  0  0
  5  6  1  0  0  0  0
  5  8  1  0  0  0  0
  6  7  2  0  0  0  0
  8  9  1  0  0  0  0
  9 10  2  0  0  0  0
M  END
>  <CHROM.1>
11.50377859,11.64033942,6.78133291,0.26655920,-1.33742822,0.72444842

>  <Name>
ligand

>  <RI>
0

>  <Rbt.Current_Directory>
/home/itssahil/PROJECTS/Mol_Feturizer/New_Systems/rnas/4FEJ

>  <Rbt.Executable>
rbdock ($Id: //depot/dev/client3/rdock/2013.1/src/exe/rbdock.cxx#4 $)

>  <Rbt.Library>
libRbt.so (2013.1, Build901 2013/11/27)

>  <Rbt.Parameter_File>
/export/apps/rDock/src/rDock_2013.1_src/data/scripts/dock_solv.prm

>  <Rbt.Receptor>
prm/pocket_docking_4.prm

>  <SCORE>
-17.4396

>  <SCORE.INTER>
-17.4396

>  <SCORE.INTER.CONST>
1

>  <SCORE.INTER.POLAR>
0

>  <SCORE.INTER.ROT>
0

>  <SCORE.INTER.SOLV>
3.92349

>  <SCORE.INTER.VDW>
-16.5342

>  <SCORE.INTER.norm>
-1.74396

>  <SCORE.INTRA>
0

>  <SCORE.INTRA.DIHEDRAL>
0

>  <SCORE.INTRA.DIHEDRAL.0>
0

>  <SCORE.INTRA.POLAR>
0

>  <SCORE.INTRA.POLAR.0>
0

>  <SCORE.INTRA.REPUL>
0

>  <SCORE.INTRA.REPUL.0>
0

>  <SCORE.INTRA.SOLV>
0

>  <SCORE.INTRA.SOLV.lig_0>
-4.26631

>  <SCORE.INTRA.VDW>
0

>  <SCORE.INTRA.VDW.0>
0

>  <SCORE.INTRA.norm>
0

>  <SCORE.RESTR>
0

>  <SCORE.RESTR.CAVITY>
0

>  <SCORE.RESTR.norm>
0

>  <SCORE.SYSTEM>
0

>  <SCORE.SYSTEM.CONST>
0

>  <SCORE.SYSTEM.DIHEDRAL>
0

>  <SCORE.SYSTEM.SOLV>
0

>  <SCORE.SYSTEM.norm>
0

>  <SCORE.heavy>
10

>  <SCORE.norm>
-1.74396

>  <RMSD>
0.474

$$$$
ligand
 OpenBabel11021811493D
libRbt.so/2013.1/901 2013/11/27
 10 11  0  0  0  0  0  0  0  0999 V2000
   11.8725   11.2860    8.6424 N   0  0  0  0  0  0  0  0  0  0  0  0
   11.6809   12.6437    8.6901 C   0  0  0  0  0  0  0  0  0  0  0  0
   11.3808   13.3491    7.5876 N   0  0  0  0  0  0  0  0  0  0  0  0
   11.2918   12.5966    6.4714 C   0  0  0  0  0  0  0  0  0  0  0  0
   11.4730   11.2358    6.3590 C   0  0  0  0  0  0  0  0  0  0  0  0
   11.7863   10.4775    7.5046 C   0  0  0  0  0  0  0  0  0  0  0  0
   11.9832    9.2752    7.6163 O   0  0  0  0  0  0  0  0  0  0  0  0
   11.2911   10.8749    5.0561 N   0  0  0  0  0  0  0  0  0  0  0  0
   11.0036   12.0081    4.3817 C   0  0  0  0  0  0  0  0  0  0  0  0
   10.9989   13.0870    5.2282 N   0  0  0  0  0  0  0  0  0  0  0  0
  1  2  1  0  0  0  0
  1  6  1  0  0  0  0
  2  3  2  0  0  0  0
  3  4  1  0  0  0  0
  4  5  2  0  0  0  0
  4 10  1  0  0  0  0
  5  6  1  0  0  0  0
  5  8  1  0  0  0  0
  6  7  2  0  0  0  0
  8  9  1  0  0  0  0
  9 10  2  0  0  0  0
M  END
>  <CHROM.1>
11.48604831,11.63882881,6.77221424,0.21017631,-1.34369884,0.68678537

>  <Name>
ligand

>  <RI>
0

>  <Rbt.Current_Directory>
/home/itssahil/PROJECTS/Mol_Feturizer/New_Systems/rnas/4FEJ

>  <Rbt.Executable>
rbdock ($Id: //depot/dev/client3/rdock/2013.1/src/exe/rbdock.cxx#4 $)

>  <Rbt.Library>
libRbt.so (2013.1, Build901 2013/11/27)

>  <Rbt.Parameter_File>
/export/apps/rDock/src/rDock_2013.1_src/data/scripts/dock_solv.prm

>  <Rbt.Receptor>
prm/pocket_docking_3.prm

>  <SCORE>
-17.4755

>  <SCORE.INTER>
-17.4755

>  <SCORE.INTER.CONST>
1

>  <SCORE.INTER.POLAR>
0

>  <SCORE.INTER.ROT>
0

>  <SCORE.INTER.SOLV>
3.93742

>  <SCORE.INTER.VDW>
-16.5628

>  <SCORE.INTER.norm>
-1.74755

>  <SCORE.INTRA>
0

>  <SCORE.INTRA.DIHEDRAL>
0

>  <SCORE.INTRA.DIHEDRAL.0>
0

>  <SCORE.INTRA.POLAR>
0

>  <SCORE.INTRA.POLAR.0>
0

>  <SCORE.INTRA.REPUL>
0

>  <SCORE.INTRA.REPUL.0>
0

>  <SCORE.INTRA.SOLV>
0

>  <SCORE.INTRA.SOLV.lig_0>
-4.26631

>  <SCORE.INTRA.VDW>
0

>  <SCORE.INTRA.VDW.0>
0

>  <SCORE.INTRA.norm>
0

>  <SCORE.RESTR>
0

>  <SCORE.RESTR.CAVITY>
0

>  <SCORE.RESTR.norm>
0

>  <SCORE.SYSTEM>
0

>  <SCORE.SYSTEM.CONST>
0

>  <SCORE.SYSTEM.DIHEDRAL>
0

>  <SCORE.SYSTEM.SOLV>
0

>  <SCORE.SYSTEM.norm>
0

>  <SCORE.heavy>
10

>  <SCORE.norm>
-1.74755

>  <RMSD>
0.475

$$$$
ligand
 OpenBabel11021811493D
libRbt.so/2013.1/901 2013/11/27
 10 11  0  0  0  0  0  0  0  0999 V2000
   11.8903   11.3032    8.6373 N   0  0  0  0  0  0  0  0  0  0  0  0
   11.6959   12.6604    8.6891 C   0  0  0  0  0  0  0  0  0  0  0  0
   11.3918   13.3680    7.5891 N   0  0  0  0  0  0  0  0  0  0  0  0
   11.3022   12.6183    6.4710 C   0  0  0  0  0  0  0  0  0  0  0  0
   11.4861   11.2582    6.3547 C   0  0  0  0  0  0  0  0  0  0  0  0
   11.8034   10.4975    7.4976 C   0  0  0  0  0  0  0  0  0  0  0  0
   12.0032    9.2954    7.6056 O   0  0  0  0  0  0  0  0  0  0  0  0
   11.3022   10.9004    5.0512 N   0  0  0  0  0  0  0  0  0  0  0  0
   11.0109   12.0347    4.3804 C   0  0  0  0  0  0  0  0  0  0  0  0
   11.0056   13.1114    5.2299 N   0  0  0  0  0  0  0  0  0  0  0  0
  1  2  1  0  0  0  0
  1  6  1  0  0  0  0
  2  3  2  0  0  0  0
  3  4  1  0  0  0  0
  4  5  2  0  0  0  0
  4 10  1  0  0  0  0
  5  6  1  0  0  0  0
  5  8  1  0  0  0  0
  6  7  2  0  0  0  0
  8  9  1  0  0  0  0
  9 10  2  0  0  0  0
M  END
>  <CHROM.1>
11.49914055,11.66015242,6.76894071,0.21175695,-1.34068320,0.69099175

>  <Name>
ligand

>  <RI>
0

>  <Rbt.Current_Directory>
/home/itssahil/PROJECTS/Mol_Feturizer/New_Systems/rnas/4FEJ

>  <Rbt.Executable>
rbdock ($Id: //depot/dev/client3/rdock/2013.1/src/exe/rbdock.cxx#4 $)

>  <Rbt.Library>
libRbt.so (2013.1, Build901 2013/11/27)

>  <Rbt.Parameter_File>
/export/apps/rDock/src/rDock_2013.1_src/data/scripts/dock_solv.prm

>  <Rbt.Receptor>
prm/pocket_docking_8.prm

>  <SCORE>
-17.4674

>  <SCORE.INTER>
-17.4674

>  <SCORE.INTER.CONST>
1

>  <SCORE.INTER.POLAR>
0

>  <SCORE.INTER.ROT>
0

>  <SCORE.INTER.SOLV>
3.91675

>  <SCORE.INTER.VDW>
-16.5505

>  <SCORE.INTER.norm>
-1.74674

>  <SCORE.INTRA>
0

>  <SCORE.INTRA.DIHEDRAL>
0

>  <SCORE.INTRA.DIHEDRAL.0>
0

>  <SCORE.INTRA.POLAR>
0

>  <SCORE.INTRA.POLAR.0>
0

>  <SCORE.INTRA.REPUL>
0

>  <SCORE.INTRA.REPUL.0>
0

>  <SCORE.INTRA.SOLV>
0

>  <SCORE.INTRA.SOLV.lig_0>
-4.26631

>  <SCORE.INTRA.VDW>
0

>  <SCORE.INTRA.VDW.0>
0

>  <SCORE.INTRA.norm>
0

>  <SCORE.RESTR>
0

>  <SCORE.RESTR.CAVITY>
0

>  <SCORE.RESTR.norm>
0

>  <SCORE.SYSTEM>
0

>  <SCORE.SYSTEM.CONST>
0

>  <SCORE.SYSTEM.DIHEDRAL>
0

>  <SCORE.SYSTEM.SOLV>
0

>  <SCORE.SYSTEM.norm>
0

>  <SCORE.heavy>
10

>  <SCORE.norm>
-1.74674

>  <RMSD>
0.478

$$$$
ligand
 OpenBabel11021811493D
libRbt.so/2013.1/901 2013/11/27
 10 11  0  0  0  0  0  0  0  0999 V2000
   11.9034   11.3367    8.6199 N   0  0  0  0  0  0  0  0  0  0  0  0
   11.6001   12.6747    8.6291 C   0  0  0  0  0  0  0  0  0  0  0  0
   11.2354   13.3193    7.5090 N   0  0  0  0  0  0  0  0  0  0  0  0
   11.2021   12.5286    6.4163 C   0  0  0  0  0  0  0  0  0  0  0  0
   11.4949   11.1847    6.3426 C   0  0  0  0  0  0  0  0  0  0  0  0
   11.8773   10.4898    7.5073 C   0  0  0  0  0  0  0  0  0  0  0  0
   12.1740    9.3119    7.6528 O   0  0  0  0  0  0  0  0  0  0  0  0
   11.3353   10.7708    5.0526 N   0  0  0  0  0  0  0  0  0  0  0  0
   10.9504   11.8554    4.3476 C   0  0  0  0  0  0  0  0  0  0  0  0
   10.8616   12.9553    5.1619 N   0  0  0  0  0  0  0  0  0  0  0  0
  1  2  1  0  0  0  0
  1  6  1  0  0  0  0
  2  3  2  0  0  0  0
  3  4  1  0  0  0  0
  4  5  2  0  0  0  0
  4 10  1  0  0  0  0
  5  6  1  0  0  0  0
  5  8  1  0  0  0  0
  6  7  2  0  0  0  0
  8  9  1  0  0  0  0
  9 10  2  0  0  0  0
M  END
>  <CHROM.1>
11.47706980,11.59969207,6.74362459,0.42146422,-1.27988108,0.86123981

>  <Name>
ligand

>  <RI>
0

>  <Rbt.Current_Directory>
/home/itssahil/PROJECTS/Mol_Feturizer/New_Systems/rnas/4FEJ

>  <Rbt.Executable>
rbdock ($Id: //depot/dev/client3/rdock/2013.1/src/exe/rbdock.cxx#4 $)

>  <Rbt.Library>
libRbt.so (2013.1, Build901 2013/11/27)

>  <Rbt.Parameter_File>
/export/apps/rDock/src/rDock_2013.1_src/data/scripts/dock_solv.prm

>  <Rbt.Receptor>
prm/pocket_docking_8.prm

>  <SCORE>
-17.4793

>  <SCORE.INTER>
-17.4793

>  <SCORE.INTER.CONST>
1

>  <SCORE.INTER.POLAR>
0

>  <SCORE.INTER.ROT>
0

>  <SCORE.INTER.SOLV>
3.74285

>  <SCORE.INTER.VDW>
-16.5005

>  <SCORE.INTER.norm>
-1.74793

>  <SCORE.INTRA>
0

>  <SCORE.INTRA.DIHEDRAL>
0

>  <SCORE.INTRA.DIHEDRAL.0>
0

>  <SCORE.INTRA.POLAR>
0

>  <SCORE.INTRA.POLAR.0>
0

>  <SCORE.INTRA.REPUL>
0

>  <SCORE.INTRA.REPUL.0>
0

>  <SCORE.INTRA.SOLV>
0

>  <SCORE.INTRA.SOLV.lig_0>
-4.26631

>  <SCORE.INTRA.VDW>
0

>  <SCORE.INTRA.VDW.0>
0

>  <SCORE.INTRA.norm>
0

>  <SCORE.RESTR>
0

>  <SCORE.RESTR.CAVITY>
0

>  <SCORE.RESTR.norm>
0

>  <SCORE.SYSTEM>
0

>  <SCORE.SYSTEM.CONST>
0

>  <SCORE.SYSTEM.DIHEDRAL>
0

>  <SCORE.SYSTEM.SOLV>
0

>  <SCORE.SYSTEM.norm>
0

>  <SCORE.heavy>
10

>  <SCORE.norm>
-1.74793

>  <RMSD>
0.478

$$$$
ligand
 OpenBabel11021811493D
libRbt.so/2013.1/901 2013/11/27
 10 11  0  0  0  0  0  0  0  0999 V2000
   11.8758   11.3090    8.6623 N   0  0  0  0  0  0  0  0  0  0  0  0
   11.6980   12.6691    8.6947 C   0  0  0  0  0  0  0  0  0  0  0  0
   11.4047   13.3650    7.5845 N   0  0  0  0  0  0  0  0  0  0  0  0
   11.3078   12.6009    6.4768 C   0  0  0  0  0  0  0  0  0  0  0  0
   11.4751   11.2371    6.3797 C   0  0  0  0  0  0  0  0  0  0  0  0
   11.7811   10.4886    7.5338 C   0  0  0  0  0  0  0  0  0  0  0  0
   11.9658    9.2858    7.6590 O   0  0  0  0  0  0  0  0  0  0  0  0
   11.2892   10.8634    5.0810 N   0  0  0  0  0  0  0  0  0  0  0  0
   11.0130   11.9918    4.3939 C   0  0  0  0  0  0  0  0  0  0  0  0
   11.0195   13.0801    5.2283 N   0  0  0  0  0  0  0  0  0  0  0  0
  1  2  1  0  0  0  0
  1  6  1  0  0  0  0
  2  3  2  0  0  0  0
  3  4  1  0  0  0  0
  4  5  2  0  0  0  0
  4 10  1  0  0  0  0
  5  6  1  0  0  0  0
  5  8  1  0  0  0  0
  6  7  2  0  0  0  0
  8  9  1  0  0  0  0
  9 10  2  0  0  0  0
M  END
>  <CHROM.1>
11.49238690,11.64463871,6.78838152,0.17365001,-1.34974561,0.63988669

>  <Name>
ligand

>  <RI>
0

>  <Rbt.Current_Directory>
/home/itssahil/PROJECTS/Mol_Feturizer/New_Systems/rnas/4FEJ

>  <Rbt.Executable>
rbdock ($Id: //depot/dev/client3/rdock/2013.1/src/exe/rbdock.cxx#4 $)

>  <Rbt.Library>
libRbt.so (2013.1, Build901 2013/11/27)

>  <Rbt.Parameter_File>
/export/apps/rDock/src/rDock_2013.1_src/data/scripts/dock_solv.prm

>  <Rbt.Receptor>
prm/pocket_docking_4.prm

>  <SCORE>
-17.4579

>  <SCORE.INTER>
-17.4579

>  <SCORE.INTER.CONST>
1

>  <SCORE.INTER.POLAR>
0

>  <SCORE.INTER.ROT>
0

>  <SCORE.INTER.SOLV>
3.97645

>  <SCORE.INTER.VDW>
-16.5641

>  <SCORE.INTER.norm>
-1.74579

>  <SCORE.INTRA>
0

>  <SCORE.INTRA.DIHEDRAL>
0

>  <SCORE.INTRA.DIHEDRAL.0>
0

>  <SCORE.INTRA.POLAR>
0

>  <SCORE.INTRA.POLAR.0>
0

>  <SCORE.INTRA.REPUL>
0

>  <SCORE.INTRA.REPUL.0>
0

>  <SCORE.INTRA.SOLV>
0

>  <SCORE.INTRA.SOLV.lig_0>
-4.26631

>  <SCORE.INTRA.VDW>
0

>  <SCORE.INTRA.VDW.0>
0

>  <SCORE.INTRA.norm>
0

>  <SCORE.RESTR>
0

>  <SCORE.RESTR.CAVITY>
0

>  <SCORE.RESTR.norm>
0

>  <SCORE.SYSTEM>
0

>  <SCORE.SYSTEM.CONST>
0

>  <SCORE.SYSTEM.DIHEDRAL>
0

>  <SCORE.SYSTEM.SOLV>
0

>  <SCORE.SYSTEM.norm>
0

>  <SCORE.heavy>
10

>  <SCORE.norm>
-1.74579

>  <RMSD>
0.480

$$$$
ligand
 OpenBabel11021811493D
libRbt.so/2013.1/901 2013/11/27
 10 11  0  0  0  0  0  0  0  0999 V2000
   11.8662   11.2959    8.6259 N   0  0  0  0  0  0  0  0  0  0  0  0
   11.6508   12.6495    8.6862 C   0  0  0  0  0  0  0  0  0  0  0  0
   11.3496   13.3617    7.5884 N   0  0  0  0  0  0  0  0  0  0  0  0
   11.2848   12.6200    6.4632 C   0  0  0  0  0  0  0  0  0  0  0  0
   11.4905   11.2638    6.3381 C   0  0  0  0  0  0  0  0  0  0  0  0
   11.8054   10.4985    7.4787 C   0  0  0  0  0  0  0  0  0  0  0  0
   12.0218    9.2986    7.5794 O   0  0  0  0  0  0  0  0  0  0  0  0
   11.3279   10.9140    5.0296 N   0  0  0  0  0  0  0  0  0  0  0  0
   11.0277   12.0494    4.3646 C   0  0  0  0  0  0  0  0  0  0  0  0
   10.9959   13.1188    5.2225 N   0  0  0  0  0  0  0  0  0  0  0  0
  1  2  1  0  0  0  0
  1  6  1  0  0  0  0
  2  3  2  0  0  0  0
  3  4  1  0  0  0  0
  4  5  2  0  0  0  0
  4 10  1  0  0  0  0
  5  6  1  0  0  0  0
  5  8  1  0  0  0  0
  6  7  2  0  0  0  0
  8  9  1  0  0  0  0
  9 10  2  0  0  0  0
M  END
>  <CHROM.1>
11.49250420,11.66242584,6.75576395,0.29620940,-1.33967751,0.78139739

>  <Name>
ligand

>  <RI>
0

>  <Rbt.Current_Directory>
/home/itssahil/PROJECTS/Mol_Feturizer/New_Systems/rnas/4FEJ

>  <Rbt.Executable>
rbdock ($Id: //depot/dev/client3/rdock/2013.1/src/exe/rbdock.cxx#4 $)

>  <Rbt.Library>
libRbt.so (2013.1, Build901 2013/11/27)

>  <Rbt.Parameter_File>
/export/apps/rDock/src/rDock_2013.1_src/data/scripts/dock_solv.prm

>  <Rbt.Receptor>
prm/blind_docking_40.prm

>  <SCORE>
-17.4365

>  <SCORE.INTER>
-17.4365

>  <SCORE.INTER.CONST>
1

>  <SCORE.INTER.POLAR>
0

>  <SCORE.INTER.ROT>
0

>  <SCORE.INTER.SOLV>
3.8893

>  <SCORE.INTER.VDW>
-16.5207

>  <SCORE.INTER.norm>
-1.74365

>  <SCORE.INTRA>
0

>  <SCORE.INTRA.DIHEDRAL>
0

>  <SCORE.INTRA.DIHEDRAL.0>
0

>  <SCORE.INTRA.POLAR>
0

>  <SCORE.INTRA.POLAR.0>
0

>  <SCORE.INTRA.REPUL>
0

>  <SCORE.INTRA.REPUL.0>
0

>  <SCORE.INTRA.SOLV>
0

>  <SCORE.INTRA.SOLV.lig_0>
-4.26631

>  <SCORE.INTRA.VDW>
0

>  <SCORE.INTRA.VDW.0>
0

>  <SCORE.INTRA.norm>
0

>  <SCORE.RESTR>
0

>  <SCORE.RESTR.CAVITY>
0

>  <SCORE.RESTR.norm>
0

>  <SCORE.SYSTEM>
0

>  <SCORE.SYSTEM.CONST>
0

>  <SCORE.SYSTEM.DIHEDRAL>
0

>  <SCORE.SYSTEM.SOLV>
0

>  <SCORE.SYSTEM.norm>
0

>  <SCORE.heavy>
10

>  <SCORE.norm>
-1.74365

>  <RMSD>
0.481

$$$$
ligand
 OpenBabel11021811493D
libRbt.so/2013.1/901 2013/11/27
 10 11  0  0  0  0  0  0  0  0999 V2000
   11.8743   11.3005    8.6312 N   0  0  0  0  0  0  0  0  0  0  0  0
   11.6684   12.6560    8.6827 C   0  0  0  0  0  0  0  0  0  0  0  0
   11.3618   13.3615    7.5821 N   0  0  0  0  0  0  0  0  0  0  0  0
   11.2818   12.6114    6.4635 C   0  0  0  0  0  0  0  0  0  0  0  0
   11.4774   11.2529    6.3473 C   0  0  0  0  0  0  0  0  0  0  0  0
   11.7976   10.4945    7.4910 C   0  0  0  0  0  0  0  0  0  0  0  0
   12.0071    9.2940    7.5993 O   0  0  0  0  0  0  0  0  0  0  0  0
   11.3005   10.8939    5.0432 N   0  0  0  0  0  0  0  0  0  0  0  0
   11.0017   12.0260    4.3719 C   0  0  0  0  0  0  0  0  0  0  0  0
   10.9848   13.1023    5.2216 N   0  0  0  0  0  0  0  0  0  0  0  0
  1  2  1  0  0  0  0
  1  6  1  0  0  0  0
  2  3  2  0  0  0  0
  3  4  1  0  0  0  0
  4  5  2  0  0  0  0
  4 10  1  0  0  0  0
  5  6  1  0  0  0  0
  5  8  1  0  0  0  0
  6  7  2  0  0  0  0
  8  9  1  0  0  0  0
  9 10  2  0  0  0  0
M  END
>  <CHROM.1>
11.48582746,11.65477308,6.76173385,0.24798429,-1.33753364,0.72654766

>  <Name>
ligand

>  <RI>
0

>  <Rbt.Current_Directory>
/home/itssahil/PROJECTS/Mol_Feturizer/New_Systems/rnas/4FEJ

>  <Rbt.Executable>
rbdock ($Id: //depot/dev/client3/rdock/2013.1/src/exe/rbdock.cxx#4 $)

>  <Rbt.Library>
libRbt.so (2013.1, Build901 2013/11/27)

>  <Rbt.Parameter_File>
/export/apps/rDock/src/rDock_2013.1_src/data/scripts/dock_solv.prm

>  <Rbt.Receptor>
prm/pocket_docking_5.prm

>  <SCORE>
-17.4461

>  <SCORE.INTER>
-17.4461

>  <SCORE.INTER.CONST>
1

>  <SCORE.INTER.POLAR>
0

>  <SCORE.INTER.ROT>
0

>  <SCORE.INTER.SOLV>
3.90454

>  <SCORE.INTER.VDW>
-16.5323

>  <SCORE.INTER.norm>
-1.74461

>  <SCORE.INTRA>
0

>  <SCORE.INTRA.DIHEDRAL>
0

>  <SCORE.INTRA.DIHEDRAL.0>
0

>  <SCORE.INTRA.POLAR>
0

>  <SCORE.INTRA.POLAR.0>
0

>  <SCORE.INTRA.REPUL>
0

>  <SCORE.INTRA.REPUL.0>
0

>  <SCORE.INTRA.SOLV>
0

>  <SCORE.INTRA.SOLV.lig_0>
-4.26631

>  <SCORE.INTRA.VDW>
0

>  <SCORE.INTRA.VDW.0>
0

>  <SCORE.INTRA.norm>
0

>  <SCORE.RESTR>
0

>  <SCORE.RESTR.CAVITY>
0

>  <SCORE.RESTR.norm>
0

>  <SCORE.SYSTEM>
0

>  <SCORE.SYSTEM.CONST>
0

>  <SCORE.SYSTEM.DIHEDRAL>
0

>  <SCORE.SYSTEM.SOLV>
0

>  <SCORE.SYSTEM.norm>
0

>  <SCORE.heavy>
10

>  <SCORE.norm>
-1.74461

>  <RMSD>
0.481

$$$$
ligand
 OpenBabel11021811493D
libRbt.so/2013.1/901 2013/11/27
 10 11  0  0  0  0  0  0  0  0999 V2000
   11.8743   11.3010    8.6250 N   0  0  0  0  0  0  0  0  0  0  0  0
   11.6598   12.6550    8.6804 C   0  0  0  0  0  0  0  0  0  0  0  0
   11.3560   13.3628    7.5805 N   0  0  0  0  0  0  0  0  0  0  0  0
   11.2877   12.6166    6.4586 C   0  0  0  0  0  0  0  0  0  0  0  0
   11.4924   11.2598    6.3385 C   0  0  0  0  0  0  0  0  0  0  0  0
   11.8099   10.4990    7.4813 C   0  0  0  0  0  0  0  0  0  0  0  0
   12.0260    9.2994    7.5863 O   0  0  0  0  0  0  0  0  0  0  0  0
   11.3261   10.9049    5.0319 N   0  0  0  0  0  0  0  0  0  0  0  0
   11.0247   12.0377    4.3630 C   0  0  0  0  0  0  0  0  0  0  0  0
   10.9958   13.1105    5.2167 N   0  0  0  0  0  0  0  0  0  0  0  0
  1  2  1  0  0  0  0
  1  6  1  0  0  0  0
  2  3  2  0  0  0  0
  3  4  1  0  0  0  0
  4  5  2  0  0  0  0
  4 10  1  0  0  0  0
  5  6  1  0  0  0  0
  5  8  1  0  0  0  0
  6  7  2  0  0  0  0
  8  9  1  0  0  0  0
  9 10  2  0  0  0  0
M  END
>  <CHROM.1>
11.49571433,11.66015008,6.75446917,0.28634694,-1.33814101,0.76773294

>  <Name>
ligand

>  <RI>
0

>  <Rbt.Current_Directory>
/home/itssahil/PROJECTS/Mol_Feturizer/New_Systems/rnas/4FEJ

>  <Rbt.Executable>
rbdock ($Id: //depot/dev/client3/rdock/2013.1/src/exe/rbdock.cxx#4 $)

>  <Rbt.Library>
libRbt.so (2013.1, Build901 2013/11/27)

>  <Rbt.Parameter_File>
/export/apps/rDock/src/rDock_2013.1_src/data/scripts/dock_solv.prm

>  <Rbt.Receptor>
prm/blind_docking_100.prm

>  <SCORE>
-17.438

>  <SCORE.INTER>
-17.438

>  <SCORE.INTER.CONST>
1

>  <SCORE.INTER.POLAR>
0

>  <SCORE.INTER.ROT>
0

>  <SCORE.INTER.SOLV>
3.88955

>  <SCORE.INTER.VDW>
-16.5218

>  <SCORE.INTER.norm>
-1.7438

>  <SCORE.INTRA>
0

>  <SCORE.INTRA.DIHEDRAL>
0

>  <SCORE.INTRA.DIHEDRAL.0>
0

>  <SCORE.INTRA.POLAR>
0

>  <SCORE.INTRA.POLAR.0>
0

>  <SCORE.INTRA.REPUL>
0

>  <SCORE.INTRA.REPUL.0>
0

>  <SCORE.INTRA.SOLV>
0

>  <SCORE.INTRA.SOLV.lig_0>
-4.26631

>  <SCORE.INTRA.VDW>
0

>  <SCORE.INTRA.VDW.0>
0

>  <SCORE.INTRA.norm>
0

>  <SCORE.RESTR>
0

>  <SCORE.RESTR.CAVITY>
0

>  <SCORE.RESTR.norm>
0

>  <SCORE.SYSTEM>
0

>  <SCORE.SYSTEM.CONST>
0

>  <SCORE.SYSTEM.DIHEDRAL>
0

>  <SCORE.SYSTEM.SOLV>
0

>  <SCORE.SYSTEM.norm>
0

>  <SCORE.heavy>
10

>  <SCORE.norm>
-1.7438

>  <RMSD>
0.482

$$$$
ligand
 OpenBabel11021811493D
libRbt.so/2013.1/901 2013/11/27
 10 11  0  0  0  0  0  0  0  0999 V2000
   11.8796   11.2946    8.5976 N   0  0  0  0  0  0  0  0  0  0  0  0
   11.5880   12.6349    8.6283 C   0  0  0  0  0  0  0  0  0  0  0  0
   11.2350   13.3018    7.5175 N   0  0  0  0  0  0  0  0  0  0  0  0
   11.2008   12.5304    6.4112 C   0  0  0  0  0  0  0  0  0  0  0  0
   11.4823   11.1854    6.3159 C   0  0  0  0  0  0  0  0  0  0  0  0
   11.8522   10.4673    7.4704 C   0  0  0  0  0  0  0  0  0  0  0  0
   12.1379    9.2844    7.5971 O   0  0  0  0  0  0  0  0  0  0  0  0
   11.3261   10.7952    5.0181 N   0  0  0  0  0  0  0  0  0  0  0  0
   10.9546   11.8951    4.3299 C   0  0  0  0  0  0  0  0  0  0  0  0
   10.8709   12.9816    5.1625 N   0  0  0  0  0  0  0  0  0  0  0  0
  1  2  1  0  0  0  0
  1  6  1  0  0  0  0
  2  3  2  0  0  0  0
  3  4  1  0  0  0  0
  4  5  2  0  0  0  0
  4 10  1  0  0  0  0
  5  6  1  0  0  0  0
  5  8  1  0  0  0  0
  6  7  2  0  0  0  0
  8  9  1  0  0  0  0
  9 10  2  0  0  0  0
M  END
>  <CHROM.1>
11.46589071,11.59359416,6.72387516,0.41592514,-1.29006626,0.87315437

>  <Name>
ligand

>  <RI>
0

>  <Rbt.Current_Directory>
/home/itssahil/PROJECTS/Mol_Feturizer/New_Systems/rnas/4FEJ

>  <Rbt.Executable>
rbdock ($Id: //depot/dev/client3/rdock/2013.1/src/exe/rbdock.cxx#4 $)

>  <Rbt.Library>
libRbt.so (2013.1, Build901 2013/11/27)

>  <Rbt.Parameter_File>
/export/apps/rDock/src/rDock_2013.1_src/data/scripts/dock_solv.prm

>  <Rbt.Receptor>
prm/blind_docking_100.prm

>  <SCORE>
-17.4438

>  <SCORE.INTER>
-17.4438

>  <SCORE.INTER.CONST>
1

>  <SCORE.INTER.POLAR>
0

>  <SCORE.INTER.ROT>
0

>  <SCORE.INTER.SOLV>
3.75557

>  <SCORE.INTER.VDW>
-16.481

>  <SCORE.INTER.norm>
-1.74438

>  <SCORE.INTRA>
0

>  <SCORE.INTRA.DIHEDRAL>
0

>  <SCORE.INTRA.DIHEDRAL.0>
0

>  <SCORE.INTRA.POLAR>
0

>  <SCORE.INTRA.POLAR.0>
0

>  <SCORE.INTRA.REPUL>
0

>  <SCORE.INTRA.REPUL.0>
0

>  <SCORE.INTRA.SOLV>
0

>  <SCORE.INTRA.SOLV.lig_0>
-4.26631

>  <SCORE.INTRA.VDW>
0

>  <SCORE.INTRA.VDW.0>
0

>  <SCORE.INTRA.norm>
0

>  <SCORE.RESTR>
0

>  <SCORE.RESTR.CAVITY>
0

>  <SCORE.RESTR.norm>
0

>  <SCORE.SYSTEM>
0

>  <SCORE.SYSTEM.CONST>
0

>  <SCORE.SYSTEM.DIHEDRAL>
0

>  <SCORE.SYSTEM.SOLV>
0

>  <SCORE.SYSTEM.norm>
0

>  <SCORE.heavy>
10

>  <SCORE.norm>
-1.74438

>  <RMSD>
0.482

$$$$
ligand
 OpenBabel11021811493D
libRbt.so/2013.1/901 2013/11/27
 10 11  0  0  0  0  0  0  0  0999 V2000
   11.8681   11.3265    8.6703 N   0  0  0  0  0  0  0  0  0  0  0  0
   11.6800   12.6854    8.6930 C   0  0  0  0  0  0  0  0  0  0  0  0
   11.3872   13.3719    7.5767 N   0  0  0  0  0  0  0  0  0  0  0  0
   11.3018   12.5999    6.4735 C   0  0  0  0  0  0  0  0  0  0  0  0
   11.4800   11.2368    6.3862 C   0  0  0  0  0  0  0  0  0  0  0  0
   11.7855   10.4982    7.5467 C   0  0  0  0  0  0  0  0  0  0  0  0
   11.9786    9.2975    7.6807 O   0  0  0  0  0  0  0  0  0  0  0  0
   11.3036   10.8533    5.0891 N   0  0  0  0  0  0  0  0  0  0  0  0
   11.0225   11.9751    4.3932 C   0  0  0  0  0  0  0  0  0  0  0  0
   11.0164   13.0689    5.2204 N   0  0  0  0  0  0  0  0  0  0  0  0
  1  2  1  0  0  0  0
  1  6  1  0  0  0  0
  2  3  2  0  0  0  0
  3  4  1  0  0  0  0
  4  5  2  0  0  0  0
  4 10  1  0  0  0  0
  5  6  1  0  0  0  0
  5  8  1  0  0  0  0
  6  7  2  0  0  0  0
  8  9  1  0  0  0  0
  9 10  2  0  0  0  0
M  END
>  <CHROM.1>
11.49200551,11.64708984,6.79230834,0.21523084,-1.34924701,0.67395730

>  <Name>
ligand

>  <RI>
0

>  <Rbt.Current_Directory>
/home/itssahil/PROJECTS/Mol_Feturizer/New_Systems/rnas/4FEJ

>  <Rbt.Executable>
rbdock ($Id: //depot/dev/client3/rdock/2013.1/src/exe/rbdock.cxx#4 $)

>  <Rbt.Library>
libRbt.so (2013.1, Build901 2013/11/27)

>  <Rbt.Parameter_File>
/export/apps/rDock/src/rDock_2013.1_src/data/scripts/dock_solv.prm

>  <Rbt.Receptor>
prm/blind_docking_40.prm

>  <SCORE>
-17.4734

>  <SCORE.INTER>
-17.4734

>  <SCORE.INTER.CONST>
1

>  <SCORE.INTER.POLAR>
0

>  <SCORE.INTER.ROT>
0

>  <SCORE.INTER.SOLV>
3.97496

>  <SCORE.INTER.VDW>
-16.5739

>  <SCORE.INTER.norm>
-1.74734

>  <SCORE.INTRA>
0

>  <SCORE.INTRA.DIHEDRAL>
0

>  <SCORE.INTRA.DIHEDRAL.0>
0

>  <SCORE.INTRA.POLAR>
0

>  <SCORE.INTRA.POLAR.0>
0

>  <SCORE.INTRA.REPUL>
0

>  <SCORE.INTRA.REPUL.0>
0

>  <SCORE.INTRA.SOLV>
0

>  <SCORE.INTRA.SOLV.lig_0>
-4.26631

>  <SCORE.INTRA.VDW>
0

>  <SCORE.INTRA.VDW.0>
0

>  <SCORE.INTRA.norm>
0

>  <SCORE.RESTR>
0

>  <SCORE.RESTR.CAVITY>
0

>  <SCORE.RESTR.norm>
0

>  <SCORE.SYSTEM>
0

>  <SCORE.SYSTEM.CONST>
0

>  <SCORE.SYSTEM.DIHEDRAL>
0

>  <SCORE.SYSTEM.SOLV>
0

>  <SCORE.SYSTEM.norm>
0

>  <SCORE.heavy>
10

>  <SCORE.norm>
-1.74734

>  <RMSD>
0.482

$$$$
ligand
 OpenBabel11021811493D
libRbt.so/2013.1/901 2013/11/27
 10 11  0  0  0  0  0  0  0  0999 V2000
   11.8958   11.3013    8.6117 N   0  0  0  0  0  0  0  0  0  0  0  0
   11.6651   12.6533    8.6498 C   0  0  0  0  0  0  0  0  0  0  0  0
   11.3429   13.3415    7.5428 N   0  0  0  0  0  0  0  0  0  0  0  0
   11.2738   12.5786    6.4323 C   0  0  0  0  0  0  0  0  0  0  0  0
   11.4941   11.2228    6.3295 C   0  0  0  0  0  0  0  0  0  0  0  0
   11.8311   10.4823    7.4800 C   0  0  0  0  0  0  0  0  0  0  0  0
   12.0628    9.2870    7.6001 O   0  0  0  0  0  0  0  0  0  0  0  0
   11.3205   10.8472    5.0296 N   0  0  0  0  0  0  0  0  0  0  0  0
   10.9993   11.9666    4.3475 C   0  0  0  0  0  0  0  0  0  0  0  0
   10.9648   13.0511    5.1861 N   0  0  0  0  0  0  0  0  0  0  0  0
  1  2  1  0  0  0  0
  1  6  1  0  0  0  0
  2  3  2  0  0  0  0
  3  4  1  0  0  0  0
  4  5  2  0  0  0  0
  4 10  1  0  0  0  0
  5  6  1  0  0  0  0
  5  8  1  0  0  0  0
  6  7  2  0  0  0  0
  8  9  1  0  0  0  0
  9 10  2  0  0  0  0
M  END
>  <CHROM.1>
11.49617475,11.62904370,6.73974802,0.29721640,-1.32316986,0.76405373

>  <Name>
ligand

>  <RI>
0

>  <Rbt.Current_Directory>
/home/itssahil/PROJECTS/Mol_Feturizer/New_Systems/rnas/4FEJ

>  <Rbt.Executable>
rbdock ($Id: //depot/dev/client3/rdock/2013.1/src/exe/rbdock.cxx#4 $)

>  <Rbt.Library>
libRbt.so (2013.1, Build901 2013/11/27)

>  <Rbt.Parameter_File>
/export/apps/rDock/src/rDock_2013.1_src/data/scripts/dock_solv.prm

>  <Rbt.Receptor>
prm/pocket_docking_6.prm

>  <SCORE>
-17.4409

>  <SCORE.INTER>
-17.4409

>  <SCORE.INTER.CONST>
1

>  <SCORE.INTER.POLAR>
0

>  <SCORE.INTER.ROT>
0

>  <SCORE.INTER.SOLV>
3.8583

>  <SCORE.INTER.VDW>
-16.5134

>  <SCORE.INTER.norm>
-1.74409

>  <SCORE.INTRA>
0

>  <SCORE.INTRA.DIHEDRAL>
0

>  <SCORE.INTRA.DIHEDRAL.0>
0

>  <SCORE.INTRA.POLAR>
0

>  <SCORE.INTRA.POLAR.0>
0

>  <SCORE.INTRA.REPUL>
0

>  <SCORE.INTRA.REPUL.0>
0

>  <SCORE.INTRA.SOLV>
0

>  <SCORE.INTRA.SOLV.lig_0>
-4.26631

>  <SCORE.INTRA.VDW>
0

>  <SCORE.INTRA.VDW.0>
0

>  <SCORE.INTRA.norm>
0

>  <SCORE.RESTR>
0

>  <SCORE.RESTR.CAVITY>
0

>  <SCORE.RESTR.norm>
0

>  <SCORE.SYSTEM>
0

>  <SCORE.SYSTEM.CONST>
0

>  <SCORE.SYSTEM.DIHEDRAL>
0

>  <SCORE.SYSTEM.SOLV>
0

>  <SCORE.SYSTEM.norm>
0

>  <SCORE.heavy>
10

>  <SCORE.norm>
-1.74409

>  <RMSD>
0.482

$$$$
ligand
 OpenBabel11021811493D
libRbt.so/2013.1/901 2013/11/27
 10 11  0  0  0  0  0  0  0  0999 V2000
   11.8450   11.2658    8.6160 N   0  0  0  0  0  0  0  0  0  0  0  0
   11.6073   12.6165    8.6564 C   0  0  0  0  0  0  0  0  0  0  0  0
   11.2938   13.3072    7.5484 N   0  0  0  0  0  0  0  0  0  0  0  0
   11.2405   12.5479    6.4344 C   0  0  0  0  0  0  0  0  0  0  0  0
   11.4685   11.1935    6.3293 C   0  0  0  0  0  0  0  0  0  0  0  0
   11.7966   10.4505    7.4808 C   0  0  0  0  0  0  0  0  0  0  0  0
   12.0328    9.2560    7.5991 O   0  0  0  0  0  0  0  0  0  0  0  0
   11.3108   10.8217    5.0263 N   0  0  0  0  0  0  0  0  0  0  0  0
   10.9915   11.9420    4.3447 C   0  0  0  0  0  0  0  0  0  0  0  0
   10.9427   13.0233    5.1867 N   0  0  0  0  0  0  0  0  0  0  0  0
  1  2  1  0  0  0  0
  1  6  1  0  0  0  0
  2  3  2  0  0  0  0
  3  4  1  0  0  0  0
  4  5  2  0  0  0  0
  4 10  1  0  0  0  0
  5  6  1  0  0  0  0
  5  8  1  0  0  0  0
  6  7  2  0  0  0  0
  8  9  1  0  0  0  0
  9 10  2  0  0  0  0
M  END
>  <CHROM.1>
11.46411622,11.59830402,6.74095267,0.34295114,-1.32737952,0.81197491

>  <Name>
ligand

>  <RI>
0

>  <Rbt.Current_Directory>
/home/itssahil/PROJECTS/Mol_Feturizer/New_Systems/rnas/4FEJ

>  <Rbt.Executable>
rbdock ($Id: //depot/dev/client3/rdock/2013.1/src/exe/rbdock.cxx#4 $)

>  <Rbt.Library>
libRbt.so (2013.1, Build901 2013/11/27)

>  <Rbt.Parameter_File>
/export/apps/rDock/src/rDock_2013.1_src/data/scripts/dock_solv.prm

>  <Rbt.Receptor>
prm/pocket_docking_6.prm

>  <SCORE>
-17.4033

>  <SCORE.INTER>
-17.4033

>  <SCORE.INTER.CONST>
1

>  <SCORE.INTER.POLAR>
0

>  <SCORE.INTER.ROT>
0

>  <SCORE.INTER.SOLV>
3.87544

>  <SCORE.INTER.VDW>
-16.494

>  <SCORE.INTER.norm>
-1.74033

>  <SCORE.INTRA>
0

>  <SCORE.INTRA.DIHEDRAL>
0

>  <SCORE.INTRA.DIHEDRAL.0>
0

>  <SCORE.INTRA.POLAR>
0

>  <SCORE.INTRA.POLAR.0>
0

>  <SCORE.INTRA.REPUL>
0

>  <SCORE.INTRA.REPUL.0>
0

>  <SCORE.INTRA.SOLV>
0

>  <SCORE.INTRA.SOLV.lig_0>
-4.26631

>  <SCORE.INTRA.VDW>
0

>  <SCORE.INTRA.VDW.0>
0

>  <SCORE.INTRA.norm>
0

>  <SCORE.RESTR>
0

>  <SCORE.RESTR.CAVITY>
0

>  <SCORE.RESTR.norm>
0

>  <SCORE.SYSTEM>
0

>  <SCORE.SYSTEM.CONST>
0

>  <SCORE.SYSTEM.DIHEDRAL>
0

>  <SCORE.SYSTEM.SOLV>
0

>  <SCORE.SYSTEM.norm>
0

>  <SCORE.heavy>
10

>  <SCORE.norm>
-1.74033

>  <RMSD>
0.482

$$$$
ligand
 OpenBabel11021811493D
libRbt.so/2013.1/901 2013/11/27
 10 11  0  0  0  0  0  0  0  0999 V2000
   11.8792   11.3025    8.6386 N   0  0  0  0  0  0  0  0  0  0  0  0
   11.6950   12.6613    8.6856 C   0  0  0  0  0  0  0  0  0  0  0  0
   11.3964   13.3675    7.5833 N   0  0  0  0  0  0  0  0  0  0  0  0
   11.3012   12.6146    6.4678 C   0  0  0  0  0  0  0  0  0  0  0  0
   11.4749   11.2528    6.3561 C   0  0  0  0  0  0  0  0  0  0  0  0
   11.7864   10.4936    7.5016 C   0  0  0  0  0  0  0  0  0  0  0  0
   11.9771    9.2904    7.6138 O   0  0  0  0  0  0  0  0  0  0  0  0
   11.2885   10.8919    5.0538 N   0  0  0  0  0  0  0  0  0  0  0  0
   11.0057   12.0261    4.3791 C   0  0  0  0  0  0  0  0  0  0  0  0
   11.0084   13.1056    5.2249 N   0  0  0  0  0  0  0  0  0  0  0  0
  1  2  1  0  0  0  0
  1  6  1  0  0  0  0
  2  3  2  0  0  0  0
  3  4  1  0  0  0  0
  4  5  2  0  0  0  0
  4 10  1  0  0  0  0
  5  6  1  0  0  0  0
  5  8  1  0  0  0  0
  6  7  2  0  0  0  0
  8  9  1  0  0  0  0
  9 10  2  0  0  0  0
M  END
>  <CHROM.1>
11.49092727,11.65601334,6.76894393,0.18606966,-1.34545989,0.66254163

>  <Name>
ligand

>  <RI>
0

>  <Rbt.Current_Directory>
/home/itssahil/PROJECTS/Mol_Feturizer/New_Systems/rnas/4FEJ

>  <Rbt.Executable>
rbdock ($Id: //depot/dev/client3/rdock/2013.1/src/exe/rbdock.cxx#4 $)

>  <Rbt.Library>
libRbt.so (2013.1, Build901 2013/11/27)

>  <Rbt.Parameter_File>
/export/apps/rDock/src/rDock_2013.1_src/data/scripts/dock_solv.prm

>  <Rbt.Receptor>
prm/pocket_docking_8.prm

>  <SCORE>
-17.4651

>  <SCORE.INTER>
-17.4651

>  <SCORE.INTER.CONST>
1

>  <SCORE.INTER.POLAR>
0

>  <SCORE.INTER.ROT>
0

>  <SCORE.INTER.SOLV>
3.94178

>  <SCORE.INTER.VDW>
-16.5573

>  <SCORE.INTER.norm>
-1.74651

>  <SCORE.INTRA>
0

>  <SCORE.INTRA.DIHEDRAL>
0

>  <SCORE.INTRA.DIHEDRAL.0>
0

>  <SCORE.INTRA.POLAR>
0

>  <SCORE.INTRA.POLAR.0>
0

>  <SCORE.INTRA.REPUL>
0

>  <SCORE.INTRA.REPUL.0>
0

>  <SCORE.INTRA.SOLV>
0

>  <SCORE.INTRA.SOLV.lig_0>
-4.26631

>  <SCORE.INTRA.VDW>
0

>  <SCORE.INTRA.VDW.0>
0

>  <SCORE.INTRA.norm>
0

>  <SCORE.RESTR>
0

>  <SCORE.RESTR.CAVITY>
0

>  <SCORE.RESTR.norm>
0

>  <SCORE.SYSTEM>
0

>  <SCORE.SYSTEM.CONST>
0

>  <SCORE.SYSTEM.DIHEDRAL>
0

>  <SCORE.SYSTEM.SOLV>
0

>  <SCORE.SYSTEM.norm>
0

>  <SCORE.heavy>
10

>  <SCORE.norm>
-1.74651

>  <RMSD>
0.485

$$$$
ligand
 OpenBabel11021811493D
libRbt.so/2013.1/901 2013/11/27
 10 11  0  0  0  0  0  0  0  0999 V2000
   11.8487   11.2799    8.6186 N   0  0  0  0  0  0  0  0  0  0  0  0
   11.6299   12.6334    8.6692 C   0  0  0  0  0  0  0  0  0  0  0  0
   11.3276   13.3369    7.5661 N   0  0  0  0  0  0  0  0  0  0  0  0
   11.2654   12.5871    6.4463 C   0  0  0  0  0  0  0  0  0  0  0  0
   11.4746   11.2306    6.3310 C   0  0  0  0  0  0  0  0  0  0  0  0
   11.7905   10.4742    7.4771 C   0  0  0  0  0  0  0  0  0  0  0  0
   12.0099    9.2756    7.5865 O   0  0  0  0  0  0  0  0  0  0  0  0
   11.3137   10.8711    5.0249 N   0  0  0  0  0  0  0  0  0  0  0  0
   11.0111   12.0009    4.3515 C   0  0  0  0  0  0  0  0  0  0  0  0
   10.9761   13.0763    5.2019 N   0  0  0  0  0  0  0  0  0  0  0  0
  1  2  1  0  0  0  0
  1  6  1  0  0  0  0
  2  3  2  0  0  0  0
  3  4  1  0  0  0  0
  4  5  2  0  0  0  0
  4 10  1  0  0  0  0
  5  6  1  0  0  0  0
  5  8  1  0  0  0  0
  6  7  2  0  0  0  0
  8  9  1  0  0  0  0
  9 10  2  0  0  0  0
M  END
>  <CHROM.1>
11.47525913,11.63216414,6.74573495,0.30590117,-1.33837900,0.78370269

>  <Name>
ligand

>  <RI>
0

>  <Rbt.Current_Directory>
/home/itssahil/PROJECTS/Mol_Feturizer/New_Systems/rnas/4FEJ

>  <Rbt.Executable>
rbdock ($Id: //depot/dev/client3/rdock/2013.1/src/exe/rbdock.cxx#4 $)

>  <Rbt.Library>
libRbt.so (2013.1, Build901 2013/11/27)

>  <Rbt.Parameter_File>
/export/apps/rDock/src/rDock_2013.1_src/data/scripts/dock_solv.prm

>  <Rbt.Receptor>
prm/blind_docking_40.prm

>  <SCORE>
-17.4146

>  <SCORE.INTER>
-17.4146

>  <SCORE.INTER.CONST>
1

>  <SCORE.INTER.POLAR>
0

>  <SCORE.INTER.ROT>
0

>  <SCORE.INTER.SOLV>
3.89942

>  <SCORE.INTER.VDW>
-16.5096

>  <SCORE.INTER.norm>
-1.74146

>  <SCORE.INTRA>
0

>  <SCORE.INTRA.DIHEDRAL>
0

>  <SCORE.INTRA.DIHEDRAL.0>
0

>  <SCORE.INTRA.POLAR>
0

>  <SCORE.INTRA.POLAR.0>
0

>  <SCORE.INTRA.REPUL>
0

>  <SCORE.INTRA.REPUL.0>
0

>  <SCORE.INTRA.SOLV>
0

>  <SCORE.INTRA.SOLV.lig_0>
-4.26631

>  <SCORE.INTRA.VDW>
0

>  <SCORE.INTRA.VDW.0>
0

>  <SCORE.INTRA.norm>
0

>  <SCORE.RESTR>
0

>  <SCORE.RESTR.CAVITY>
0

>  <SCORE.RESTR.norm>
0

>  <SCORE.SYSTEM>
0

>  <SCORE.SYSTEM.CONST>
0

>  <SCORE.SYSTEM.DIHEDRAL>
0

>  <SCORE.SYSTEM.SOLV>
0

>  <SCORE.SYSTEM.norm>
0

>  <SCORE.heavy>
10

>  <SCORE.norm>
-1.74146

>  <RMSD>
0.486

$$$$
ligand
 OpenBabel11021811493D
libRbt.so/2013.1/901 2013/11/27
 10 11  0  0  0  0  0  0  0  0999 V2000
   11.8971   11.2224    8.5415 N   0  0  0  0  0  0  0  0  0  0  0  0
   11.6180   12.5635    8.6189 C   0  0  0  0  0  0  0  0  0  0  0  0
   11.2708   13.2718    7.5322 N   0  0  0  0  0  0  0  0  0  0  0  0
   11.2288   12.5397    6.3998 C   0  0  0  0  0  0  0  0  0  0  0  0
   11.4976   11.1962    6.2577 C   0  0  0  0  0  0  0  0  0  0  0  0
   11.8614   10.4350    7.3863 C   0  0  0  0  0  0  0  0  0  0  0  0
   12.1360    9.2459    7.4716 O   0  0  0  0  0  0  0  0  0  0  0  0
   11.3371   10.8527    4.9473 N   0  0  0  0  0  0  0  0  0  0  0  0
   10.9756   11.9793    4.2979 C   0  0  0  0  0  0  0  0  0  0  0  0
   10.9025   13.0369    5.1678 N   0  0  0  0  0  0  0  0  0  0  0  0
  1  2  1  0  0  0  0
  1  6  1  0  0  0  0
  2  3  2  0  0  0  0
  3  4  1  0  0  0  0
  4  5  2  0  0  0  0
  4 10  1  0  0  0  0
  5  6  1  0  0  0  0
  5  8  1  0  0  0  0
  6  7  2  0  0  0  0
  8  9  1  0  0  0  0
  9 10  2  0  0  0  0
M  END
>  <CHROM.1>
11.48525341,11.59012711,6.67962770,0.39226383,-1.29684258,0.88510679

>  <Name>
ligand

>  <RI>
0

>  <Rbt.Current_Directory>
/home/itssahil/PROJECTS/Mol_Feturizer/New_Systems/rnas/4FEJ

>  <Rbt.Executable>
rbdock ($Id: //depot/dev/client3/rdock/2013.1/src/exe/rbdock.cxx#4 $)

>  <Rbt.Library>
libRbt.so (2013.1, Build901 2013/11/27)

>  <Rbt.Parameter_File>
/export/apps/rDock/src/rDock_2013.1_src/data/scripts/dock_solv.prm

>  <Rbt.Receptor>
prm/blind_docking_80.prm

>  <SCORE>
-17.3843

>  <SCORE.INTER>
-17.3843

>  <SCORE.INTER.CONST>
1

>  <SCORE.INTER.POLAR>
0

>  <SCORE.INTER.ROT>
0

>  <SCORE.INTER.SOLV>
3.73186

>  <SCORE.INTER.VDW>
-16.4335

>  <SCORE.INTER.norm>
-1.73843

>  <SCORE.INTRA>
0

>  <SCORE.INTRA.DIHEDRAL>
0

>  <SCORE.INTRA.DIHEDRAL.0>
0

>  <SCORE.INTRA.POLAR>
0

>  <SCORE.INTRA.POLAR.0>
0

>  <SCORE.INTRA.REPUL>
0

>  <SCORE.INTRA.REPUL.0>
0

>  <SCORE.INTRA.SOLV>
0

>  <SCORE.INTRA.SOLV.lig_0>
-4.26631

>  <SCORE.INTRA.VDW>
0

>  <SCORE.INTRA.VDW.0>
0

>  <SCORE.INTRA.norm>
0

>  <SCORE.RESTR>
0

>  <SCORE.RESTR.CAVITY>
0

>  <SCORE.RESTR.norm>
0

>  <SCORE.SYSTEM>
0

>  <SCORE.SYSTEM.CONST>
0

>  <SCORE.SYSTEM.DIHEDRAL>
0

>  <SCORE.SYSTEM.SOLV>
0

>  <SCORE.SYSTEM.norm>
0

>  <SCORE.heavy>
10

>  <SCORE.norm>
-1.73843

>  <RMSD>
0.486

$$$$
ligand
 OpenBabel11021811493D
libRbt.so/2013.1/901 2013/11/27
 10 11  0  0  0  0  0  0  0  0999 V2000
   11.8787   11.3024    8.6279 N   0  0  0  0  0  0  0  0  0  0  0  0
   11.6875   12.6599    8.6819 C   0  0  0  0  0  0  0  0  0  0  0  0
   11.3878   13.3706    7.5827 N   0  0  0  0  0  0  0  0  0  0  0  0
   11.2989   12.6233    6.4629 C   0  0  0  0  0  0  0  0  0  0  0  0
   11.4798   11.2630    6.3442 C   0  0  0  0  0  0  0  0  0  0  0  0
   11.7926   10.4992    7.4863 C   0  0  0  0  0  0  0  0  0  0  0  0
   11.9891    9.2964    7.5924 O   0  0  0  0  0  0  0  0  0  0  0  0
   11.2981   10.9082    5.0396 N   0  0  0  0  0  0  0  0  0  0  0  0
   11.0111   12.0446    4.3704 C   0  0  0  0  0  0  0  0  0  0  0  0
   11.0064   13.1196    5.2220 N   0  0  0  0  0  0  0  0  0  0  0  0
  1  2  1  0  0  0  0
  1  6  1  0  0  0  0
  2  3  2  0  0  0  0
  3  4  1  0  0  0  0
  4  5  2  0  0  0  0
  4 10  1  0  0  0  0
  5  6  1  0  0  0  0
  5  8  1  0  0  0  0
  6  7  2  0  0  0  0
  8  9  1  0  0  0  0
  9 10  2  0  0  0  0
M  END
>  <CHROM.1>
11.49283546,11.66406752,6.75929843,0.20996702,-1.34404478,0.69125647

>  <Name>
ligand

>  <RI>
0

>  <Rbt.Current_Directory>
/home/itssahil/PROJECTS/Mol_Feturizer/New_Systems/rnas/4FEJ

>  <Rbt.Executable>
rbdock ($Id: //depot/dev/client3/rdock/2013.1/src/exe/rbdock.cxx#4 $)

>  <Rbt.Library>
libRbt.so (2013.1, Build901 2013/11/27)

>  <Rbt.Parameter_File>
/export/apps/rDock/src/rDock_2013.1_src/data/scripts/dock_solv.prm

>  <Rbt.Receptor>
prm/pocket_docking_4.prm

>  <SCORE>
-17.4636

>  <SCORE.INTER>
-17.4636

>  <SCORE.INTER.CONST>
1

>  <SCORE.INTER.POLAR>
0

>  <SCORE.INTER.ROT>
0

>  <SCORE.INTER.SOLV>
3.92296

>  <SCORE.INTER.VDW>
-16.55

>  <SCORE.INTER.norm>
-1.74636

>  <SCORE.INTRA>
0

>  <SCORE.INTRA.DIHEDRAL>
0

>  <SCORE.INTRA.DIHEDRAL.0>
0

>  <SCORE.INTRA.POLAR>
0

>  <SCORE.INTRA.POLAR.0>
0

>  <SCORE.INTRA.REPUL>
0

>  <SCORE.INTRA.REPUL.0>
0

>  <SCORE.INTRA.SOLV>
0

>  <SCORE.INTRA.SOLV.lig_0>
-4.26631

>  <SCORE.INTRA.VDW>
0

>  <SCORE.INTRA.VDW.0>
0

>  <SCORE.INTRA.norm>
0

>  <SCORE.RESTR>
0

>  <SCORE.RESTR.CAVITY>
0

>  <SCORE.RESTR.norm>
0

>  <SCORE.SYSTEM>
0

>  <SCORE.SYSTEM.CONST>
0

>  <SCORE.SYSTEM.DIHEDRAL>
0

>  <SCORE.SYSTEM.SOLV>
0

>  <SCORE.SYSTEM.norm>
0

>  <SCORE.heavy>
10

>  <SCORE.norm>
-1.74636

>  <RMSD>
0.488

$$$$
ligand
 OpenBabel11021811493D
libRbt.so/2013.1/901 2013/11/27
 10 11  0  0  0  0  0  0  0  0999 V2000
   11.8862   11.2876    8.6085 N   0  0  0  0  0  0  0  0  0  0  0  0
   11.6883   12.6439    8.6693 C   0  0  0  0  0  0  0  0  0  0  0  0
   11.3758   13.3570    7.5753 N   0  0  0  0  0  0  0  0  0  0  0  0
   11.2817   12.6135    6.4534 C   0  0  0  0  0  0  0  0  0  0  0  0
   11.4688   11.2546    6.3281 C   0  0  0  0  0  0  0  0  0  0  0  0
   11.7949   10.4883    7.4647 C   0  0  0  0  0  0  0  0  0  0  0  0
   11.9987    9.2861    7.5646 O   0  0  0  0  0  0  0  0  0  0  0  0
   11.2783   10.9038    5.0236 N   0  0  0  0  0  0  0  0  0  0  0  0
   10.9798   12.0412    4.3612 C   0  0  0  0  0  0  0  0  0  0  0  0
   10.9764   13.1129    5.2168 N   0  0  0  0  0  0  0  0  0  0  0  0
  1  2  1  0  0  0  0
  1  6  1  0  0  0  0
  2  3  2  0  0  0  0
  3  4  1  0  0  0  0
  4  5  2  0  0  0  0
  4 10  1  0  0  0  0
  5  6  1  0  0  0  0
  5  8  1  0  0  0  0
  6  7  2  0  0  0  0
  8  9  1  0  0  0  0
  9 10  2  0  0  0  0
M  END
>  <CHROM.1>
11.48310816,11.65421265,6.74457169,0.20505348,-1.33436496,0.69025978

>  <Name>
ligand

>  <RI>
0

>  <Rbt.Current_Directory>
/home/itssahil/PROJECTS/Mol_Feturizer/New_Systems/rnas/4FEJ

>  <Rbt.Executable>
rbdock ($Id: //depot/dev/client3/rdock/2013.1/src/exe/rbdock.cxx#4 $)

>  <Rbt.Library>
libRbt.so (2013.1, Build901 2013/11/27)

>  <Rbt.Parameter_File>
/export/apps/rDock/src/rDock_2013.1_src/data/scripts/dock_solv.prm

>  <Rbt.Receptor>
prm/pocket_docking_6.prm

>  <SCORE>
-17.4795

>  <SCORE.INTER>
-17.4795

>  <SCORE.INTER.CONST>
1

>  <SCORE.INTER.POLAR>
0

>  <SCORE.INTER.ROT>
0

>  <SCORE.INTER.SOLV>
3.89476

>  <SCORE.INTER.VDW>
-16.5513

>  <SCORE.INTER.norm>
-1.74795

>  <SCORE.INTRA>
0

>  <SCORE.INTRA.DIHEDRAL>
0

>  <SCORE.INTRA.DIHEDRAL.0>
0

>  <SCORE.INTRA.POLAR>
0

>  <SCORE.INTRA.POLAR.0>
0

>  <SCORE.INTRA.REPUL>
0

>  <SCORE.INTRA.REPUL.0>
0

>  <SCORE.INTRA.SOLV>
0

>  <SCORE.INTRA.SOLV.lig_0>
-4.26631

>  <SCORE.INTRA.VDW>
0

>  <SCORE.INTRA.VDW.0>
0

>  <SCORE.INTRA.norm>
0

>  <SCORE.RESTR>
0

>  <SCORE.RESTR.CAVITY>
0

>  <SCORE.RESTR.norm>
0

>  <SCORE.SYSTEM>
0

>  <SCORE.SYSTEM.CONST>
0

>  <SCORE.SYSTEM.DIHEDRAL>
0

>  <SCORE.SYSTEM.SOLV>
0

>  <SCORE.SYSTEM.norm>
0

>  <SCORE.heavy>
10

>  <SCORE.norm>
-1.74795

>  <RMSD>
0.488

$$$$
ligand
 OpenBabel11021811493D
libRbt.so/2013.1/901 2013/11/27
 10 11  0  0  0  0  0  0  0  0999 V2000
   11.8841   11.2836    8.6151 N   0  0  0  0  0  0  0  0  0  0  0  0
   11.7009   12.6422    8.6703 C   0  0  0  0  0  0  0  0  0  0  0  0
   11.3934   13.3538    7.5738 N   0  0  0  0  0  0  0  0  0  0  0  0
   11.2885   12.6064    6.4555 C   0  0  0  0  0  0  0  0  0  0  0  0
   11.4607   11.2450    6.3359 C   0  0  0  0  0  0  0  0  0  0  0  0
   11.7815   10.4802    7.4751 C   0  0  0  0  0  0  0  0  0  0  0  0
   11.9726    9.2764    7.5799 O   0  0  0  0  0  0  0  0  0  0  0  0
   11.2632   10.8904    5.0335 N   0  0  0  0  0  0  0  0  0  0  0  0
   10.9753   12.0280    4.3667 C   0  0  0  0  0  0  0  0  0  0  0  0
   10.9855   13.1034    5.2175 N   0  0  0  0  0  0  0  0  0  0  0  0
  1  2  1  0  0  0  0
  1  6  1  0  0  0  0
  2  3  2  0  0  0  0
  3  4  1  0  0  0  0
  4  5  2  0  0  0  0
  4 10  1  0  0  0  0
  5  6  1  0  0  0  0
  5  8  1  0  0  0  0
  6  7  2  0  0  0  0
  8  9  1  0  0  0  0
  9 10  2  0  0  0  0
M  END
>  <CHROM.1>
11.48036342,11.64623119,6.75052316,0.16221814,-1.33905825,0.64412484

>  <Name>
ligand

>  <RI>
0

>  <Rbt.Current_Directory>
/home/itssahil/PROJECTS/Mol_Feturizer/New_Systems/rnas/4FEJ

>  <Rbt.Executable>
rbdock ($Id: //depot/dev/client3/rdock/2013.1/src/exe/rbdock.cxx#4 $)

>  <Rbt.Library>
libRbt.so (2013.1, Build901 2013/11/27)

>  <Rbt.Parameter_File>
/export/apps/rDock/src/rDock_2013.1_src/data/scripts/dock_solv.prm

>  <Rbt.Receptor>
prm/blind_docking_100.prm

>  <SCORE>
-17.4591

>  <SCORE.INTER>
-17.4591

>  <SCORE.INTER.CONST>
1

>  <SCORE.INTER.POLAR>
0

>  <SCORE.INTER.ROT>
0

>  <SCORE.INTER.SOLV>
3.92698

>  <SCORE.INTER.VDW>
-16.5484

>  <SCORE.INTER.norm>
-1.74591

>  <SCORE.INTRA>
0

>  <SCORE.INTRA.DIHEDRAL>
0

>  <SCORE.INTRA.DIHEDRAL.0>
0

>  <SCORE.INTRA.POLAR>
0

>  <SCORE.INTRA.POLAR.0>
0

>  <SCORE.INTRA.REPUL>
0

>  <SCORE.INTRA.REPUL.0>
0

>  <SCORE.INTRA.SOLV>
0

>  <SCORE.INTRA.SOLV.lig_0>
-4.26631

>  <SCORE.INTRA.VDW>
0

>  <SCORE.INTRA.VDW.0>
0

>  <SCORE.INTRA.norm>
0

>  <SCORE.RESTR>
0

>  <SCORE.RESTR.CAVITY>
0

>  <SCORE.RESTR.norm>
0

>  <SCORE.SYSTEM>
0

>  <SCORE.SYSTEM.CONST>
0

>  <SCORE.SYSTEM.DIHEDRAL>
0

>  <SCORE.SYSTEM.SOLV>
0

>  <SCORE.SYSTEM.norm>
0

>  <SCORE.heavy>
10

>  <SCORE.norm>
-1.74591

>  <RMSD>
0.489

$$$$
ligand
 OpenBabel11021811493D
libRbt.so/2013.1/901 2013/11/27
 10 11  0  0  0  0  0  0  0  0999 V2000
   11.8689   11.3003    8.6179 N   0  0  0  0  0  0  0  0  0  0  0  0
   11.6504   12.6542    8.6574 C   0  0  0  0  0  0  0  0  0  0  0  0
   11.3398   13.3474    7.5500 N   0  0  0  0  0  0  0  0  0  0  0  0
   11.2692   12.5870    6.4378 C   0  0  0  0  0  0  0  0  0  0  0  0
   11.4776   11.2294    6.3337 C   0  0  0  0  0  0  0  0  0  0  0  0
   11.8022   10.4838    7.4845 C   0  0  0  0  0  0  0  0  0  0  0  0
   12.0224    9.2863    7.6036 O   0  0  0  0  0  0  0  0  0  0  0  0
   11.3068   10.8577    5.0323 N   0  0  0  0  0  0  0  0  0  0  0  0
   10.9991   11.9812    4.3507 C   0  0  0  0  0  0  0  0  0  0  0  0
   10.9705   13.0645    5.1911 N   0  0  0  0  0  0  0  0  0  0  0  0
  1  2  1  0  0  0  0
  1  6  1  0  0  0  0
  2  3  2  0  0  0  0
  3  4  1  0  0  0  0
  4  5  2  0  0  0  0
  4 10  1  0  0  0  0
  5  6  1  0  0  0  0
  5  8  1  0  0  0  0
  6  7  2  0  0  0  0
  8  9  1  0  0  0  0
  9 10  2  0  0  0  0
M  END
>  <CHROM.1>
11.48136327,11.63491339,6.74466179,0.28335009,-1.33296494,0.75235182

>  <Name>
ligand

>  <RI>
0

>  <Rbt.Current_Directory>
/home/itssahil/PROJECTS/Mol_Feturizer/New_Systems/rnas/4FEJ

>  <Rbt.Executable>
rbdock ($Id: //depot/dev/client3/rdock/2013.1/src/exe/rbdock.cxx#4 $)

>  <Rbt.Library>
libRbt.so (2013.1, Build901 2013/11/27)

>  <Rbt.Parameter_File>
/export/apps/rDock/src/rDock_2013.1_src/data/scripts/dock_solv.prm

>  <Rbt.Receptor>
prm/pocket_docking_3.prm

>  <SCORE>
-17.4372

>  <SCORE.INTER>
-17.4372

>  <SCORE.INTER.CONST>
1

>  <SCORE.INTER.POLAR>
0

>  <SCORE.INTER.ROT>
0

>  <SCORE.INTER.SOLV>
3.89343

>  <SCORE.INTER.VDW>
-16.5226

>  <SCORE.INTER.norm>
-1.74372

>  <SCORE.INTRA>
0

>  <SCORE.INTRA.DIHEDRAL>
0

>  <SCORE.INTRA.DIHEDRAL.0>
0

>  <SCORE.INTRA.POLAR>
0

>  <SCORE.INTRA.POLAR.0>
0

>  <SCORE.INTRA.REPUL>
0

>  <SCORE.INTRA.REPUL.0>
0

>  <SCORE.INTRA.SOLV>
0

>  <SCORE.INTRA.SOLV.lig_0>
-4.26631

>  <SCORE.INTRA.VDW>
0

>  <SCORE.INTRA.VDW.0>
0

>  <SCORE.INTRA.norm>
0

>  <SCORE.RESTR>
0

>  <SCORE.RESTR.CAVITY>
0

>  <SCORE.RESTR.norm>
0

>  <SCORE.SYSTEM>
0

>  <SCORE.SYSTEM.CONST>
0

>  <SCORE.SYSTEM.DIHEDRAL>
0

>  <SCORE.SYSTEM.SOLV>
0

>  <SCORE.SYSTEM.norm>
0

>  <SCORE.heavy>
10

>  <SCORE.norm>
-1.74372

>  <RMSD>
0.489

$$$$
ligand
 OpenBabel11021811493D
libRbt.so/2013.1/901 2013/11/27
 10 11  0  0  0  0  0  0  0  0999 V2000
   11.8776   11.3447    8.6178 N   0  0  0  0  0  0  0  0  0  0  0  0
   11.5800   12.6840    8.6281 C   0  0  0  0  0  0  0  0  0  0  0  0
   11.2334   13.3344    7.5056 N   0  0  0  0  0  0  0  0  0  0  0  0
   11.2116   12.5481    6.4095 C   0  0  0  0  0  0  0  0  0  0  0  0
   11.4995   11.2032    6.3346 C   0  0  0  0  0  0  0  0  0  0  0  0
   11.8630   10.5022    7.5017 C   0  0  0  0  0  0  0  0  0  0  0  0
   12.1526    9.3224    7.6466 O   0  0  0  0  0  0  0  0  0  0  0  0
   11.3556   10.7949    5.0410 N   0  0  0  0  0  0  0  0  0  0  0  0
   10.9851   11.8839    4.3350 C   0  0  0  0  0  0  0  0  0  0  0  0
   10.8900   12.9810    5.1522 N   0  0  0  0  0  0  0  0  0  0  0  0
  1  2  1  0  0  0  0
  1  6  1  0  0  0  0
  2  3  2  0  0  0  0
  3  4  1  0  0  0  0
  4  5  2  0  0  0  0
  4 10  1  0  0  0  0
  5  6  1  0  0  0  0
  5  8  1  0  0  0  0
  6  7  2  0  0  0  0
  8  9  1  0  0  0  0
  9 10  2  0  0  0  0
M  END
>  <CHROM.1>
11.47801240,11.61673619,6.73692003,0.44864506,-1.29195569,0.89116185

>  <Name>
ligand

>  <RI>
0

>  <Rbt.Current_Directory>
/home/itssahil/PROJECTS/Mol_Feturizer/New_Systems/rnas/4FEJ

>  <Rbt.Executable>
rbdock ($Id: //depot/dev/client3/rdock/2013.1/src/exe/rbdock.cxx#4 $)

>  <Rbt.Library>
libRbt.so (2013.1, Build901 2013/11/27)

>  <Rbt.Parameter_File>
/export/apps/rDock/src/rDock_2013.1_src/data/scripts/dock_solv.prm

>  <Rbt.Receptor>
prm/blind_docking_60.prm

>  <SCORE>
-17.461

>  <SCORE.INTER>
-17.461

>  <SCORE.INTER.CONST>
1

>  <SCORE.INTER.POLAR>
0

>  <SCORE.INTER.ROT>
0

>  <SCORE.INTER.SOLV>
3.769

>  <SCORE.INTER.VDW>
-16.497

>  <SCORE.INTER.norm>
-1.7461

>  <SCORE.INTRA>
0

>  <SCORE.INTRA.DIHEDRAL>
0

>  <SCORE.INTRA.DIHEDRAL.0>
0

>  <SCORE.INTRA.POLAR>
0

>  <SCORE.INTRA.POLAR.0>
0

>  <SCORE.INTRA.REPUL>
0

>  <SCORE.INTRA.REPUL.0>
0

>  <SCORE.INTRA.SOLV>
0

>  <SCORE.INTRA.SOLV.lig_0>
-4.26631

>  <SCORE.INTRA.VDW>
0

>  <SCORE.INTRA.VDW.0>
0

>  <SCORE.INTRA.norm>
0

>  <SCORE.RESTR>
0

>  <SCORE.RESTR.CAVITY>
0

>  <SCORE.RESTR.norm>
0

>  <SCORE.SYSTEM>
0

>  <SCORE.SYSTEM.CONST>
0

>  <SCORE.SYSTEM.DIHEDRAL>
0

>  <SCORE.SYSTEM.SOLV>
0

>  <SCORE.SYSTEM.norm>
0

>  <SCORE.heavy>
10

>  <SCORE.norm>
-1.7461

>  <RMSD>
0.490

$$$$
ligand
 OpenBabel11021811493D
libRbt.so/2013.1/901 2013/11/27
 10 11  0  0  0  0  0  0  0  0999 V2000
   11.8728   11.3163    8.6302 N   0  0  0  0  0  0  0  0  0  0  0  0
   11.6712   12.6725    8.6804 C   0  0  0  0  0  0  0  0  0  0  0  0
   11.3684   13.3781    7.5788 N   0  0  0  0  0  0  0  0  0  0  0  0
   11.2875   12.6274    6.4607 C   0  0  0  0  0  0  0  0  0  0  0  0
   11.4789   11.2682    6.3458 C   0  0  0  0  0  0  0  0  0  0  0  0
   11.7951   10.5097    7.4905 C   0  0  0  0  0  0  0  0  0  0  0  0
   12.0006    9.3086    7.6000 O   0  0  0  0  0  0  0  0  0  0  0  0
   11.3026   10.9088    5.0417 N   0  0  0  0  0  0  0  0  0  0  0  0
   11.0084   12.0413    4.3691 C   0  0  0  0  0  0  0  0  0  0  0  0
   10.9939   13.1183    5.2180 N   0  0  0  0  0  0  0  0  0  0  0  0
  1  2  1  0  0  0  0
  1  6  1  0  0  0  0
  2  3  2  0  0  0  0
  3  4  1  0  0  0  0
  4  5  2  0  0  0  0
  4 10  1  0  0  0  0
  5  6  1  0  0  0  0
  5  8  1  0  0  0  0
  6  7  2  0  0  0  0
  8  9  1  0  0  0  0
  9 10  2  0  0  0  0
M  END
>  <CHROM.1>
11.48807917,11.67040469,6.75991402,0.24136213,-1.34070982,0.71933817

>  <Name>
ligand

>  <RI>
0

>  <Rbt.Current_Directory>
/home/itssahil/PROJECTS/Mol_Feturizer/New_Systems/rnas/4FEJ

>  <Rbt.Executable>
rbdock ($Id: //depot/dev/client3/rdock/2013.1/src/exe/rbdock.cxx#4 $)

>  <Rbt.Library>
libRbt.so (2013.1, Build901 2013/11/27)

>  <Rbt.Parameter_File>
/export/apps/rDock/src/rDock_2013.1_src/data/scripts/dock_solv.prm

>  <Rbt.Receptor>
prm/pocket_docking_7.prm

>  <SCORE>
-17.4464

>  <SCORE.INTER>
-17.4464

>  <SCORE.INTER.CONST>
1

>  <SCORE.INTER.POLAR>
0

>  <SCORE.INTER.ROT>
0

>  <SCORE.INTER.SOLV>
3.91146

>  <SCORE.INTER.VDW>
-16.5347

>  <SCORE.INTER.norm>
-1.74464

>  <SCORE.INTRA>
0

>  <SCORE.INTRA.DIHEDRAL>
0

>  <SCORE.INTRA.DIHEDRAL.0>
0

>  <SCORE.INTRA.POLAR>
0

>  <SCORE.INTRA.POLAR.0>
0

>  <SCORE.INTRA.REPUL>
0

>  <SCORE.INTRA.REPUL.0>
0

>  <SCORE.INTRA.SOLV>
0

>  <SCORE.INTRA.SOLV.lig_0>
-4.26631

>  <SCORE.INTRA.VDW>
0

>  <SCORE.INTRA.VDW.0>
0

>  <SCORE.INTRA.norm>
0

>  <SCORE.RESTR>
0

>  <SCORE.RESTR.CAVITY>
0

>  <SCORE.RESTR.norm>
0

>  <SCORE.SYSTEM>
0

>  <SCORE.SYSTEM.CONST>
0

>  <SCORE.SYSTEM.DIHEDRAL>
0

>  <SCORE.SYSTEM.SOLV>
0

>  <SCORE.SYSTEM.norm>
0

>  <SCORE.heavy>
10

>  <SCORE.norm>
-1.74464

>  <RMSD>
0.490

$$$$
ligand
 OpenBabel11021811493D
libRbt.so/2013.1/901 2013/11/27
 10 11  0  0  0  0  0  0  0  0999 V2000
   11.8601   11.3139    8.6235 N   0  0  0  0  0  0  0  0  0  0  0  0
   11.6439   12.6678    8.6766 C   0  0  0  0  0  0  0  0  0  0  0  0
   11.3373   13.3730    7.5758 N   0  0  0  0  0  0  0  0  0  0  0  0
   11.2681   12.6245    6.4555 C   0  0  0  0  0  0  0  0  0  0  0  0
   11.4744   11.2677    6.3377 C   0  0  0  0  0  0  0  0  0  0  0  0
   11.7948   10.5095    7.4815 C   0  0  0  0  0  0  0  0  0  0  0  0
   12.0126    9.3105    7.5885 O   0  0  0  0  0  0  0  0  0  0  0  0
   11.3063   10.9099    5.0321 N   0  0  0  0  0  0  0  0  0  0  0  0
   11.0022   12.0410    4.3615 C   0  0  0  0  0  0  0  0  0  0  0  0
   10.9734   13.1155    5.2131 N   0  0  0  0  0  0  0  0  0  0  0  0
  1  2  1  0  0  0  0
  1  6  1  0  0  0  0
  2  3  2  0  0  0  0
  3  4  1  0  0  0  0
  4  5  2  0  0  0  0
  4 10  1  0  0  0  0
  5  6  1  0  0  0  0
  5  8  1  0  0  0  0
  6  7  2  0  0  0  0
  8  9  1  0  0  0  0
  9 10  2  0  0  0  0
M  END
>  <CHROM.1>
11.47785480,11.66886532,6.75291188,0.28525845,-1.33599276,0.76468502

>  <Name>
ligand

>  <RI>
0

>  <Rbt.Current_Directory>
/home/itssahil/PROJECTS/Mol_Feturizer/New_Systems/rnas/4FEJ

>  <Rbt.Executable>
rbdock ($Id: //depot/dev/client3/rdock/2013.1/src/exe/rbdock.cxx#4 $)

>  <Rbt.Library>
libRbt.so (2013.1, Build901 2013/11/27)

>  <Rbt.Parameter_File>
/export/apps/rDock/src/rDock_2013.1_src/data/scripts/dock_solv.prm

>  <Rbt.Receptor>
prm/blind_docking_40.prm

>  <SCORE>
-17.4667

>  <SCORE.INTER>
-17.4667

>  <SCORE.INTER.CONST>
1

>  <SCORE.INTER.POLAR>
0

>  <SCORE.INTER.ROT>
0

>  <SCORE.INTER.SOLV>
3.89139

>  <SCORE.INTER.VDW>
-16.5416

>  <SCORE.INTER.norm>
-1.74667

>  <SCORE.INTRA>
0

>  <SCORE.INTRA.DIHEDRAL>
0

>  <SCORE.INTRA.DIHEDRAL.0>
0

>  <SCORE.INTRA.POLAR>
0

>  <SCORE.INTRA.POLAR.0>
0

>  <SCORE.INTRA.REPUL>
0

>  <SCORE.INTRA.REPUL.0>
0

>  <SCORE.INTRA.SOLV>
0

>  <SCORE.INTRA.SOLV.lig_0>
-4.26631

>  <SCORE.INTRA.VDW>
0

>  <SCORE.INTRA.VDW.0>
0

>  <SCORE.INTRA.norm>
0

>  <SCORE.RESTR>
0

>  <SCORE.RESTR.CAVITY>
0

>  <SCORE.RESTR.norm>
0

>  <SCORE.SYSTEM>
0

>  <SCORE.SYSTEM.CONST>
0

>  <SCORE.SYSTEM.DIHEDRAL>
0

>  <SCORE.SYSTEM.SOLV>
0

>  <SCORE.SYSTEM.norm>
0

>  <SCORE.heavy>
10

>  <SCORE.norm>
-1.74667

>  <RMSD>
0.491

$$$$
ligand
 OpenBabel11021811493D
libRbt.so/2013.1/901 2013/11/27
 10 11  0  0  0  0  0  0  0  0999 V2000
   11.8754   11.2981    8.6196 N   0  0  0  0  0  0  0  0  0  0  0  0
   11.6717   12.6544    8.6581 C   0  0  0  0  0  0  0  0  0  0  0  0
   11.3656   13.3497    7.5509 N   0  0  0  0  0  0  0  0  0  0  0  0
   11.2838   12.5890    6.4397 C   0  0  0  0  0  0  0  0  0  0  0  0
   11.4772   11.2291    6.3365 C   0  0  0  0  0  0  0  0  0  0  0  0
   11.7968   10.4813    7.4872 C   0  0  0  0  0  0  0  0  0  0  0  0
   12.0044    9.2816    7.6070 O   0  0  0  0  0  0  0  0  0  0  0  0
   11.2990   10.8579    5.0360 N   0  0  0  0  0  0  0  0  0  0  0  0
   11.0016   11.9839    4.3539 C   0  0  0  0  0  0  0  0  0  0  0  0
   10.9870   13.0684    5.1932 N   0  0  0  0  0  0  0  0  0  0  0  0
  1  2  1  0  0  0  0
  1  6  1  0  0  0  0
  2  3  2  0  0  0  0
  3  4  1  0  0  0  0
  4  5  2  0  0  0  0
  4 10  1  0  0  0  0
  5  6  1  0  0  0  0
  5  8  1  0  0  0  0
  6  7  2  0  0  0  0
  8  9  1  0  0  0  0
  9 10  2  0  0  0  0
M  END
>  <CHROM.1>
11.48649177,11.63497476,6.74698553,0.24117292,-1.33820458,0.71026877

>  <Name>
ligand

>  <RI>
0

>  <Rbt.Current_Directory>
/home/itssahil/PROJECTS/Mol_Feturizer/New_Systems/rnas/4FEJ

>  <Rbt.Executable>
rbdock ($Id: //depot/dev/client3/rdock/2013.1/src/exe/rbdock.cxx#4 $)

>  <Rbt.Library>
libRbt.so (2013.1, Build901 2013/11/27)

>  <Rbt.Parameter_File>
/export/apps/rDock/src/rDock_2013.1_src/data/scripts/dock_solv.prm

>  <Rbt.Receptor>
prm/pocket_docking_4.prm

>  <SCORE>
-17.4454

>  <SCORE.INTER>
-17.4454

>  <SCORE.INTER.CONST>
1

>  <SCORE.INTER.POLAR>
0

>  <SCORE.INTER.ROT>
0

>  <SCORE.INTER.SOLV>
3.91532

>  <SCORE.INTER.VDW>
-16.5354

>  <SCORE.INTER.norm>
-1.74454

>  <SCORE.INTRA>
0

>  <SCORE.INTRA.DIHEDRAL>
0

>  <SCORE.INTRA.DIHEDRAL.0>
0

>  <SCORE.INTRA.POLAR>
0

>  <SCORE.INTRA.POLAR.0>
0

>  <SCORE.INTRA.REPUL>
0

>  <SCORE.INTRA.REPUL.0>
0

>  <SCORE.INTRA.SOLV>
0

>  <SCORE.INTRA.SOLV.lig_0>
-4.26631

>  <SCORE.INTRA.VDW>
0

>  <SCORE.INTRA.VDW.0>
0

>  <SCORE.INTRA.norm>
0

>  <SCORE.RESTR>
0

>  <SCORE.RESTR.CAVITY>
0

>  <SCORE.RESTR.norm>
0

>  <SCORE.SYSTEM>
0

>  <SCORE.SYSTEM.CONST>
0

>  <SCORE.SYSTEM.DIHEDRAL>
0

>  <SCORE.SYSTEM.SOLV>
0

>  <SCORE.SYSTEM.norm>
0

>  <SCORE.heavy>
10

>  <SCORE.norm>
-1.74454

>  <RMSD>
0.491

$$$$
ligand
 OpenBabel11021811493D
libRbt.so/2013.1/901 2013/11/27
 10 11  0  0  0  0  0  0  0  0999 V2000
   11.8590   11.2797    8.5992 N   0  0  0  0  0  0  0  0  0  0  0  0
   11.6297   12.6313    8.6533 C   0  0  0  0  0  0  0  0  0  0  0  0
   11.3162   13.3344    7.5530 N   0  0  0  0  0  0  0  0  0  0  0  0
   11.2543   12.5860    6.4322 C   0  0  0  0  0  0  0  0  0  0  0  0
   11.4738   11.2314    6.3133 C   0  0  0  0  0  0  0  0  0  0  0  0
   11.8016   10.4755    7.4565 C   0  0  0  0  0  0  0  0  0  0  0  0
   12.0311    9.2786    7.5627 O   0  0  0  0  0  0  0  0  0  0  0  0
   11.3091   10.8730    5.0075 N   0  0  0  0  0  0  0  0  0  0  0  0
   10.9941   12.0016    4.3377 C   0  0  0  0  0  0  0  0  0  0  0  0
   10.9548   13.0751    5.1901 N   0  0  0  0  0  0  0  0  0  0  0  0
  1  2  1  0  0  0  0
  1  6  1  0  0  0  0
  2  3  2  0  0  0  0
  3  4  1  0  0  0  0
  4  5  2  0  0  0  0
  4 10  1  0  0  0  0
  5  6  1  0  0  0  0
  5  8  1  0  0  0  0
  6  7  2  0  0  0  0
  8  9  1  0  0  0  0
  9 10  2  0  0  0  0
M  END
>  <CHROM.1>
11.47334975,11.63227192,6.72883995,0.31459254,-1.32914116,0.79394688

>  <Name>
ligand

>  <RI>
0

>  <Rbt.Current_Directory>
/home/itssahil/PROJECTS/Mol_Feturizer/New_Systems/rnas/4FEJ

>  <Rbt.Executable>
rbdock ($Id: //depot/dev/client3/rdock/2013.1/src/exe/rbdock.cxx#4 $)

>  <Rbt.Library>
libRbt.so (2013.1, Build901 2013/11/27)

>  <Rbt.Parameter_File>
/export/apps/rDock/src/rDock_2013.1_src/data/scripts/dock_solv.prm

>  <Rbt.Receptor>
prm/pocket_docking_7.prm

>  <SCORE>
-17.3509

>  <SCORE.INTER>
-17.3509

>  <SCORE.INTER.CONST>
1

>  <SCORE.INTER.POLAR>
0

>  <SCORE.INTER.ROT>
0

>  <SCORE.INTER.SOLV>
3.86629

>  <SCORE.INTER.VDW>
-16.456

>  <SCORE.INTER.norm>
-1.73509

>  <SCORE.INTRA>
0

>  <SCORE.INTRA.DIHEDRAL>
0

>  <SCORE.INTRA.DIHEDRAL.0>
0

>  <SCORE.INTRA.POLAR>
0

>  <SCORE.INTRA.POLAR.0>
0

>  <SCORE.INTRA.REPUL>
0

>  <SCORE.INTRA.REPUL.0>
0

>  <SCORE.INTRA.SOLV>
0

>  <SCORE.INTRA.SOLV.lig_0>
-4.26631

>  <SCORE.INTRA.VDW>
0

>  <SCORE.INTRA.VDW.0>
0

>  <SCORE.INTRA.norm>
0

>  <SCORE.RESTR>
0

>  <SCORE.RESTR.CAVITY>
0

>  <SCORE.RESTR.norm>
0

>  <SCORE.SYSTEM>
0

>  <SCORE.SYSTEM.CONST>
0

>  <SCORE.SYSTEM.DIHEDRAL>
0

>  <SCORE.SYSTEM.SOLV>
0

>  <SCORE.SYSTEM.norm>
0

>  <SCORE.heavy>
10

>  <SCORE.norm>
-1.73509

>  <RMSD>
0.491

$$$$
ligand
 OpenBabel11021811493D
libRbt.so/2013.1/901 2013/11/27
 10 11  0  0  0  0  0  0  0  0999 V2000
   11.8667   11.3153    8.6342 N   0  0  0  0  0  0  0  0  0  0  0  0
   11.6727   12.6728    8.6799 C   0  0  0  0  0  0  0  0  0  0  0  0
   11.3748   13.3765    7.5757 N   0  0  0  0  0  0  0  0  0  0  0  0
   11.2907   12.6226    6.4600 C   0  0  0  0  0  0  0  0  0  0  0  0
   11.4745   11.2620    6.3497 C   0  0  0  0  0  0  0  0  0  0  0  0
   11.7855   10.5054    7.4971 C   0  0  0  0  0  0  0  0  0  0  0  0
   11.9841    9.3036    7.6107 O   0  0  0  0  0  0  0  0  0  0  0  0
   11.2973   10.8994    5.0466 N   0  0  0  0  0  0  0  0  0  0  0  0
   11.0100   12.0313    4.3701 C   0  0  0  0  0  0  0  0  0  0  0  0
   11.0008   13.1111    5.2154 N   0  0  0  0  0  0  0  0  0  0  0  0
  1  2  1  0  0  0  0
  1  6  1  0  0  0  0
  2  3  2  0  0  0  0
  3  4  1  0  0  0  0
  4  5  2  0  0  0  0
  4 10  1  0  0  0  0
  5  6  1  0  0  0  0
  5  8  1  0  0  0  0
  6  7  2  0  0  0  0
  8  9  1  0  0  0  0
  9 10  2  0  0  0  0
M  END
>  <CHROM.1>
11.48559178,11.66547191,6.76250908,0.22498211,-1.34503086,0.70013197

>  <Name>
ligand

>  <RI>
0

>  <Rbt.Current_Directory>
/home/itssahil/PROJECTS/Mol_Feturizer/New_Systems/rnas/4FEJ

>  <Rbt.Executable>
rbdock ($Id: //depot/dev/client3/rdock/2013.1/src/exe/rbdock.cxx#4 $)

>  <Rbt.Library>
libRbt.so (2013.1, Build901 2013/11/27)

>  <Rbt.Parameter_File>
/export/apps/rDock/src/rDock_2013.1_src/data/scripts/dock_solv.prm

>  <Rbt.Receptor>
prm/pocket_docking_4.prm

>  <SCORE>
-17.4502

>  <SCORE.INTER>
-17.4502

>  <SCORE.INTER.CONST>
1

>  <SCORE.INTER.POLAR>
0

>  <SCORE.INTER.ROT>
0

>  <SCORE.INTER.SOLV>
3.93204

>  <SCORE.INTER.VDW>
-16.5442

>  <SCORE.INTER.norm>
-1.74502

>  <SCORE.INTRA>
0

>  <SCORE.INTRA.DIHEDRAL>
0

>  <SCORE.INTRA.DIHEDRAL.0>
0

>  <SCORE.INTRA.POLAR>
0

>  <SCORE.INTRA.POLAR.0>
0

>  <SCORE.INTRA.REPUL>
0

>  <SCORE.INTRA.REPUL.0>
0

>  <SCORE.INTRA.SOLV>
0

>  <SCORE.INTRA.SOLV.lig_0>
-4.26631

>  <SCORE.INTRA.VDW>
0

>  <SCORE.INTRA.VDW.0>
0

>  <SCORE.INTRA.norm>
0

>  <SCORE.RESTR>
0

>  <SCORE.RESTR.CAVITY>
0

>  <SCORE.RESTR.norm>
0

>  <SCORE.SYSTEM>
0

>  <SCORE.SYSTEM.CONST>
0

>  <SCORE.SYSTEM.DIHEDRAL>
0

>  <SCORE.SYSTEM.SOLV>
0

>  <SCORE.SYSTEM.norm>
0

>  <SCORE.heavy>
10

>  <SCORE.norm>
-1.74502

>  <RMSD>
0.492

$$$$
ligand
 OpenBabel11021811493D
libRbt.so/2013.1/901 2013/11/27
 10 11  0  0  0  0  0  0  0  0999 V2000
   11.8732   11.3138    8.6330 N   0  0  0  0  0  0  0  0  0  0  0  0
   11.6830   12.6719    8.6764 C   0  0  0  0  0  0  0  0  0  0  0  0
   11.3844   13.3742    7.5716 N   0  0  0  0  0  0  0  0  0  0  0  0
   11.2956   12.6184    6.4576 C   0  0  0  0  0  0  0  0  0  0  0  0
   11.4755   11.2570    6.3495 C   0  0  0  0  0  0  0  0  0  0  0  0
   11.7871   10.5019    7.4977 C   0  0  0  0  0  0  0  0  0  0  0  0
   11.9827    9.2997    7.6132 O   0  0  0  0  0  0  0  0  0  0  0  0
   11.2943   10.8923    5.0476 N   0  0  0  0  0  0  0  0  0  0  0  0
   11.0085   12.0237    4.3695 C   0  0  0  0  0  0  0  0  0  0  0  0
   11.0042   13.1052    5.2127 N   0  0  0  0  0  0  0  0  0  0  0  0
  1  2  1  0  0  0  0
  1  6  1  0  0  0  0
  2  3  2  0  0  0  0
  3  4  1  0  0  0  0
  4  5  2  0  0  0  0
  4 10  1  0  0  0  0
  5  6  1  0  0  0  0
  5  8  1  0  0  0  0
  6  7  2  0  0  0  0
  8  9  1  0  0  0  0
  9 10  2  0  0  0  0
M  END
>  <CHROM.1>
11.48864659,11.66128979,6.76150266,0.20903011,-1.34497012,0.68261029

>  <Name>
ligand

>  <RI>
0

>  <Rbt.Current_Directory>
/home/itssahil/PROJECTS/Mol_Feturizer/New_Systems/rnas/4FEJ

>  <Rbt.Executable>
rbdock ($Id: //depot/dev/client3/rdock/2013.1/src/exe/rbdock.cxx#4 $)

>  <Rbt.Library>
libRbt.so (2013.1, Build901 2013/11/27)

>  <Rbt.Parameter_File>
/export/apps/rDock/src/rDock_2013.1_src/data/scripts/dock_solv.prm

>  <Rbt.Receptor>
prm/pocket_docking_8.prm

>  <SCORE>
-17.4715

>  <SCORE.INTER>
-17.4715

>  <SCORE.INTER.CONST>
1

>  <SCORE.INTER.POLAR>
0

>  <SCORE.INTER.ROT>
0

>  <SCORE.INTER.SOLV>
3.93616

>  <SCORE.INTER.VDW>
-16.5597

>  <SCORE.INTER.norm>
-1.74715

>  <SCORE.INTRA>
0

>  <SCORE.INTRA.DIHEDRAL>
0

>  <SCORE.INTRA.DIHEDRAL.0>
0

>  <SCORE.INTRA.POLAR>
0

>  <SCORE.INTRA.POLAR.0>
0

>  <SCORE.INTRA.REPUL>
0

>  <SCORE.INTRA.REPUL.0>
0

>  <SCORE.INTRA.SOLV>
0

>  <SCORE.INTRA.SOLV.lig_0>
-4.26631

>  <SCORE.INTRA.VDW>
0

>  <SCORE.INTRA.VDW.0>
0

>  <SCORE.INTRA.norm>
0

>  <SCORE.RESTR>
0

>  <SCORE.RESTR.CAVITY>
0

>  <SCORE.RESTR.norm>
0

>  <SCORE.SYSTEM>
0

>  <SCORE.SYSTEM.CONST>
0

>  <SCORE.SYSTEM.DIHEDRAL>
0

>  <SCORE.SYSTEM.SOLV>
0

>  <SCORE.SYSTEM.norm>
0

>  <SCORE.heavy>
10

>  <SCORE.norm>
-1.74715

>  <RMSD>
0.492

$$$$
ligand
 OpenBabel11021811493D
libRbt.so/2013.1/901 2013/11/27
 10 11  0  0  0  0  0  0  0  0999 V2000
   11.8371   11.2756    8.6158 N   0  0  0  0  0  0  0  0  0  0  0  0
   11.6089   12.6282    8.6474 C   0  0  0  0  0  0  0  0  0  0  0  0
   11.3021   13.3142    7.5346 N   0  0  0  0  0  0  0  0  0  0  0  0
   11.2455   12.5484    6.4253 C   0  0  0  0  0  0  0  0  0  0  0  0
   11.4641   11.1919    6.3289 C   0  0  0  0  0  0  0  0  0  0  0  0
   11.7850   10.4537    7.4856 C   0  0  0  0  0  0  0  0  0  0  0  0
   12.0127    9.2583    7.6117 O   0  0  0  0  0  0  0  0  0  0  0  0
   11.3062   10.8132    5.0280 N   0  0  0  0  0  0  0  0  0  0  0  0
   10.9959   11.9314    4.3389 C   0  0  0  0  0  0  0  0  0  0  0  0
   10.9532   13.0182    5.1741 N   0  0  0  0  0  0  0  0  0  0  0  0
  1  2  1  0  0  0  0
  1  6  1  0  0  0  0
  2  3  2  0  0  0  0
  3  4  1  0  0  0  0
  4  5  2  0  0  0  0
  4 10  1  0  0  0  0
  5  6  1  0  0  0  0
  5  8  1  0  0  0  0
  6  7  2  0  0  0  0
  8  9  1  0  0  0  0
  9 10  2  0  0  0  0
M  END
>  <CHROM.1>
11.46189615,11.59920638,6.73808373,0.32779459,-1.33364667,0.79108102

>  <Name>
ligand

>  <RI>
0

>  <Rbt.Current_Directory>
/home/itssahil/PROJECTS/Mol_Feturizer/New_Systems/rnas/4FEJ

>  <Rbt.Executable>
rbdock ($Id: //depot/dev/client3/rdock/2013.1/src/exe/rbdock.cxx#4 $)

>  <Rbt.Library>
libRbt.so (2013.1, Build901 2013/11/27)

>  <Rbt.Parameter_File>
/export/apps/rDock/src/rDock_2013.1_src/data/scripts/dock_solv.prm

>  <Rbt.Receptor>
prm/pocket_docking_6.prm

>  <SCORE>
-17.4185

>  <SCORE.INTER>
-17.4185

>  <SCORE.INTER.CONST>
1

>  <SCORE.INTER.POLAR>
0

>  <SCORE.INTER.ROT>
0

>  <SCORE.INTER.SOLV>
3.90084

>  <SCORE.INTER.VDW>
-16.5126

>  <SCORE.INTER.norm>
-1.74185

>  <SCORE.INTRA>
0

>  <SCORE.INTRA.DIHEDRAL>
0

>  <SCORE.INTRA.DIHEDRAL.0>
0

>  <SCORE.INTRA.POLAR>
0

>  <SCORE.INTRA.POLAR.0>
0

>  <SCORE.INTRA.REPUL>
0

>  <SCORE.INTRA.REPUL.0>
0

>  <SCORE.INTRA.SOLV>
0

>  <SCORE.INTRA.SOLV.lig_0>
-4.26631

>  <SCORE.INTRA.VDW>
0

>  <SCORE.INTRA.VDW.0>
0

>  <SCORE.INTRA.norm>
0

>  <SCORE.RESTR>
0

>  <SCORE.RESTR.CAVITY>
0

>  <SCORE.RESTR.norm>
0

>  <SCORE.SYSTEM>
0

>  <SCORE.SYSTEM.CONST>
0

>  <SCORE.SYSTEM.DIHEDRAL>
0

>  <SCORE.SYSTEM.SOLV>
0

>  <SCORE.SYSTEM.norm>
0

>  <SCORE.heavy>
10

>  <SCORE.norm>
-1.74185

>  <RMSD>
0.493

$$$$
ligand
 OpenBabel11021811493D
libRbt.so/2013.1/901 2013/11/27
 10 11  0  0  0  0  0  0  0  0999 V2000
   11.8903   11.3641    8.6314 N   0  0  0  0  0  0  0  0  0  0  0  0
   11.6350   12.7121    8.6395 C   0  0  0  0  0  0  0  0  0  0  0  0
   11.3062   13.3708    7.5165 N   0  0  0  0  0  0  0  0  0  0  0  0
   11.2567   12.5832    6.4222 C   0  0  0  0  0  0  0  0  0  0  0  0
   11.5019   11.2298    6.3495 C   0  0  0  0  0  0  0  0  0  0  0  0
   11.8462   10.5201    7.5172 C   0  0  0  0  0  0  0  0  0  0  0  0
   12.0989    9.3321    7.6639 O   0  0  0  0  0  0  0  0  0  0  0  0
   11.3419   10.8235    5.0571 N   0  0  0  0  0  0  0  0  0  0  0  0
   11.0041   11.9222    4.3497 C   0  0  0  0  0  0  0  0  0  0  0  0
   10.9457   13.0235    5.1648 N   0  0  0  0  0  0  0  0  0  0  0  0
  1  2  1  0  0  0  0
  1  6  1  0  0  0  0
  2  3  2  0  0  0  0
  3  4  1  0  0  0  0
  4  5  2  0  0  0  0
  4 10  1  0  0  0  0
  5  6  1  0  0  0  0
  5  8  1  0  0  0  0
  6  7  2  0  0  0  0
  8  9  1  0  0  0  0
  9 10  2  0  0  0  0
M  END
>  <CHROM.1>
11.49455603,11.64462476,6.75095836,0.36271271,-1.31391050,0.80616695

>  <Name>
ligand

>  <RI>
0

>  <Rbt.Current_Directory>
/home/itssahil/PROJECTS/Mol_Feturizer/New_Systems/rnas/4FEJ

>  <Rbt.Executable>
rbdock ($Id: //depot/dev/client3/rdock/2013.1/src/exe/rbdock.cxx#4 $)

>  <Rbt.Library>
libRbt.so (2013.1, Build901 2013/11/27)

>  <Rbt.Parameter_File>
/export/apps/rDock/src/rDock_2013.1_src/data/scripts/dock_solv.prm

>  <Rbt.Receptor>
prm/pocket_docking_4.prm

>  <SCORE>
-17.423

>  <SCORE.INTER>
-17.423

>  <SCORE.INTER.CONST>
1

>  <SCORE.INTER.POLAR>
0

>  <SCORE.INTER.ROT>
0

>  <SCORE.INTER.SOLV>
3.84611

>  <SCORE.INTER.VDW>
-16.4974

>  <SCORE.INTER.norm>
-1.7423

>  <SCORE.INTRA>
0

>  <SCORE.INTRA.DIHEDRAL>
0

>  <SCORE.INTRA.DIHEDRAL.0>
0

>  <SCORE.INTRA.POLAR>
0

>  <SCORE.INTRA.POLAR.0>
0

>  <SCORE.INTRA.REPUL>
0

>  <SCORE.INTRA.REPUL.0>
0

>  <SCORE.INTRA.SOLV>
0

>  <SCORE.INTRA.SOLV.lig_0>
-4.26631

>  <SCORE.INTRA.VDW>
0

>  <SCORE.INTRA.VDW.0>
0

>  <SCORE.INTRA.norm>
0

>  <SCORE.RESTR>
0

>  <SCORE.RESTR.CAVITY>
0

>  <SCORE.RESTR.norm>
0

>  <SCORE.SYSTEM>
0

>  <SCORE.SYSTEM.CONST>
0

>  <SCORE.SYSTEM.DIHEDRAL>
0

>  <SCORE.SYSTEM.SOLV>
0

>  <SCORE.SYSTEM.norm>
0

>  <SCORE.heavy>
10

>  <SCORE.norm>
-1.7423

>  <RMSD>
0.494

$$$$
ligand
 OpenBabel11021811493D
libRbt.so/2013.1/901 2013/11/27
 10 11  0  0  0  0  0  0  0  0999 V2000
   11.9099   11.3654    8.6294 N   0  0  0  0  0  0  0  0  0  0  0  0
   11.6650   12.7154    8.6334 C   0  0  0  0  0  0  0  0  0  0  0  0
   11.3345   13.3718    7.5097 N   0  0  0  0  0  0  0  0  0  0  0  0
   11.2725   12.5802    6.4189 C   0  0  0  0  0  0  0  0  0  0  0  0
   11.5071   11.2246    6.3505 C   0  0  0  0  0  0  0  0  0  0  0  0
   11.8529   10.5172    7.5191 C   0  0  0  0  0  0  0  0  0  0  0  0
   12.0974    9.3279    7.6693 O   0  0  0  0  0  0  0  0  0  0  0  0
   11.3363   10.8142    5.0608 N   0  0  0  0  0  0  0  0  0  0  0  0
   11.0026   11.9124    4.3508 C   0  0  0  0  0  0  0  0  0  0  0  0
   10.9574   13.0175    5.1616 N   0  0  0  0  0  0  0  0  0  0  0  0
  1  2  1  0  0  0  0
  1  6  1  0  0  0  0
  2  3  2  0  0  0  0
  3  4  1  0  0  0  0
  4  5  2  0  0  0  0
  4 10  1  0  0  0  0
  5  6  1  0  0  0  0
  5  8  1  0  0  0  0
  6  7  2  0  0  0  0
  8  9  1  0  0  0  0
  9 10  2  0  0  0  0
M  END
>  <CHROM.1>
11.50519372,11.64113271,6.75023769,0.32498568,-1.31509790,0.76549247

>  <Name>
ligand

>  <RI>
0

>  <Rbt.Current_Directory>
/home/itssahil/PROJECTS/Mol_Feturizer/New_Systems/rnas/4FEJ

>  <Rbt.Executable>
rbdock ($Id: //depot/dev/client3/rdock/2013.1/src/exe/rbdock.cxx#4 $)

>  <Rbt.Library>
libRbt.so (2013.1, Build901 2013/11/27)

>  <Rbt.Parameter_File>
/export/apps/rDock/src/rDock_2013.1_src/data/scripts/dock_solv.prm

>  <Rbt.Receptor>
prm/pocket_docking_8.prm

>  <SCORE>
-17.4304

>  <SCORE.INTER>
-17.4304

>  <SCORE.INTER.CONST>
1

>  <SCORE.INTER.POLAR>
0

>  <SCORE.INTER.ROT>
0

>  <SCORE.INTER.SOLV>
3.85647

>  <SCORE.INTER.VDW>
-16.5058

>  <SCORE.INTER.norm>
-1.74304

>  <SCORE.INTRA>
0

>  <SCORE.INTRA.DIHEDRAL>
0

>  <SCORE.INTRA.DIHEDRAL.0>
0

>  <SCORE.INTRA.POLAR>
0

>  <SCORE.INTRA.POLAR.0>
0

>  <SCORE.INTRA.REPUL>
0

>  <SCORE.INTRA.REPUL.0>
0

>  <SCORE.INTRA.SOLV>
0

>  <SCORE.INTRA.SOLV.lig_0>
-4.26631

>  <SCORE.INTRA.VDW>
0

>  <SCORE.INTRA.VDW.0>
0

>  <SCORE.INTRA.norm>
0

>  <SCORE.RESTR>
0

>  <SCORE.RESTR.CAVITY>
0

>  <SCORE.RESTR.norm>
0

>  <SCORE.SYSTEM>
0

>  <SCORE.SYSTEM.CONST>
0

>  <SCORE.SYSTEM.DIHEDRAL>
0

>  <SCORE.SYSTEM.SOLV>
0

>  <SCORE.SYSTEM.norm>
0

>  <SCORE.heavy>
10

>  <SCORE.norm>
-1.74304

>  <RMSD>
0.494

$$$$
ligand
 OpenBabel11021811493D
libRbt.so/2013.1/901 2013/11/27
 10 11  0  0  0  0  0  0  0  0999 V2000
   11.8333   11.2739    8.5911 N   0  0  0  0  0  0  0  0  0  0  0  0
   11.5633   12.6183    8.6368 C   0  0  0  0  0  0  0  0  0  0  0  0
   11.2363   13.3063    7.5310 N   0  0  0  0  0  0  0  0  0  0  0  0
   11.2043   12.5510    6.4136 C   0  0  0  0  0  0  0  0  0  0  0  0
   11.4650   11.2030    6.3031 C   0  0  0  0  0  0  0  0  0  0  0  0
   11.8076   10.4629    7.4522 C   0  0  0  0  0  0  0  0  0  0  0  0
   12.0720    9.2738    7.5659 O   0  0  0  0  0  0  0  0  0  0  0  0
   11.3199   10.8334    4.9980 N   0  0  0  0  0  0  0  0  0  0  0  0
   10.9758   11.9488    4.3204 C   0  0  0  0  0  0  0  0  0  0  0  0
   10.8987   13.0248    5.1671 N   0  0  0  0  0  0  0  0  0  0  0  0
  1  2  1  0  0  0  0
  1  6  1  0  0  0  0
  2  3  2  0  0  0  0
  3  4  1  0  0  0  0
  4  5  2  0  0  0  0
  4 10  1  0  0  0  0
  5  6  1  0  0  0  0
  5  8  1  0  0  0  0
  6  7  2  0  0  0  0
  8  9  1  0  0  0  0
  9 10  2  0  0  0  0
M  END
>  <CHROM.1>
11.44980313,11.60569656,6.71650346,0.41501340,-1.31126337,0.88625108

>  <Name>
ligand

>  <RI>
0

>  <Rbt.Current_Directory>
/home/itssahil/PROJECTS/Mol_Feturizer/New_Systems/rnas/4FEJ

>  <Rbt.Executable>
rbdock ($Id: //depot/dev/client3/rdock/2013.1/src/exe/rbdock.cxx#4 $)

>  <Rbt.Library>
libRbt.so (2013.1, Build901 2013/11/27)

>  <Rbt.Parameter_File>
/export/apps/rDock/src/rDock_2013.1_src/data/scripts/dock_solv.prm

>  <Rbt.Receptor>
prm/pocket_docking_5.prm

>  <SCORE>
-17.4385

>  <SCORE.INTER>
-17.4385

>  <SCORE.INTER.CONST>
1

>  <SCORE.INTER.POLAR>
0

>  <SCORE.INTER.ROT>
0

>  <SCORE.INTER.SOLV>
3.81413

>  <SCORE.INTER.VDW>
-16.497

>  <SCORE.INTER.norm>
-1.74385

>  <SCORE.INTRA>
0

>  <SCORE.INTRA.DIHEDRAL>
0

>  <SCORE.INTRA.DIHEDRAL.0>
0

>  <SCORE.INTRA.POLAR>
0

>  <SCORE.INTRA.POLAR.0>
0

>  <SCORE.INTRA.REPUL>
0

>  <SCORE.INTRA.REPUL.0>
0

>  <SCORE.INTRA.SOLV>
0

>  <SCORE.INTRA.SOLV.lig_0>
-4.26631

>  <SCORE.INTRA.VDW>
0

>  <SCORE.INTRA.VDW.0>
0

>  <SCORE.INTRA.norm>
0

>  <SCORE.RESTR>
0

>  <SCORE.RESTR.CAVITY>
0

>  <SCORE.RESTR.norm>
0

>  <SCORE.SYSTEM>
0

>  <SCORE.SYSTEM.CONST>
0

>  <SCORE.SYSTEM.DIHEDRAL>
0

>  <SCORE.SYSTEM.SOLV>
0

>  <SCORE.SYSTEM.norm>
0

>  <SCORE.heavy>
10

>  <SCORE.norm>
-1.74385

>  <RMSD>
0.495

$$$$
ligand
 OpenBabel11021811493D
libRbt.so/2013.1/901 2013/11/27
 10 11  0  0  0  0  0  0  0  0999 V2000
   11.8720   11.3239    8.6237 N   0  0  0  0  0  0  0  0  0  0  0  0
   11.6663   12.6795    8.6737 C   0  0  0  0  0  0  0  0  0  0  0  0
   11.3573   13.3833    7.5727 N   0  0  0  0  0  0  0  0  0  0  0  0
   11.2747   12.6316    6.4554 C   0  0  0  0  0  0  0  0  0  0  0  0
   11.4700   11.2729    6.3408 C   0  0  0  0  0  0  0  0  0  0  0  0
   11.7928   10.5162    7.4848 C   0  0  0  0  0  0  0  0  0  0  0  0
   12.0024    9.3159    7.5944 O   0  0  0  0  0  0  0  0  0  0  0  0
   11.2902   10.9121    5.0376 N   0  0  0  0  0  0  0  0  0  0  0  0
   10.9899   12.0432    4.3653 C   0  0  0  0  0  0  0  0  0  0  0  0
   10.9750   13.1207    5.2135 N   0  0  0  0  0  0  0  0  0  0  0  0
  1  2  1  0  0  0  0
  1  6  1  0  0  0  0
  2  3  2  0  0  0  0
  3  4  1  0  0  0  0
  4  5  2  0  0  0  0
  4 10  1  0  0  0  0
  5  6  1  0  0  0  0
  5  8  1  0  0  0  0
  6  7  2  0  0  0  0
  8  9  1  0  0  0  0
  9 10  2  0  0  0  0
M  END
>  <CHROM.1>
11.47940827,11.67544124,6.75458729,0.24134636,-1.33589924,0.71862810

>  <Name>
ligand

>  <RI>
0

>  <Rbt.Current_Directory>
/home/itssahil/PROJECTS/Mol_Feturizer/New_Systems/rnas/4FEJ

>  <Rbt.Executable>
rbdock ($Id: //depot/dev/client3/rdock/2013.1/src/exe/rbdock.cxx#4 $)

>  <Rbt.Library>
libRbt.so (2013.1, Build901 2013/11/27)

>  <Rbt.Parameter_File>
/export/apps/rDock/src/rDock_2013.1_src/data/scripts/dock_solv.prm

>  <Rbt.Receptor>
prm/pocket_docking_8.prm

>  <SCORE>
-17.4728

>  <SCORE.INTER>
-17.4728

>  <SCORE.INTER.CONST>
1

>  <SCORE.INTER.POLAR>
0

>  <SCORE.INTER.ROT>
0

>  <SCORE.INTER.SOLV>
3.90033

>  <SCORE.INTER.VDW>
-16.5486

>  <SCORE.INTER.norm>
-1.74728

>  <SCORE.INTRA>
0

>  <SCORE.INTRA.DIHEDRAL>
0

>  <SCORE.INTRA.DIHEDRAL.0>
0

>  <SCORE.INTRA.POLAR>
0

>  <SCORE.INTRA.POLAR.0>
0

>  <SCORE.INTRA.REPUL>
0

>  <SCORE.INTRA.REPUL.0>
0

>  <SCORE.INTRA.SOLV>
0

>  <SCORE.INTRA.SOLV.lig_0>
-4.26631

>  <SCORE.INTRA.VDW>
0

>  <SCORE.INTRA.VDW.0>
0

>  <SCORE.INTRA.norm>
0

>  <SCORE.RESTR>
0

>  <SCORE.RESTR.CAVITY>
0

>  <SCORE.RESTR.norm>
0

>  <SCORE.SYSTEM>
0

>  <SCORE.SYSTEM.CONST>
0

>  <SCORE.SYSTEM.DIHEDRAL>
0

>  <SCORE.SYSTEM.SOLV>
0

>  <SCORE.SYSTEM.norm>
0

>  <SCORE.heavy>
10

>  <SCORE.norm>
-1.74728

>  <RMSD>
0.495

$$$$
ligand
 OpenBabel11021811493D
libRbt.so/2013.1/901 2013/11/27
 10 11  0  0  0  0  0  0  0  0999 V2000
   11.8381   11.2628    8.5775 N   0  0  0  0  0  0  0  0  0  0  0  0
   11.5622   12.6057    8.6318 C   0  0  0  0  0  0  0  0  0  0  0  0
   11.2369   13.3003    7.5296 N   0  0  0  0  0  0  0  0  0  0  0  0
   11.2127   12.5530    6.4067 C   0  0  0  0  0  0  0  0  0  0  0  0
   11.4795   11.2069    6.2875 C   0  0  0  0  0  0  0  0  0  0  0  0
   11.8205   10.4599    7.4326 C   0  0  0  0  0  0  0  0  0  0  0  0
   12.0895    9.2712    7.5389 O   0  0  0  0  0  0  0  0  0  0  0  0
   11.3413   10.8462    4.9792 N   0  0  0  0  0  0  0  0  0  0  0  0
   10.9953   11.9650    4.3083 C   0  0  0  0  0  0  0  0  0  0  0  0
   10.9101   13.0346    5.1624 N   0  0  0  0  0  0  0  0  0  0  0  0
  1  2  1  0  0  0  0
  1  6  1  0  0  0  0
  2  3  2  0  0  0  0
  3  4  1  0  0  0  0
  4  5  2  0  0  0  0
  4 10  1  0  0  0  0
  5  6  1  0  0  0  0
  5  8  1  0  0  0  0
  6  7  2  0  0  0  0
  8  9  1  0  0  0  0
  9 10  2  0  0  0  0
M  END
>  <CHROM.1>
11.46089123,11.60654409,6.70377423,0.43783554,-1.31051356,0.91554340

>  <Name>
ligand

>  <RI>
0

>  <Rbt.Current_Directory>
/home/itssahil/PROJECTS/Mol_Feturizer/New_Systems/rnas/4FEJ

>  <Rbt.Executable>
rbdock ($Id: //depot/dev/client3/rdock/2013.1/src/exe/rbdock.cxx#4 $)

>  <Rbt.Library>
libRbt.so (2013.1, Build901 2013/11/27)

>  <Rbt.Parameter_File>
/export/apps/rDock/src/rDock_2013.1_src/data/scripts/dock_solv.prm

>  <Rbt.Receptor>
prm/pocket_docking_5.prm

>  <SCORE>
-17.4388

>  <SCORE.INTER>
-17.4388

>  <SCORE.INTER.CONST>
1

>  <SCORE.INTER.POLAR>
0

>  <SCORE.INTER.ROT>
0

>  <SCORE.INTER.SOLV>
3.7957

>  <SCORE.INTER.VDW>
-16.4911

>  <SCORE.INTER.norm>
-1.74388

>  <SCORE.INTRA>
0

>  <SCORE.INTRA.DIHEDRAL>
0

>  <SCORE.INTRA.DIHEDRAL.0>
0

>  <SCORE.INTRA.POLAR>
0

>  <SCORE.INTRA.POLAR.0>
0

>  <SCORE.INTRA.REPUL>
0

>  <SCORE.INTRA.REPUL.0>
0

>  <SCORE.INTRA.SOLV>
0

>  <SCORE.INTRA.SOLV.lig_0>
-4.26631

>  <SCORE.INTRA.VDW>
0

>  <SCORE.INTRA.VDW.0>
0

>  <SCORE.INTRA.norm>
0

>  <SCORE.RESTR>
0

>  <SCORE.RESTR.CAVITY>
0

>  <SCORE.RESTR.norm>
0

>  <SCORE.SYSTEM>
0

>  <SCORE.SYSTEM.CONST>
0

>  <SCORE.SYSTEM.DIHEDRAL>
0

>  <SCORE.SYSTEM.SOLV>
0

>  <SCORE.SYSTEM.norm>
0

>  <SCORE.heavy>
10

>  <SCORE.norm>
-1.74388

>  <RMSD>
0.496

$$$$
ligand
 OpenBabel11021811493D
libRbt.so/2013.1/901 2013/11/27
 10 11  0  0  0  0  0  0  0  0999 V2000
   11.8374   11.2791    8.5920 N   0  0  0  0  0  0  0  0  0  0  0  0
   11.5660   12.6234    8.6340 C   0  0  0  0  0  0  0  0  0  0  0  0
   11.2380   13.3079    7.5264 N   0  0  0  0  0  0  0  0  0  0  0  0
   11.2066   12.5495    6.4110 C   0  0  0  0  0  0  0  0  0  0  0  0
   11.4686   11.2014    6.3042 C   0  0  0  0  0  0  0  0  0  0  0  0
   11.8123   10.4649    7.4553 C   0  0  0  0  0  0  0  0  0  0  0  0
   12.0780    9.2764    7.5723 O   0  0  0  0  0  0  0  0  0  0  0  0
   11.3236   10.8281    5.0002 N   0  0  0  0  0  0  0  0  0  0  0  0
   10.9781   11.9412    4.3197 C   0  0  0  0  0  0  0  0  0  0  0  0
   10.9001   13.0195    5.1634 N   0  0  0  0  0  0  0  0  0  0  0  0
  1  2  1  0  0  0  0
  1  6  1  0  0  0  0
  2  3  2  0  0  0  0
  3  4  1  0  0  0  0
  4  5  2  0  0  0  0
  4 10  1  0  0  0  0
  5  6  1  0  0  0  0
  5  8  1  0  0  0  0
  6  7  2  0  0  0  0
  8  9  1  0  0  0  0
  9 10  2  0  0  0  0
M  END
>  <CHROM.1>
11.45308842,11.60524507,6.71656222,0.41689939,-1.31028856,0.88529086

>  <Name>
ligand

>  <RI>
0

>  <Rbt.Current_Directory>
/home/itssahil/PROJECTS/Mol_Feturizer/New_Systems/rnas/4FEJ

>  <Rbt.Executable>
rbdock ($Id: //depot/dev/client3/rdock/2013.1/src/exe/rbdock.cxx#4 $)

>  <Rbt.Library>
libRbt.so (2013.1, Build901 2013/11/27)

>  <Rbt.Parameter_File>
/export/apps/rDock/src/rDock_2013.1_src/data/scripts/dock_solv.prm

>  <Rbt.Receptor>
prm/pocket_docking_8.prm

>  <SCORE>
-17.4088

>  <SCORE.INTER>
-17.4088

>  <SCORE.INTER.CONST>
1

>  <SCORE.INTER.POLAR>
0

>  <SCORE.INTER.ROT>
0

>  <SCORE.INTER.SOLV>
3.81189

>  <SCORE.INTER.VDW>
-16.4765

>  <SCORE.INTER.norm>
-1.74088

>  <SCORE.INTRA>
0

>  <SCORE.INTRA.DIHEDRAL>
0

>  <SCORE.INTRA.DIHEDRAL.0>
0

>  <SCORE.INTRA.POLAR>
0

>  <SCORE.INTRA.POLAR.0>
0

>  <SCORE.INTRA.REPUL>
0

>  <SCORE.INTRA.REPUL.0>
0

>  <SCORE.INTRA.SOLV>
0

>  <SCORE.INTRA.SOLV.lig_0>
-4.26631

>  <SCORE.INTRA.VDW>
0

>  <SCORE.INTRA.VDW.0>
0

>  <SCORE.INTRA.norm>
0

>  <SCORE.RESTR>
0

>  <SCORE.RESTR.CAVITY>
0

>  <SCORE.RESTR.norm>
0

>  <SCORE.SYSTEM>
0

>  <SCORE.SYSTEM.CONST>
0

>  <SCORE.SYSTEM.DIHEDRAL>
0

>  <SCORE.SYSTEM.SOLV>
0

>  <SCORE.SYSTEM.norm>
0

>  <SCORE.heavy>
10

>  <SCORE.norm>
-1.74088

>  <RMSD>
0.496

$$$$
ligand
 OpenBabel11021811493D
libRbt.so/2013.1/901 2013/11/27
 10 11  0  0  0  0  0  0  0  0999 V2000
   11.8391   11.2620    8.5769 N   0  0  0  0  0  0  0  0  0  0  0  0
   11.5641   12.6050    8.6331 C   0  0  0  0  0  0  0  0  0  0  0  0
   11.2367   13.3008    7.5323 N   0  0  0  0  0  0  0  0  0  0  0  0
   11.2096   12.5546    6.4087 C   0  0  0  0  0  0  0  0  0  0  0  0
   11.4753   11.2085    6.2876 C   0  0  0  0  0  0  0  0  0  0  0  0
   11.8184   10.4602    7.4313 C   0  0  0  0  0  0  0  0  0  0  0  0
   12.0869    9.2712    7.5358 O   0  0  0  0  0  0  0  0  0  0  0  0
   11.3339   10.8491    4.9793 N   0  0  0  0  0  0  0  0  0  0  0  0
   10.9870   11.9687    4.3102 C   0  0  0  0  0  0  0  0  0  0  0  0
   10.9045   13.0375    5.1656 N   0  0  0  0  0  0  0  0  0  0  0  0
  1  2  1  0  0  0  0
  1  6  1  0  0  0  0
  2  3  2  0  0  0  0
  3  4  1  0  0  0  0
  4  5  2  0  0  0  0
  4 10  1  0  0  0  0
  5  6  1  0  0  0  0
  5  8  1  0  0  0  0
  6  7  2  0  0  0  0
  8  9  1  0  0  0  0
  9 10  2  0  0  0  0
M  END
>  <CHROM.1>
11.45786024,11.60768785,6.70431698,0.42945555,-1.30961979,0.90840105

>  <Name>
ligand

>  <RI>
0

>  <Rbt.Current_Directory>
/home/itssahil/PROJECTS/Mol_Feturizer/New_Systems/rnas/4FEJ

>  <Rbt.Executable>
rbdock ($Id: //depot/dev/client3/rdock/2013.1/src/exe/rbdock.cxx#4 $)

>  <Rbt.Library>
libRbt.so (2013.1, Build901 2013/11/27)

>  <Rbt.Parameter_File>
/export/apps/rDock/src/rDock_2013.1_src/data/scripts/dock_solv.prm

>  <Rbt.Receptor>
prm/pocket_docking_8.prm

>  <SCORE>
-17.4408

>  <SCORE.INTER>
-17.4408

>  <SCORE.INTER.CONST>
1

>  <SCORE.INTER.POLAR>
0

>  <SCORE.INTER.ROT>
0

>  <SCORE.INTER.SOLV>
3.79426

>  <SCORE.INTER.VDW>
-16.4919

>  <SCORE.INTER.norm>
-1.74408

>  <SCORE.INTRA>
0

>  <SCORE.INTRA.DIHEDRAL>
0

>  <SCORE.INTRA.DIHEDRAL.0>
0

>  <SCORE.INTRA.POLAR>
0

>  <SCORE.INTRA.POLAR.0>
0

>  <SCORE.INTRA.REPUL>
0

>  <SCORE.INTRA.REPUL.0>
0

>  <SCORE.INTRA.SOLV>
0

>  <SCORE.INTRA.SOLV.lig_0>
-4.26631

>  <SCORE.INTRA.VDW>
0

>  <SCORE.INTRA.VDW.0>
0

>  <SCORE.INTRA.norm>
0

>  <SCORE.RESTR>
0

>  <SCORE.RESTR.CAVITY>
0

>  <SCORE.RESTR.norm>
0

>  <SCORE.SYSTEM>
0

>  <SCORE.SYSTEM.CONST>
0

>  <SCORE.SYSTEM.DIHEDRAL>
0

>  <SCORE.SYSTEM.SOLV>
0

>  <SCORE.SYSTEM.norm>
0

>  <SCORE.heavy>
10

>  <SCORE.norm>
-1.74408

>  <RMSD>
0.496

$$$$
ligand
 OpenBabel11021811493D
libRbt.so/2013.1/901 2013/11/27
 10 11  0  0  0  0  0  0  0  0999 V2000
   11.8817   11.1582    8.5090 N   0  0  0  0  0  0  0  0  0  0  0  0
   11.6116   12.4995    8.6116 C   0  0  0  0  0  0  0  0  0  0  0  0
   11.2686   13.2302    7.5386 N   0  0  0  0  0  0  0  0  0  0  0  0
   11.2212   12.5196    6.3927 C   0  0  0  0  0  0  0  0  0  0  0  0
   11.4811   11.1773    6.2254 C   0  0  0  0  0  0  0  0  0  0  0  0
   11.8403   10.3928    7.3394 C   0  0  0  0  0  0  0  0  0  0  0  0
   12.1071    9.2005    7.4024 O   0  0  0  0  0  0  0  0  0  0  0  0
   11.3178   10.8594    4.9089 N   0  0  0  0  0  0  0  0  0  0  0  0
   10.9634   12.0003    4.2809 C   0  0  0  0  0  0  0  0  0  0  0  0
   10.8977   13.0419    5.1704 N   0  0  0  0  0  0  0  0  0  0  0  0
  1  2  1  0  0  0  0
  1  6  1  0  0  0  0
  2  3  2  0  0  0  0
  3  4  1  0  0  0  0
  4  5  2  0  0  0  0
  4 10  1  0  0  0  0
  5  6  1  0  0  0  0
  5  8  1  0  0  0  0
  6  7  2  0  0  0  0
  8  9  1  0  0  0  0
  9 10  2  0  0  0  0
M  END
>  <CHROM.1>
11.47151006,11.56333163,6.65458199,0.37524138,-1.30166217,0.88737048

>  <Name>
ligand

>  <RI>
0

>  <Rbt.Current_Directory>
/home/itssahil/PROJECTS/Mol_Feturizer/New_Systems/rnas/4FEJ

>  <Rbt.Executable>
rbdock ($Id: //depot/dev/client3/rdock/2013.1/src/exe/rbdock.cxx#4 $)

>  <Rbt.Library>
libRbt.so (2013.1, Build901 2013/11/27)

>  <Rbt.Parameter_File>
/export/apps/rDock/src/rDock_2013.1_src/data/scripts/dock_solv.prm

>  <Rbt.Receptor>
prm/blind_docking_40.prm

>  <SCORE>
-17.3404

>  <SCORE.INTER>
-17.3404

>  <SCORE.INTER.CONST>
1

>  <SCORE.INTER.POLAR>
0

>  <SCORE.INTER.ROT>
0

>  <SCORE.INTER.SOLV>
3.72922

>  <SCORE.INTER.VDW>
-16.4034

>  <SCORE.INTER.norm>
-1.73404

>  <SCORE.INTRA>
0

>  <SCORE.INTRA.DIHEDRAL>
0

>  <SCORE.INTRA.DIHEDRAL.0>
0

>  <SCORE.INTRA.POLAR>
0

>  <SCORE.INTRA.POLAR.0>
0

>  <SCORE.INTRA.REPUL>
0

>  <SCORE.INTRA.REPUL.0>
0

>  <SCORE.INTRA.SOLV>
0

>  <SCORE.INTRA.SOLV.lig_0>
-4.26631

>  <SCORE.INTRA.VDW>
0

>  <SCORE.INTRA.VDW.0>
0

>  <SCORE.INTRA.norm>
0

>  <SCORE.RESTR>
0

>  <SCORE.RESTR.CAVITY>
0

>  <SCORE.RESTR.norm>
0

>  <SCORE.SYSTEM>
0

>  <SCORE.SYSTEM.CONST>
0

>  <SCORE.SYSTEM.DIHEDRAL>
0

>  <SCORE.SYSTEM.SOLV>
0

>  <SCORE.SYSTEM.norm>
0

>  <SCORE.heavy>
10

>  <SCORE.norm>
-1.73404

>  <RMSD>
0.497

$$$$
ligand
 OpenBabel11021811493D
libRbt.so/2013.1/901 2013/11/27
 10 11  0  0  0  0  0  0  0  0999 V2000
   11.8528   11.2909    8.6060 N   0  0  0  0  0  0  0  0  0  0  0  0
   11.6388   12.6447    8.6673 C   0  0  0  0  0  0  0  0  0  0  0  0
   11.3373   13.3578    7.5702 N   0  0  0  0  0  0  0  0  0  0  0  0
   11.2708   12.6169    6.4447 C   0  0  0  0  0  0  0  0  0  0  0  0
   11.4751   11.2606    6.3185 C   0  0  0  0  0  0  0  0  0  0  0  0
   11.7901   10.4942    7.4583 C   0  0  0  0  0  0  0  0  0  0  0  0
   12.0055    9.2941    7.5581 O   0  0  0  0  0  0  0  0  0  0  0  0
   11.3110   10.9118    5.0100 N   0  0  0  0  0  0  0  0  0  0  0  0
   11.0114   12.0479    4.3459 C   0  0  0  0  0  0  0  0  0  0  0  0
   10.9814   13.1168    5.2045 N   0  0  0  0  0  0  0  0  0  0  0  0
  1  2  1  0  0  0  0
  1  6  1  0  0  0  0
  2  3  2  0  0  0  0
  3  4  1  0  0  0  0
  4  5  2  0  0  0  0
  4 10  1  0  0  0  0
  5  6  1  0  0  0  0
  5  8  1  0  0  0  0
  6  7  2  0  0  0  0
  8  9  1  0  0  0  0
  9 10  2  0  0  0  0
M  END
>  <CHROM.1>
11.47781758,11.65895129,6.73641228,0.29047336,-1.33976813,0.77643149

>  <Name>
ligand

>  <RI>
0

>  <Rbt.Current_Directory>
/home/itssahil/PROJECTS/Mol_Feturizer/New_Systems/rnas/4FEJ

>  <Rbt.Executable>
rbdock ($Id: //depot/dev/client3/rdock/2013.1/src/exe/rbdock.cxx#4 $)

>  <Rbt.Library>
libRbt.so (2013.1, Build901 2013/11/27)

>  <Rbt.Parameter_File>
/export/apps/rDock/src/rDock_2013.1_src/data/scripts/dock_solv.prm

>  <Rbt.Receptor>
prm/blind_docking_60.prm

>  <SCORE>
-17.3675

>  <SCORE.INTER>
-17.3675

>  <SCORE.INTER.CONST>
1

>  <SCORE.INTER.POLAR>
0

>  <SCORE.INTER.ROT>
0

>  <SCORE.INTER.SOLV>
3.89114

>  <SCORE.INTER.VDW>
-16.4754

>  <SCORE.INTER.norm>
-1.73675

>  <SCORE.INTRA>
0

>  <SCORE.INTRA.DIHEDRAL>
0

>  <SCORE.INTRA.DIHEDRAL.0>
0

>  <SCORE.INTRA.POLAR>
0

>  <SCORE.INTRA.POLAR.0>
0

>  <SCORE.INTRA.REPUL>
0

>  <SCORE.INTRA.REPUL.0>
0

>  <SCORE.INTRA.SOLV>
0

>  <SCORE.INTRA.SOLV.lig_0>
-4.26631

>  <SCORE.INTRA.VDW>
0

>  <SCORE.INTRA.VDW.0>
0

>  <SCORE.INTRA.norm>
0

>  <SCORE.RESTR>
0

>  <SCORE.RESTR.CAVITY>
0

>  <SCORE.RESTR.norm>
0

>  <SCORE.SYSTEM>
0

>  <SCORE.SYSTEM.CONST>
0

>  <SCORE.SYSTEM.DIHEDRAL>
0

>  <SCORE.SYSTEM.SOLV>
0

>  <SCORE.SYSTEM.norm>
0

>  <SCORE.heavy>
10

>  <SCORE.norm>
-1.73675

>  <RMSD>
0.497

$$$$
ligand
 OpenBabel11021811493D
libRbt.so/2013.1/901 2013/11/27
 10 11  0  0  0  0  0  0  0  0999 V2000
   11.8686   11.3263    8.6329 N   0  0  0  0  0  0  0  0  0  0  0  0
   11.6422   12.6795    8.6387 C   0  0  0  0  0  0  0  0  0  0  0  0
   11.3281   13.3432    7.5145 N   0  0  0  0  0  0  0  0  0  0  0  0
   11.2625   12.5552    6.4214 C   0  0  0  0  0  0  0  0  0  0  0  0
   11.4789   11.1967    6.3510 C   0  0  0  0  0  0  0  0  0  0  0  0
   11.8073   10.4817    7.5200 C   0  0  0  0  0  0  0  0  0  0  0  0
   12.0345    9.2889    7.6687 O   0  0  0  0  0  0  0  0  0  0  0  0
   11.3111   10.7919    5.0591 N   0  0  0  0  0  0  0  0  0  0  0  0
   10.9971   11.8963    4.3498 C   0  0  0  0  0  0  0  0  0  0  0  0
   10.9617   12.9999    5.1631 N   0  0  0  0  0  0  0  0  0  0  0  0
  1  2  1  0  0  0  0
  1  6  1  0  0  0  0
  2  3  2  0  0  0  0
  3  4  1  0  0  0  0
  4  5  2  0  0  0  0
  4 10  1  0  0  0  0
  5  6  1  0  0  0  0
  5  8  1  0  0  0  0
  6  7  2  0  0  0  0
  8  9  1  0  0  0  0
  9 10  2  0  0  0  0
M  END
>  <CHROM.1>
11.48012647,11.61224599,6.75176191,0.30281896,-1.32929817,0.74652670

>  <Name>
ligand

>  <RI>
0

>  <Rbt.Current_Directory>
/home/itssahil/PROJECTS/Mol_Feturizer/New_Systems/rnas/4FEJ

>  <Rbt.Executable>
rbdock ($Id: //depot/dev/client3/rdock/2013.1/src/exe/rbdock.cxx#4 $)

>  <Rbt.Library>
libRbt.so (2013.1, Build901 2013/11/27)

>  <Rbt.Parameter_File>
/export/apps/rDock/src/rDock_2013.1_src/data/scripts/dock_solv.prm

>  <Rbt.Receptor>
prm/blind_docking_80.prm

>  <SCORE>
-17.4245

>  <SCORE.INTER>
-17.4245

>  <SCORE.INTER.CONST>
1

>  <SCORE.INTER.POLAR>
0

>  <SCORE.INTER.ROT>
0

>  <SCORE.INTER.SOLV>
3.90621

>  <SCORE.INTER.VDW>
-16.5184

>  <SCORE.INTER.norm>
-1.74245

>  <SCORE.INTRA>
0

>  <SCORE.INTRA.DIHEDRAL>
0

>  <SCORE.INTRA.DIHEDRAL.0>
0

>  <SCORE.INTRA.POLAR>
0

>  <SCORE.INTRA.POLAR.0>
0

>  <SCORE.INTRA.REPUL>
0

>  <SCORE.INTRA.REPUL.0>
0

>  <SCORE.INTRA.SOLV>
0

>  <SCORE.INTRA.SOLV.lig_0>
-4.26631

>  <SCORE.INTRA.VDW>
0

>  <SCORE.INTRA.VDW.0>
0

>  <SCORE.INTRA.norm>
0

>  <SCORE.RESTR>
0

>  <SCORE.RESTR.CAVITY>
0

>  <SCORE.RESTR.norm>
0

>  <SCORE.SYSTEM>
0

>  <SCORE.SYSTEM.CONST>
0

>  <SCORE.SYSTEM.DIHEDRAL>
0

>  <SCORE.SYSTEM.SOLV>
0

>  <SCORE.SYSTEM.norm>
0

>  <SCORE.heavy>
10

>  <SCORE.norm>
-1.74245

>  <RMSD>
0.497

$$$$
ligand
 OpenBabel11021811493D
libRbt.so/2013.1/901 2013/11/27
 10 11  0  0  0  0  0  0  0  0999 V2000
   11.8609   11.3213    8.6247 N   0  0  0  0  0  0  0  0  0  0  0  0
   11.6522   12.6763    8.6782 C   0  0  0  0  0  0  0  0  0  0  0  0
   11.3528   13.3840    7.5770 N   0  0  0  0  0  0  0  0  0  0  0  0
   11.2829   12.6368    6.4559 C   0  0  0  0  0  0  0  0  0  0  0  0
   11.4820   11.2790    6.3377 C   0  0  0  0  0  0  0  0  0  0  0  0
   11.7947   10.5181    7.4818 C   0  0  0  0  0  0  0  0  0  0  0  0
   12.0055    9.3178    7.5886 O   0  0  0  0  0  0  0  0  0  0  0  0
   11.3159   10.9231    5.0313 N   0  0  0  0  0  0  0  0  0  0  0  0
   11.0202   12.0564    4.3606 C   0  0  0  0  0  0  0  0  0  0  0  0
   10.9948   13.1304    5.2130 N   0  0  0  0  0  0  0  0  0  0  0  0
  1  2  1  0  0  0  0
  1  6  1  0  0  0  0
  2  3  2  0  0  0  0
  3  4  1  0  0  0  0
  4  5  2  0  0  0  0
  4 10  1  0  0  0  0
  5  6  1  0  0  0  0
  5  8  1  0  0  0  0
  6  7  2  0  0  0  0
  8  9  1  0  0  0  0
  9 10  2  0  0  0  0
M  END
>  <CHROM.1>
11.48642028,11.67976939,6.75320917,0.27685945,-1.34205039,0.75729008

>  <Name>
ligand

>  <RI>
0

>  <Rbt.Current_Directory>
/home/itssahil/PROJECTS/Mol_Feturizer/New_Systems/rnas/4FEJ

>  <Rbt.Executable>
rbdock ($Id: //depot/dev/client3/rdock/2013.1/src/exe/rbdock.cxx#4 $)

>  <Rbt.Library>
libRbt.so (2013.1, Build901 2013/11/27)

>  <Rbt.Parameter_File>
/export/apps/rDock/src/rDock_2013.1_src/data/scripts/dock_solv.prm

>  <Rbt.Receptor>
prm/pocket_docking_3.prm

>  <SCORE>
-17.4345

>  <SCORE.INTER>
-17.4345

>  <SCORE.INTER.CONST>
1

>  <SCORE.INTER.POLAR>
0

>  <SCORE.INTER.ROT>
0

>  <SCORE.INTER.SOLV>
3.90338

>  <SCORE.INTER.VDW>
-16.5241

>  <SCORE.INTER.norm>
-1.74345

>  <SCORE.INTRA>
0

>  <SCORE.INTRA.DIHEDRAL>
0

>  <SCORE.INTRA.DIHEDRAL.0>
0

>  <SCORE.INTRA.POLAR>
0

>  <SCORE.INTRA.POLAR.0>
0

>  <SCORE.INTRA.REPUL>
0

>  <SCORE.INTRA.REPUL.0>
0

>  <SCORE.INTRA.SOLV>
0

>  <SCORE.INTRA.SOLV.lig_0>
-4.26631

>  <SCORE.INTRA.VDW>
0

>  <SCORE.INTRA.VDW.0>
0

>  <SCORE.INTRA.norm>
0

>  <SCORE.RESTR>
0

>  <SCORE.RESTR.CAVITY>
0

>  <SCORE.RESTR.norm>
0

>  <SCORE.SYSTEM>
0

>  <SCORE.SYSTEM.CONST>
0

>  <SCORE.SYSTEM.DIHEDRAL>
0

>  <SCORE.SYSTEM.SOLV>
0

>  <SCORE.SYSTEM.norm>
0

>  <SCORE.heavy>
10

>  <SCORE.norm>
-1.74345

>  <RMSD>
0.497

$$$$
ligand
 OpenBabel11021811493D
libRbt.so/2013.1/901 2013/11/27
 10 11  0  0  0  0  0  0  0  0999 V2000
   11.8556   11.3106    8.6137 N   0  0  0  0  0  0  0  0  0  0  0  0
   11.6274   12.6630    8.6498 C   0  0  0  0  0  0  0  0  0  0  0  0
   11.3147   13.3517    7.5404 N   0  0  0  0  0  0  0  0  0  0  0  0
   11.2523   12.5887    6.4295 C   0  0  0  0  0  0  0  0  0  0  0  0
   11.4706   11.2324    6.3286 C   0  0  0  0  0  0  0  0  0  0  0  0
   11.7976   10.4915    7.4817 C   0  0  0  0  0  0  0  0  0  0  0  0
   12.0260    9.2958    7.6037 O   0  0  0  0  0  0  0  0  0  0  0  0
   11.3058   10.8569    5.0275 N   0  0  0  0  0  0  0  0  0  0  0  0
   10.9918   11.9768    4.3429 C   0  0  0  0  0  0  0  0  0  0  0  0
   10.9534   13.0616    5.1810 N   0  0  0  0  0  0  0  0  0  0  0  0
  1  2  1  0  0  0  0
  1  6  1  0  0  0  0
  2  3  2  0  0  0  0
  3  4  1  0  0  0  0
  4  5  2  0  0  0  0
  4 10  1  0  0  0  0
  5  6  1  0  0  0  0
  5  8  1  0  0  0  0
  6  7  2  0  0  0  0
  8  9  1  0  0  0  0
  9 10  2  0  0  0  0
M  END
>  <CHROM.1>
11.47046064,11.63877431,6.73876171,0.31238237,-1.32985526,0.77857260

>  <Name>
ligand

>  <RI>
0

>  <Rbt.Current_Directory>
/home/itssahil/PROJECTS/Mol_Feturizer/New_Systems/rnas/4FEJ

>  <Rbt.Executable>
rbdock ($Id: //depot/dev/client3/rdock/2013.1/src/exe/rbdock.cxx#4 $)

>  <Rbt.Library>
libRbt.so (2013.1, Build901 2013/11/27)

>  <Rbt.Parameter_File>
/export/apps/rDock/src/rDock_2013.1_src/data/scripts/dock_solv.prm

>  <Rbt.Receptor>
prm/pocket_docking_3.prm

>  <SCORE>
-17.4062

>  <SCORE.INTER>
-17.4062

>  <SCORE.INTER.CONST>
1

>  <SCORE.INTER.POLAR>
0

>  <SCORE.INTER.ROT>
0

>  <SCORE.INTER.SOLV>
3.88402

>  <SCORE.INTER.VDW>
-16.4988

>  <SCORE.INTER.norm>
-1.74062

>  <SCORE.INTRA>
0

>  <SCORE.INTRA.DIHEDRAL>
0

>  <SCORE.INTRA.DIHEDRAL.0>
0

>  <SCORE.INTRA.POLAR>
0

>  <SCORE.INTRA.POLAR.0>
0

>  <SCORE.INTRA.REPUL>
0

>  <SCORE.INTRA.REPUL.0>
0

>  <SCORE.INTRA.SOLV>
0

>  <SCORE.INTRA.SOLV.lig_0>
-4.26631

>  <SCORE.INTRA.VDW>
0

>  <SCORE.INTRA.VDW.0>
0

>  <SCORE.INTRA.norm>
0

>  <SCORE.RESTR>
0

>  <SCORE.RESTR.CAVITY>
0

>  <SCORE.RESTR.norm>
0

>  <SCORE.SYSTEM>
0

>  <SCORE.SYSTEM.CONST>
0

>  <SCORE.SYSTEM.DIHEDRAL>
0

>  <SCORE.SYSTEM.SOLV>
0

>  <SCORE.SYSTEM.norm>
0

>  <SCORE.heavy>
10

>  <SCORE.norm>
-1.74062

>  <RMSD>
0.497

$$$$
ligand
 OpenBabel11021811493D
libRbt.so/2013.1/901 2013/11/27
 10 11  0  0  0  0  0  0  0  0999 V2000
   11.8318   11.2610    8.5818 N   0  0  0  0  0  0  0  0  0  0  0  0
   11.5628   12.6053    8.6348 C   0  0  0  0  0  0  0  0  0  0  0  0
   11.2371   13.2997    7.5326 N   0  0  0  0  0  0  0  0  0  0  0  0
   11.2053   12.5506    6.4110 C   0  0  0  0  0  0  0  0  0  0  0  0
   11.4649   11.2030    6.2932 C   0  0  0  0  0  0  0  0  0  0  0  0
   11.8061   10.4563    7.4384 C   0  0  0  0  0  0  0  0  0  0  0  0
   12.0696    9.2664    7.5457 O   0  0  0  0  0  0  0  0  0  0  0  0
   11.3204   10.8408    4.9859 N   0  0  0  0  0  0  0  0  0  0  0  0
   10.9776   11.9602    4.3144 C   0  0  0  0  0  0  0  0  0  0  0  0
   10.9009   13.0316    5.1670 N   0  0  0  0  0  0  0  0  0  0  0  0
  1  2  1  0  0  0  0
  1  6  1  0  0  0  0
  2  3  2  0  0  0  0
  3  4  1  0  0  0  0
  4  5  2  0  0  0  0
  4 10  1  0  0  0  0
  5  6  1  0  0  0  0
  5  8  1  0  0  0  0
  6  7  2  0  0  0  0
  8  9  1  0  0  0  0
  9 10  2  0  0  0  0
M  END
>  <CHROM.1>
11.44977910,11.60342805,6.70882554,0.41507444,-1.31232348,0.89185377

>  <Name>
ligand

>  <RI>
0

>  <Rbt.Current_Directory>
/home/itssahil/PROJECTS/Mol_Feturizer/New_Systems/rnas/4FEJ

>  <Rbt.Executable>
rbdock ($Id: //depot/dev/client3/rdock/2013.1/src/exe/rbdock.cxx#4 $)

>  <Rbt.Library>
libRbt.so (2013.1, Build901 2013/11/27)

>  <Rbt.Parameter_File>
/export/apps/rDock/src/rDock_2013.1_src/data/scripts/dock_solv.prm

>  <Rbt.Receptor>
prm/pocket_docking_7.prm

>  <SCORE>
-17.4061

>  <SCORE.INTER>
-17.4061

>  <SCORE.INTER.CONST>
1

>  <SCORE.INTER.POLAR>
0

>  <SCORE.INTER.ROT>
0

>  <SCORE.INTER.SOLV>
3.81108

>  <SCORE.INTER.VDW>
-16.4744

>  <SCORE.INTER.norm>
-1.74061

>  <SCORE.INTRA>
0

>  <SCORE.INTRA.DIHEDRAL>
0

>  <SCORE.INTRA.DIHEDRAL.0>
0

>  <SCORE.INTRA.POLAR>
0

>  <SCORE.INTRA.POLAR.0>
0

>  <SCORE.INTRA.REPUL>
0

>  <SCORE.INTRA.REPUL.0>
0

>  <SCORE.INTRA.SOLV>
0

>  <SCORE.INTRA.SOLV.lig_0>
-4.26631

>  <SCORE.INTRA.VDW>
0

>  <SCORE.INTRA.VDW.0>
0

>  <SCORE.INTRA.norm>
0

>  <SCORE.RESTR>
0

>  <SCORE.RESTR.CAVITY>
0

>  <SCORE.RESTR.norm>
0

>  <SCORE.SYSTEM>
0

>  <SCORE.SYSTEM.CONST>
0

>  <SCORE.SYSTEM.DIHEDRAL>
0

>  <SCORE.SYSTEM.SOLV>
0

>  <SCORE.SYSTEM.norm>
0

>  <SCORE.heavy>
10

>  <SCORE.norm>
-1.74061

>  <RMSD>
0.497

$$$$
ligand
 OpenBabel11021811493D
libRbt.so/2013.1/901 2013/11/27
 10 11  0  0  0  0  0  0  0  0999 V2000
   11.8561   11.3685    8.6316 N   0  0  0  0  0  0  0  0  0  0  0  0
   11.5633   12.7089    8.6375 C   0  0  0  0  0  0  0  0  0  0  0  0
   11.2350   13.3602    7.5101 N   0  0  0  0  0  0  0  0  0  0  0  0
   11.2257   12.5737    6.4139 C   0  0  0  0  0  0  0  0  0  0  0  0
   11.5098   11.2278    6.3434 C   0  0  0  0  0  0  0  0  0  0  0  0
   11.8542   10.5258    7.5156 C   0  0  0  0  0  0  0  0  0  0  0  0
   12.1374    9.3450    7.6648 O   0  0  0  0  0  0  0  0  0  0  0  0
   11.3828   10.8197    5.0479 N   0  0  0  0  0  0  0  0  0  0  0  0
   11.0263   11.9098    4.3365 C   0  0  0  0  0  0  0  0  0  0  0  0
   10.9236   13.0075    5.1521 N   0  0  0  0  0  0  0  0  0  0  0  0
  1  2  1  0  0  0  0
  1  6  1  0  0  0  0
  2  3  2  0  0  0  0
  3  4  1  0  0  0  0
  4  5  2  0  0  0  0
  4 10  1  0  0  0  0
  5  6  1  0  0  0  0
  5  8  1  0  0  0  0
  6  7  2  0  0  0  0
  8  9  1  0  0  0  0
  9 10  2  0  0  0  0
M  END
>  <CHROM.1>
11.48416035,11.64150054,6.74525600,0.48175298,-1.30354241,0.92283255

>  <Name>
ligand

>  <RI>
0

>  <Rbt.Current_Directory>
/home/itssahil/PROJECTS/Mol_Feturizer/New_Systems/rnas/4FEJ

>  <Rbt.Executable>
rbdock ($Id: //depot/dev/client3/rdock/2013.1/src/exe/rbdock.cxx#4 $)

>  <Rbt.Library>
libRbt.so (2013.1, Build901 2013/11/27)

>  <Rbt.Parameter_File>
/export/apps/rDock/src/rDock_2013.1_src/data/scripts/dock_solv.prm

>  <Rbt.Receptor>
prm/pocket_docking_3.prm

>  <SCORE>
-17.4181

>  <SCORE.INTER>
-17.4181

>  <SCORE.INTER.CONST>
1

>  <SCORE.INTER.POLAR>
0

>  <SCORE.INTER.ROT>
0

>  <SCORE.INTER.SOLV>
3.80238

>  <SCORE.INTER.VDW>
-16.4795

>  <SCORE.INTER.norm>
-1.74181

>  <SCORE.INTRA>
0

>  <SCORE.INTRA.DIHEDRAL>
0

>  <SCORE.INTRA.DIHEDRAL.0>
0

>  <SCORE.INTRA.POLAR>
0

>  <SCORE.INTRA.POLAR.0>
0

>  <SCORE.INTRA.REPUL>
0

>  <SCORE.INTRA.REPUL.0>
0

>  <SCORE.INTRA.SOLV>
0

>  <SCORE.INTRA.SOLV.lig_0>
-4.26631

>  <SCORE.INTRA.VDW>
0

>  <SCORE.INTRA.VDW.0>
0

>  <SCORE.INTRA.norm>
0

>  <SCORE.RESTR>
0

>  <SCORE.RESTR.CAVITY>
0

>  <SCORE.RESTR.norm>
0

>  <SCORE.SYSTEM>
0

>  <SCORE.SYSTEM.CONST>
0

>  <SCORE.SYSTEM.DIHEDRAL>
0

>  <SCORE.SYSTEM.SOLV>
0

>  <SCORE.SYSTEM.norm>
0

>  <SCORE.heavy>
10

>  <SCORE.norm>
-1.74181

>  <RMSD>
0.498

$$$$
ligand
 OpenBabel11021811493D
libRbt.so/2013.1/901 2013/11/27
 10 11  0  0  0  0  0  0  0  0999 V2000
   11.8296   11.2627    8.5823 N   0  0  0  0  0  0  0  0  0  0  0  0
   11.5604   12.6070    8.6353 C   0  0  0  0  0  0  0  0  0  0  0  0
   11.2370   13.3018    7.5327 N   0  0  0  0  0  0  0  0  0  0  0  0
   11.2077   12.5533    6.4106 C   0  0  0  0  0  0  0  0  0  0  0  0
   11.4677   11.2057    6.2928 C   0  0  0  0  0  0  0  0  0  0  0  0
   11.8065   10.4585    7.4384 C   0  0  0  0  0  0  0  0  0  0  0  0
   12.0698    9.2686    7.5458 O   0  0  0  0  0  0  0  0  0  0  0  0
   11.3261   10.8441    4.9851 N   0  0  0  0  0  0  0  0  0  0  0  0
   10.9847   11.9638    4.3133 C   0  0  0  0  0  0  0  0  0  0  0  0
   10.9060   13.0348    5.1662 N   0  0  0  0  0  0  0  0  0  0  0  0
  1  2  1  0  0  0  0
  1  6  1  0  0  0  0
  2  3  2  0  0  0  0
  3  4  1  0  0  0  0
  4  5  2  0  0  0  0
  4 10  1  0  0  0  0
  5  6  1  0  0  0  0
  5  8  1  0  0  0  0
  6  7  2  0  0  0  0
  8  9  1  0  0  0  0
  9 10  2  0  0  0  0
M  END
>  <CHROM.1>
11.45165917,11.60596539,6.70860096,0.42203025,-1.31360983,0.89902889

>  <Name>
ligand

>  <RI>
0

>  <Rbt.Current_Directory>
/home/itssahil/PROJECTS/Mol_Feturizer/New_Systems/rnas/4FEJ

>  <Rbt.Executable>
rbdock ($Id: //depot/dev/client3/rdock/2013.1/src/exe/rbdock.cxx#4 $)

>  <Rbt.Library>
libRbt.so (2013.1, Build901 2013/11/27)

>  <Rbt.Parameter_File>
/export/apps/rDock/src/rDock_2013.1_src/data/scripts/dock_solv.prm

>  <Rbt.Receptor>
prm/pocket_docking_7.prm

>  <SCORE>
-17.4054

>  <SCORE.INTER>
-17.4054

>  <SCORE.INTER.CONST>
1

>  <SCORE.INTER.POLAR>
0

>  <SCORE.INTER.ROT>
0

>  <SCORE.INTER.SOLV>
3.81283

>  <SCORE.INTER.VDW>
-16.4745

>  <SCORE.INTER.norm>
-1.74054

>  <SCORE.INTRA>
0

>  <SCORE.INTRA.DIHEDRAL>
0

>  <SCORE.INTRA.DIHEDRAL.0>
0

>  <SCORE.INTRA.POLAR>
0

>  <SCORE.INTRA.POLAR.0>
0

>  <SCORE.INTRA.REPUL>
0

>  <SCORE.INTRA.REPUL.0>
0

>  <SCORE.INTRA.SOLV>
0

>  <SCORE.INTRA.SOLV.lig_0>
-4.26631

>  <SCORE.INTRA.VDW>
0

>  <SCORE.INTRA.VDW.0>
0

>  <SCORE.INTRA.norm>
0

>  <SCORE.RESTR>
0

>  <SCORE.RESTR.CAVITY>
0

>  <SCORE.RESTR.norm>
0

>  <SCORE.SYSTEM>
0

>  <SCORE.SYSTEM.CONST>
0

>  <SCORE.SYSTEM.DIHEDRAL>
0

>  <SCORE.SYSTEM.SOLV>
0

>  <SCORE.SYSTEM.norm>
0

>  <SCORE.heavy>
10

>  <SCORE.norm>
-1.74054

>  <RMSD>
0.498

$$$$
ligand
 OpenBabel11021811493D
libRbt.so/2013.1/901 2013/11/27
 10 11  0  0  0  0  0  0  0  0999 V2000
   11.8403   11.3375    8.6659 N   0  0  0  0  0  0  0  0  0  0  0  0
   11.6564   12.6970    8.6866 C   0  0  0  0  0  0  0  0  0  0  0  0
   11.3689   13.3832    7.5687 N   0  0  0  0  0  0  0  0  0  0  0  0
   11.2841   12.6103    6.4661 C   0  0  0  0  0  0  0  0  0  0  0  0
   11.4582   11.2466    6.3808 C   0  0  0  0  0  0  0  0  0  0  0  0
   11.7582   10.5082    7.5429 C   0  0  0  0  0  0  0  0  0  0  0  0
   11.9472    9.3072    7.6787 O   0  0  0  0  0  0  0  0  0  0  0  0
   11.2843   10.8623    5.0835 N   0  0  0  0  0  0  0  0  0  0  0  0
   11.0086   11.9842    4.3857 C   0  0  0  0  0  0  0  0  0  0  0  0
   11.0037   13.0788    5.2118 N   0  0  0  0  0  0  0  0  0  0  0  0
  1  2  1  0  0  0  0
  1  6  1  0  0  0  0
  2  3  2  0  0  0  0
  3  4  1  0  0  0  0
  4  5  2  0  0  0  0
  4 10  1  0  0  0  0
  5  6  1  0  0  0  0
  5  8  1  0  0  0  0
  6  7  2  0  0  0  0
  8  9  1  0  0  0  0
  9 10  2  0  0  0  0
M  END
>  <CHROM.1>
11.47043851,11.65727663,6.78646289,0.21193824,-1.35337287,0.66968415

>  <Name>
ligand

>  <RI>
0

>  <Rbt.Current_Directory>
/home/itssahil/PROJECTS/Mol_Feturizer/New_Systems/rnas/4FEJ

>  <Rbt.Executable>
rbdock ($Id: //depot/dev/client3/rdock/2013.1/src/exe/rbdock.cxx#4 $)

>  <Rbt.Library>
libRbt.so (2013.1, Build901 2013/11/27)

>  <Rbt.Parameter_File>
/export/apps/rDock/src/rDock_2013.1_src/data/scripts/dock_solv.prm

>  <Rbt.Receptor>
prm/blind_docking_60.prm

>  <SCORE>
-17.4431

>  <SCORE.INTER>
-17.4431

>  <SCORE.INTER.CONST>
1

>  <SCORE.INTER.POLAR>
0

>  <SCORE.INTER.ROT>
0

>  <SCORE.INTER.SOLV>
3.99394

>  <SCORE.INTER.VDW>
-16.5601

>  <SCORE.INTER.norm>
-1.74431

>  <SCORE.INTRA>
0

>  <SCORE.INTRA.DIHEDRAL>
0

>  <SCORE.INTRA.DIHEDRAL.0>
0

>  <SCORE.INTRA.POLAR>
0

>  <SCORE.INTRA.POLAR.0>
0

>  <SCORE.INTRA.REPUL>
0

>  <SCORE.INTRA.REPUL.0>
0

>  <SCORE.INTRA.SOLV>
0

>  <SCORE.INTRA.SOLV.lig_0>
-4.26631

>  <SCORE.INTRA.VDW>
0

>  <SCORE.INTRA.VDW.0>
0

>  <SCORE.INTRA.norm>
0

>  <SCORE.RESTR>
0

>  <SCORE.RESTR.CAVITY>
0

>  <SCORE.RESTR.norm>
0

>  <SCORE.SYSTEM>
0

>  <SCORE.SYSTEM.CONST>
0

>  <SCORE.SYSTEM.DIHEDRAL>
0

>  <SCORE.SYSTEM.SOLV>
0

>  <SCORE.SYSTEM.norm>
0

>  <SCORE.heavy>
10

>  <SCORE.norm>
-1.74431

>  <RMSD>
0.499

$$$$
ligand
 OpenBabel11021811493D
libRbt.so/2013.1/901 2013/11/27
 10 11  0  0  0  0  0  0  0  0999 V2000
   11.8680   11.3747    8.6314 N   0  0  0  0  0  0  0  0  0  0  0  0
   11.5818   12.7165    8.6346 C   0  0  0  0  0  0  0  0  0  0  0  0
   11.2503   13.3660    7.5071 N   0  0  0  0  0  0  0  0  0  0  0  0
   11.2310   12.5761    6.4135 C   0  0  0  0  0  0  0  0  0  0  0  0
   11.5080   11.2286    6.3455 C   0  0  0  0  0  0  0  0  0  0  0  0
   11.8556   10.5285    7.5180 C   0  0  0  0  0  0  0  0  0  0  0  0
   12.1339    9.3468    7.6693 O   0  0  0  0  0  0  0  0  0  0  0  0
   11.3716   10.8171    5.0521 N   0  0  0  0  0  0  0  0  0  0  0  0
   11.0165   11.9068    4.3393 C   0  0  0  0  0  0  0  0  0  0  0  0
   10.9238   13.0075    5.1521 N   0  0  0  0  0  0  0  0  0  0  0  0
  1  2  1  0  0  0  0
  1  6  1  0  0  0  0
  2  3  2  0  0  0  0
  3  4  1  0  0  0  0
  4  5  2  0  0  0  0
  4 10  1  0  0  0  0
  5  6  1  0  0  0  0
  5  8  1  0  0  0  0
  6  7  2  0  0  0  0
  8  9  1  0  0  0  0
  9 10  2  0  0  0  0
M  END
>  <CHROM.1>
11.48667768,11.64366886,6.74627161,0.45324643,-1.30393117,0.89219982

>  <Name>
ligand

>  <RI>
0

>  <Rbt.Current_Directory>
/home/itssahil/PROJECTS/Mol_Feturizer/New_Systems/rnas/4FEJ

>  <Rbt.Executable>
rbdock ($Id: //depot/dev/client3/rdock/2013.1/src/exe/rbdock.cxx#4 $)

>  <Rbt.Library>
libRbt.so (2013.1, Build901 2013/11/27)

>  <Rbt.Parameter_File>
/export/apps/rDock/src/rDock_2013.1_src/data/scripts/dock_solv.prm

>  <Rbt.Receptor>
prm/pocket_docking_5.prm

>  <SCORE>
-17.4312

>  <SCORE.INTER>
-17.4312

>  <SCORE.INTER.CONST>
1

>  <SCORE.INTER.POLAR>
0

>  <SCORE.INTER.ROT>
0

>  <SCORE.INTER.SOLV>
3.80794

>  <SCORE.INTER.VDW>
-16.4901

>  <SCORE.INTER.norm>
-1.74312

>  <SCORE.INTRA>
0

>  <SCORE.INTRA.DIHEDRAL>
0

>  <SCORE.INTRA.DIHEDRAL.0>
0

>  <SCORE.INTRA.POLAR>
0

>  <SCORE.INTRA.POLAR.0>
0

>  <SCORE.INTRA.REPUL>
0

>  <SCORE.INTRA.REPUL.0>
0

>  <SCORE.INTRA.SOLV>
0

>  <SCORE.INTRA.SOLV.lig_0>
-4.26631

>  <SCORE.INTRA.VDW>
0

>  <SCORE.INTRA.VDW.0>
0

>  <SCORE.INTRA.norm>
0

>  <SCORE.RESTR>
0

>  <SCORE.RESTR.CAVITY>
0

>  <SCORE.RESTR.norm>
0

>  <SCORE.SYSTEM>
0

>  <SCORE.SYSTEM.CONST>
0

>  <SCORE.SYSTEM.DIHEDRAL>
0

>  <SCORE.SYSTEM.SOLV>
0

>  <SCORE.SYSTEM.norm>
0

>  <SCORE.heavy>
10

>  <SCORE.norm>
-1.74312

>  <RMSD>
0.499

$$$$
ligand
 OpenBabel11021811493D
libRbt.so/2013.1/901 2013/11/27
 10 11  0  0  0  0  0  0  0  0999 V2000
   11.8465   11.3384    8.6263 N   0  0  0  0  0  0  0  0  0  0  0  0
   11.5804   12.6844    8.6336 C   0  0  0  0  0  0  0  0  0  0  0  0
   11.2477   13.3399    7.5099 N   0  0  0  0  0  0  0  0  0  0  0  0
   11.2060   12.5515    6.4158 C   0  0  0  0  0  0  0  0  0  0  0  0
   11.4623   11.2001    6.3440 C   0  0  0  0  0  0  0  0  0  0  0  0
   11.8108   10.4937    7.5124 C   0  0  0  0  0  0  0  0  0  0  0  0
   12.0728    9.3078    7.6600 O   0  0  0  0  0  0  0  0  0  0  0  0
   11.3073   10.7920    5.0516 N   0  0  0  0  0  0  0  0  0  0  0  0
   10.9615   11.8876    4.3433 C   0  0  0  0  0  0  0  0  0  0  0  0
   10.8931   12.9887    5.1578 N   0  0  0  0  0  0  0  0  0  0  0  0
  1  2  1  0  0  0  0
  1  6  1  0  0  0  0
  2  3  2  0  0  0  0
  3  4  1  0  0  0  0
  4  5  2  0  0  0  0
  4 10  1  0  0  0  0
  5  6  1  0  0  0  0
  5  8  1  0  0  0  0
  6  7  2  0  0  0  0
  8  9  1  0  0  0  0
  9 10  2  0  0  0  0
M  END
>  <CHROM.1>
11.45103305,11.61499374,6.74528465,0.38793354,-1.30891113,0.83012041

>  <Name>
ligand

>  <RI>
0

>  <Rbt.Current_Directory>
/home/itssahil/PROJECTS/Mol_Feturizer/New_Systems/rnas/4FEJ

>  <Rbt.Executable>
rbdock ($Id: //depot/dev/client3/rdock/2013.1/src/exe/rbdock.cxx#4 $)

>  <Rbt.Library>
libRbt.so (2013.1, Build901 2013/11/27)

>  <Rbt.Parameter_File>
/export/apps/rDock/src/rDock_2013.1_src/data/scripts/dock_solv.prm

>  <Rbt.Receptor>
prm/blind_docking_40.prm

>  <SCORE>
-17.463

>  <SCORE.INTER>
-17.463

>  <SCORE.INTER.CONST>
1

>  <SCORE.INTER.POLAR>
0

>  <SCORE.INTER.ROT>
0

>  <SCORE.INTER.SOLV>
3.84172

>  <SCORE.INTER.VDW>
-16.5225

>  <SCORE.INTER.norm>
-1.7463

>  <SCORE.INTRA>
0

>  <SCORE.INTRA.DIHEDRAL>
0

>  <SCORE.INTRA.DIHEDRAL.0>
0

>  <SCORE.INTRA.POLAR>
0

>  <SCORE.INTRA.POLAR.0>
0

>  <SCORE.INTRA.REPUL>
0

>  <SCORE.INTRA.REPUL.0>
0

>  <SCORE.INTRA.SOLV>
0

>  <SCORE.INTRA.SOLV.lig_0>
-4.26631

>  <SCORE.INTRA.VDW>
0

>  <SCORE.INTRA.VDW.0>
0

>  <SCORE.INTRA.norm>
0

>  <SCORE.RESTR>
0

>  <SCORE.RESTR.CAVITY>
0

>  <SCORE.RESTR.norm>
0

>  <SCORE.SYSTEM>
0

>  <SCORE.SYSTEM.CONST>
0

>  <SCORE.SYSTEM.DIHEDRAL>
0

>  <SCORE.SYSTEM.SOLV>
0

>  <SCORE.SYSTEM.norm>
0

>  <SCORE.heavy>
10

>  <SCORE.norm>
-1.7463

>  <RMSD>
0.500

$$$$
ligand
 OpenBabel11021811493D
libRbt.so/2013.1/901 2013/11/27
 10 11  0  0  0  0  0  0  0  0999 V2000
   11.8533   11.2992    8.6194 N   0  0  0  0  0  0  0  0  0  0  0  0
   11.6493   12.6556    8.6512 C   0  0  0  0  0  0  0  0  0  0  0  0
   11.3443   13.3454    7.5403 N   0  0  0  0  0  0  0  0  0  0  0  0
   11.2638   12.5793    6.4327 C   0  0  0  0  0  0  0  0  0  0  0  0
   11.4575   11.2190    6.3363 C   0  0  0  0  0  0  0  0  0  0  0  0
   11.7760   10.4768    7.4910 C   0  0  0  0  0  0  0  0  0  0  0  0
   11.9837    9.2777    7.6168 O   0  0  0  0  0  0  0  0  0  0  0  0
   11.2807   10.8414    5.0374 N   0  0  0  0  0  0  0  0  0  0  0  0
   10.9839   11.9640    4.3496 C   0  0  0  0  0  0  0  0  0  0  0  0
   10.9681   13.0525    5.1836 N   0  0  0  0  0  0  0  0  0  0  0  0
  1  2  1  0  0  0  0
  1  6  1  0  0  0  0
  2  3  2  0  0  0  0
  3  4  1  0  0  0  0
  4  5  2  0  0  0  0
  4 10  1  0  0  0  0
  5  6  1  0  0  0  0
  5  8  1  0  0  0  0
  6  7  2  0  0  0  0
  8  9  1  0  0  0  0
  9 10  2  0  0  0  0
M  END
>  <CHROM.1>
11.46628587,11.62682131,6.74484351,0.24471367,-1.33887933,0.70885306

>  <Name>
ligand

>  <RI>
0

>  <Rbt.Current_Directory>
/home/itssahil/PROJECTS/Mol_Feturizer/New_Systems/rnas/4FEJ

>  <Rbt.Executable>
rbdock ($Id: //depot/dev/client3/rdock/2013.1/src/exe/rbdock.cxx#4 $)

>  <Rbt.Library>
libRbt.so (2013.1, Build901 2013/11/27)

>  <Rbt.Parameter_File>
/export/apps/rDock/src/rDock_2013.1_src/data/scripts/dock_solv.prm

>  <Rbt.Receptor>
prm/blind_docking_60.prm

>  <SCORE>
-17.4194

>  <SCORE.INTER>
-17.4194

>  <SCORE.INTER.CONST>
1

>  <SCORE.INTER.POLAR>
0

>  <SCORE.INTER.ROT>
0

>  <SCORE.INTER.SOLV>
3.92849

>  <SCORE.INTER.VDW>
-16.5224

>  <SCORE.INTER.norm>
-1.74194

>  <SCORE.INTRA>
0

>  <SCORE.INTRA.DIHEDRAL>
0

>  <SCORE.INTRA.DIHEDRAL.0>
0

>  <SCORE.INTRA.POLAR>
0

>  <SCORE.INTRA.POLAR.0>
0

>  <SCORE.INTRA.REPUL>
0

>  <SCORE.INTRA.REPUL.0>
0

>  <SCORE.INTRA.SOLV>
0

>  <SCORE.INTRA.SOLV.lig_0>
-4.26631

>  <SCORE.INTRA.VDW>
0

>  <SCORE.INTRA.VDW.0>
0

>  <SCORE.INTRA.norm>
0

>  <SCORE.RESTR>
0

>  <SCORE.RESTR.CAVITY>
0

>  <SCORE.RESTR.norm>
0

>  <SCORE.SYSTEM>
0

>  <SCORE.SYSTEM.CONST>
0

>  <SCORE.SYSTEM.DIHEDRAL>
0

>  <SCORE.SYSTEM.SOLV>
0

>  <SCORE.SYSTEM.norm>
0

>  <SCORE.heavy>
10

>  <SCORE.norm>
-1.74194

>  <RMSD>
0.500

$$$$
ligand
 OpenBabel11021811493D
libRbt.so/2013.1/901 2013/11/27
 10 11  0  0  0  0  0  0  0  0999 V2000
   11.8778   11.3062    8.6008 N   0  0  0  0  0  0  0  0  0  0  0  0
   11.6613   12.6605    8.6395 C   0  0  0  0  0  0  0  0  0  0  0  0
   11.3441   13.3522    7.5332 N   0  0  0  0  0  0  0  0  0  0  0  0
   11.2651   12.5902    6.4227 C   0  0  0  0  0  0  0  0  0  0  0  0
   11.4710   11.2322    6.3193 C   0  0  0  0  0  0  0  0  0  0  0  0
   11.8024   10.4881    7.4691 C   0  0  0  0  0  0  0  0  0  0  0  0
   12.0220    9.2905    7.5886 O   0  0  0  0  0  0  0  0  0  0  0  0
   11.2911   10.8586    5.0197 N   0  0  0  0  0  0  0  0  0  0  0  0
   10.9802   11.9814    4.3384 C   0  0  0  0  0  0  0  0  0  0  0  0
   10.9586   13.0661    5.1772 N   0  0  0  0  0  0  0  0  0  0  0  0
  1  2  1  0  0  0  0
  1  6  1  0  0  0  0
  2  3  2  0  0  0  0
  3  4  1  0  0  0  0
  4  5  2  0  0  0  0
  4 10  1  0  0  0  0
  5  6  1  0  0  0  0
  5  8  1  0  0  0  0
  6  7  2  0  0  0  0
  8  9  1  0  0  0  0
  9 10  2  0  0  0  0
M  END
>  <CHROM.1>
11.47810618,11.63835218,6.72961764,0.26042337,-1.32885533,0.72848321

>  <Name>
ligand

>  <RI>
0

>  <Rbt.Current_Directory>
/home/itssahil/PROJECTS/Mol_Feturizer/New_Systems/rnas/4FEJ

>  <Rbt.Executable>
rbdock ($Id: //depot/dev/client3/rdock/2013.1/src/exe/rbdock.cxx#4 $)

>  <Rbt.Library>
libRbt.so (2013.1, Build901 2013/11/27)

>  <Rbt.Parameter_File>
/export/apps/rDock/src/rDock_2013.1_src/data/scripts/dock_solv.prm

>  <Rbt.Receptor>
prm/pocket_docking_5.prm

>  <SCORE>
-17.4811

>  <SCORE.INTER>
-17.4811

>  <SCORE.INTER.CONST>
1

>  <SCORE.INTER.POLAR>
0

>  <SCORE.INTER.ROT>
0

>  <SCORE.INTER.SOLV>
3.88402

>  <SCORE.INTER.VDW>
-16.5487

>  <SCORE.INTER.norm>
-1.74811

>  <SCORE.INTRA>
0

>  <SCORE.INTRA.DIHEDRAL>
0

>  <SCORE.INTRA.DIHEDRAL.0>
0

>  <SCORE.INTRA.POLAR>
0

>  <SCORE.INTRA.POLAR.0>
0

>  <SCORE.INTRA.REPUL>
0

>  <SCORE.INTRA.REPUL.0>
0

>  <SCORE.INTRA.SOLV>
0

>  <SCORE.INTRA.SOLV.lig_0>
-4.26631

>  <SCORE.INTRA.VDW>
0

>  <SCORE.INTRA.VDW.0>
0

>  <SCORE.INTRA.norm>
0

>  <SCORE.RESTR>
0

>  <SCORE.RESTR.CAVITY>
0

>  <SCORE.RESTR.norm>
0

>  <SCORE.SYSTEM>
0

>  <SCORE.SYSTEM.CONST>
0

>  <SCORE.SYSTEM.DIHEDRAL>
0

>  <SCORE.SYSTEM.SOLV>
0

>  <SCORE.SYSTEM.norm>
0

>  <SCORE.heavy>
10

>  <SCORE.norm>
-1.74811

>  <RMSD>
0.500

$$$$
ligand
 OpenBabel11021811493D
libRbt.so/2013.1/901 2013/11/27
 10 11  0  0  0  0  0  0  0  0999 V2000
   11.8464   11.3398    8.6256 N   0  0  0  0  0  0  0  0  0  0  0  0
   11.5785   12.6854    8.6321 C   0  0  0  0  0  0  0  0  0  0  0  0
   11.2478   13.3404    7.5075 N   0  0  0  0  0  0  0  0  0  0  0  0
   11.2099   12.5519    6.4134 C   0  0  0  0  0  0  0  0  0  0  0  0
   11.4681   11.2008    6.3423 C   0  0  0  0  0  0  0  0  0  0  0  0
   11.8145   10.4949    7.5117 C   0  0  0  0  0  0  0  0  0  0  0  0
   12.0777    9.3094    7.6600 O   0  0  0  0  0  0  0  0  0  0  0  0
   11.3168   10.7924    5.0496 N   0  0  0  0  0  0  0  0  0  0  0  0
   10.9714   11.8875    4.3403 C   0  0  0  0  0  0  0  0  0  0  0  0
   10.8996   12.9886    5.1546 N   0  0  0  0  0  0  0  0  0  0  0  0
  1  2  1  0  0  0  0
  1  6  1  0  0  0  0
  2  3  2  0  0  0  0
  3  4  1  0  0  0  0
  4  5  2  0  0  0  0
  4 10  1  0  0  0  0
  5  6  1  0  0  0  0
  5  8  1  0  0  0  0
  6  7  2  0  0  0  0
  8  9  1  0  0  0  0
  9 10  2  0  0  0  0
M  END
>  <CHROM.1>
11.45526713,11.61573272,6.74356937,0.39853081,-1.30965086,0.84029649

>  <Name>
ligand

>  <RI>
0

>  <Rbt.Current_Directory>
/home/itssahil/PROJECTS/Mol_Feturizer/New_Systems/rnas/4FEJ

>  <Rbt.Executable>
rbdock ($Id: //depot/dev/client3/rdock/2013.1/src/exe/rbdock.cxx#4 $)

>  <Rbt.Library>
libRbt.so (2013.1, Build901 2013/11/27)

>  <Rbt.Parameter_File>
/export/apps/rDock/src/rDock_2013.1_src/data/scripts/dock_solv.prm

>  <Rbt.Receptor>
prm/blind_docking_80.prm

>  <SCORE>
-17.4653

>  <SCORE.INTER>
-17.4653

>  <SCORE.INTER.CONST>
1

>  <SCORE.INTER.POLAR>
0

>  <SCORE.INTER.ROT>
0

>  <SCORE.INTER.SOLV>
3.84042

>  <SCORE.INTER.VDW>
-16.5237

>  <SCORE.INTER.norm>
-1.74653

>  <SCORE.INTRA>
0

>  <SCORE.INTRA.DIHEDRAL>
0

>  <SCORE.INTRA.DIHEDRAL.0>
0

>  <SCORE.INTRA.POLAR>
0

>  <SCORE.INTRA.POLAR.0>
0

>  <SCORE.INTRA.REPUL>
0

>  <SCORE.INTRA.REPUL.0>
0

>  <SCORE.INTRA.SOLV>
0

>  <SCORE.INTRA.SOLV.lig_0>
-4.26631

>  <SCORE.INTRA.VDW>
0

>  <SCORE.INTRA.VDW.0>
0

>  <SCORE.INTRA.norm>
0

>  <SCORE.RESTR>
0

>  <SCORE.RESTR.CAVITY>
0

>  <SCORE.RESTR.norm>
0

>  <SCORE.SYSTEM>
0

>  <SCORE.SYSTEM.CONST>
0

>  <SCORE.SYSTEM.DIHEDRAL>
0

>  <SCORE.SYSTEM.SOLV>
0

>  <SCORE.SYSTEM.norm>
0

>  <SCORE.heavy>
10

>  <SCORE.norm>
-1.74653

>  <RMSD>
0.501

$$$$
ligand
 OpenBabel11021811493D
libRbt.so/2013.1/901 2013/11/27
 10 11  0  0  0  0  0  0  0  0999 V2000
   11.8220   11.2883    8.6034 N   0  0  0  0  0  0  0  0  0  0  0  0
   11.5553   12.6338    8.6339 C   0  0  0  0  0  0  0  0  0  0  0  0
   11.2386   13.3117    7.5189 N   0  0  0  0  0  0  0  0  0  0  0  0
   11.2129   12.5455    6.4087 C   0  0  0  0  0  0  0  0  0  0  0  0
   11.4707   11.1958    6.3134 C   0  0  0  0  0  0  0  0  0  0  0  0
   11.8026   10.4661    7.4723 C   0  0  0  0  0  0  0  0  0  0  0  0
   12.0629    9.2775    7.5997 O   0  0  0  0  0  0  0  0  0  0  0  0
   11.3344   10.8138    5.0110 N   0  0  0  0  0  0  0  0  0  0  0  0
   10.9985   11.9234    4.3199 C   0  0  0  0  0  0  0  0  0  0  0  0
   10.9180   13.0079    5.1554 N   0  0  0  0  0  0  0  0  0  0  0  0
  1  2  1  0  0  0  0
  1  6  1  0  0  0  0
  2  3  2  0  0  0  0
  3  4  1  0  0  0  0
  4  5  2  0  0  0  0
  4 10  1  0  0  0  0
  5  6  1  0  0  0  0
  5  8  1  0  0  0  0
  6  7  2  0  0  0  0
  8  9  1  0  0  0  0
  9 10  2  0  0  0  0
M  END
>  <CHROM.1>
11.45349748,11.60259912,6.72276999,0.43141202,-1.31812773,0.89228958

>  <Name>
ligand

>  <RI>
0

>  <Rbt.Current_Directory>
/home/itssahil/PROJECTS/Mol_Feturizer/New_Systems/rnas/4FEJ

>  <Rbt.Executable>
rbdock ($Id: //depot/dev/client3/rdock/2013.1/src/exe/rbdock.cxx#4 $)

>  <Rbt.Library>
libRbt.so (2013.1, Build901 2013/11/27)

>  <Rbt.Parameter_File>
/export/apps/rDock/src/rDock_2013.1_src/data/scripts/dock_solv.prm

>  <Rbt.Receptor>
prm/pocket_docking_3.prm

>  <SCORE>
-17.3908

>  <SCORE.INTER>
-17.3908

>  <SCORE.INTER.CONST>
1

>  <SCORE.INTER.POLAR>
0

>  <SCORE.INTER.ROT>
0

>  <SCORE.INTER.SOLV>
3.84176

>  <SCORE.INTER.VDW>
-16.4744

>  <SCORE.INTER.norm>
-1.73908

>  <SCORE.INTRA>
0

>  <SCORE.INTRA.DIHEDRAL>
0

>  <SCORE.INTRA.DIHEDRAL.0>
0

>  <SCORE.INTRA.POLAR>
0

>  <SCORE.INTRA.POLAR.0>
0

>  <SCORE.INTRA.REPUL>
0

>  <SCORE.INTRA.REPUL.0>
0

>  <SCORE.INTRA.SOLV>
0

>  <SCORE.INTRA.SOLV.lig_0>
-4.26631

>  <SCORE.INTRA.VDW>
0

>  <SCORE.INTRA.VDW.0>
0

>  <SCORE.INTRA.norm>
0

>  <SCORE.RESTR>
0

>  <SCORE.RESTR.CAVITY>
0

>  <SCORE.RESTR.norm>
0

>  <SCORE.SYSTEM>
0

>  <SCORE.SYSTEM.CONST>
0

>  <SCORE.SYSTEM.DIHEDRAL>
0

>  <SCORE.SYSTEM.SOLV>
0

>  <SCORE.SYSTEM.norm>
0

>  <SCORE.heavy>
10

>  <SCORE.norm>
-1.73908

>  <RMSD>
0.501

$$$$
ligand
 OpenBabel11021811493D
libRbt.so/2013.1/901 2013/11/27
 10 11  0  0  0  0  0  0  0  0999 V2000
   11.8549   11.2688    8.5735 N   0  0  0  0  0  0  0  0  0  0  0  0
   11.5946   12.6151    8.6197 C   0  0  0  0  0  0  0  0  0  0  0  0
   11.2740   13.3061    7.5138 N   0  0  0  0  0  0  0  0  0  0  0  0
   11.2378   12.5517    6.3959 C   0  0  0  0  0  0  0  0  0  0  0  0
   11.4888   11.2018    6.2850 C   0  0  0  0  0  0  0  0  0  0  0  0
   11.8246   10.4586    7.4341 C   0  0  0  0  0  0  0  0  0  0  0  0
   12.0803    9.2676    7.5475 O   0  0  0  0  0  0  0  0  0  0  0  0
   11.3426   10.8341    4.9795 N   0  0  0  0  0  0  0  0  0  0  0  0
   11.0074   11.9523    4.3022 C   0  0  0  0  0  0  0  0  0  0  0  0
   10.9372   13.0284    5.1494 N   0  0  0  0  0  0  0  0  0  0  0  0
  1  2  1  0  0  0  0
  1  6  1  0  0  0  0
  2  3  2  0  0  0  0
  3  4  1  0  0  0  0
  4  5  2  0  0  0  0
  4 10  1  0  0  0  0
  5  6  1  0  0  0  0
  5  8  1  0  0  0  0
  6  7  2  0  0  0  0
  8  9  1  0  0  0  0
  9 10  2  0  0  0  0
M  END
>  <CHROM.1>
11.47604830,11.60440921,6.69862544,0.40045435,-1.31763980,0.87273257

>  <Name>
ligand

>  <RI>
0

>  <Rbt.Current_Directory>
/home/itssahil/PROJECTS/Mol_Feturizer/New_Systems/rnas/4FEJ

>  <Rbt.Executable>
rbdock ($Id: //depot/dev/client3/rdock/2013.1/src/exe/rbdock.cxx#4 $)

>  <Rbt.Library>
libRbt.so (2013.1, Build901 2013/11/27)

>  <Rbt.Parameter_File>
/export/apps/rDock/src/rDock_2013.1_src/data/scripts/dock_solv.prm

>  <Rbt.Receptor>
prm/blind_docking_100.prm

>  <SCORE>
-17.4199

>  <SCORE.INTER>
-17.4199

>  <SCORE.INTER.CONST>
1

>  <SCORE.INTER.POLAR>
0

>  <SCORE.INTER.ROT>
0

>  <SCORE.INTER.SOLV>
3.8192

>  <SCORE.INTER.VDW>
-16.4863

>  <SCORE.INTER.norm>
-1.74199

>  <SCORE.INTRA>
0

>  <SCORE.INTRA.DIHEDRAL>
0

>  <SCORE.INTRA.DIHEDRAL.0>
0

>  <SCORE.INTRA.POLAR>
0

>  <SCORE.INTRA.POLAR.0>
0

>  <SCORE.INTRA.REPUL>
0

>  <SCORE.INTRA.REPUL.0>
0

>  <SCORE.INTRA.SOLV>
0

>  <SCORE.INTRA.SOLV.lig_0>
-4.26631

>  <SCORE.INTRA.VDW>
0

>  <SCORE.INTRA.VDW.0>
0

>  <SCORE.INTRA.norm>
0

>  <SCORE.RESTR>
0

>  <SCORE.RESTR.CAVITY>
0

>  <SCORE.RESTR.norm>
0

>  <SCORE.SYSTEM>
0

>  <SCORE.SYSTEM.CONST>
0

>  <SCORE.SYSTEM.DIHEDRAL>
0

>  <SCORE.SYSTEM.SOLV>
0

>  <SCORE.SYSTEM.norm>
0

>  <SCORE.heavy>
10

>  <SCORE.norm>
-1.74199

>  <RMSD>
0.502

$$$$
ligand
 OpenBabel11021811493D
libRbt.so/2013.1/901 2013/11/27
 10 11  0  0  0  0  0  0  0  0999 V2000
   11.8548   11.3468    8.6175 N   0  0  0  0  0  0  0  0  0  0  0  0
   11.5635   12.6875    8.6215 C   0  0  0  0  0  0  0  0  0  0  0  0
   11.2307   13.3365    7.4941 N   0  0  0  0  0  0  0  0  0  0  0  0
   11.2157   12.5474    6.3998 C   0  0  0  0  0  0  0  0  0  0  0  0
   11.4981   11.2010    6.3312 C   0  0  0  0  0  0  0  0  0  0  0  0
   11.8471   10.5014    7.5035 C   0  0  0  0  0  0  0  0  0  0  0  0
   12.1297    9.3207    7.6542 O   0  0  0  0  0  0  0  0  0  0  0  0
   11.3648   10.7900    5.0373 N   0  0  0  0  0  0  0  0  0  0  0  0
   11.0062   11.8788    4.3249 C   0  0  0  0  0  0  0  0  0  0  0  0
   10.9083   12.9785    5.1384 N   0  0  0  0  0  0  0  0  0  0  0  0
  1  2  1  0  0  0  0
  1  6  1  0  0  0  0
  2  3  2  0  0  0  0
  3  4  1  0  0  0  0
  4  5  2  0  0  0  0
  4 10  1  0  0  0  0
  5  6  1  0  0  0  0
  5  8  1  0  0  0  0
  6  7  2  0  0  0  0
  8  9  1  0  0  0  0
  9 10  2  0  0  0  0
M  END
>  <CHROM.1>
11.47466609,11.61568304,6.73221209,0.46578371,-1.30159436,0.90506096

>  <Name>
ligand

>  <RI>
0

>  <Rbt.Current_Directory>
/home/itssahil/PROJECTS/Mol_Feturizer/New_Systems/rnas/4FEJ

>  <Rbt.Executable>
rbdock ($Id: //depot/dev/client3/rdock/2013.1/src/exe/rbdock.cxx#4 $)

>  <Rbt.Library>
libRbt.so (2013.1, Build901 2013/11/27)

>  <Rbt.Parameter_File>
/export/apps/rDock/src/rDock_2013.1_src/data/scripts/dock_solv.prm

>  <Rbt.Receptor>
prm/blind_docking_40.prm

>  <SCORE>
-17.4094

>  <SCORE.INTER>
-17.4094

>  <SCORE.INTER.CONST>
1

>  <SCORE.INTER.POLAR>
0

>  <SCORE.INTER.ROT>
0

>  <SCORE.INTER.SOLV>
3.79802

>  <SCORE.INTER.VDW>
-16.4723

>  <SCORE.INTER.norm>
-1.74094

>  <SCORE.INTRA>
0

>  <SCORE.INTRA.DIHEDRAL>
0

>  <SCORE.INTRA.DIHEDRAL.0>
0

>  <SCORE.INTRA.POLAR>
0

>  <SCORE.INTRA.POLAR.0>
0

>  <SCORE.INTRA.REPUL>
0

>  <SCORE.INTRA.REPUL.0>
0

>  <SCORE.INTRA.SOLV>
0

>  <SCORE.INTRA.SOLV.lig_0>
-4.26631

>  <SCORE.INTRA.VDW>
0

>  <SCORE.INTRA.VDW.0>
0

>  <SCORE.INTRA.norm>
0

>  <SCORE.RESTR>
0

>  <SCORE.RESTR.CAVITY>
0

>  <SCORE.RESTR.norm>
0

>  <SCORE.SYSTEM>
0

>  <SCORE.SYSTEM.CONST>
0

>  <SCORE.SYSTEM.DIHEDRAL>
0

>  <SCORE.SYSTEM.SOLV>
0

>  <SCORE.SYSTEM.norm>
0

>  <SCORE.heavy>
10

>  <SCORE.norm>
-1.74094

>  <RMSD>
0.502

$$$$
ligand
 OpenBabel11021811493D
libRbt.so/2013.1/901 2013/11/27
 10 11  0  0  0  0  0  0  0  0999 V2000
   11.8942   11.3956    8.6366 N   0  0  0  0  0  0  0  0  0  0  0  0
   11.6233   12.7405    8.6255 C   0  0  0  0  0  0  0  0  0  0  0  0
   11.2842   13.3786    7.4936 N   0  0  0  0  0  0  0  0  0  0  0  0
   11.2415   12.5745    6.4112 C   0  0  0  0  0  0  0  0  0  0  0  0
   11.5024   11.2230    6.3579 C   0  0  0  0  0  0  0  0  0  0  0  0
   11.8576   10.5348    7.5351 C   0  0  0  0  0  0  0  0  0  0  0  0
   12.1245    9.3521    7.6987 O   0  0  0  0  0  0  0  0  0  0  0  0
   11.3443   10.7958    5.0720 N   0  0  0  0  0  0  0  0  0  0  0  0
   10.9920   11.8799    4.3493 C   0  0  0  0  0  0  0  0  0  0  0  0
   10.9226   12.9924    5.1482 N   0  0  0  0  0  0  0  0  0  0  0  0
  1  2  1  0  0  0  0
  1  6  1  0  0  0  0
  2  3  2  0  0  0  0
  3  4  1  0  0  0  0
  4  5  2  0  0  0  0
  4 10  1  0  0  0  0
  5  6  1  0  0  0  0
  5  8  1  0  0  0  0
  6  7  2  0  0  0  0
  8  9  1  0  0  0  0
  9 10  2  0  0  0  0
M  END
>  <CHROM.1>
11.49107306,11.64365187,6.75321213,0.38730583,-1.30385054,0.81512967

>  <Name>
ligand

>  <RI>
0

>  <Rbt.Current_Directory>
/home/itssahil/PROJECTS/Mol_Feturizer/New_Systems/rnas/4FEJ

>  <Rbt.Executable>
rbdock ($Id: //depot/dev/client3/rdock/2013.1/src/exe/rbdock.cxx#4 $)

>  <Rbt.Library>
libRbt.so (2013.1, Build901 2013/11/27)

>  <Rbt.Parameter_File>
/export/apps/rDock/src/rDock_2013.1_src/data/scripts/dock_solv.prm

>  <Rbt.Receptor>
prm/pocket_docking_8.prm

>  <SCORE>
-17.4753

>  <SCORE.INTER>
-17.4753

>  <SCORE.INTER.CONST>
1

>  <SCORE.INTER.POLAR>
0

>  <SCORE.INTER.ROT>
0

>  <SCORE.INTER.SOLV>
3.82814

>  <SCORE.INTER.VDW>
-16.5262

>  <SCORE.INTER.norm>
-1.74753

>  <SCORE.INTRA>
0

>  <SCORE.INTRA.DIHEDRAL>
0

>  <SCORE.INTRA.DIHEDRAL.0>
0

>  <SCORE.INTRA.POLAR>
0

>  <SCORE.INTRA.POLAR.0>
0

>  <SCORE.INTRA.REPUL>
0

>  <SCORE.INTRA.REPUL.0>
0

>  <SCORE.INTRA.SOLV>
0

>  <SCORE.INTRA.SOLV.lig_0>
-4.26631

>  <SCORE.INTRA.VDW>
0

>  <SCORE.INTRA.VDW.0>
0

>  <SCORE.INTRA.norm>
0

>  <SCORE.RESTR>
0

>  <SCORE.RESTR.CAVITY>
0

>  <SCORE.RESTR.norm>
0

>  <SCORE.SYSTEM>
0

>  <SCORE.SYSTEM.CONST>
0

>  <SCORE.SYSTEM.DIHEDRAL>
0

>  <SCORE.SYSTEM.SOLV>
0

>  <SCORE.SYSTEM.norm>
0

>  <SCORE.heavy>
10

>  <SCORE.norm>
-1.74753

>  <RMSD>
0.503

$$$$
ligand
 OpenBabel11021811493D
libRbt.so/2013.1/901 2013/11/27
 10 11  0  0  0  0  0  0  0  0999 V2000
   11.8916   11.3869    8.6301 N   0  0  0  0  0  0  0  0  0  0  0  0
   11.6223   12.7322    8.6222 C   0  0  0  0  0  0  0  0  0  0  0  0
   11.2835   13.3733    7.4920 N   0  0  0  0  0  0  0  0  0  0  0  0
   11.2394   12.5718    6.4077 C   0  0  0  0  0  0  0  0  0  0  0  0
   11.4986   11.2201    6.3511 C   0  0  0  0  0  0  0  0  0  0  0  0
   11.8535   10.5287    7.5266 C   0  0  0  0  0  0  0  0  0  0  0  0
   12.1190    9.3454    7.6873 O   0  0  0  0  0  0  0  0  0  0  0  0
   11.3394   10.7962    5.0644 N   0  0  0  0  0  0  0  0  0  0  0  0
   10.9881   11.8823    4.3443 C   0  0  0  0  0  0  0  0  0  0  0  0
   10.9204   12.9930    5.1458 N   0  0  0  0  0  0  0  0  0  0  0  0
  1  2  1  0  0  0  0
  1  6  1  0  0  0  0
  2  3  2  0  0  0  0
  3  4  1  0  0  0  0
  4  5  2  0  0  0  0
  4 10  1  0  0  0  0
  5  6  1  0  0  0  0
  5  8  1  0  0  0  0
  6  7  2  0  0  0  0
  8  9  1  0  0  0  0
  9 10  2  0  0  0  0
M  END
>  <CHROM.1>
11.48794132,11.63985707,6.74743830,0.38292118,-1.30442513,0.81323191

>  <Name>
ligand

>  <RI>
0

>  <Rbt.Current_Directory>
/home/itssahil/PROJECTS/Mol_Feturizer/New_Systems/rnas/4FEJ

>  <Rbt.Executable>
rbdock ($Id: //depot/dev/client3/rdock/2013.1/src/exe/rbdock.cxx#4 $)

>  <Rbt.Library>
libRbt.so (2013.1, Build901 2013/11/27)

>  <Rbt.Parameter_File>
/export/apps/rDock/src/rDock_2013.1_src/data/scripts/dock_solv.prm

>  <Rbt.Receptor>
prm/blind_docking_100.prm

>  <SCORE>
-17.4493

>  <SCORE.INTER>
-17.4493

>  <SCORE.INTER.CONST>
1

>  <SCORE.INTER.POLAR>
0

>  <SCORE.INTER.ROT>
0

>  <SCORE.INTER.SOLV>
3.82726

>  <SCORE.INTER.VDW>
-16.5086

>  <SCORE.INTER.norm>
-1.74493

>  <SCORE.INTRA>
0

>  <SCORE.INTRA.DIHEDRAL>
0

>  <SCORE.INTRA.DIHEDRAL.0>
0

>  <SCORE.INTRA.POLAR>
0

>  <SCORE.INTRA.POLAR.0>
0

>  <SCORE.INTRA.REPUL>
0

>  <SCORE.INTRA.REPUL.0>
0

>  <SCORE.INTRA.SOLV>
0

>  <SCORE.INTRA.SOLV.lig_0>
-4.26631

>  <SCORE.INTRA.VDW>
0

>  <SCORE.INTRA.VDW.0>
0

>  <SCORE.INTRA.norm>
0

>  <SCORE.RESTR>
0

>  <SCORE.RESTR.CAVITY>
0

>  <SCORE.RESTR.norm>
0

>  <SCORE.SYSTEM>
0

>  <SCORE.SYSTEM.CONST>
0

>  <SCORE.SYSTEM.DIHEDRAL>
0

>  <SCORE.SYSTEM.SOLV>
0

>  <SCORE.SYSTEM.norm>
0

>  <SCORE.heavy>
10

>  <SCORE.norm>
-1.74493

>  <RMSD>
0.504

$$$$
ligand
 OpenBabel11021811493D
libRbt.so/2013.1/901 2013/11/27
 10 11  0  0  0  0  0  0  0  0999 V2000
   11.8699   11.3569    8.6461 N   0  0  0  0  0  0  0  0  0  0  0  0
   11.6675   12.7139    8.6567 C   0  0  0  0  0  0  0  0  0  0  0  0
   11.3659   13.3870    7.5347 N   0  0  0  0  0  0  0  0  0  0  0  0
   11.2869   12.6042    6.4387 C   0  0  0  0  0  0  0  0  0  0  0  0
   11.4792   11.2424    6.3635 C   0  0  0  0  0  0  0  0  0  0  0  0
   11.7942   10.5175    7.5302 C   0  0  0  0  0  0  0  0  0  0  0  0
   12.0001    9.3202    7.6747 O   0  0  0  0  0  0  0  0  0  0  0  0
   11.3049   10.8452    5.0702 N   0  0  0  0  0  0  0  0  0  0  0  0
   11.0110   11.9576    4.3646 C   0  0  0  0  0  0  0  0  0  0  0  0
   10.9947   13.0587    5.1819 N   0  0  0  0  0  0  0  0  0  0  0  0
  1  2  1  0  0  0  0
  1  6  1  0  0  0  0
  2  3  2  0  0  0  0
  3  4  1  0  0  0  0
  4  5  2  0  0  0  0
  4 10  1  0  0  0  0
  5  6  1  0  0  0  0
  5  8  1  0  0  0  0
  6  7  2  0  0  0  0
  8  9  1  0  0  0  0
  9 10  2  0  0  0  0
M  END
>  <CHROM.1>
11.48755904,11.65638195,6.76584517,0.24710223,-1.34140165,0.69592797

>  <Name>
ligand

>  <RI>
0

>  <Rbt.Current_Directory>
/home/itssahil/PROJECTS/Mol_Feturizer/New_Systems/rnas/4FEJ

>  <Rbt.Executable>
rbdock ($Id: //depot/dev/client3/rdock/2013.1/src/exe/rbdock.cxx#4 $)

>  <Rbt.Library>
libRbt.so (2013.1, Build901 2013/11/27)

>  <Rbt.Parameter_File>
/export/apps/rDock/src/rDock_2013.1_src/data/scripts/dock_solv.prm

>  <Rbt.Receptor>
prm/blind_docking_80.prm

>  <SCORE>
-17.4195

>  <SCORE.INTER>
-17.4195

>  <SCORE.INTER.CONST>
1

>  <SCORE.INTER.POLAR>
0

>  <SCORE.INTER.ROT>
0

>  <SCORE.INTER.SOLV>
3.94762

>  <SCORE.INTER.VDW>
-16.5289

>  <SCORE.INTER.norm>
-1.74195

>  <SCORE.INTRA>
0

>  <SCORE.INTRA.DIHEDRAL>
0

>  <SCORE.INTRA.DIHEDRAL.0>
0

>  <SCORE.INTRA.POLAR>
0

>  <SCORE.INTRA.POLAR.0>
0

>  <SCORE.INTRA.REPUL>
0

>  <SCORE.INTRA.REPUL.0>
0

>  <SCORE.INTRA.SOLV>
0

>  <SCORE.INTRA.SOLV.lig_0>
-4.26631

>  <SCORE.INTRA.VDW>
0

>  <SCORE.INTRA.VDW.0>
0

>  <SCORE.INTRA.norm>
0

>  <SCORE.RESTR>
0

>  <SCORE.RESTR.CAVITY>
0

>  <SCORE.RESTR.norm>
0

>  <SCORE.SYSTEM>
0

>  <SCORE.SYSTEM.CONST>
0

>  <SCORE.SYSTEM.DIHEDRAL>
0

>  <SCORE.SYSTEM.SOLV>
0

>  <SCORE.SYSTEM.norm>
0

>  <SCORE.heavy>
10

>  <SCORE.norm>
-1.74195

>  <RMSD>
0.504

$$$$
ligand
 OpenBabel11021811493D
libRbt.so/2013.1/901 2013/11/27
 10 11  0  0  0  0  0  0  0  0999 V2000
   11.8994   11.3941    8.6346 N   0  0  0  0  0  0  0  0  0  0  0  0
   11.6335   12.7400    8.6221 C   0  0  0  0  0  0  0  0  0  0  0  0
   11.2966   13.3782    7.4897 N   0  0  0  0  0  0  0  0  0  0  0  0
   11.2507   12.5731    6.4081 C   0  0  0  0  0  0  0  0  0  0  0  0
   11.5066   11.2207    6.3561 C   0  0  0  0  0  0  0  0  0  0  0  0
   11.8595   10.5324    7.5340 C   0  0  0  0  0  0  0  0  0  0  0  0
   12.1220    9.3489    7.6987 O   0  0  0  0  0  0  0  0  0  0  0  0
   11.3467   10.7928    5.0707 N   0  0  0  0  0  0  0  0  0  0  0  0
   10.9983   11.8774    4.3469 C   0  0  0  0  0  0  0  0  0  0  0  0
   10.9331   12.9909    5.1447 N   0  0  0  0  0  0  0  0  0  0  0  0
  1  2  1  0  0  0  0
  1  6  1  0  0  0  0
  2  3  2  0  0  0  0
  3  4  1  0  0  0  0
  4  5  2  0  0  0  0
  4 10  1  0  0  0  0
  5  6  1  0  0  0  0
  5  8  1  0  0  0  0
  6  7  2  0  0  0  0
  8  9  1  0  0  0  0
  9 10  2  0  0  0  0
M  END
>  <CHROM.1>
11.49689028,11.64175377,6.75101364,0.37717350,-1.30639625,0.80434480

>  <Name>
ligand

>  <RI>
0

>  <Rbt.Current_Directory>
/home/itssahil/PROJECTS/Mol_Feturizer/New_Systems/rnas/4FEJ

>  <Rbt.Executable>
rbdock ($Id: //depot/dev/client3/rdock/2013.1/src/exe/rbdock.cxx#4 $)

>  <Rbt.Library>
libRbt.so (2013.1, Build901 2013/11/27)

>  <Rbt.Parameter_File>
/export/apps/rDock/src/rDock_2013.1_src/data/scripts/dock_solv.prm

>  <Rbt.Receptor>
prm/pocket_docking_5.prm

>  <SCORE>
-17.4762

>  <SCORE.INTER>
-17.4762

>  <SCORE.INTER.CONST>
1

>  <SCORE.INTER.POLAR>
0

>  <SCORE.INTER.ROT>
0

>  <SCORE.INTER.SOLV>
3.83548

>  <SCORE.INTER.VDW>
-16.5293

>  <SCORE.INTER.norm>
-1.74762

>  <SCORE.INTRA>
0

>  <SCORE.INTRA.DIHEDRAL>
0

>  <SCORE.INTRA.DIHEDRAL.0>
0

>  <SCORE.INTRA.POLAR>
0

>  <SCORE.INTRA.POLAR.0>
0

>  <SCORE.INTRA.REPUL>
0

>  <SCORE.INTRA.REPUL.0>
0

>  <SCORE.INTRA.SOLV>
0

>  <SCORE.INTRA.SOLV.lig_0>
-4.26631

>  <SCORE.INTRA.VDW>
0

>  <SCORE.INTRA.VDW.0>
0

>  <SCORE.INTRA.norm>
0

>  <SCORE.RESTR>
0

>  <SCORE.RESTR.CAVITY>
0

>  <SCORE.RESTR.norm>
0

>  <SCORE.SYSTEM>
0

>  <SCORE.SYSTEM.CONST>
0

>  <SCORE.SYSTEM.DIHEDRAL>
0

>  <SCORE.SYSTEM.SOLV>
0

>  <SCORE.SYSTEM.norm>
0

>  <SCORE.heavy>
10

>  <SCORE.norm>
-1.74762

>  <RMSD>
0.504

$$$$
ligand
 OpenBabel11021811493D
libRbt.so/2013.1/901 2013/11/27
 10 11  0  0  0  0  0  0  0  0999 V2000
   11.8568   11.3286    8.6262 N   0  0  0  0  0  0  0  0  0  0  0  0
   11.6027   12.6769    8.6190 C   0  0  0  0  0  0  0  0  0  0  0  0
   11.2735   13.3228    7.4888 N   0  0  0  0  0  0  0  0  0  0  0  0
   11.2224   12.5228    6.4037 C   0  0  0  0  0  0  0  0  0  0  0  0
   11.4664   11.1684    6.3463 C   0  0  0  0  0  0  0  0  0  0  0  0
   11.8111   10.4719    7.5218 C   0  0  0  0  0  0  0  0  0  0  0  0
   12.0629    9.2855    7.6820 O   0  0  0  0  0  0  0  0  0  0  0  0
   11.3050   10.7474    5.0588 N   0  0  0  0  0  0  0  0  0  0  0  0
   10.9675   11.8381    4.3391 C   0  0  0  0  0  0  0  0  0  0  0  0
   10.9107   12.9488    5.1415 N   0  0  0  0  0  0  0  0  0  0  0  0
  1  2  1  0  0  0  0
  1  6  1  0  0  0  0
  2  3  2  0  0  0  0
  3  4  1  0  0  0  0
  4  5  2  0  0  0  0
  4 10  1  0  0  0  0
  5  6  1  0  0  0  0
  5  8  1  0  0  0  0
  6  7  2  0  0  0  0
  8  9  1  0  0  0  0
  9 10  2  0  0  0  0
M  END
>  <CHROM.1>
11.45974080,11.58784319,6.74299855,0.35802717,-1.31394604,0.79012563

>  <Name>
ligand

>  <RI>
0

>  <Rbt.Current_Directory>
/home/itssahil/PROJECTS/Mol_Feturizer/New_Systems/rnas/4FEJ

>  <Rbt.Executable>
rbdock ($Id: //depot/dev/client3/rdock/2013.1/src/exe/rbdock.cxx#4 $)

>  <Rbt.Library>
libRbt.so (2013.1, Build901 2013/11/27)

>  <Rbt.Parameter_File>
/export/apps/rDock/src/rDock_2013.1_src/data/scripts/dock_solv.prm

>  <Rbt.Receptor>
prm/pocket_docking_7.prm

>  <SCORE>
-17.4358

>  <SCORE.INTER>
-17.4358

>  <SCORE.INTER.CONST>
1

>  <SCORE.INTER.POLAR>
0

>  <SCORE.INTER.ROT>
0

>  <SCORE.INTER.SOLV>
3.86776

>  <SCORE.INTER.VDW>
-16.5131

>  <SCORE.INTER.norm>
-1.74358

>  <SCORE.INTRA>
0

>  <SCORE.INTRA.DIHEDRAL>
0

>  <SCORE.INTRA.DIHEDRAL.0>
0

>  <SCORE.INTRA.POLAR>
0

>  <SCORE.INTRA.POLAR.0>
0

>  <SCORE.INTRA.REPUL>
0

>  <SCORE.INTRA.REPUL.0>
0

>  <SCORE.INTRA.SOLV>
0

>  <SCORE.INTRA.SOLV.lig_0>
-4.26631

>  <SCORE.INTRA.VDW>
0

>  <SCORE.INTRA.VDW.0>
0

>  <SCORE.INTRA.norm>
0

>  <SCORE.RESTR>
0

>  <SCORE.RESTR.CAVITY>
0

>  <SCORE.RESTR.norm>
0

>  <SCORE.SYSTEM>
0

>  <SCORE.SYSTEM.CONST>
0

>  <SCORE.SYSTEM.DIHEDRAL>
0

>  <SCORE.SYSTEM.SOLV>
0

>  <SCORE.SYSTEM.norm>
0

>  <SCORE.heavy>
10

>  <SCORE.norm>
-1.74358

>  <RMSD>
0.504

$$$$
ligand
 OpenBabel11021811493D
libRbt.so/2013.1/901 2013/11/27
 10 11  0  0  0  0  0  0  0  0999 V2000
   11.8950   11.3514    8.6097 N   0  0  0  0  0  0  0  0  0  0  0  0
   11.6380   12.6991    8.6100 C   0  0  0  0  0  0  0  0  0  0  0  0
   11.3037   13.3499    7.4841 N   0  0  0  0  0  0  0  0  0  0  0  0
   11.2510   12.5552    6.3951 C   0  0  0  0  0  0  0  0  0  0  0  0
   11.4979   11.2016    6.3303 C   0  0  0  0  0  0  0  0  0  0  0  0
   11.8478   10.5001    7.5013 C   0  0  0  0  0  0  0  0  0  0  0  0
   12.1027    9.3134    7.6547 O   0  0  0  0  0  0  0  0  0  0  0  0
   11.3334   10.7867    5.0413 N   0  0  0  0  0  0  0  0  0  0  0  0
   10.9912   11.8801    4.3280 C   0  0  0  0  0  0  0  0  0  0  0  0
   10.9344   12.9867    5.1361 N   0  0  0  0  0  0  0  0  0  0  0  0
  1  2  1  0  0  0  0
  1  6  1  0  0  0  0
  2  3  2  0  0  0  0
  3  4  1  0  0  0  0
  4  5  2  0  0  0  0
  4 10  1  0  0  0  0
  5  6  1  0  0  0  0
  5  8  1  0  0  0  0
  6  7  2  0  0  0  0
  8  9  1  0  0  0  0
  9 10  2  0  0  0  0
M  END
>  <CHROM.1>
11.49151906,11.61905925,6.72908153,0.35545682,-1.31015235,0.79259125

>  <Name>
ligand

>  <RI>
0

>  <Rbt.Current_Directory>
/home/itssahil/PROJECTS/Mol_Feturizer/New_Systems/rnas/4FEJ

>  <Rbt.Executable>
rbdock ($Id: //depot/dev/client3/rdock/2013.1/src/exe/rbdock.cxx#4 $)

>  <Rbt.Library>
libRbt.so (2013.1, Build901 2013/11/27)

>  <Rbt.Parameter_File>
/export/apps/rDock/src/rDock_2013.1_src/data/scripts/dock_solv.prm

>  <Rbt.Receptor>
prm/blind_docking_100.prm

>  <SCORE>
-17.452

>  <SCORE.INTER>
-17.452

>  <SCORE.INTER.CONST>
1

>  <SCORE.INTER.POLAR>
0

>  <SCORE.INTER.ROT>
0

>  <SCORE.INTER.SOLV>
3.83639

>  <SCORE.INTER.VDW>
-16.5134

>  <SCORE.INTER.norm>
-1.7452

>  <SCORE.INTRA>
0

>  <SCORE.INTRA.DIHEDRAL>
0

>  <SCORE.INTRA.DIHEDRAL.0>
0

>  <SCORE.INTRA.POLAR>
0

>  <SCORE.INTRA.POLAR.0>
0

>  <SCORE.INTRA.REPUL>
0

>  <SCORE.INTRA.REPUL.0>
0

>  <SCORE.INTRA.SOLV>
0

>  <SCORE.INTRA.SOLV.lig_0>
-4.26631

>  <SCORE.INTRA.VDW>
0

>  <SCORE.INTRA.VDW.0>
0

>  <SCORE.INTRA.norm>
0

>  <SCORE.RESTR>
0

>  <SCORE.RESTR.CAVITY>
0

>  <SCORE.RESTR.norm>
0

>  <SCORE.SYSTEM>
0

>  <SCORE.SYSTEM.CONST>
0

>  <SCORE.SYSTEM.DIHEDRAL>
0

>  <SCORE.SYSTEM.SOLV>
0

>  <SCORE.SYSTEM.norm>
0

>  <SCORE.heavy>
10

>  <SCORE.norm>
-1.7452

>  <RMSD>
0.505

$$$$
ligand
 OpenBabel11021811493D
libRbt.so/2013.1/901 2013/11/27
 10 11  0  0  0  0  0  0  0  0999 V2000
   11.9072   11.3978    8.6342 N   0  0  0  0  0  0  0  0  0  0  0  0
   11.6450   12.7444    8.6198 C   0  0  0  0  0  0  0  0  0  0  0  0
   11.3060   13.3812    7.4873 N   0  0  0  0  0  0  0  0  0  0  0  0
   11.2541   12.5739    6.4075 C   0  0  0  0  0  0  0  0  0  0  0  0
   11.5060   11.2207    6.3575 C   0  0  0  0  0  0  0  0  0  0  0  0
   11.8610   10.5338    7.5356 C   0  0  0  0  0  0  0  0  0  0  0  0
   12.1207    9.3499    7.7019 O   0  0  0  0  0  0  0  0  0  0  0  0
   11.3404   10.7905    5.0736 N   0  0  0  0  0  0  0  0  0  0  0  0
   10.9926   11.8746    4.3487 C   0  0  0  0  0  0  0  0  0  0  0  0
   10.9333   12.9900    5.1444 N   0  0  0  0  0  0  0  0  0  0  0  0
  1  2  1  0  0  0  0
  1  6  1  0  0  0  0
  2  3  2  0  0  0  0
  3  4  1  0  0  0  0
  4  5  2  0  0  0  0
  4 10  1  0  0  0  0
  5  6  1  0  0  0  0
  5  8  1  0  0  0  0
  6  7  2  0  0  0  0
  8  9  1  0  0  0  0
  9 10  2  0  0  0  0
M  END
>  <CHROM.1>
11.49883553,11.64259499,6.75154145,0.36009762,-1.30598951,0.78575337

>  <Name>
ligand

>  <RI>
0

>  <Rbt.Current_Directory>
/home/itssahil/PROJECTS/Mol_Feturizer/New_Systems/rnas/4FEJ

>  <Rbt.Executable>
rbdock ($Id: //depot/dev/client3/rdock/2013.1/src/exe/rbdock.cxx#4 $)

>  <Rbt.Library>
libRbt.so (2013.1, Build901 2013/11/27)

>  <Rbt.Parameter_File>
/export/apps/rDock/src/rDock_2013.1_src/data/scripts/dock_solv.prm

>  <Rbt.Receptor>
prm/blind_docking_40.prm

>  <SCORE>
-17.4672

>  <SCORE.INTER>
-17.4672

>  <SCORE.INTER.CONST>
1

>  <SCORE.INTER.POLAR>
0

>  <SCORE.INTER.ROT>
0

>  <SCORE.INTER.SOLV>
3.83825

>  <SCORE.INTER.VDW>
-16.5242

>  <SCORE.INTER.norm>
-1.74672

>  <SCORE.INTRA>
0

>  <SCORE.INTRA.DIHEDRAL>
0

>  <SCORE.INTRA.DIHEDRAL.0>
0

>  <SCORE.INTRA.POLAR>
0

>  <SCORE.INTRA.POLAR.0>
0

>  <SCORE.INTRA.REPUL>
0

>  <SCORE.INTRA.REPUL.0>
0

>  <SCORE.INTRA.SOLV>
0

>  <SCORE.INTRA.SOLV.lig_0>
-4.26631

>  <SCORE.INTRA.VDW>
0

>  <SCORE.INTRA.VDW.0>
0

>  <SCORE.INTRA.norm>
0

>  <SCORE.RESTR>
0

>  <SCORE.RESTR.CAVITY>
0

>  <SCORE.RESTR.norm>
0

>  <SCORE.SYSTEM>
0

>  <SCORE.SYSTEM.CONST>
0

>  <SCORE.SYSTEM.DIHEDRAL>
0

>  <SCORE.SYSTEM.SOLV>
0

>  <SCORE.SYSTEM.norm>
0

>  <SCORE.heavy>
10

>  <SCORE.norm>
-1.74672

>  <RMSD>
0.505

$$$$
ligand
 OpenBabel11021811493D
libRbt.so/2013.1/901 2013/11/27
 10 11  0  0  0  0  0  0  0  0999 V2000
   11.8383   11.3424    8.6166 N   0  0  0  0  0  0  0  0  0  0  0  0
   11.5749   12.6887    8.6393 C   0  0  0  0  0  0  0  0  0  0  0  0
   11.2517   13.3594    7.5218 N   0  0  0  0  0  0  0  0  0  0  0  0
   11.2165   12.5853    6.4173 C   0  0  0  0  0  0  0  0  0  0  0  0
   11.4706   11.2344    6.3299 C   0  0  0  0  0  0  0  0  0  0  0  0
   11.8091   10.5123    7.4916 C   0  0  0  0  0  0  0  0  0  0  0  0
   12.0677    9.3240    7.6257 O   0  0  0  0  0  0  0  0  0  0  0  0
   11.3242   10.8434    5.0312 N   0  0  0  0  0  0  0  0  0  0  0  0
   10.9858   11.9487    4.3346 C   0  0  0  0  0  0  0  0  0  0  0  0
   10.9137   13.0394    5.1628 N   0  0  0  0  0  0  0  0  0  0  0  0
  1  2  1  0  0  0  0
  1  6  1  0  0  0  0
  2  3  2  0  0  0  0
  3  4  1  0  0  0  0
  4  5  2  0  0  0  0
  4 10  1  0  0  0  0
  5  6  1  0  0  0  0
  5  8  1  0  0  0  0
  6  7  2  0  0  0  0
  8  9  1  0  0  0  0
  9 10  2  0  0  0  0
M  END
>  <CHROM.1>
11.45719468,11.64413021,6.73642083,0.40402956,-1.31529829,0.85861693

>  <Name>
ligand

>  <RI>
0

>  <Rbt.Current_Directory>
/home/itssahil/PROJECTS/Mol_Feturizer/New_Systems/rnas/4FEJ

>  <Rbt.Executable>
rbdock ($Id: //depot/dev/client3/rdock/2013.1/src/exe/rbdock.cxx#4 $)

>  <Rbt.Library>
libRbt.so (2013.1, Build901 2013/11/27)

>  <Rbt.Parameter_File>
/export/apps/rDock/src/rDock_2013.1_src/data/scripts/dock_solv.prm

>  <Rbt.Receptor>
prm/blind_docking_80.prm

>  <SCORE>
-17.4965

>  <SCORE.INTER>
-17.4965

>  <SCORE.INTER.CONST>
1

>  <SCORE.INTER.POLAR>
0

>  <SCORE.INTER.ROT>
0

>  <SCORE.INTER.SOLV>
3.84089

>  <SCORE.INTER.VDW>
-16.5446

>  <SCORE.INTER.norm>
-1.74965

>  <SCORE.INTRA>
0

>  <SCORE.INTRA.DIHEDRAL>
0

>  <SCORE.INTRA.DIHEDRAL.0>
0

>  <SCORE.INTRA.POLAR>
0

>  <SCORE.INTRA.POLAR.0>
0

>  <SCORE.INTRA.REPUL>
0

>  <SCORE.INTRA.REPUL.0>
0

>  <SCORE.INTRA.SOLV>
0

>  <SCORE.INTRA.SOLV.lig_0>
-4.26631

>  <SCORE.INTRA.VDW>
0

>  <SCORE.INTRA.VDW.0>
0

>  <SCORE.INTRA.norm>
0

>  <SCORE.RESTR>
0

>  <SCORE.RESTR.CAVITY>
0

>  <SCORE.RESTR.norm>
0

>  <SCORE.SYSTEM>
0

>  <SCORE.SYSTEM.CONST>
0

>  <SCORE.SYSTEM.DIHEDRAL>
0

>  <SCORE.SYSTEM.SOLV>
0

>  <SCORE.SYSTEM.norm>
0

>  <SCORE.heavy>
10

>  <SCORE.norm>
-1.74965

>  <RMSD>
0.505

$$$$
ligand
 OpenBabel11021811493D
libRbt.so/2013.1/901 2013/11/27
 10 11  0  0  0  0  0  0  0  0999 V2000
   11.8927   11.4022    8.6380 N   0  0  0  0  0  0  0  0  0  0  0  0
   11.6217   12.7471    8.6259 C   0  0  0  0  0  0  0  0  0  0  0  0
   11.2809   13.3840    7.4939 N   0  0  0  0  0  0  0  0  0  0  0  0
   11.2368   12.5788    6.4123 C   0  0  0  0  0  0  0  0  0  0  0  0
   11.4977   11.2273    6.3600 C   0  0  0  0  0  0  0  0  0  0  0  0
   11.8547   10.5403    7.5374 C   0  0  0  0  0  0  0  0  0  0  0  0
   12.1219    9.3578    7.7018 O   0  0  0  0  0  0  0  0  0  0  0  0
   11.3378   10.7988    5.0748 N   0  0  0  0  0  0  0  0  0  0  0  0
   10.9844   11.8821    4.3515 C   0  0  0  0  0  0  0  0  0  0  0  0
   10.9160   12.9954    5.1493 N   0  0  0  0  0  0  0  0  0  0  0  0
  1  2  1  0  0  0  0
  1  6  1  0  0  0  0
  2  3  2  0  0  0  0
  3  4  1  0  0  0  0
  4  5  2  0  0  0  0
  4 10  1  0  0  0  0
  5  6  1  0  0  0  0
  5  8  1  0  0  0  0
  6  7  2  0  0  0  0
  8  9  1  0  0  0  0
  9 10  2  0  0  0  0
M  END
>  <CHROM.1>
11.48690819,11.64830913,6.75488703,0.38369861,-1.30279498,0.81067010

>  <Name>
ligand

>  <RI>
0

>  <Rbt.Current_Directory>
/home/itssahil/PROJECTS/Mol_Feturizer/New_Systems/rnas/4FEJ

>  <Rbt.Executable>
rbdock ($Id: //depot/dev/client3/rdock/2013.1/src/exe/rbdock.cxx#4 $)

>  <Rbt.Library>
libRbt.so (2013.1, Build901 2013/11/27)

>  <Rbt.Parameter_File>
/export/apps/rDock/src/rDock_2013.1_src/data/scripts/dock_solv.prm

>  <Rbt.Receptor>
prm/pocket_docking_3.prm

>  <SCORE>
-17.4671

>  <SCORE.INTER>
-17.4671

>  <SCORE.INTER.CONST>
1

>  <SCORE.INTER.POLAR>
0

>  <SCORE.INTER.ROT>
0

>  <SCORE.INTER.SOLV>
3.82808

>  <SCORE.INTER.VDW>
-16.5207

>  <SCORE.INTER.norm>
-1.74671

>  <SCORE.INTRA>
0

>  <SCORE.INTRA.DIHEDRAL>
0

>  <SCORE.INTRA.DIHEDRAL.0>
0

>  <SCORE.INTRA.POLAR>
0

>  <SCORE.INTRA.POLAR.0>
0

>  <SCORE.INTRA.REPUL>
0

>  <SCORE.INTRA.REPUL.0>
0

>  <SCORE.INTRA.SOLV>
0

>  <SCORE.INTRA.SOLV.lig_0>
-4.26631

>  <SCORE.INTRA.VDW>
0

>  <SCORE.INTRA.VDW.0>
0

>  <SCORE.INTRA.norm>
0

>  <SCORE.RESTR>
0

>  <SCORE.RESTR.CAVITY>
0

>  <SCORE.RESTR.norm>
0

>  <SCORE.SYSTEM>
0

>  <SCORE.SYSTEM.CONST>
0

>  <SCORE.SYSTEM.DIHEDRAL>
0

>  <SCORE.SYSTEM.SOLV>
0

>  <SCORE.SYSTEM.norm>
0

>  <SCORE.heavy>
10

>  <SCORE.norm>
-1.74671

>  <RMSD>
0.505

$$$$
ligand
 OpenBabel11021811493D
libRbt.so/2013.1/901 2013/11/27
 10 11  0  0  0  0  0  0  0  0999 V2000
   11.8467   11.3340    8.6241 N   0  0  0  0  0  0  0  0  0  0  0  0
   11.5931   12.6824    8.6271 C   0  0  0  0  0  0  0  0  0  0  0  0
   11.2717   13.3383    7.5004 N   0  0  0  0  0  0  0  0  0  0  0  0
   11.2277   12.5479    6.4079 C   0  0  0  0  0  0  0  0  0  0  0  0
   11.4717   11.1940    6.3403 C   0  0  0  0  0  0  0  0  0  0  0  0
   11.8082   10.4871    7.5119 C   0  0  0  0  0  0  0  0  0  0  0  0
   12.0585    9.2992    7.6633 O   0  0  0  0  0  0  0  0  0  0  0  0
   11.3188   10.7844    5.0481 N   0  0  0  0  0  0  0  0  0  0  0  0
   10.9864   11.8815    4.3358 C   0  0  0  0  0  0  0  0  0  0  0  0
   10.9246   12.9851    5.1475 N   0  0  0  0  0  0  0  0  0  0  0  0
  1  2  1  0  0  0  0
  1  6  1  0  0  0  0
  2  3  2  0  0  0  0
  3  4  1  0  0  0  0
  4  5  2  0  0  0  0
  4 10  1  0  0  0  0
  5  6  1  0  0  0  0
  5  8  1  0  0  0  0
  6  7  2  0  0  0  0
  8  9  1  0  0  0  0
  9 10  2  0  0  0  0
M  END
>  <CHROM.1>
11.46242127,11.60992317,6.74062344,0.37630077,-1.31885450,0.81661311

>  <Name>
ligand

>  <RI>
0

>  <Rbt.Current_Directory>
/home/itssahil/PROJECTS/Mol_Feturizer/New_Systems/rnas/4FEJ

>  <Rbt.Executable>
rbdock ($Id: //depot/dev/client3/rdock/2013.1/src/exe/rbdock.cxx#4 $)

>  <Rbt.Library>
libRbt.so (2013.1, Build901 2013/11/27)

>  <Rbt.Parameter_File>
/export/apps/rDock/src/rDock_2013.1_src/data/scripts/dock_solv.prm

>  <Rbt.Receptor>
prm/pocket_docking_4.prm

>  <SCORE>
-17.4548

>  <SCORE.INTER>
-17.4548

>  <SCORE.INTER.CONST>
1

>  <SCORE.INTER.POLAR>
0

>  <SCORE.INTER.ROT>
0

>  <SCORE.INTER.SOLV>
3.86863

>  <SCORE.INTER.VDW>
-16.5261

>  <SCORE.INTER.norm>
-1.74548

>  <SCORE.INTRA>
0

>  <SCORE.INTRA.DIHEDRAL>
0

>  <SCORE.INTRA.DIHEDRAL.0>
0

>  <SCORE.INTRA.POLAR>
0

>  <SCORE.INTRA.POLAR.0>
0

>  <SCORE.INTRA.REPUL>
0

>  <SCORE.INTRA.REPUL.0>
0

>  <SCORE.INTRA.SOLV>
0

>  <SCORE.INTRA.SOLV.lig_0>
-4.26631

>  <SCORE.INTRA.VDW>
0

>  <SCORE.INTRA.VDW.0>
0

>  <SCORE.INTRA.norm>
0

>  <SCORE.RESTR>
0

>  <SCORE.RESTR.CAVITY>
0

>  <SCORE.RESTR.norm>
0

>  <SCORE.SYSTEM>
0

>  <SCORE.SYSTEM.CONST>
0

>  <SCORE.SYSTEM.DIHEDRAL>
0

>  <SCORE.SYSTEM.SOLV>
0

>  <SCORE.SYSTEM.norm>
0

>  <SCORE.heavy>
10

>  <SCORE.norm>
-1.74548

>  <RMSD>
0.505

$$$$
ligand
 OpenBabel11021811493D
libRbt.so/2013.1/901 2013/11/27
 10 11  0  0  0  0  0  0  0  0999 V2000
   11.8888   11.3984    8.6365 N   0  0  0  0  0  0  0  0  0  0  0  0
   11.6155   12.7428    8.6243 C   0  0  0  0  0  0  0  0  0  0  0  0
   11.2775   13.3799    7.4916 N   0  0  0  0  0  0  0  0  0  0  0  0
   11.2382   12.5752    6.4094 C   0  0  0  0  0  0  0  0  0  0  0  0
   11.5016   11.2242    6.3571 C   0  0  0  0  0  0  0  0  0  0  0  0
   11.8558   10.5371    7.5352 C   0  0  0  0  0  0  0  0  0  0  0  0
   12.1244    9.3549    7.6998 O   0  0  0  0  0  0  0  0  0  0  0  0
   11.3467   10.7963    5.0711 N   0  0  0  0  0  0  0  0  0  0  0  0
   10.9939   11.8794    4.3473 C   0  0  0  0  0  0  0  0  0  0  0  0
   10.9210   12.9921    5.1456 N   0  0  0  0  0  0  0  0  0  0  0  0
  1  2  1  0  0  0  0
  1  6  1  0  0  0  0
  2  3  2  0  0  0  0
  3  4  1  0  0  0  0
  4  5  2  0  0  0  0
  4 10  1  0  0  0  0
  5  6  1  0  0  0  0
  5  8  1  0  0  0  0
  6  7  2  0  0  0  0
  8  9  1  0  0  0  0
  9 10  2  0  0  0  0
M  END
>  <CHROM.1>
11.48877799,11.64498454,6.75222546,0.39715479,-1.30386411,0.82424805

>  <Name>
ligand

>  <RI>
0

>  <Rbt.Current_Directory>
/home/itssahil/PROJECTS/Mol_Feturizer/New_Systems/rnas/4FEJ

>  <Rbt.Executable>
rbdock ($Id: //depot/dev/client3/rdock/2013.1/src/exe/rbdock.cxx#4 $)

>  <Rbt.Library>
libRbt.so (2013.1, Build901 2013/11/27)

>  <Rbt.Parameter_File>
/export/apps/rDock/src/rDock_2013.1_src/data/scripts/dock_solv.prm

>  <Rbt.Receptor>
prm/pocket_docking_6.prm

>  <SCORE>
-17.472

>  <SCORE.INTER>
-17.472

>  <SCORE.INTER.CONST>
1

>  <SCORE.INTER.POLAR>
0

>  <SCORE.INTER.ROT>
0

>  <SCORE.INTER.SOLV>
3.82744

>  <SCORE.INTER.VDW>
-16.5238

>  <SCORE.INTER.norm>
-1.7472

>  <SCORE.INTRA>
0

>  <SCORE.INTRA.DIHEDRAL>
0

>  <SCORE.INTRA.DIHEDRAL.0>
0

>  <SCORE.INTRA.POLAR>
0

>  <SCORE.INTRA.POLAR.0>
0

>  <SCORE.INTRA.REPUL>
0

>  <SCORE.INTRA.REPUL.0>
0

>  <SCORE.INTRA.SOLV>
0

>  <SCORE.INTRA.SOLV.lig_0>
-4.26631

>  <SCORE.INTRA.VDW>
0

>  <SCORE.INTRA.VDW.0>
0

>  <SCORE.INTRA.norm>
0

>  <SCORE.RESTR>
0

>  <SCORE.RESTR.CAVITY>
0

>  <SCORE.RESTR.norm>
0

>  <SCORE.SYSTEM>
0

>  <SCORE.SYSTEM.CONST>
0

>  <SCORE.SYSTEM.DIHEDRAL>
0

>  <SCORE.SYSTEM.SOLV>
0

>  <SCORE.SYSTEM.norm>
0

>  <SCORE.heavy>
10

>  <SCORE.norm>
-1.7472

>  <RMSD>
0.505

$$$$
ligand
 OpenBabel11021811493D
libRbt.so/2013.1/901 2013/11/27
 10 11  0  0  0  0  0  0  0  0999 V2000
   11.8444   11.3454    8.6239 N   0  0  0  0  0  0  0  0  0  0  0  0
   11.5763   12.6910    8.6271 C   0  0  0  0  0  0  0  0  0  0  0  0
   11.2478   13.3436    7.5005 N   0  0  0  0  0  0  0  0  0  0  0  0
   11.2124   12.5530    6.4079 C   0  0  0  0  0  0  0  0  0  0  0  0
   11.4710   11.2017    6.3401 C   0  0  0  0  0  0  0  0  0  0  0  0
   11.8151   10.4983    7.5116 C   0  0  0  0  0  0  0  0  0  0  0  0
   12.0783    9.3132    7.6628 O   0  0  0  0  0  0  0  0  0  0  0  0
   11.3226   10.7907    5.0478 N   0  0  0  0  0  0  0  0  0  0  0  0
   10.9785   11.8843    4.3356 C   0  0  0  0  0  0  0  0  0  0  0  0
   10.9047   12.9870    5.1476 N   0  0  0  0  0  0  0  0  0  0  0  0
  1  2  1  0  0  0  0
  1  6  1  0  0  0  0
  2  3  2  0  0  0  0
  3  4  1  0  0  0  0
  4  5  2  0  0  0  0
  4 10  1  0  0  0  0
  5  6  1  0  0  0  0
  5  8  1  0  0  0  0
  6  7  2  0  0  0  0
  8  9  1  0  0  0  0
  9 10  2  0  0  0  0
M  END
>  <CHROM.1>
11.45727877,11.61749122,6.74046868,0.40521897,-1.31089845,0.84473875

>  <Name>
ligand

>  <RI>
0

>  <Rbt.Current_Directory>
/home/itssahil/PROJECTS/Mol_Feturizer/New_Systems/rnas/4FEJ

>  <Rbt.Executable>
rbdock ($Id: //depot/dev/client3/rdock/2013.1/src/exe/rbdock.cxx#4 $)

>  <Rbt.Library>
libRbt.so (2013.1, Build901 2013/11/27)

>  <Rbt.Parameter_File>
/export/apps/rDock/src/rDock_2013.1_src/data/scripts/dock_solv.prm

>  <Rbt.Receptor>
prm/pocket_docking_4.prm

>  <SCORE>
-17.4623

>  <SCORE.INTER>
-17.4623

>  <SCORE.INTER.CONST>
1

>  <SCORE.INTER.POLAR>
0

>  <SCORE.INTER.ROT>
0

>  <SCORE.INTER.SOLV>
3.84277

>  <SCORE.INTER.VDW>
-16.5225

>  <SCORE.INTER.norm>
-1.74623

>  <SCORE.INTRA>
0

>  <SCORE.INTRA.DIHEDRAL>
0

>  <SCORE.INTRA.DIHEDRAL.0>
0

>  <SCORE.INTRA.POLAR>
0

>  <SCORE.INTRA.POLAR.0>
0

>  <SCORE.INTRA.REPUL>
0

>  <SCORE.INTRA.REPUL.0>
0

>  <SCORE.INTRA.SOLV>
0

>  <SCORE.INTRA.SOLV.lig_0>
-4.26631

>  <SCORE.INTRA.VDW>
0

>  <SCORE.INTRA.VDW.0>
0

>  <SCORE.INTRA.norm>
0

>  <SCORE.RESTR>
0

>  <SCORE.RESTR.CAVITY>
0

>  <SCORE.RESTR.norm>
0

>  <SCORE.SYSTEM>
0

>  <SCORE.SYSTEM.CONST>
0

>  <SCORE.SYSTEM.DIHEDRAL>
0

>  <SCORE.SYSTEM.SOLV>
0

>  <SCORE.SYSTEM.norm>
0

>  <SCORE.heavy>
10

>  <SCORE.norm>
-1.74623

>  <RMSD>
0.506

$$$$
ligand
 OpenBabel11021811493D
libRbt.so/2013.1/901 2013/11/27
 10 11  0  0  0  0  0  0  0  0999 V2000
   11.8307   11.3463    8.6327 N   0  0  0  0  0  0  0  0  0  0  0  0
   11.5633   12.6920    8.6329 C   0  0  0  0  0  0  0  0  0  0  0  0
   11.2419   13.3436    7.5036 N   0  0  0  0  0  0  0  0  0  0  0  0
   11.2125   12.5518    6.4117 C   0  0  0  0  0  0  0  0  0  0  0  0
   11.4707   11.2003    6.3469 C   0  0  0  0  0  0  0  0  0  0  0  0
   11.8074   10.4980    7.5212 C   0  0  0  0  0  0  0  0  0  0  0  0
   12.0690    9.3129    7.6753 O   0  0  0  0  0  0  0  0  0  0  0  0
   11.3297   10.7880    5.0542 N   0  0  0  0  0  0  0  0  0  0  0  0
   10.9904   11.8810    4.3388 C   0  0  0  0  0  0  0  0  0  0  0  0
   10.9125   12.9847    5.1491 N   0  0  0  0  0  0  0  0  0  0  0  0
  1  2  1  0  0  0  0
  1  6  1  0  0  0  0
  2  3  2  0  0  0  0
  3  4  1  0  0  0  0
  4  5  2  0  0  0  0
  4 10  1  0  0  0  0
  5  6  1  0  0  0  0
  5  8  1  0  0  0  0
  6  7  2  0  0  0  0
  8  9  1  0  0  0  0
  9 10  2  0  0  0  0
M  END
>  <CHROM.1>
11.45483200,11.61654266,6.74673115,0.42113657,-1.31526039,0.85903977

>  <Name>
ligand

>  <RI>
0

>  <Rbt.Current_Directory>
/home/itssahil/PROJECTS/Mol_Feturizer/New_Systems/rnas/4FEJ

>  <Rbt.Executable>
rbdock ($Id: //depot/dev/client3/rdock/2013.1/src/exe/rbdock.cxx#4 $)

>  <Rbt.Library>
libRbt.so (2013.1, Build901 2013/11/27)

>  <Rbt.Parameter_File>
/export/apps/rDock/src/rDock_2013.1_src/data/scripts/dock_solv.prm

>  <Rbt.Receptor>
prm/pocket_docking_4.prm

>  <SCORE>
-17.4392

>  <SCORE.INTER>
-17.4392

>  <SCORE.INTER.CONST>
1

>  <SCORE.INTER.POLAR>
0

>  <SCORE.INTER.ROT>
0

>  <SCORE.INTER.SOLV>
3.85813

>  <SCORE.INTER.VDW>
-16.5122

>  <SCORE.INTER.norm>
-1.74392

>  <SCORE.INTRA>
0

>  <SCORE.INTRA.DIHEDRAL>
0

>  <SCORE.INTRA.DIHEDRAL.0>
0

>  <SCORE.INTRA.POLAR>
0

>  <SCORE.INTRA.POLAR.0>
0

>  <SCORE.INTRA.REPUL>
0

>  <SCORE.INTRA.REPUL.0>
0

>  <SCORE.INTRA.SOLV>
0

>  <SCORE.INTRA.SOLV.lig_0>
-4.26631

>  <SCORE.INTRA.VDW>
0

>  <SCORE.INTRA.VDW.0>
0

>  <SCORE.INTRA.norm>
0

>  <SCORE.RESTR>
0

>  <SCORE.RESTR.CAVITY>
0

>  <SCORE.RESTR.norm>
0

>  <SCORE.SYSTEM>
0

>  <SCORE.SYSTEM.CONST>
0

>  <SCORE.SYSTEM.DIHEDRAL>
0

>  <SCORE.SYSTEM.SOLV>
0

>  <SCORE.SYSTEM.norm>
0

>  <SCORE.heavy>
10

>  <SCORE.norm>
-1.74392

>  <RMSD>
0.506

$$$$
ligand
 OpenBabel11021811493D
libRbt.so/2013.1/901 2013/11/27
 10 11  0  0  0  0  0  0  0  0999 V2000
   11.9162   11.1974    8.4971 N   0  0  0  0  0  0  0  0  0  0  0  0
   11.6460   12.5392    8.5923 C   0  0  0  0  0  0  0  0  0  0  0  0
   11.2836   13.2598    7.5187 N   0  0  0  0  0  0  0  0  0  0  0  0
   11.2177   12.5388    6.3803 C   0  0  0  0  0  0  0  0  0  0  0  0
   11.4766   11.1954    6.2206 C   0  0  0  0  0  0  0  0  0  0  0  0
   11.8560   10.4214    7.3353 C   0  0  0  0  0  0  0  0  0  0  0  0
   12.1255    9.2301    7.4044 O   0  0  0  0  0  0  0  0  0  0  0  0
   11.2912   10.8654    4.9100 N   0  0  0  0  0  0  0  0  0  0  0  0
   10.9245   12.0002    4.2779 C   0  0  0  0  0  0  0  0  0  0  0  0
   10.8725   13.0497    5.1590 N   0  0  0  0  0  0  0  0  0  0  0  0
  1  2  1  0  0  0  0
  1  6  1  0  0  0  0
  2  3  2  0  0  0  0
  3  4  1  0  0  0  0
  4  5  2  0  0  0  0
  4 10  1  0  0  0  0
  5  6  1  0  0  0  0
  5  8  1  0  0  0  0
  6  7  2  0  0  0  0
  8  9  1  0  0  0  0
  9 10  2  0  0  0  0
M  END
>  <CHROM.1>
11.47377764,11.58527962,6.64640915,0.33066815,-1.28946614,0.83547746

>  <Name>
ligand

>  <RI>
0

>  <Rbt.Current_Directory>
/home/itssahil/PROJECTS/Mol_Feturizer/New_Systems/rnas/4FEJ

>  <Rbt.Executable>
rbdock ($Id: //depot/dev/client3/rdock/2013.1/src/exe/rbdock.cxx#4 $)

>  <Rbt.Library>
libRbt.so (2013.1, Build901 2013/11/27)

>  <Rbt.Parameter_File>
/export/apps/rDock/src/rDock_2013.1_src/data/scripts/dock_solv.prm

>  <Rbt.Receptor>
prm/pocket_docking_4.prm

>  <SCORE>
-17.381

>  <SCORE.INTER>
-17.381

>  <SCORE.INTER.CONST>
1

>  <SCORE.INTER.POLAR>
0

>  <SCORE.INTER.ROT>
0

>  <SCORE.INTER.SOLV>
3.71081

>  <SCORE.INTER.VDW>
-16.4242

>  <SCORE.INTER.norm>
-1.7381

>  <SCORE.INTRA>
0

>  <SCORE.INTRA.DIHEDRAL>
0

>  <SCORE.INTRA.DIHEDRAL.0>
0

>  <SCORE.INTRA.POLAR>
0

>  <SCORE.INTRA.POLAR.0>
0

>  <SCORE.INTRA.REPUL>
0

>  <SCORE.INTRA.REPUL.0>
0

>  <SCORE.INTRA.SOLV>
0

>  <SCORE.INTRA.SOLV.lig_0>
-4.26631

>  <SCORE.INTRA.VDW>
0

>  <SCORE.INTRA.VDW.0>
0

>  <SCORE.INTRA.norm>
0

>  <SCORE.RESTR>
0

>  <SCORE.RESTR.CAVITY>
0

>  <SCORE.RESTR.norm>
0

>  <SCORE.SYSTEM>
0

>  <SCORE.SYSTEM.CONST>
0

>  <SCORE.SYSTEM.DIHEDRAL>
0

>  <SCORE.SYSTEM.SOLV>
0

>  <SCORE.SYSTEM.norm>
0

>  <SCORE.heavy>
10

>  <SCORE.norm>
-1.7381

>  <RMSD>
0.506

$$$$
ligand
 OpenBabel11021811493D
libRbt.so/2013.1/901 2013/11/27
 10 11  0  0  0  0  0  0  0  0999 V2000
   11.8411   11.3400    8.6224 N   0  0  0  0  0  0  0  0  0  0  0  0
   11.5726   12.6855    8.6266 C   0  0  0  0  0  0  0  0  0  0  0  0
   11.2463   13.3394    7.5001 N   0  0  0  0  0  0  0  0  0  0  0  0
   11.2132   12.5500    6.4066 C   0  0  0  0  0  0  0  0  0  0  0  0
   11.4722   11.1989    6.3377 C   0  0  0  0  0  0  0  0  0  0  0  0
   11.8141   10.4942    7.5090 C   0  0  0  0  0  0  0  0  0  0  0  0
   12.0772    9.3089    7.6594 O   0  0  0  0  0  0  0  0  0  0  0  0
   11.3264   10.7894    5.0446 N   0  0  0  0  0  0  0  0  0  0  0  0
   10.9834   11.8837    4.3330 C   0  0  0  0  0  0  0  0  0  0  0  0
   10.9078   12.9855    5.1461 N   0  0  0  0  0  0  0  0  0  0  0  0
  1  2  1  0  0  0  0
  1  6  1  0  0  0  0
  2  3  2  0  0  0  0
  3  4  1  0  0  0  0
  4  5  2  0  0  0  0
  4 10  1  0  0  0  0
  5  6  1  0  0  0  0
  5  8  1  0  0  0  0
  6  7  2  0  0  0  0
  8  9  1  0  0  0  0
  9 10  2  0  0  0  0
M  END
>  <CHROM.1>
11.45755265,11.61418286,6.73849951,0.41150849,-1.31205508,0.85198987

>  <Name>
ligand

>  <RI>
0

>  <Rbt.Current_Directory>
/home/itssahil/PROJECTS/Mol_Feturizer/New_Systems/rnas/4FEJ

>  <Rbt.Executable>
rbdock ($Id: //depot/dev/client3/rdock/2013.1/src/exe/rbdock.cxx#4 $)

>  <Rbt.Library>
libRbt.so (2013.1, Build901 2013/11/27)

>  <Rbt.Parameter_File>
/export/apps/rDock/src/rDock_2013.1_src/data/scripts/dock_solv.prm

>  <Rbt.Receptor>
prm/pocket_docking_5.prm

>  <SCORE>
-17.4656

>  <SCORE.INTER>
-17.4656

>  <SCORE.INTER.CONST>
1

>  <SCORE.INTER.POLAR>
0

>  <SCORE.INTER.ROT>
0

>  <SCORE.INTER.SOLV>
3.84429

>  <SCORE.INTER.VDW>
-16.5252

>  <SCORE.INTER.norm>
-1.74656

>  <SCORE.INTRA>
0

>  <SCORE.INTRA.DIHEDRAL>
0

>  <SCORE.INTRA.DIHEDRAL.0>
0

>  <SCORE.INTRA.POLAR>
0

>  <SCORE.INTRA.POLAR.0>
0

>  <SCORE.INTRA.REPUL>
0

>  <SCORE.INTRA.REPUL.0>
0

>  <SCORE.INTRA.SOLV>
0

>  <SCORE.INTRA.SOLV.lig_0>
-4.26631

>  <SCORE.INTRA.VDW>
0

>  <SCORE.INTRA.VDW.0>
0

>  <SCORE.INTRA.norm>
0

>  <SCORE.RESTR>
0

>  <SCORE.RESTR.CAVITY>
0

>  <SCORE.RESTR.norm>
0

>  <SCORE.SYSTEM>
0

>  <SCORE.SYSTEM.CONST>
0

>  <SCORE.SYSTEM.DIHEDRAL>
0

>  <SCORE.SYSTEM.SOLV>
0

>  <SCORE.SYSTEM.norm>
0

>  <SCORE.heavy>
10

>  <SCORE.norm>
-1.74656

>  <RMSD>
0.506

$$$$
ligand
 OpenBabel11021811493D
libRbt.so/2013.1/901 2013/11/27
 10 11  0  0  0  0  0  0  0  0999 V2000
   11.8839   11.3264    8.5989 N   0  0  0  0  0  0  0  0  0  0  0  0
   11.6279   12.6743    8.6076 C   0  0  0  0  0  0  0  0  0  0  0  0
   11.2970   13.3329    7.4852 N   0  0  0  0  0  0  0  0  0  0  0  0
   11.2465   12.5455    6.3908 C   0  0  0  0  0  0  0  0  0  0  0  0
   11.4924   11.1922    6.3176 C   0  0  0  0  0  0  0  0  0  0  0  0
   11.8388   10.4826    7.4847 C   0  0  0  0  0  0  0  0  0  0  0  0
   12.0923    9.2947    7.6309 O   0  0  0  0  0  0  0  0  0  0  0  0
   11.3308   10.7860    5.0254 N   0  0  0  0  0  0  0  0  0  0  0  0
   10.9912   11.8845    4.3186 C   0  0  0  0  0  0  0  0  0  0  0  0
   10.9334   12.9856    5.1339 N   0  0  0  0  0  0  0  0  0  0  0  0
  1  2  1  0  0  0  0
  1  6  1  0  0  0  0
  2  3  2  0  0  0  0
  3  4  1  0  0  0  0
  4  5  2  0  0  0  0
  4 10  1  0  0  0  0
  5  6  1  0  0  0  0
  5  8  1  0  0  0  0
  6  7  2  0  0  0  0
  8  9  1  0  0  0  0
  9 10  2  0  0  0  0
M  END
>  <CHROM.1>
11.48532439,11.60695714,6.71912817,0.36023136,-1.31249605,0.80387716

>  <Name>
ligand

>  <RI>
0

>  <Rbt.Current_Directory>
/home/itssahil/PROJECTS/Mol_Feturizer/New_Systems/rnas/4FEJ

>  <Rbt.Executable>
rbdock ($Id: //depot/dev/client3/rdock/2013.1/src/exe/rbdock.cxx#4 $)

>  <Rbt.Library>
libRbt.so (2013.1, Build901 2013/11/27)

>  <Rbt.Parameter_File>
/export/apps/rDock/src/rDock_2013.1_src/data/scripts/dock_solv.prm

>  <Rbt.Receptor>
prm/pocket_docking_8.prm

>  <SCORE>
-17.4737

>  <SCORE.INTER>
-17.4737

>  <SCORE.INTER.CONST>
1

>  <SCORE.INTER.POLAR>
0

>  <SCORE.INTER.ROT>
0

>  <SCORE.INTER.SOLV>
3.83481

>  <SCORE.INTER.VDW>
-16.5274

>  <SCORE.INTER.norm>
-1.74737

>  <SCORE.INTRA>
0

>  <SCORE.INTRA.DIHEDRAL>
0

>  <SCORE.INTRA.DIHEDRAL.0>
0

>  <SCORE.INTRA.POLAR>
0

>  <SCORE.INTRA.POLAR.0>
0

>  <SCORE.INTRA.REPUL>
0

>  <SCORE.INTRA.REPUL.0>
0

>  <SCORE.INTRA.SOLV>
0

>  <SCORE.INTRA.SOLV.lig_0>
-4.26631

>  <SCORE.INTRA.VDW>
0

>  <SCORE.INTRA.VDW.0>
0

>  <SCORE.INTRA.norm>
0

>  <SCORE.RESTR>
0

>  <SCORE.RESTR.CAVITY>
0

>  <SCORE.RESTR.norm>
0

>  <SCORE.SYSTEM>
0

>  <SCORE.SYSTEM.CONST>
0

>  <SCORE.SYSTEM.DIHEDRAL>
0

>  <SCORE.SYSTEM.SOLV>
0

>  <SCORE.SYSTEM.norm>
0

>  <SCORE.heavy>
10

>  <SCORE.norm>
-1.74737

>  <RMSD>
0.506

$$$$
ligand
 OpenBabel11021811493D
libRbt.so/2013.1/901 2013/11/27
 10 11  0  0  0  0  0  0  0  0999 V2000
   11.9183   11.1944    8.5045 N   0  0  0  0  0  0  0  0  0  0  0  0
   11.6676   12.5406    8.5896 C   0  0  0  0  0  0  0  0  0  0  0  0
   11.3147   13.2582    7.5109 N   0  0  0  0  0  0  0  0  0  0  0  0
   11.2372   12.5295    6.3781 C   0  0  0  0  0  0  0  0  0  0  0  0
   11.4764   11.1813    6.2285 C   0  0  0  0  0  0  0  0  0  0  0  0
   11.8457   10.4105    7.3488 C   0  0  0  0  0  0  0  0  0  0  0  0
   12.0980    9.2159    7.4267 O   0  0  0  0  0  0  0  0  0  0  0  0
   11.2850   10.8441    4.9206 N   0  0  0  0  0  0  0  0  0  0  0  0
   10.9342   11.9791    4.2802 C   0  0  0  0  0  0  0  0  0  0  0  0
   10.8982   13.0360    5.1533 N   0  0  0  0  0  0  0  0  0  0  0  0
  1  2  1  0  0  0  0
  1  6  1  0  0  0  0
  2  3  2  0  0  0  0
  3  4  1  0  0  0  0
  4  5  2  0  0  0  0
  4 10  1  0  0  0  0
  5  6  1  0  0  0  0
  5  8  1  0  0  0  0
  6  7  2  0  0  0  0
  8  9  1  0  0  0  0
  9 10  2  0  0  0  0
M  END
>  <CHROM.1>
11.47971096,11.57444947,6.65129047,0.29173843,-1.29934283,0.79037160

>  <Name>
ligand

>  <RI>
0

>  <Rbt.Current_Directory>
/home/itssahil/PROJECTS/Mol_Feturizer/New_Systems/rnas/4FEJ

>  <Rbt.Executable>
rbdock ($Id: //depot/dev/client3/rdock/2013.1/src/exe/rbdock.cxx#4 $)

>  <Rbt.Library>
libRbt.so (2013.1, Build901 2013/11/27)

>  <Rbt.Parameter_File>
/export/apps/rDock/src/rDock_2013.1_src/data/scripts/dock_solv.prm

>  <Rbt.Receptor>
prm/blind_docking_80.prm

>  <SCORE>
-17.3984

>  <SCORE.INTER>
-17.3984

>  <SCORE.INTER.CONST>
1

>  <SCORE.INTER.POLAR>
0

>  <SCORE.INTER.ROT>
0

>  <SCORE.INTER.SOLV>
3.75108

>  <SCORE.INTER.VDW>
-16.4493

>  <SCORE.INTER.norm>
-1.73984

>  <SCORE.INTRA>
0

>  <SCORE.INTRA.DIHEDRAL>
0

>  <SCORE.INTRA.DIHEDRAL.0>
0

>  <SCORE.INTRA.POLAR>
0

>  <SCORE.INTRA.POLAR.0>
0

>  <SCORE.INTRA.REPUL>
0

>  <SCORE.INTRA.REPUL.0>
0

>  <SCORE.INTRA.SOLV>
0

>  <SCORE.INTRA.SOLV.lig_0>
-4.26631

>  <SCORE.INTRA.VDW>
0

>  <SCORE.INTRA.VDW.0>
0

>  <SCORE.INTRA.norm>
0

>  <SCORE.RESTR>
0

>  <SCORE.RESTR.CAVITY>
0

>  <SCORE.RESTR.norm>
0

>  <SCORE.SYSTEM>
0

>  <SCORE.SYSTEM.CONST>
0

>  <SCORE.SYSTEM.DIHEDRAL>
0

>  <SCORE.SYSTEM.SOLV>
0

>  <SCORE.SYSTEM.norm>
0

>  <SCORE.heavy>
10

>  <SCORE.norm>
-1.73984

>  <RMSD>
0.507

$$$$
ligand
 OpenBabel11021811493D
libRbt.so/2013.1/901 2013/11/27
 10 11  0  0  0  0  0  0  0  0999 V2000
   11.8477   11.3403    8.6253 N   0  0  0  0  0  0  0  0  0  0  0  0
   11.5993   12.6896    8.6273 C   0  0  0  0  0  0  0  0  0  0  0  0
   11.2776   13.3454    7.5006 N   0  0  0  0  0  0  0  0  0  0  0  0
   11.2278   12.5539    6.4092 C   0  0  0  0  0  0  0  0  0  0  0  0
   11.4664   11.1989    6.3427 C   0  0  0  0  0  0  0  0  0  0  0  0
   11.8031   10.4922    7.5143 C   0  0  0  0  0  0  0  0  0  0  0  0
   12.0493    9.3035    7.6665 O   0  0  0  0  0  0  0  0  0  0  0  0
   11.3087   10.7884    5.0514 N   0  0  0  0  0  0  0  0  0  0  0  0
   10.9788   11.8859    4.3385 C   0  0  0  0  0  0  0  0  0  0  0  0
   10.9232   12.9907    5.1491 N   0  0  0  0  0  0  0  0  0  0  0  0
  1  2  1  0  0  0  0
  1  6  1  0  0  0  0
  2  3  2  0  0  0  0
  3  4  1  0  0  0  0
  4  5  2  0  0  0  0
  4 10  1  0  0  0  0
  5  6  1  0  0  0  0
  5  8  1  0  0  0  0
  6  7  2  0  0  0  0
  8  9  1  0  0  0  0
  9 10  2  0  0  0  0
M  END
>  <CHROM.1>
11.45974249,11.61537752,6.74249523,0.35833049,-1.31989829,0.79797898

>  <Name>
ligand

>  <RI>
0

>  <Rbt.Current_Directory>
/home/itssahil/PROJECTS/Mol_Feturizer/New_Systems/rnas/4FEJ

>  <Rbt.Executable>
rbdock ($Id: //depot/dev/client3/rdock/2013.1/src/exe/rbdock.cxx#4 $)

>  <Rbt.Library>
libRbt.so (2013.1, Build901 2013/11/27)

>  <Rbt.Parameter_File>
/export/apps/rDock/src/rDock_2013.1_src/data/scripts/dock_solv.prm

>  <Rbt.Receptor>
prm/blind_docking_80.prm

>  <SCORE>
-17.4557

>  <SCORE.INTER>
-17.4557

>  <SCORE.INTER.CONST>
1

>  <SCORE.INTER.POLAR>
0

>  <SCORE.INTER.ROT>
0

>  <SCORE.INTER.SOLV>
3.87604

>  <SCORE.INTER.VDW>
-16.5291

>  <SCORE.INTER.norm>
-1.74557

>  <SCORE.INTRA>
0

>  <SCORE.INTRA.DIHEDRAL>
0

>  <SCORE.INTRA.DIHEDRAL.0>
0

>  <SCORE.INTRA.POLAR>
0

>  <SCORE.INTRA.POLAR.0>
0

>  <SCORE.INTRA.REPUL>
0

>  <SCORE.INTRA.REPUL.0>
0

>  <SCORE.INTRA.SOLV>
0

>  <SCORE.INTRA.SOLV.lig_0>
-4.26631

>  <SCORE.INTRA.VDW>
0

>  <SCORE.INTRA.VDW.0>
0

>  <SCORE.INTRA.norm>
0

>  <SCORE.RESTR>
0

>  <SCORE.RESTR.CAVITY>
0

>  <SCORE.RESTR.norm>
0

>  <SCORE.SYSTEM>
0

>  <SCORE.SYSTEM.CONST>
0

>  <SCORE.SYSTEM.DIHEDRAL>
0

>  <SCORE.SYSTEM.SOLV>
0

>  <SCORE.SYSTEM.norm>
0

>  <SCORE.heavy>
10

>  <SCORE.norm>
-1.74557

>  <RMSD>
0.507

$$$$
ligand
 OpenBabel11021811493D
libRbt.so/2013.1/901 2013/11/27
 10 11  0  0  0  0  0  0  0  0999 V2000
   11.9335   11.3233    8.5541 N   0  0  0  0  0  0  0  0  0  0  0  0
   11.6535   12.6659    8.5913 C   0  0  0  0  0  0  0  0  0  0  0  0
   11.2993   13.3397    7.4852 N   0  0  0  0  0  0  0  0  0  0  0  0
   11.2515   12.5726    6.3764 C   0  0  0  0  0  0  0  0  0  0  0  0
   11.5210   11.2256    6.2746 C   0  0  0  0  0  0  0  0  0  0  0  0
   11.8921   10.5002    7.4243 C   0  0  0  0  0  0  0  0  0  0  0  0
   12.1684    9.3146    7.5449 O   0  0  0  0  0  0  0  0  0  0  0  0
   11.3533   10.8414    4.9765 N   0  0  0  0  0  0  0  0  0  0  0  0
   10.9869   11.9469    4.2944 C   0  0  0  0  0  0  0  0  0  0  0  0
   10.9176   13.0310    5.1314 N   0  0  0  0  0  0  0  0  0  0  0  0
  1  2  1  0  0  0  0
  1  6  1  0  0  0  0
  2  3  2  0  0  0  0
  3  4  1  0  0  0  0
  4  5  2  0  0  0  0
  4 10  1  0  0  0  0
  5  6  1  0  0  0  0
  5  8  1  0  0  0  0
  6  7  2  0  0  0  0
  8  9  1  0  0  0  0
  9 10  2  0  0  0  0
M  END
>  <CHROM.1>
11.51059414,11.63246617,6.68410669,0.37854949,-1.29235204,0.84077559

>  <Name>
ligand

>  <RI>
0

>  <Rbt.Current_Directory>
/home/itssahil/PROJECTS/Mol_Feturizer/New_Systems/rnas/4FEJ

>  <Rbt.Executable>
rbdock ($Id: //depot/dev/client3/rdock/2013.1/src/exe/rbdock.cxx#4 $)

>  <Rbt.Library>
libRbt.so (2013.1, Build901 2013/11/27)

>  <Rbt.Parameter_File>
/export/apps/rDock/src/rDock_2013.1_src/data/scripts/dock_solv.prm

>  <Rbt.Receptor>
prm/pocket_docking_6.prm

>  <SCORE>
-17.3532

>  <SCORE.INTER>
-17.3532

>  <SCORE.INTER.CONST>
1

>  <SCORE.INTER.POLAR>
0

>  <SCORE.INTER.ROT>
0

>  <SCORE.INTER.SOLV>
3.74213

>  <SCORE.INTER.VDW>
-16.4161

>  <SCORE.INTER.norm>
-1.73532

>  <SCORE.INTRA>
0

>  <SCORE.INTRA.DIHEDRAL>
0

>  <SCORE.INTRA.DIHEDRAL.0>
0

>  <SCORE.INTRA.POLAR>
0

>  <SCORE.INTRA.POLAR.0>
0

>  <SCORE.INTRA.REPUL>
0

>  <SCORE.INTRA.REPUL.0>
0

>  <SCORE.INTRA.SOLV>
0

>  <SCORE.INTRA.SOLV.lig_0>
-4.26631

>  <SCORE.INTRA.VDW>
0

>  <SCORE.INTRA.VDW.0>
0

>  <SCORE.INTRA.norm>
0

>  <SCORE.RESTR>
0

>  <SCORE.RESTR.CAVITY>
0

>  <SCORE.RESTR.norm>
0

>  <SCORE.SYSTEM>
0

>  <SCORE.SYSTEM.CONST>
0

>  <SCORE.SYSTEM.DIHEDRAL>
0

>  <SCORE.SYSTEM.SOLV>
0

>  <SCORE.SYSTEM.norm>
0

>  <SCORE.heavy>
10

>  <SCORE.norm>
-1.73532

>  <RMSD>
0.507

$$$$
ligand
 OpenBabel11021811493D
libRbt.so/2013.1/901 2013/11/27
 10 11  0  0  0  0  0  0  0  0999 V2000
   11.8504   11.2664    8.5683 N   0  0  0  0  0  0  0  0  0  0  0  0
   11.5938   12.6133    8.6163 C   0  0  0  0  0  0  0  0  0  0  0  0
   11.2718   13.3060    7.5119 N   0  0  0  0  0  0  0  0  0  0  0  0
   11.2305   12.5526    6.3935 C   0  0  0  0  0  0  0  0  0  0  0  0
   11.4777   11.2022    6.2807 C   0  0  0  0  0  0  0  0  0  0  0  0
   11.8148   10.4572    7.4283 C   0  0  0  0  0  0  0  0  0  0  0  0
   12.0677    9.2654    7.5400 O   0  0  0  0  0  0  0  0  0  0  0  0
   11.3268   10.8359    4.9754 N   0  0  0  0  0  0  0  0  0  0  0  0
   10.9926   11.9556    4.2999 C   0  0  0  0  0  0  0  0  0  0  0  0
   10.9276   13.0312    5.1482 N   0  0  0  0  0  0  0  0  0  0  0  0
  1  2  1  0  0  0  0
  1  6  1  0  0  0  0
  2  3  2  0  0  0  0
  3  4  1  0  0  0  0
  4  5  2  0  0  0  0
  4 10  1  0  0  0  0
  5  6  1  0  0  0  0
  5  8  1  0  0  0  0
  6  7  2  0  0  0  0
  8  9  1  0  0  0  0
  9 10  2  0  0  0  0
M  END
>  <CHROM.1>
11.46712731,11.60448591,6.69476610,0.38501672,-1.31779014,0.85860840

>  <Name>
ligand

>  <RI>
0

>  <Rbt.Current_Directory>
/home/itssahil/PROJECTS/Mol_Feturizer/New_Systems/rnas/4FEJ

>  <Rbt.Executable>
rbdock ($Id: //depot/dev/client3/rdock/2013.1/src/exe/rbdock.cxx#4 $)

>  <Rbt.Library>
libRbt.so (2013.1, Build901 2013/11/27)

>  <Rbt.Parameter_File>
/export/apps/rDock/src/rDock_2013.1_src/data/scripts/dock_solv.prm

>  <Rbt.Receptor>
prm/pocket_docking_6.prm

>  <SCORE>
-17.426

>  <SCORE.INTER>
-17.426

>  <SCORE.INTER.CONST>
1

>  <SCORE.INTER.POLAR>
0

>  <SCORE.INTER.ROT>
0

>  <SCORE.INTER.SOLV>
3.82331

>  <SCORE.INTER.VDW>
-16.4918

>  <SCORE.INTER.norm>
-1.7426

>  <SCORE.INTRA>
0

>  <SCORE.INTRA.DIHEDRAL>
0

>  <SCORE.INTRA.DIHEDRAL.0>
0

>  <SCORE.INTRA.POLAR>
0

>  <SCORE.INTRA.POLAR.0>
0

>  <SCORE.INTRA.REPUL>
0

>  <SCORE.INTRA.REPUL.0>
0

>  <SCORE.INTRA.SOLV>
0

>  <SCORE.INTRA.SOLV.lig_0>
-4.26631

>  <SCORE.INTRA.VDW>
0

>  <SCORE.INTRA.VDW.0>
0

>  <SCORE.INTRA.norm>
0

>  <SCORE.RESTR>
0

>  <SCORE.RESTR.CAVITY>
0

>  <SCORE.RESTR.norm>
0

>  <SCORE.SYSTEM>
0

>  <SCORE.SYSTEM.CONST>
0

>  <SCORE.SYSTEM.DIHEDRAL>
0

>  <SCORE.SYSTEM.SOLV>
0

>  <SCORE.SYSTEM.norm>
0

>  <SCORE.heavy>
10

>  <SCORE.norm>
-1.7426

>  <RMSD>
0.507

$$$$
ligand
 OpenBabel11021811493D
libRbt.so/2013.1/901 2013/11/27
 10 11  0  0  0  0  0  0  0  0999 V2000
   11.8442   11.3325    8.6228 N   0  0  0  0  0  0  0  0  0  0  0  0
   11.5894   12.6807    8.6237 C   0  0  0  0  0  0  0  0  0  0  0  0
   11.2723   13.3355    7.4951 N   0  0  0  0  0  0  0  0  0  0  0  0
   11.2338   12.5443    6.4030 C   0  0  0  0  0  0  0  0  0  0  0  0
   11.4793   11.1905    6.3375 C   0  0  0  0  0  0  0  0  0  0  0  0
   11.8113   10.4848    7.5111 C   0  0  0  0  0  0  0  0  0  0  0  0
   12.0620    9.2972    7.6645 O   0  0  0  0  0  0  0  0  0  0  0  0
   11.3324   10.7798    5.0450 N   0  0  0  0  0  0  0  0  0  0  0  0
   11.0022   11.8761    4.3303 C   0  0  0  0  0  0  0  0  0  0  0  0
   10.9358   12.9802    5.1410 N   0  0  0  0  0  0  0  0  0  0  0  0
  1  2  1  0  0  0  0
  1  6  1  0  0  0  0
  2  3  2  0  0  0  0
  3  4  1  0  0  0  0
  4  5  2  0  0  0  0
  4 10  1  0  0  0  0
  5  6  1  0  0  0  0
  5  8  1  0  0  0  0
  6  7  2  0  0  0  0
  8  9  1  0  0  0  0
  9 10  2  0  0  0  0
M  END
>  <CHROM.1>
11.46791504,11.60672069,6.73744837,0.39162226,-1.32116521,0.83069919

>  <Name>
ligand

>  <RI>
0

>  <Rbt.Current_Directory>
/home/itssahil/PROJECTS/Mol_Feturizer/New_Systems/rnas/4FEJ

>  <Rbt.Executable>
rbdock ($Id: //depot/dev/client3/rdock/2013.1/src/exe/rbdock.cxx#4 $)

>  <Rbt.Library>
libRbt.so (2013.1, Build901 2013/11/27)

>  <Rbt.Parameter_File>
/export/apps/rDock/src/rDock_2013.1_src/data/scripts/dock_solv.prm

>  <Rbt.Receptor>
prm/pocket_docking_7.prm

>  <SCORE>
-17.4509

>  <SCORE.INTER>
-17.4509

>  <SCORE.INTER.CONST>
1

>  <SCORE.INTER.POLAR>
0

>  <SCORE.INTER.ROT>
0

>  <SCORE.INTER.SOLV>
3.87112

>  <SCORE.INTER.VDW>
-16.5243

>  <SCORE.INTER.norm>
-1.74509

>  <SCORE.INTRA>
0

>  <SCORE.INTRA.DIHEDRAL>
0

>  <SCORE.INTRA.DIHEDRAL.0>
0

>  <SCORE.INTRA.POLAR>
0

>  <SCORE.INTRA.POLAR.0>
0

>  <SCORE.INTRA.REPUL>
0

>  <SCORE.INTRA.REPUL.0>
0

>  <SCORE.INTRA.SOLV>
0

>  <SCORE.INTRA.SOLV.lig_0>
-4.26631

>  <SCORE.INTRA.VDW>
0

>  <SCORE.INTRA.VDW.0>
0

>  <SCORE.INTRA.norm>
0

>  <SCORE.RESTR>
0

>  <SCORE.RESTR.CAVITY>
0

>  <SCORE.RESTR.norm>
0

>  <SCORE.SYSTEM>
0

>  <SCORE.SYSTEM.CONST>
0

>  <SCORE.SYSTEM.DIHEDRAL>
0

>  <SCORE.SYSTEM.SOLV>
0

>  <SCORE.SYSTEM.norm>
0

>  <SCORE.heavy>
10

>  <SCORE.norm>
-1.74509

>  <RMSD>
0.507

$$$$
ligand
 OpenBabel11021811493D
libRbt.so/2013.1/901 2013/11/27
 10 11  0  0  0  0  0  0  0  0999 V2000
   11.8850   11.3995    8.6366 N   0  0  0  0  0  0  0  0  0  0  0  0
   11.6114   12.7439    8.6219 C   0  0  0  0  0  0  0  0  0  0  0  0
   11.2775   13.3796    7.4873 N   0  0  0  0  0  0  0  0  0  0  0  0
   11.2426   12.5738    6.4057 C   0  0  0  0  0  0  0  0  0  0  0  0
   11.5065   11.2228    6.3559 C   0  0  0  0  0  0  0  0  0  0  0  0
   11.8564   10.5370    7.5361 C   0  0  0  0  0  0  0  0  0  0  0  0
   12.1247    9.3552    7.7030 O   0  0  0  0  0  0  0  0  0  0  0  0
   11.3566   10.7935    5.0698 N   0  0  0  0  0  0  0  0  0  0  0  0
   11.0063   11.8758    4.3435 C   0  0  0  0  0  0  0  0  0  0  0  0
   10.9300   12.9893    5.1403 N   0  0  0  0  0  0  0  0  0  0  0  0
  1  2  1  0  0  0  0
  1  6  1  0  0  0  0
  2  3  2  0  0  0  0
  3  4  1  0  0  0  0
  4  5  2  0  0  0  0
  4 10  1  0  0  0  0
  5  6  1  0  0  0  0
  5  8  1  0  0  0  0
  6  7  2  0  0  0  0
  8  9  1  0  0  0  0
  9 10  2  0  0  0  0
M  END
>  <CHROM.1>
11.49206550,11.64402137,6.75052968,0.40854111,-1.30622124,0.83417850

>  <Name>
ligand

>  <RI>
0

>  <Rbt.Current_Directory>
/home/itssahil/PROJECTS/Mol_Feturizer/New_Systems/rnas/4FEJ

>  <Rbt.Executable>
rbdock ($Id: //depot/dev/client3/rdock/2013.1/src/exe/rbdock.cxx#4 $)

>  <Rbt.Library>
libRbt.so (2013.1, Build901 2013/11/27)

>  <Rbt.Parameter_File>
/export/apps/rDock/src/rDock_2013.1_src/data/scripts/dock_solv.prm

>  <Rbt.Receptor>
prm/blind_docking_40.prm

>  <SCORE>
-17.4704

>  <SCORE.INTER>
-17.4704

>  <SCORE.INTER.CONST>
1

>  <SCORE.INTER.POLAR>
0

>  <SCORE.INTER.ROT>
0

>  <SCORE.INTER.SOLV>
3.83207

>  <SCORE.INTER.VDW>
-16.5243

>  <SCORE.INTER.norm>
-1.74704

>  <SCORE.INTRA>
0

>  <SCORE.INTRA.DIHEDRAL>
0

>  <SCORE.INTRA.DIHEDRAL.0>
0

>  <SCORE.INTRA.POLAR>
0

>  <SCORE.INTRA.POLAR.0>
0

>  <SCORE.INTRA.REPUL>
0

>  <SCORE.INTRA.REPUL.0>
0

>  <SCORE.INTRA.SOLV>
0

>  <SCORE.INTRA.SOLV.lig_0>
-4.26631

>  <SCORE.INTRA.VDW>
0

>  <SCORE.INTRA.VDW.0>
0

>  <SCORE.INTRA.norm>
0

>  <SCORE.RESTR>
0

>  <SCORE.RESTR.CAVITY>
0

>  <SCORE.RESTR.norm>
0

>  <SCORE.SYSTEM>
0

>  <SCORE.SYSTEM.CONST>
0

>  <SCORE.SYSTEM.DIHEDRAL>
0

>  <SCORE.SYSTEM.SOLV>
0

>  <SCORE.SYSTEM.norm>
0

>  <SCORE.heavy>
10

>  <SCORE.norm>
-1.74704

>  <RMSD>
0.508

$$$$
ligand
 OpenBabel11021811493D
libRbt.so/2013.1/901 2013/11/27
 10 11  0  0  0  0  0  0  0  0999 V2000
   11.8744   11.4015    8.6383 N   0  0  0  0  0  0  0  0  0  0  0  0
   11.5928   12.7442    8.6246 C   0  0  0  0  0  0  0  0  0  0  0  0
   11.2575   13.3793    7.4900 N   0  0  0  0  0  0  0  0  0  0  0  0
   11.2297   12.5745    6.4075 C   0  0  0  0  0  0  0  0  0  0  0  0
   11.5018   11.2252    6.3567 C   0  0  0  0  0  0  0  0  0  0  0  0
   11.8533   10.5402    7.5368 C   0  0  0  0  0  0  0  0  0  0  0  0
   12.1283    9.3597    7.7029 O   0  0  0  0  0  0  0  0  0  0  0  0
   11.3572   10.7965    5.0697 N   0  0  0  0  0  0  0  0  0  0  0  0
   11.0020   11.8775    4.3439 C   0  0  0  0  0  0  0  0  0  0  0  0
   10.9173   12.9896    5.1419 N   0  0  0  0  0  0  0  0  0  0  0  0
  1  2  1  0  0  0  0
  1  6  1  0  0  0  0
  2  3  2  0  0  0  0
  3  4  1  0  0  0  0
  4  5  2  0  0  0  0
  4 10  1  0  0  0  0
  5  6  1  0  0  0  0
  5  8  1  0  0  0  0
  6  7  2  0  0  0  0
  8  9  1  0  0  0  0
  9 10  2  0  0  0  0
M  END
>  <CHROM.1>
11.48402180,11.64584235,6.75174412,0.42964053,-1.30317841,0.85567979

>  <Name>
ligand

>  <RI>
0

>  <Rbt.Current_Directory>
/home/itssahil/PROJECTS/Mol_Feturizer/New_Systems/rnas/4FEJ

>  <Rbt.Executable>
rbdock ($Id: //depot/dev/client3/rdock/2013.1/src/exe/rbdock.cxx#4 $)

>  <Rbt.Library>
libRbt.so (2013.1, Build901 2013/11/27)

>  <Rbt.Parameter_File>
/export/apps/rDock/src/rDock_2013.1_src/data/scripts/dock_solv.prm

>  <Rbt.Receptor>
prm/pocket_docking_3.prm

>  <SCORE>
-17.4972

>  <SCORE.INTER>
-17.4972

>  <SCORE.INTER.CONST>
1

>  <SCORE.INTER.POLAR>
0

>  <SCORE.INTER.ROT>
0

>  <SCORE.INTER.SOLV>
3.82263

>  <SCORE.INTER.VDW>
-16.539

>  <SCORE.INTER.norm>
-1.74972

>  <SCORE.INTRA>
0

>  <SCORE.INTRA.DIHEDRAL>
0

>  <SCORE.INTRA.DIHEDRAL.0>
0

>  <SCORE.INTRA.POLAR>
0

>  <SCORE.INTRA.POLAR.0>
0

>  <SCORE.INTRA.REPUL>
0

>  <SCORE.INTRA.REPUL.0>
0

>  <SCORE.INTRA.SOLV>
0

>  <SCORE.INTRA.SOLV.lig_0>
-4.26631

>  <SCORE.INTRA.VDW>
0

>  <SCORE.INTRA.VDW.0>
0

>  <SCORE.INTRA.norm>
0

>  <SCORE.RESTR>
0

>  <SCORE.RESTR.CAVITY>
0

>  <SCORE.RESTR.norm>
0

>  <SCORE.SYSTEM>
0

>  <SCORE.SYSTEM.CONST>
0

>  <SCORE.SYSTEM.DIHEDRAL>
0

>  <SCORE.SYSTEM.SOLV>
0

>  <SCORE.SYSTEM.norm>
0

>  <SCORE.heavy>
10

>  <SCORE.norm>
-1.74972

>  <RMSD>
0.508

$$$$
ligand
 OpenBabel11021811493D
libRbt.so/2013.1/901 2013/11/27
 10 11  0  0  0  0  0  0  0  0999 V2000
   11.8534   11.2842    8.5953 N   0  0  0  0  0  0  0  0  0  0  0  0
   11.6192   12.6359    8.6139 C   0  0  0  0  0  0  0  0  0  0  0  0
   11.3013   13.3084    7.4960 N   0  0  0  0  0  0  0  0  0  0  0  0
   11.2401   12.5303    6.3955 C   0  0  0  0  0  0  0  0  0  0  0  0
   11.4643   11.1738    6.3123 C   0  0  0  0  0  0  0  0  0  0  0  0
   11.7968   10.4498    7.4745 C   0  0  0  0  0  0  0  0  0  0  0  0
   12.0309    9.2568    7.6120 O   0  0  0  0  0  0  0  0  0  0  0  0
   11.2987   10.7803    5.0167 N   0  0  0  0  0  0  0  0  0  0  0  0
   10.9784   11.8895    4.3178 C   0  0  0  0  0  0  0  0  0  0  0  0
   10.9367   12.9852    5.1415 N   0  0  0  0  0  0  0  0  0  0  0  0
  1  2  1  0  0  0  0
  1  6  1  0  0  0  0
  2  3  2  0  0  0  0
  3  4  1  0  0  0  0
  4  5  2  0  0  0  0
  4 10  1  0  0  0  0
  5  6  1  0  0  0  0
  5  8  1  0  0  0  0
  6  7  2  0  0  0  0
  8  9  1  0  0  0  0
  9 10  2  0  0  0  0
M  END
>  <CHROM.1>
11.46312720,11.58557369,6.71697528,0.31993408,-1.32531965,0.77256929

>  <Name>
ligand

>  <RI>
0

>  <Rbt.Current_Directory>
/home/itssahil/PROJECTS/Mol_Feturizer/New_Systems/rnas/4FEJ

>  <Rbt.Executable>
rbdock ($Id: //depot/dev/client3/rdock/2013.1/src/exe/rbdock.cxx#4 $)

>  <Rbt.Library>
libRbt.so (2013.1, Build901 2013/11/27)

>  <Rbt.Parameter_File>
/export/apps/rDock/src/rDock_2013.1_src/data/scripts/dock_solv.prm

>  <Rbt.Receptor>
prm/pocket_docking_4.prm

>  <SCORE>
-17.4281

>  <SCORE.INTER>
-17.4281

>  <SCORE.INTER.CONST>
1

>  <SCORE.INTER.POLAR>
0

>  <SCORE.INTER.ROT>
0

>  <SCORE.INTER.SOLV>
3.88135

>  <SCORE.INTER.VDW>
-16.5125

>  <SCORE.INTER.norm>
-1.74281

>  <SCORE.INTRA>
0

>  <SCORE.INTRA.DIHEDRAL>
0

>  <SCORE.INTRA.DIHEDRAL.0>
0

>  <SCORE.INTRA.POLAR>
0

>  <SCORE.INTRA.POLAR.0>
0

>  <SCORE.INTRA.REPUL>
0

>  <SCORE.INTRA.REPUL.0>
0

>  <SCORE.INTRA.SOLV>
0

>  <SCORE.INTRA.SOLV.lig_0>
-4.26631

>  <SCORE.INTRA.VDW>
0

>  <SCORE.INTRA.VDW.0>
0

>  <SCORE.INTRA.norm>
0

>  <SCORE.RESTR>
0

>  <SCORE.RESTR.CAVITY>
0

>  <SCORE.RESTR.norm>
0

>  <SCORE.SYSTEM>
0

>  <SCORE.SYSTEM.CONST>
0

>  <SCORE.SYSTEM.DIHEDRAL>
0

>  <SCORE.SYSTEM.SOLV>
0

>  <SCORE.SYSTEM.norm>
0

>  <SCORE.heavy>
10

>  <SCORE.norm>
-1.74281

>  <RMSD>
0.508

$$$$
ligand
 OpenBabel11021811493D
libRbt.so/2013.1/901 2013/11/27
 10 11  0  0  0  0  0  0  0  0999 V2000
   11.8895   11.3992    8.6340 N   0  0  0  0  0  0  0  0  0  0  0  0
   11.6152   12.7434    8.6187 C   0  0  0  0  0  0  0  0  0  0  0  0
   11.2796   13.3782    7.4840 N   0  0  0  0  0  0  0  0  0  0  0  0
   11.2438   12.5716    6.4031 C   0  0  0  0  0  0  0  0  0  0  0  0
   11.5083   11.2207    6.3539 C   0  0  0  0  0  0  0  0  0  0  0  0
   11.8599   10.5359    7.5342 C   0  0  0  0  0  0  0  0  0  0  0  0
   12.1290    9.3543    7.7016 O   0  0  0  0  0  0  0  0  0  0  0  0
   11.3570   10.7903    5.0683 N   0  0  0  0  0  0  0  0  0  0  0  0
   11.0053   11.8719    4.3417 C   0  0  0  0  0  0  0  0  0  0  0  0
   10.9294   12.9859    5.1378 N   0  0  0  0  0  0  0  0  0  0  0  0
  1  2  1  0  0  0  0
  1  6  1  0  0  0  0
  2  3  2  0  0  0  0
  3  4  1  0  0  0  0
  4  5  2  0  0  0  0
  4 10  1  0  0  0  0
  5  6  1  0  0  0  0
  5  8  1  0  0  0  0
  6  7  2  0  0  0  0
  8  9  1  0  0  0  0
  9 10  2  0  0  0  0
M  END
>  <CHROM.1>
11.49413605,11.64214157,6.74829175,0.40624986,-1.30504321,0.83123431

>  <Name>
ligand

>  <RI>
0

>  <Rbt.Current_Directory>
/home/itssahil/PROJECTS/Mol_Feturizer/New_Systems/rnas/4FEJ

>  <Rbt.Executable>
rbdock ($Id: //depot/dev/client3/rdock/2013.1/src/exe/rbdock.cxx#4 $)

>  <Rbt.Library>
libRbt.so (2013.1, Build901 2013/11/27)

>  <Rbt.Parameter_File>
/export/apps/rDock/src/rDock_2013.1_src/data/scripts/dock_solv.prm

>  <Rbt.Receptor>
prm/blind_docking_100.prm

>  <SCORE>
-17.4658

>  <SCORE.INTER>
-17.4658

>  <SCORE.INTER.CONST>
1

>  <SCORE.INTER.POLAR>
0

>  <SCORE.INTER.ROT>
0

>  <SCORE.INTER.SOLV>
3.82804

>  <SCORE.INTER.VDW>
-16.5199

>  <SCORE.INTER.norm>
-1.74658

>  <SCORE.INTRA>
0

>  <SCORE.INTRA.DIHEDRAL>
0

>  <SCORE.INTRA.DIHEDRAL.0>
0

>  <SCORE.INTRA.POLAR>
0

>  <SCORE.INTRA.POLAR.0>
0

>  <SCORE.INTRA.REPUL>
0

>  <SCORE.INTRA.REPUL.0>
0

>  <SCORE.INTRA.SOLV>
0

>  <SCORE.INTRA.SOLV.lig_0>
-4.26631

>  <SCORE.INTRA.VDW>
0

>  <SCORE.INTRA.VDW.0>
0

>  <SCORE.INTRA.norm>
0

>  <SCORE.RESTR>
0

>  <SCORE.RESTR.CAVITY>
0

>  <SCORE.RESTR.norm>
0

>  <SCORE.SYSTEM>
0

>  <SCORE.SYSTEM.CONST>
0

>  <SCORE.SYSTEM.DIHEDRAL>
0

>  <SCORE.SYSTEM.SOLV>
0

>  <SCORE.SYSTEM.norm>
0

>  <SCORE.heavy>
10

>  <SCORE.norm>
-1.74658

>  <RMSD>
0.509

$$$$
ligand
 OpenBabel11021811493D
libRbt.so/2013.1/901 2013/11/27
 10 11  0  0  0  0  0  0  0  0999 V2000
   11.8630   11.3141    8.6070 N   0  0  0  0  0  0  0  0  0  0  0  0
   11.6343   12.6669    8.6174 C   0  0  0  0  0  0  0  0  0  0  0  0
   11.3117   13.3326    7.4968 N   0  0  0  0  0  0  0  0  0  0  0  0
   11.2403   12.5469    6.4023 C   0  0  0  0  0  0  0  0  0  0  0  0
   11.4586   11.1890    6.3274 C   0  0  0  0  0  0  0  0  0  0  0  0
   11.7959   10.4719    7.4926 C   0  0  0  0  0  0  0  0  0  0  0  0
   12.0262    9.2791    7.6371 O   0  0  0  0  0  0  0  0  0  0  0  0
   11.2830   10.7868    5.0357 N   0  0  0  0  0  0  0  0  0  0  0  0
   10.9625   11.8923    4.3310 C   0  0  0  0  0  0  0  0  0  0  0  0
   10.9305   12.9940    5.1470 N   0  0  0  0  0  0  0  0  0  0  0  0
  1  2  1  0  0  0  0
  1  6  1  0  0  0  0
  2  3  2  0  0  0  0
  3  4  1  0  0  0  0
  4  5  2  0  0  0  0
  4 10  1  0  0  0  0
  5  6  1  0  0  0  0
  5  8  1  0  0  0  0
  6  7  2  0  0  0  0
  8  9  1  0  0  0  0
  9 10  2  0  0  0  0
M  END
>  <CHROM.1>
11.46171841,11.60360939,6.72910758,0.28990482,-1.32327390,0.73628445

>  <Name>
ligand

>  <RI>
0

>  <Rbt.Current_Directory>
/home/itssahil/PROJECTS/Mol_Feturizer/New_Systems/rnas/4FEJ

>  <Rbt.Executable>
rbdock ($Id: //depot/dev/client3/rdock/2013.1/src/exe/rbdock.cxx#4 $)

>  <Rbt.Library>
libRbt.so (2013.1, Build901 2013/11/27)

>  <Rbt.Parameter_File>
/export/apps/rDock/src/rDock_2013.1_src/data/scripts/dock_solv.prm

>  <Rbt.Receptor>
prm/pocket_docking_5.prm

>  <SCORE>
-17.4231

>  <SCORE.INTER>
-17.4231

>  <SCORE.INTER.CONST>
1

>  <SCORE.INTER.POLAR>
0

>  <SCORE.INTER.ROT>
0

>  <SCORE.INTER.SOLV>
3.88856

>  <SCORE.INTER.VDW>
-16.5116

>  <SCORE.INTER.norm>
-1.74231

>  <SCORE.INTRA>
0

>  <SCORE.INTRA.DIHEDRAL>
0

>  <SCORE.INTRA.DIHEDRAL.0>
0

>  <SCORE.INTRA.POLAR>
0

>  <SCORE.INTRA.POLAR.0>
0

>  <SCORE.INTRA.REPUL>
0

>  <SCORE.INTRA.REPUL.0>
0

>  <SCORE.INTRA.SOLV>
0

>  <SCORE.INTRA.SOLV.lig_0>
-4.26631

>  <SCORE.INTRA.VDW>
0

>  <SCORE.INTRA.VDW.0>
0

>  <SCORE.INTRA.norm>
0

>  <SCORE.RESTR>
0

>  <SCORE.RESTR.CAVITY>
0

>  <SCORE.RESTR.norm>
0

>  <SCORE.SYSTEM>
0

>  <SCORE.SYSTEM.CONST>
0

>  <SCORE.SYSTEM.DIHEDRAL>
0

>  <SCORE.SYSTEM.SOLV>
0

>  <SCORE.SYSTEM.norm>
0

>  <SCORE.heavy>
10

>  <SCORE.norm>
-1.74231

>  <RMSD>
0.509

$$$$
ligand
 OpenBabel11021811493D
libRbt.so/2013.1/901 2013/11/27
 10 11  0  0  0  0  0  0  0  0999 V2000
   11.8697   11.3436    8.6189 N   0  0  0  0  0  0  0  0  0  0  0  0
   11.6296   12.6944    8.6178 C   0  0  0  0  0  0  0  0  0  0  0  0
   11.3075   13.3488    7.4904 N   0  0  0  0  0  0  0  0  0  0  0  0
   11.2487   12.5543    6.4016 C   0  0  0  0  0  0  0  0  0  0  0  0
   11.4788   11.1977    6.3382 C   0  0  0  0  0  0  0  0  0  0  0  0
   11.8157   10.4924    7.5107 C   0  0  0  0  0  0  0  0  0  0  0  0
   12.0552    9.3027    7.6655 O   0  0  0  0  0  0  0  0  0  0  0  0
   11.3136   10.7843    5.0487 N   0  0  0  0  0  0  0  0  0  0  0  0
   10.9877   11.8816    4.3338 C   0  0  0  0  0  0  0  0  0  0  0  0
   10.9420   12.9892    5.1413 N   0  0  0  0  0  0  0  0  0  0  0  0
  1  2  1  0  0  0  0
  1  6  1  0  0  0  0
  2  3  2  0  0  0  0
  3  4  1  0  0  0  0
  4  5  2  0  0  0  0
  4 10  1  0  0  0  0
  5  6  1  0  0  0  0
  5  8  1  0  0  0  0
  6  7  2  0  0  0  0
  8  9  1  0  0  0  0
  9 10  2  0  0  0  0
M  END
>  <CHROM.1>
11.47623153,11.61539627,6.73676124,0.32996446,-1.32148999,0.76748942

>  <Name>
ligand

>  <RI>
0

>  <Rbt.Current_Directory>
/home/itssahil/PROJECTS/Mol_Feturizer/New_Systems/rnas/4FEJ

>  <Rbt.Executable>
rbdock ($Id: //depot/dev/client3/rdock/2013.1/src/exe/rbdock.cxx#4 $)

>  <Rbt.Library>
libRbt.so (2013.1, Build901 2013/11/27)

>  <Rbt.Parameter_File>
/export/apps/rDock/src/rDock_2013.1_src/data/scripts/dock_solv.prm

>  <Rbt.Receptor>
prm/pocket_docking_5.prm

>  <SCORE>
-17.4748

>  <SCORE.INTER>
-17.4748

>  <SCORE.INTER.CONST>
1

>  <SCORE.INTER.POLAR>
0

>  <SCORE.INTER.ROT>
0

>  <SCORE.INTER.SOLV>
3.88011

>  <SCORE.INTER.VDW>
-16.5432

>  <SCORE.INTER.norm>
-1.74748

>  <SCORE.INTRA>
0

>  <SCORE.INTRA.DIHEDRAL>
0

>  <SCORE.INTRA.DIHEDRAL.0>
0

>  <SCORE.INTRA.POLAR>
0

>  <SCORE.INTRA.POLAR.0>
0

>  <SCORE.INTRA.REPUL>
0

>  <SCORE.INTRA.REPUL.0>
0

>  <SCORE.INTRA.SOLV>
0

>  <SCORE.INTRA.SOLV.lig_0>
-4.26631

>  <SCORE.INTRA.VDW>
0

>  <SCORE.INTRA.VDW.0>
0

>  <SCORE.INTRA.norm>
0

>  <SCORE.RESTR>
0

>  <SCORE.RESTR.CAVITY>
0

>  <SCORE.RESTR.norm>
0

>  <SCORE.SYSTEM>
0

>  <SCORE.SYSTEM.CONST>
0

>  <SCORE.SYSTEM.DIHEDRAL>
0

>  <SCORE.SYSTEM.SOLV>
0

>  <SCORE.SYSTEM.norm>
0

>  <SCORE.heavy>
10

>  <SCORE.norm>
-1.74748

>  <RMSD>
0.509

$$$$
ligand
 OpenBabel11021811493D
libRbt.so/2013.1/901 2013/11/27
 10 11  0  0  0  0  0  0  0  0999 V2000
   11.8469   11.3382    8.6245 N   0  0  0  0  0  0  0  0  0  0  0  0
   11.6009   12.6880    8.6257 C   0  0  0  0  0  0  0  0  0  0  0  0
   11.2818   13.3440    7.4984 N   0  0  0  0  0  0  0  0  0  0  0  0
   11.2319   12.5521    6.4072 C   0  0  0  0  0  0  0  0  0  0  0  0
   11.4682   11.1967    6.3415 C   0  0  0  0  0  0  0  0  0  0  0  0
   11.8022   10.4898    7.5138 C   0  0  0  0  0  0  0  0  0  0  0  0
   12.0461    9.3007    7.6667 O   0  0  0  0  0  0  0  0  0  0  0  0
   11.3113   10.7860    5.0501 N   0  0  0  0  0  0  0  0  0  0  0  0
   10.9843   11.8838    4.3365 C   0  0  0  0  0  0  0  0  0  0  0  0
   10.9297   12.9890    5.1466 N   0  0  0  0  0  0  0  0  0  0  0  0
  1  2  1  0  0  0  0
  1  6  1  0  0  0  0
  2  3  2  0  0  0  0
  3  4  1  0  0  0  0
  4  5  2  0  0  0  0
  4 10  1  0  0  0  0
  5  6  1  0  0  0  0
  5  8  1  0  0  0  0
  6  7  2  0  0  0  0
  8  9  1  0  0  0  0
  9 10  2  0  0  0  0
M  END
>  <CHROM.1>
11.46179094,11.61330677,6.74113149,0.35686511,-1.32203604,0.79619554

>  <Name>
ligand

>  <RI>
0

>  <Rbt.Current_Directory>
/home/itssahil/PROJECTS/Mol_Feturizer/New_Systems/rnas/4FEJ

>  <Rbt.Executable>
rbdock ($Id: //depot/dev/client3/rdock/2013.1/src/exe/rbdock.cxx#4 $)

>  <Rbt.Library>
libRbt.so (2013.1, Build901 2013/11/27)

>  <Rbt.Parameter_File>
/export/apps/rDock/src/rDock_2013.1_src/data/scripts/dock_solv.prm

>  <Rbt.Receptor>
prm/pocket_docking_7.prm

>  <SCORE>
-17.4597

>  <SCORE.INTER>
-17.4597

>  <SCORE.INTER.CONST>
1

>  <SCORE.INTER.POLAR>
0

>  <SCORE.INTER.ROT>
0

>  <SCORE.INTER.SOLV>
3.88162

>  <SCORE.INTER.VDW>
-16.5337

>  <SCORE.INTER.norm>
-1.74597

>  <SCORE.INTRA>
0

>  <SCORE.INTRA.DIHEDRAL>
0

>  <SCORE.INTRA.DIHEDRAL.0>
0

>  <SCORE.INTRA.POLAR>
0

>  <SCORE.INTRA.POLAR.0>
0

>  <SCORE.INTRA.REPUL>
0

>  <SCORE.INTRA.REPUL.0>
0

>  <SCORE.INTRA.SOLV>
0

>  <SCORE.INTRA.SOLV.lig_0>
-4.26631

>  <SCORE.INTRA.VDW>
0

>  <SCORE.INTRA.VDW.0>
0

>  <SCORE.INTRA.norm>
0

>  <SCORE.RESTR>
0

>  <SCORE.RESTR.CAVITY>
0

>  <SCORE.RESTR.norm>
0

>  <SCORE.SYSTEM>
0

>  <SCORE.SYSTEM.CONST>
0

>  <SCORE.SYSTEM.DIHEDRAL>
0

>  <SCORE.SYSTEM.SOLV>
0

>  <SCORE.SYSTEM.norm>
0

>  <SCORE.heavy>
10

>  <SCORE.norm>
-1.74597

>  <RMSD>
0.509

$$$$
ligand
 OpenBabel11021811493D
libRbt.so/2013.1/901 2013/11/27
 10 11  0  0  0  0  0  0  0  0999 V2000
   11.8764   11.4059    8.6384 N   0  0  0  0  0  0  0  0  0  0  0  0
   11.5975   12.7492    8.6250 C   0  0  0  0  0  0  0  0  0  0  0  0
   11.2596   13.3842    7.4911 N   0  0  0  0  0  0  0  0  0  0  0  0
   11.2265   12.5790    6.4092 C   0  0  0  0  0  0  0  0  0  0  0  0
   11.4957   11.2291    6.3582 C   0  0  0  0  0  0  0  0  0  0  0  0
   11.8498   10.5440    7.5375 C   0  0  0  0  0  0  0  0  0  0  0  0
   12.1231    9.3631    7.7033 O   0  0  0  0  0  0  0  0  0  0  0  0
   11.3458   10.7999    5.0720 N   0  0  0  0  0  0  0  0  0  0  0  0
   10.9902   11.8812    4.3468 C   0  0  0  0  0  0  0  0  0  0  0  0
   10.9105   12.9939    5.1444 N   0  0  0  0  0  0  0  0  0  0  0  0
  1  2  1  0  0  0  0
  1  6  1  0  0  0  0
  2  3  2  0  0  0  0
  3  4  1  0  0  0  0
  4  5  2  0  0  0  0
  4 10  1  0  0  0  0
  5  6  1  0  0  0  0
  5  8  1  0  0  0  0
  6  7  2  0  0  0  0
  8  9  1  0  0  0  0
  9 10  2  0  0  0  0
M  END
>  <CHROM.1>
11.48008647,11.64996979,6.75305973,0.41493764,-1.30239073,0.84095371

>  <Name>
ligand

>  <RI>
0

>  <Rbt.Current_Directory>
/home/itssahil/PROJECTS/Mol_Feturizer/New_Systems/rnas/4FEJ

>  <Rbt.Executable>
rbdock ($Id: //depot/dev/client3/rdock/2013.1/src/exe/rbdock.cxx#4 $)

>  <Rbt.Library>
libRbt.so (2013.1, Build901 2013/11/27)

>  <Rbt.Parameter_File>
/export/apps/rDock/src/rDock_2013.1_src/data/scripts/dock_solv.prm

>  <Rbt.Receptor>
prm/pocket_docking_8.prm

>  <SCORE>
-17.4947

>  <SCORE.INTER>
-17.4947

>  <SCORE.INTER.CONST>
1

>  <SCORE.INTER.POLAR>
0

>  <SCORE.INTER.ROT>
0

>  <SCORE.INTER.SOLV>
3.82396

>  <SCORE.INTER.VDW>
-16.5378

>  <SCORE.INTER.norm>
-1.74947

>  <SCORE.INTRA>
0

>  <SCORE.INTRA.DIHEDRAL>
0

>  <SCORE.INTRA.DIHEDRAL.0>
0

>  <SCORE.INTRA.POLAR>
0

>  <SCORE.INTRA.POLAR.0>
0

>  <SCORE.INTRA.REPUL>
0

>  <SCORE.INTRA.REPUL.0>
0

>  <SCORE.INTRA.SOLV>
0

>  <SCORE.INTRA.SOLV.lig_0>
-4.26631

>  <SCORE.INTRA.VDW>
0

>  <SCORE.INTRA.VDW.0>
0

>  <SCORE.INTRA.norm>
0

>  <SCORE.RESTR>
0

>  <SCORE.RESTR.CAVITY>
0

>  <SCORE.RESTR.norm>
0

>  <SCORE.SYSTEM>
0

>  <SCORE.SYSTEM.CONST>
0

>  <SCORE.SYSTEM.DIHEDRAL>
0

>  <SCORE.SYSTEM.SOLV>
0

>  <SCORE.SYSTEM.norm>
0

>  <SCORE.heavy>
10

>  <SCORE.norm>
-1.74947

>  <RMSD>
0.509

$$$$
ligand
 OpenBabel11021811493D
libRbt.so/2013.1/901 2013/11/27
 10 11  0  0  0  0  0  0  0  0999 V2000
   11.8480   11.3367    8.6230 N   0  0  0  0  0  0  0  0  0  0  0  0
   11.6021   12.6865    8.6226 C   0  0  0  0  0  0  0  0  0  0  0  0
   11.2847   13.3416    7.4942 N   0  0  0  0  0  0  0  0  0  0  0  0
   11.2364   12.5487    6.4037 C   0  0  0  0  0  0  0  0  0  0  0  0
   11.4728   11.1933    6.3395 C   0  0  0  0  0  0  0  0  0  0  0  0
   11.8050   10.4873    7.5129 C   0  0  0  0  0  0  0  0  0  0  0  0
   12.0486    9.2984    7.6672 O   0  0  0  0  0  0  0  0  0  0  0  0
   11.3179   10.7814    5.0482 N   0  0  0  0  0  0  0  0  0  0  0  0
   10.9919   11.8786    4.3331 C   0  0  0  0  0  0  0  0  0  0  0  0
   10.9361   12.9845    5.1421 N   0  0  0  0  0  0  0  0  0  0  0  0
  1  2  1  0  0  0  0
  1  6  1  0  0  0  0
  2  3  2  0  0  0  0
  3  4  1  0  0  0  0
  4  5  2  0  0  0  0
  4 10  1  0  0  0  0
  5  6  1  0  0  0  0
  5  8  1  0  0  0  0
  6  7  2  0  0  0  0
  8  9  1  0  0  0  0
  9 10  2  0  0  0  0
M  END
>  <CHROM.1>
11.46578613,11.61022269,6.73873058,0.36118424,-1.32312636,0.79951178

>  <Name>
ligand

>  <RI>
0

>  <Rbt.Current_Directory>
/home/itssahil/PROJECTS/Mol_Feturizer/New_Systems/rnas/4FEJ

>  <Rbt.Executable>
rbdock ($Id: //depot/dev/client3/rdock/2013.1/src/exe/rbdock.cxx#4 $)

>  <Rbt.Library>
libRbt.so (2013.1, Build901 2013/11/27)

>  <Rbt.Parameter_File>
/export/apps/rDock/src/rDock_2013.1_src/data/scripts/dock_solv.prm

>  <Rbt.Receptor>
prm/blind_docking_100.prm

>  <SCORE>
-17.4589

>  <SCORE.INTER>
-17.4589

>  <SCORE.INTER.CONST>
1

>  <SCORE.INTER.POLAR>
0

>  <SCORE.INTER.ROT>
0

>  <SCORE.INTER.SOLV>
3.88269

>  <SCORE.INTER.VDW>
-16.5335

>  <SCORE.INTER.norm>
-1.74589

>  <SCORE.INTRA>
0

>  <SCORE.INTRA.DIHEDRAL>
0

>  <SCORE.INTRA.DIHEDRAL.0>
0

>  <SCORE.INTRA.POLAR>
0

>  <SCORE.INTRA.POLAR.0>
0

>  <SCORE.INTRA.REPUL>
0

>  <SCORE.INTRA.REPUL.0>
0

>  <SCORE.INTRA.SOLV>
0

>  <SCORE.INTRA.SOLV.lig_0>
-4.26631

>  <SCORE.INTRA.VDW>
0

>  <SCORE.INTRA.VDW.0>
0

>  <SCORE.INTRA.norm>
0

>  <SCORE.RESTR>
0

>  <SCORE.RESTR.CAVITY>
0

>  <SCORE.RESTR.norm>
0

>  <SCORE.SYSTEM>
0

>  <SCORE.SYSTEM.CONST>
0

>  <SCORE.SYSTEM.DIHEDRAL>
0

>  <SCORE.SYSTEM.SOLV>
0

>  <SCORE.SYSTEM.norm>
0

>  <SCORE.heavy>
10

>  <SCORE.norm>
-1.74589

>  <RMSD>
0.510

$$$$
ligand
 OpenBabel11021811493D
libRbt.so/2013.1/901 2013/11/27
 10 11  0  0  0  0  0  0  0  0999 V2000
   11.8547   11.3414    8.6223 N   0  0  0  0  0  0  0  0  0  0  0  0
   11.6131   12.6920    8.6218 C   0  0  0  0  0  0  0  0  0  0  0  0
   11.2944   13.3473    7.4940 N   0  0  0  0  0  0  0  0  0  0  0  0
   11.2403   12.5539    6.4041 C   0  0  0  0  0  0  0  0  0  0  0  0
   11.4720   11.1976    6.3401 C   0  0  0  0  0  0  0  0  0  0  0  0
   11.8055   10.4914    7.5130 C   0  0  0  0  0  0  0  0  0  0  0  0
   12.0456    9.3018    7.6674 O   0  0  0  0  0  0  0  0  0  0  0  0
   11.3119   10.7855    5.0496 N   0  0  0  0  0  0  0  0  0  0  0  0
   10.9874   11.8833    4.3347 C   0  0  0  0  0  0  0  0  0  0  0  0
   10.9376   12.9899    5.1432 N   0  0  0  0  0  0  0  0  0  0  0  0
  1  2  1  0  0  0  0
  1  6  1  0  0  0  0
  2  3  2  0  0  0  0
  3  4  1  0  0  0  0
  4  5  2  0  0  0  0
  4 10  1  0  0  0  0
  5  6  1  0  0  0  0
  5  8  1  0  0  0  0
  6  7  2  0  0  0  0
  8  9  1  0  0  0  0
  9 10  2  0  0  0  0
M  END
>  <CHROM.1>
11.46761344,11.61489795,6.73909068,0.34302967,-1.32332785,0.78124577

>  <Name>
ligand

>  <RI>
0

>  <Rbt.Current_Directory>
/home/itssahil/PROJECTS/Mol_Feturizer/New_Systems/rnas/4FEJ

>  <Rbt.Executable>
rbdock ($Id: //depot/dev/client3/rdock/2013.1/src/exe/rbdock.cxx#4 $)

>  <Rbt.Library>
libRbt.so (2013.1, Build901 2013/11/27)

>  <Rbt.Parameter_File>
/export/apps/rDock/src/rDock_2013.1_src/data/scripts/dock_solv.prm

>  <Rbt.Receptor>
prm/blind_docking_40.prm

>  <SCORE>
-17.4588

>  <SCORE.INTER>
-17.4588

>  <SCORE.INTER.CONST>
1

>  <SCORE.INTER.POLAR>
0

>  <SCORE.INTER.ROT>
0

>  <SCORE.INTER.SOLV>
3.8853

>  <SCORE.INTER.VDW>
-16.5343

>  <SCORE.INTER.norm>
-1.74588

>  <SCORE.INTRA>
0

>  <SCORE.INTRA.DIHEDRAL>
0

>  <SCORE.INTRA.DIHEDRAL.0>
0

>  <SCORE.INTRA.POLAR>
0

>  <SCORE.INTRA.POLAR.0>
0

>  <SCORE.INTRA.REPUL>
0

>  <SCORE.INTRA.REPUL.0>
0

>  <SCORE.INTRA.SOLV>
0

>  <SCORE.INTRA.SOLV.lig_0>
-4.26631

>  <SCORE.INTRA.VDW>
0

>  <SCORE.INTRA.VDW.0>
0

>  <SCORE.INTRA.norm>
0

>  <SCORE.RESTR>
0

>  <SCORE.RESTR.CAVITY>
0

>  <SCORE.RESTR.norm>
0

>  <SCORE.SYSTEM>
0

>  <SCORE.SYSTEM.CONST>
0

>  <SCORE.SYSTEM.DIHEDRAL>
0

>  <SCORE.SYSTEM.SOLV>
0

>  <SCORE.SYSTEM.norm>
0

>  <SCORE.heavy>
10

>  <SCORE.norm>
-1.74588

>  <RMSD>
0.510

$$$$
ligand
 OpenBabel11021811493D
libRbt.so/2013.1/901 2013/11/27
 10 11  0  0  0  0  0  0  0  0999 V2000
   11.8404   11.3303    8.6181 N   0  0  0  0  0  0  0  0  0  0  0  0
   11.6315   12.6854    8.6679 C   0  0  0  0  0  0  0  0  0  0  0  0
   11.3292   13.3897    7.5653 N   0  0  0  0  0  0  0  0  0  0  0  0
   11.2566   12.6389    6.4467 C   0  0  0  0  0  0  0  0  0  0  0  0
   11.4557   11.2808    6.3322 C   0  0  0  0  0  0  0  0  0  0  0  0
   11.7714   10.5236    7.4779 C   0  0  0  0  0  0  0  0  0  0  0  0
   11.9828    9.3236    7.5879 O   0  0  0  0  0  0  0  0  0  0  0  0
   11.2863   10.9208    5.0274 N   0  0  0  0  0  0  0  0  0  0  0  0
   10.9887   12.0520    4.3540 C   0  0  0  0  0  0  0  0  0  0  0  0
   10.9652   13.1286    5.2030 N   0  0  0  0  0  0  0  0  0  0  0  0
  1  2  1  0  0  0  0
  1  6  1  0  0  0  0
  2  3  2  0  0  0  0
  3  4  1  0  0  0  0
  4  5  2  0  0  0  0
  4 10  1  0  0  0  0
  5  6  1  0  0  0  0
  5  8  1  0  0  0  0
  6  7  2  0  0  0  0
  8  9  1  0  0  0  0
  9 10  2  0  0  0  0
M  END
>  <CHROM.1>
11.46107543,11.68289157,6.74650087,0.26994319,-1.34005055,0.74743017

>  <Name>
ligand

>  <RI>
0

>  <Rbt.Current_Directory>
/home/itssahil/PROJECTS/Mol_Feturizer/New_Systems/rnas/4FEJ

>  <Rbt.Executable>
rbdock ($Id: //depot/dev/client3/rdock/2013.1/src/exe/rbdock.cxx#4 $)

>  <Rbt.Library>
libRbt.so (2013.1, Build901 2013/11/27)

>  <Rbt.Parameter_File>
/export/apps/rDock/src/rDock_2013.1_src/data/scripts/dock_solv.prm

>  <Rbt.Receptor>
prm/blind_docking_60.prm

>  <SCORE>
-17.3856

>  <SCORE.INTER>
-17.3856

>  <SCORE.INTER.CONST>
1

>  <SCORE.INTER.POLAR>
0

>  <SCORE.INTER.ROT>
0

>  <SCORE.INTER.SOLV>
3.91158

>  <SCORE.INTER.VDW>
-16.4942

>  <SCORE.INTER.norm>
-1.73856

>  <SCORE.INTRA>
0

>  <SCORE.INTRA.DIHEDRAL>
0

>  <SCORE.INTRA.DIHEDRAL.0>
0

>  <SCORE.INTRA.POLAR>
0

>  <SCORE.INTRA.POLAR.0>
0

>  <SCORE.INTRA.REPUL>
0

>  <SCORE.INTRA.REPUL.0>
0

>  <SCORE.INTRA.SOLV>
0

>  <SCORE.INTRA.SOLV.lig_0>
-4.26631

>  <SCORE.INTRA.VDW>
0

>  <SCORE.INTRA.VDW.0>
0

>  <SCORE.INTRA.norm>
0

>  <SCORE.RESTR>
0

>  <SCORE.RESTR.CAVITY>
0

>  <SCORE.RESTR.norm>
0

>  <SCORE.SYSTEM>
0

>  <SCORE.SYSTEM.CONST>
0

>  <SCORE.SYSTEM.DIHEDRAL>
0

>  <SCORE.SYSTEM.SOLV>
0

>  <SCORE.SYSTEM.norm>
0

>  <SCORE.heavy>
10

>  <SCORE.norm>
-1.73856

>  <RMSD>
0.510

$$$$
ligand
 OpenBabel11021811493D
libRbt.so/2013.1/901 2013/11/27
 10 11  0  0  0  0  0  0  0  0999 V2000
   11.8784   11.3511    8.6069 N   0  0  0  0  0  0  0  0  0  0  0  0
   11.6330   12.7009    8.6198 C   0  0  0  0  0  0  0  0  0  0  0  0
   11.3065   13.3654    7.4996 N   0  0  0  0  0  0  0  0  0  0  0  0
   11.2489   12.5817    6.4029 C   0  0  0  0  0  0  0  0  0  0  0  0
   11.4842   11.2267    6.3255 C   0  0  0  0  0  0  0  0  0  0  0  0
   11.8259   10.5110    7.4902 C   0  0  0  0  0  0  0  0  0  0  0  0
   12.0702    9.3207    7.6326 O   0  0  0  0  0  0  0  0  0  0  0  0
   11.3184   10.8257    5.0322 N   0  0  0  0  0  0  0  0  0  0  0  0
   10.9870   11.9289    4.3289 C   0  0  0  0  0  0  0  0  0  0  0  0
   10.9384   13.0281    5.1476 N   0  0  0  0  0  0  0  0  0  0  0  0
  1  2  1  0  0  0  0
  1  6  1  0  0  0  0
  2  3  2  0  0  0  0
  3  4  1  0  0  0  0
  4  5  2  0  0  0  0
  4 10  1  0  0  0  0
  5  6  1  0  0  0  0
  5  8  1  0  0  0  0
  6  7  2  0  0  0  0
  8  9  1  0  0  0  0
  9 10  2  0  0  0  0
M  END
>  <CHROM.1>
11.48067728,11.64035345,6.72822636,0.33638765,-1.31755596,0.78380838

>  <Name>
ligand

>  <RI>
0

>  <Rbt.Current_Directory>
/home/itssahil/PROJECTS/Mol_Feturizer/New_Systems/rnas/4FEJ

>  <Rbt.Executable>
rbdock ($Id: //depot/dev/client3/rdock/2013.1/src/exe/rbdock.cxx#4 $)

>  <Rbt.Library>
libRbt.so (2013.1, Build901 2013/11/27)

>  <Rbt.Parameter_File>
/export/apps/rDock/src/rDock_2013.1_src/data/scripts/dock_solv.prm

>  <Rbt.Receptor>
prm/blind_docking_80.prm

>  <SCORE>
-17.445

>  <SCORE.INTER>
-17.445

>  <SCORE.INTER.CONST>
1

>  <SCORE.INTER.POLAR>
0

>  <SCORE.INTER.ROT>
0

>  <SCORE.INTER.SOLV>
3.85404

>  <SCORE.INTER.VDW>
-16.5147

>  <SCORE.INTER.norm>
-1.7445

>  <SCORE.INTRA>
0

>  <SCORE.INTRA.DIHEDRAL>
0

>  <SCORE.INTRA.DIHEDRAL.0>
0

>  <SCORE.INTRA.POLAR>
0

>  <SCORE.INTRA.POLAR.0>
0

>  <SCORE.INTRA.REPUL>
0

>  <SCORE.INTRA.REPUL.0>
0

>  <SCORE.INTRA.SOLV>
0

>  <SCORE.INTRA.SOLV.lig_0>
-4.26631

>  <SCORE.INTRA.VDW>
0

>  <SCORE.INTRA.VDW.0>
0

>  <SCORE.INTRA.norm>
0

>  <SCORE.RESTR>
0

>  <SCORE.RESTR.CAVITY>
0

>  <SCORE.RESTR.norm>
0

>  <SCORE.SYSTEM>
0

>  <SCORE.SYSTEM.CONST>
0

>  <SCORE.SYSTEM.DIHEDRAL>
0

>  <SCORE.SYSTEM.SOLV>
0

>  <SCORE.SYSTEM.norm>
0

>  <SCORE.heavy>
10

>  <SCORE.norm>
-1.7445

>  <RMSD>
0.510

$$$$
ligand
 OpenBabel11021811493D
libRbt.so/2013.1/901 2013/11/27
 10 11  0  0  0  0  0  0  0  0999 V2000
   11.8449   11.3399    8.6248 N   0  0  0  0  0  0  0  0  0  0  0  0
   11.5986   12.6896    8.6251 C   0  0  0  0  0  0  0  0  0  0  0  0
   11.2804   13.3450    7.4972 N   0  0  0  0  0  0  0  0  0  0  0  0
   11.2317   12.5526    6.4063 C   0  0  0  0  0  0  0  0  0  0  0  0
   11.4682   11.1972    6.3414 C   0  0  0  0  0  0  0  0  0  0  0  0
   11.8014   10.4909    7.5144 C   0  0  0  0  0  0  0  0  0  0  0  0
   12.0453    9.3020    7.6681 O   0  0  0  0  0  0  0  0  0  0  0  0
   11.3127   10.7859    5.0501 N   0  0  0  0  0  0  0  0  0  0  0  0
   10.9861   11.8833    4.3357 C   0  0  0  0  0  0  0  0  0  0  0  0
   10.9305   12.9889    5.1452 N   0  0  0  0  0  0  0  0  0  0  0  0
  1  2  1  0  0  0  0
  1  6  1  0  0  0  0
  2  3  2  0  0  0  0
  3  4  1  0  0  0  0
  4  5  2  0  0  0  0
  4 10  1  0  0  0  0
  5  6  1  0  0  0  0
  5  8  1  0  0  0  0
  6  7  2  0  0  0  0
  8  9  1  0  0  0  0
  9 10  2  0  0  0  0
M  END
>  <CHROM.1>
11.46141549,11.61403906,6.74088980,0.36006915,-1.32254565,0.79882588

>  <Name>
ligand

>  <RI>
0

>  <Rbt.Current_Directory>
/home/itssahil/PROJECTS/Mol_Feturizer/New_Systems/rnas/4FEJ

>  <Rbt.Executable>
rbdock ($Id: //depot/dev/client3/rdock/2013.1/src/exe/rbdock.cxx#4 $)

>  <Rbt.Library>
libRbt.so (2013.1, Build901 2013/11/27)

>  <Rbt.Parameter_File>
/export/apps/rDock/src/rDock_2013.1_src/data/scripts/dock_solv.prm

>  <Rbt.Receptor>
prm/pocket_docking_3.prm

>  <SCORE>
-17.4588

>  <SCORE.INTER>
-17.4588

>  <SCORE.INTER.CONST>
1

>  <SCORE.INTER.POLAR>
0

>  <SCORE.INTER.ROT>
0

>  <SCORE.INTER.SOLV>
3.88299

>  <SCORE.INTER.VDW>
-16.5335

>  <SCORE.INTER.norm>
-1.74588

>  <SCORE.INTRA>
0

>  <SCORE.INTRA.DIHEDRAL>
0

>  <SCORE.INTRA.DIHEDRAL.0>
0

>  <SCORE.INTRA.POLAR>
0

>  <SCORE.INTRA.POLAR.0>
0

>  <SCORE.INTRA.REPUL>
0

>  <SCORE.INTRA.REPUL.0>
0

>  <SCORE.INTRA.SOLV>
0

>  <SCORE.INTRA.SOLV.lig_0>
-4.26631

>  <SCORE.INTRA.VDW>
0

>  <SCORE.INTRA.VDW.0>
0

>  <SCORE.INTRA.norm>
0

>  <SCORE.RESTR>
0

>  <SCORE.RESTR.CAVITY>
0

>  <SCORE.RESTR.norm>
0

>  <SCORE.SYSTEM>
0

>  <SCORE.SYSTEM.CONST>
0

>  <SCORE.SYSTEM.DIHEDRAL>
0

>  <SCORE.SYSTEM.SOLV>
0

>  <SCORE.SYSTEM.norm>
0

>  <SCORE.heavy>
10

>  <SCORE.norm>
-1.74588

>  <RMSD>
0.510

$$$$
ligand
 OpenBabel11021811493D
libRbt.so/2013.1/901 2013/11/27
 10 11  0  0  0  0  0  0  0  0999 V2000
   11.8480   11.3396    8.6246 N   0  0  0  0  0  0  0  0  0  0  0  0
   11.6041   12.6898    8.6238 C   0  0  0  0  0  0  0  0  0  0  0  0
   11.2867   13.3447    7.4953 N   0  0  0  0  0  0  0  0  0  0  0  0
   11.2364   12.5515    6.4052 C   0  0  0  0  0  0  0  0  0  0  0  0
   11.4707   11.1956    6.3415 C   0  0  0  0  0  0  0  0  0  0  0  0
   11.8028   10.4897    7.5149 C   0  0  0  0  0  0  0  0  0  0  0  0
   12.0448    9.3005    7.6697 O   0  0  0  0  0  0  0  0  0  0  0  0
   11.3141   10.7834    5.0505 N   0  0  0  0  0  0  0  0  0  0  0  0
   10.9893   11.8807    4.3352 C   0  0  0  0  0  0  0  0  0  0  0  0
   10.9358   12.9871    5.1437 N   0  0  0  0  0  0  0  0  0  0  0  0
  1  2  1  0  0  0  0
  1  6  1  0  0  0  0
  2  3  2  0  0  0  0
  3  4  1  0  0  0  0
  4  5  2  0  0  0  0
  4 10  1  0  0  0  0
  5  6  1  0  0  0  0
  5  8  1  0  0  0  0
  6  7  2  0  0  0  0
  8  9  1  0  0  0  0
  9 10  2  0  0  0  0
M  END
>  <CHROM.1>
11.46467279,11.61276753,6.74053583,0.35458494,-1.32362221,0.79263337

>  <Name>
ligand

>  <RI>
0

>  <Rbt.Current_Directory>
/home/itssahil/PROJECTS/Mol_Feturizer/New_Systems/rnas/4FEJ

>  <Rbt.Executable>
rbdock ($Id: //depot/dev/client3/rdock/2013.1/src/exe/rbdock.cxx#4 $)

>  <Rbt.Library>
libRbt.so (2013.1, Build901 2013/11/27)

>  <Rbt.Parameter_File>
/export/apps/rDock/src/rDock_2013.1_src/data/scripts/dock_solv.prm

>  <Rbt.Receptor>
prm/pocket_docking_4.prm

>  <SCORE>
-17.4602

>  <SCORE.INTER>
-17.4602

>  <SCORE.INTER.CONST>
1

>  <SCORE.INTER.POLAR>
0

>  <SCORE.INTER.ROT>
0

>  <SCORE.INTER.SOLV>
3.88613

>  <SCORE.INTER.VDW>
-16.5355

>  <SCORE.INTER.norm>
-1.74602

>  <SCORE.INTRA>
0

>  <SCORE.INTRA.DIHEDRAL>
0

>  <SCORE.INTRA.DIHEDRAL.0>
0

>  <SCORE.INTRA.POLAR>
0

>  <SCORE.INTRA.POLAR.0>
0

>  <SCORE.INTRA.REPUL>
0

>  <SCORE.INTRA.REPUL.0>
0

>  <SCORE.INTRA.SOLV>
0

>  <SCORE.INTRA.SOLV.lig_0>
-4.26631

>  <SCORE.INTRA.VDW>
0

>  <SCORE.INTRA.VDW.0>
0

>  <SCORE.INTRA.norm>
0

>  <SCORE.RESTR>
0

>  <SCORE.RESTR.CAVITY>
0

>  <SCORE.RESTR.norm>
0

>  <SCORE.SYSTEM>
0

>  <SCORE.SYSTEM.CONST>
0

>  <SCORE.SYSTEM.DIHEDRAL>
0

>  <SCORE.SYSTEM.SOLV>
0

>  <SCORE.SYSTEM.norm>
0

>  <SCORE.heavy>
10

>  <SCORE.norm>
-1.74602

>  <RMSD>
0.510

$$$$
ligand
 OpenBabel11021811493D
libRbt.so/2013.1/901 2013/11/27
 10 11  0  0  0  0  0  0  0  0999 V2000
   11.8475   11.3394    8.6239 N   0  0  0  0  0  0  0  0  0  0  0  0
   11.6027   12.6894    8.6242 C   0  0  0  0  0  0  0  0  0  0  0  0
   11.2849   13.3451    7.4964 N   0  0  0  0  0  0  0  0  0  0  0  0
   11.2351   12.5527    6.4056 C   0  0  0  0  0  0  0  0  0  0  0  0
   11.4703   11.1971    6.3406 C   0  0  0  0  0  0  0  0  0  0  0  0
   11.8029   10.4904    7.5135 C   0  0  0  0  0  0  0  0  0  0  0  0
   12.0456    9.3012    7.6672 O   0  0  0  0  0  0  0  0  0  0  0  0
   11.3140   10.7859    5.0494 N   0  0  0  0  0  0  0  0  0  0  0  0
   10.9884   11.8836    4.3349 C   0  0  0  0  0  0  0  0  0  0  0  0
   10.9342   12.9893    5.1444 N   0  0  0  0  0  0  0  0  0  0  0  0
  1  2  1  0  0  0  0
  1  6  1  0  0  0  0
  2  3  2  0  0  0  0
  3  4  1  0  0  0  0
  4  5  2  0  0  0  0
  4 10  1  0  0  0  0
  5  6  1  0  0  0  0
  5  8  1  0  0  0  0
  6  7  2  0  0  0  0
  8  9  1  0  0  0  0
  9 10  2  0  0  0  0
M  END
>  <CHROM.1>
11.46396339,11.61389681,6.74006583,0.35644703,-1.32315997,0.79530272

>  <Name>
ligand

>  <RI>
0

>  <Rbt.Current_Directory>
/home/itssahil/PROJECTS/Mol_Feturizer/New_Systems/rnas/4FEJ

>  <Rbt.Executable>
rbdock ($Id: //depot/dev/client3/rdock/2013.1/src/exe/rbdock.cxx#4 $)

>  <Rbt.Library>
libRbt.so (2013.1, Build901 2013/11/27)

>  <Rbt.Parameter_File>
/export/apps/rDock/src/rDock_2013.1_src/data/scripts/dock_solv.prm

>  <Rbt.Receptor>
prm/pocket_docking_6.prm

>  <SCORE>
-17.4602

>  <SCORE.INTER>
-17.4602

>  <SCORE.INTER.CONST>
1

>  <SCORE.INTER.POLAR>
0

>  <SCORE.INTER.ROT>
0

>  <SCORE.INTER.SOLV>
3.88399

>  <SCORE.INTER.VDW>
-16.5348

>  <SCORE.INTER.norm>
-1.74602

>  <SCORE.INTRA>
0

>  <SCORE.INTRA.DIHEDRAL>
0

>  <SCORE.INTRA.DIHEDRAL.0>
0

>  <SCORE.INTRA.POLAR>
0

>  <SCORE.INTRA.POLAR.0>
0

>  <SCORE.INTRA.REPUL>
0

>  <SCORE.INTRA.REPUL.0>
0

>  <SCORE.INTRA.SOLV>
0

>  <SCORE.INTRA.SOLV.lig_0>
-4.26631

>  <SCORE.INTRA.VDW>
0

>  <SCORE.INTRA.VDW.0>
0

>  <SCORE.INTRA.norm>
0

>  <SCORE.RESTR>
0

>  <SCORE.RESTR.CAVITY>
0

>  <SCORE.RESTR.norm>
0

>  <SCORE.SYSTEM>
0

>  <SCORE.SYSTEM.CONST>
0

>  <SCORE.SYSTEM.DIHEDRAL>
0

>  <SCORE.SYSTEM.SOLV>
0

>  <SCORE.SYSTEM.norm>
0

>  <SCORE.heavy>
10

>  <SCORE.norm>
-1.74602

>  <RMSD>
0.510

$$$$
ligand
 OpenBabel11021811493D
libRbt.so/2013.1/901 2013/11/27
 10 11  0  0  0  0  0  0  0  0999 V2000
   11.8434   11.3363    8.6241 N   0  0  0  0  0  0  0  0  0  0  0  0
   11.5972   12.6860    8.6249 C   0  0  0  0  0  0  0  0  0  0  0  0
   11.2803   13.3421    7.4970 N   0  0  0  0  0  0  0  0  0  0  0  0
   11.2328   12.5504    6.4057 C   0  0  0  0  0  0  0  0  0  0  0  0
   11.4695   11.1950    6.3402 C   0  0  0  0  0  0  0  0  0  0  0  0
   11.8012   10.4880    7.5132 C   0  0  0  0  0  0  0  0  0  0  0  0
   12.0449    9.2989    7.6665 O   0  0  0  0  0  0  0  0  0  0  0  0
   11.3154   10.7844    5.0485 N   0  0  0  0  0  0  0  0  0  0  0  0
   10.9896   11.8823    4.3343 C   0  0  0  0  0  0  0  0  0  0  0  0
   10.9332   12.9874    5.1444 N   0  0  0  0  0  0  0  0  0  0  0  0
  1  2  1  0  0  0  0
  1  6  1  0  0  0  0
  2  3  2  0  0  0  0
  3  4  1  0  0  0  0
  4  5  2  0  0  0  0
  4 10  1  0  0  0  0
  5  6  1  0  0  0  0
  5  8  1  0  0  0  0
  6  7  2  0  0  0  0
  8  9  1  0  0  0  0
  9 10  2  0  0  0  0
M  END
>  <CHROM.1>
11.46218328,11.61157730,6.73992720,0.36342135,-1.32337560,0.80266919

>  <Name>
ligand

>  <RI>
0

>  <Rbt.Current_Directory>
/home/itssahil/PROJECTS/Mol_Feturizer/New_Systems/rnas/4FEJ

>  <Rbt.Executable>
rbdock ($Id: //depot/dev/client3/rdock/2013.1/src/exe/rbdock.cxx#4 $)

>  <Rbt.Library>
libRbt.so (2013.1, Build901 2013/11/27)

>  <Rbt.Parameter_File>
/export/apps/rDock/src/rDock_2013.1_src/data/scripts/dock_solv.prm

>  <Rbt.Receptor>
prm/pocket_docking_7.prm

>  <SCORE>
-17.4609

>  <SCORE.INTER>
-17.4609

>  <SCORE.INTER.CONST>
1

>  <SCORE.INTER.POLAR>
0

>  <SCORE.INTER.ROT>
0

>  <SCORE.INTER.SOLV>
3.88416

>  <SCORE.INTER.VDW>
-16.5353

>  <SCORE.INTER.norm>
-1.74609

>  <SCORE.INTRA>
0

>  <SCORE.INTRA.DIHEDRAL>
0

>  <SCORE.INTRA.DIHEDRAL.0>
0

>  <SCORE.INTRA.POLAR>
0

>  <SCORE.INTRA.POLAR.0>
0

>  <SCORE.INTRA.REPUL>
0

>  <SCORE.INTRA.REPUL.0>
0

>  <SCORE.INTRA.SOLV>
0

>  <SCORE.INTRA.SOLV.lig_0>
-4.26631

>  <SCORE.INTRA.VDW>
0

>  <SCORE.INTRA.VDW.0>
0

>  <SCORE.INTRA.norm>
0

>  <SCORE.RESTR>
0

>  <SCORE.RESTR.CAVITY>
0

>  <SCORE.RESTR.norm>
0

>  <SCORE.SYSTEM>
0

>  <SCORE.SYSTEM.CONST>
0

>  <SCORE.SYSTEM.DIHEDRAL>
0

>  <SCORE.SYSTEM.SOLV>
0

>  <SCORE.SYSTEM.norm>
0

>  <SCORE.heavy>
10

>  <SCORE.norm>
-1.74609

>  <RMSD>
0.510

$$$$
ligand
 OpenBabel11021811493D
libRbt.so/2013.1/901 2013/11/27
 10 11  0  0  0  0  0  0  0  0999 V2000
   11.8301   11.3414    8.6132 N   0  0  0  0  0  0  0  0  0  0  0  0
   11.5641   12.6873    8.6325 C   0  0  0  0  0  0  0  0  0  0  0  0
   11.2482   13.3561    7.5118 N   0  0  0  0  0  0  0  0  0  0  0  0
   11.2225   12.5808    6.4080 C   0  0  0  0  0  0  0  0  0  0  0  0
   11.4796   11.2302    6.3240 C   0  0  0  0  0  0  0  0  0  0  0  0
   11.8107   10.5099    7.4890 C   0  0  0  0  0  0  0  0  0  0  0  0
   12.0704    9.3223    7.6263 O   0  0  0  0  0  0  0  0  0  0  0  0
   11.3437   10.8375    5.0246 N   0  0  0  0  0  0  0  0  0  0  0  0
   11.0085   11.9415    4.3243 C   0  0  0  0  0  0  0  0  0  0  0  0
   10.9283   13.0329    5.1508 N   0  0  0  0  0  0  0  0  0  0  0  0
  1  2  1  0  0  0  0
  1  6  1  0  0  0  0
  2  3  2  0  0  0  0
  3  4  1  0  0  0  0
  4  5  2  0  0  0  0
  4 10  1  0  0  0  0
  5  6  1  0  0  0  0
  5  8  1  0  0  0  0
  6  7  2  0  0  0  0
  8  9  1  0  0  0  0
  9 10  2  0  0  0  0
M  END
>  <CHROM.1>
11.46250060,11.64036786,6.72992045,0.43128160,-1.31876604,0.88389267

>  <Name>
ligand

>  <RI>
0

>  <Rbt.Current_Directory>
/home/itssahil/PROJECTS/Mol_Feturizer/New_Systems/rnas/4FEJ

>  <Rbt.Executable>
rbdock ($Id: //depot/dev/client3/rdock/2013.1/src/exe/rbdock.cxx#4 $)

>  <Rbt.Library>
libRbt.so (2013.1, Build901 2013/11/27)

>  <Rbt.Parameter_File>
/export/apps/rDock/src/rDock_2013.1_src/data/scripts/dock_solv.prm

>  <Rbt.Receptor>
prm/blind_docking_60.prm

>  <SCORE>
-17.4965

>  <SCORE.INTER>
-17.4965

>  <SCORE.INTER.CONST>
1

>  <SCORE.INTER.POLAR>
0

>  <SCORE.INTER.ROT>
0

>  <SCORE.INTER.SOLV>
3.84565

>  <SCORE.INTER.VDW>
-16.5462

>  <SCORE.INTER.norm>
-1.74965

>  <SCORE.INTRA>
0

>  <SCORE.INTRA.DIHEDRAL>
0

>  <SCORE.INTRA.DIHEDRAL.0>
0

>  <SCORE.INTRA.POLAR>
0

>  <SCORE.INTRA.POLAR.0>
0

>  <SCORE.INTRA.REPUL>
0

>  <SCORE.INTRA.REPUL.0>
0

>  <SCORE.INTRA.SOLV>
0

>  <SCORE.INTRA.SOLV.lig_0>
-4.26631

>  <SCORE.INTRA.VDW>
0

>  <SCORE.INTRA.VDW.0>
0

>  <SCORE.INTRA.norm>
0

>  <SCORE.RESTR>
0

>  <SCORE.RESTR.CAVITY>
0

>  <SCORE.RESTR.norm>
0

>  <SCORE.SYSTEM>
0

>  <SCORE.SYSTEM.CONST>
0

>  <SCORE.SYSTEM.DIHEDRAL>
0

>  <SCORE.SYSTEM.SOLV>
0

>  <SCORE.SYSTEM.norm>
0

>  <SCORE.heavy>
10

>  <SCORE.norm>
-1.74965

>  <RMSD>
0.511

$$$$
ligand
 OpenBabel11021811493D
libRbt.so/2013.1/901 2013/11/27
 10 11  0  0  0  0  0  0  0  0999 V2000
   11.8461   11.3456    8.6106 N   0  0  0  0  0  0  0  0  0  0  0  0
   11.5904   12.6934    8.6290 C   0  0  0  0  0  0  0  0  0  0  0  0
   11.2686   13.3619    7.5097 N   0  0  0  0  0  0  0  0  0  0  0  0
   11.2264   12.5840    6.4082 C   0  0  0  0  0  0  0  0  0  0  0  0
   11.4726   11.2313    6.3251 C   0  0  0  0  0  0  0  0  0  0  0  0
   11.8095   10.5115    7.4887 C   0  0  0  0  0  0  0  0  0  0  0  0
   12.0616    9.3223    7.6265 O   0  0  0  0  0  0  0  0  0  0  0  0
   11.3210   10.8365    5.0282 N   0  0  0  0  0  0  0  0  0  0  0  0
   10.9874   11.9412    4.3283 C   0  0  0  0  0  0  0  0  0  0  0  0
   10.9234   13.0353    5.1527 N   0  0  0  0  0  0  0  0  0  0  0  0
  1  2  1  0  0  0  0
  1  6  1  0  0  0  0
  2  3  2  0  0  0  0
  3  4  1  0  0  0  0
  4  5  2  0  0  0  0
  4 10  1  0  0  0  0
  5  6  1  0  0  0  0
  5  8  1  0  0  0  0
  6  7  2  0  0  0  0
  8  9  1  0  0  0  0
  9 10  2  0  0  0  0
M  END
>  <CHROM.1>
11.46245533,11.64261633,6.73018114,0.38219231,-1.31810861,0.83384590

>  <Name>
ligand

>  <RI>
0

>  <Rbt.Current_Directory>
/home/itssahil/PROJECTS/Mol_Feturizer/New_Systems/rnas/4FEJ

>  <Rbt.Executable>
rbdock ($Id: //depot/dev/client3/rdock/2013.1/src/exe/rbdock.cxx#4 $)

>  <Rbt.Library>
libRbt.so (2013.1, Build901 2013/11/27)

>  <Rbt.Parameter_File>
/export/apps/rDock/src/rDock_2013.1_src/data/scripts/dock_solv.prm

>  <Rbt.Receptor>
prm/pocket_docking_3.prm

>  <SCORE>
-17.4736

>  <SCORE.INTER>
-17.4736

>  <SCORE.INTER.CONST>
1

>  <SCORE.INTER.POLAR>
0

>  <SCORE.INTER.ROT>
0

>  <SCORE.INTER.SOLV>
3.85042

>  <SCORE.INTER.VDW>
-16.5326

>  <SCORE.INTER.norm>
-1.74736

>  <SCORE.INTRA>
0

>  <SCORE.INTRA.DIHEDRAL>
0

>  <SCORE.INTRA.DIHEDRAL.0>
0

>  <SCORE.INTRA.POLAR>
0

>  <SCORE.INTRA.POLAR.0>
0

>  <SCORE.INTRA.REPUL>
0

>  <SCORE.INTRA.REPUL.0>
0

>  <SCORE.INTRA.SOLV>
0

>  <SCORE.INTRA.SOLV.lig_0>
-4.26631

>  <SCORE.INTRA.VDW>
0

>  <SCORE.INTRA.VDW.0>
0

>  <SCORE.INTRA.norm>
0

>  <SCORE.RESTR>
0

>  <SCORE.RESTR.CAVITY>
0

>  <SCORE.RESTR.norm>
0

>  <SCORE.SYSTEM>
0

>  <SCORE.SYSTEM.CONST>
0

>  <SCORE.SYSTEM.DIHEDRAL>
0

>  <SCORE.SYSTEM.SOLV>
0

>  <SCORE.SYSTEM.norm>
0

>  <SCORE.heavy>
10

>  <SCORE.norm>
-1.74736

>  <RMSD>
0.511

$$$$
ligand
 OpenBabel11021811493D
libRbt.so/2013.1/901 2013/11/27
 10 11  0  0  0  0  0  0  0  0999 V2000
   11.8420   11.3368    8.6226 N   0  0  0  0  0  0  0  0  0  0  0  0
   11.5947   12.6863    8.6235 C   0  0  0  0  0  0  0  0  0  0  0  0
   11.2783   13.3423    7.4954 N   0  0  0  0  0  0  0  0  0  0  0  0
   11.2325   12.5507    6.4038 C   0  0  0  0  0  0  0  0  0  0  0  0
   11.4703   11.1955    6.3384 C   0  0  0  0  0  0  0  0  0  0  0  0
   11.8015   10.4886    7.5115 C   0  0  0  0  0  0  0  0  0  0  0  0
   12.0460    9.2997    7.6649 O   0  0  0  0  0  0  0  0  0  0  0  0
   11.3177   10.7850    5.0465 N   0  0  0  0  0  0  0  0  0  0  0  0
   10.9917   11.8827    4.3321 C   0  0  0  0  0  0  0  0  0  0  0  0
   10.9336   12.9876    5.1423 N   0  0  0  0  0  0  0  0  0  0  0  0
  1  2  1  0  0  0  0
  1  6  1  0  0  0  0
  2  3  2  0  0  0  0
  3  4  1  0  0  0  0
  4  5  2  0  0  0  0
  4 10  1  0  0  0  0
  5  6  1  0  0  0  0
  5  8  1  0  0  0  0
  6  7  2  0  0  0  0
  8  9  1  0  0  0  0
  9 10  2  0  0  0  0
M  END
>  <CHROM.1>
11.46227695,11.61201292,6.73815254,0.36846268,-1.32343269,0.80771109

>  <Name>
ligand

>  <RI>
0

>  <Rbt.Current_Directory>
/home/itssahil/PROJECTS/Mol_Feturizer/New_Systems/rnas/4FEJ

>  <Rbt.Executable>
rbdock ($Id: //depot/dev/client3/rdock/2013.1/src/exe/rbdock.cxx#4 $)

>  <Rbt.Library>
libRbt.so (2013.1, Build901 2013/11/27)

>  <Rbt.Parameter_File>
/export/apps/rDock/src/rDock_2013.1_src/data/scripts/dock_solv.prm

>  <Rbt.Receptor>
prm/pocket_docking_4.prm

>  <SCORE>
-17.4592

>  <SCORE.INTER>
-17.4592

>  <SCORE.INTER.CONST>
1

>  <SCORE.INTER.POLAR>
0

>  <SCORE.INTER.ROT>
0

>  <SCORE.INTER.SOLV>
3.88289

>  <SCORE.INTER.VDW>
-16.5338

>  <SCORE.INTER.norm>
-1.74592

>  <SCORE.INTRA>
0

>  <SCORE.INTRA.DIHEDRAL>
0

>  <SCORE.INTRA.DIHEDRAL.0>
0

>  <SCORE.INTRA.POLAR>
0

>  <SCORE.INTRA.POLAR.0>
0

>  <SCORE.INTRA.REPUL>
0

>  <SCORE.INTRA.REPUL.0>
0

>  <SCORE.INTRA.SOLV>
0

>  <SCORE.INTRA.SOLV.lig_0>
-4.26631

>  <SCORE.INTRA.VDW>
0

>  <SCORE.INTRA.VDW.0>
0

>  <SCORE.INTRA.norm>
0

>  <SCORE.RESTR>
0

>  <SCORE.RESTR.CAVITY>
0

>  <SCORE.RESTR.norm>
0

>  <SCORE.SYSTEM>
0

>  <SCORE.SYSTEM.CONST>
0

>  <SCORE.SYSTEM.DIHEDRAL>
0

>  <SCORE.SYSTEM.SOLV>
0

>  <SCORE.SYSTEM.norm>
0

>  <SCORE.heavy>
10

>  <SCORE.norm>
-1.74592

>  <RMSD>
0.511

$$$$
ligand
 OpenBabel11021811493D
libRbt.so/2013.1/901 2013/11/27
 10 11  0  0  0  0  0  0  0  0999 V2000
   11.8514   11.3412    8.6232 N   0  0  0  0  0  0  0  0  0  0  0  0
   11.6106   12.6919    8.6217 C   0  0  0  0  0  0  0  0  0  0  0  0
   11.2939   13.3469    7.4930 N   0  0  0  0  0  0  0  0  0  0  0  0
   11.2411   12.5530    6.4034 C   0  0  0  0  0  0  0  0  0  0  0  0
   11.4723   11.1966    6.3404 C   0  0  0  0  0  0  0  0  0  0  0  0
   11.8036   10.4907    7.5141 C   0  0  0  0  0  0  0  0  0  0  0  0
   12.0429    9.3011    7.6694 O   0  0  0  0  0  0  0  0  0  0  0  0
   11.3139   10.7839    5.0498 N   0  0  0  0  0  0  0  0  0  0  0  0
   10.9910   11.8816    4.3340 C   0  0  0  0  0  0  0  0  0  0  0  0
   10.9406   12.9886    5.1419 N   0  0  0  0  0  0  0  0  0  0  0  0
  1  2  1  0  0  0  0
  1  6  1  0  0  0  0
  2  3  2  0  0  0  0
  3  4  1  0  0  0  0
  4  5  2  0  0  0  0
  4 10  1  0  0  0  0
  5  6  1  0  0  0  0
  5  8  1  0  0  0  0
  6  7  2  0  0  0  0
  8  9  1  0  0  0  0
  9 10  2  0  0  0  0
M  END
>  <CHROM.1>
11.46743882,11.61405118,6.73919394,0.34614232,-1.32475383,0.78382757

>  <Name>
ligand

>  <RI>
0

>  <Rbt.Current_Directory>
/home/itssahil/PROJECTS/Mol_Feturizer/New_Systems/rnas/4FEJ

>  <Rbt.Executable>
rbdock ($Id: //depot/dev/client3/rdock/2013.1/src/exe/rbdock.cxx#4 $)

>  <Rbt.Library>
libRbt.so (2013.1, Build901 2013/11/27)

>  <Rbt.Parameter_File>
/export/apps/rDock/src/rDock_2013.1_src/data/scripts/dock_solv.prm

>  <Rbt.Receptor>
prm/pocket_docking_6.prm

>  <SCORE>
-17.4601

>  <SCORE.INTER>
-17.4601

>  <SCORE.INTER.CONST>
1

>  <SCORE.INTER.POLAR>
0

>  <SCORE.INTER.ROT>
0

>  <SCORE.INTER.SOLV>
3.88954

>  <SCORE.INTER.VDW>
-16.5366

>  <SCORE.INTER.norm>
-1.74601

>  <SCORE.INTRA>
0

>  <SCORE.INTRA.DIHEDRAL>
0

>  <SCORE.INTRA.DIHEDRAL.0>
0

>  <SCORE.INTRA.POLAR>
0

>  <SCORE.INTRA.POLAR.0>
0

>  <SCORE.INTRA.REPUL>
0

>  <SCORE.INTRA.REPUL.0>
0

>  <SCORE.INTRA.SOLV>
0

>  <SCORE.INTRA.SOLV.lig_0>
-4.26631

>  <SCORE.INTRA.VDW>
0

>  <SCORE.INTRA.VDW.0>
0

>  <SCORE.INTRA.norm>
0

>  <SCORE.RESTR>
0

>  <SCORE.RESTR.CAVITY>
0

>  <SCORE.RESTR.norm>
0

>  <SCORE.SYSTEM>
0

>  <SCORE.SYSTEM.CONST>
0

>  <SCORE.SYSTEM.DIHEDRAL>
0

>  <SCORE.SYSTEM.SOLV>
0

>  <SCORE.SYSTEM.norm>
0

>  <SCORE.heavy>
10

>  <SCORE.norm>
-1.74601

>  <RMSD>
0.511

$$$$
ligand
 OpenBabel11021811493D
libRbt.so/2013.1/901 2013/11/27
 10 11  0  0  0  0  0  0  0  0999 V2000
   11.8591   11.3337    8.6029 N   0  0  0  0  0  0  0  0  0  0  0  0
   11.6131   12.6834    8.6220 C   0  0  0  0  0  0  0  0  0  0  0  0
   11.2900   13.3536    7.5042 N   0  0  0  0  0  0  0  0  0  0  0  0
   11.2364   12.5755    6.4033 C   0  0  0  0  0  0  0  0  0  0  0  0
   11.4725   11.2211    6.3196 C   0  0  0  0  0  0  0  0  0  0  0  0
   11.8106   10.4994    7.4817 C   0  0  0  0  0  0  0  0  0  0  0  0
   12.0550    9.3085    7.6187 O   0  0  0  0  0  0  0  0  0  0  0  0
   11.3112   10.8267    5.0237 N   0  0  0  0  0  0  0  0  0  0  0  0
   10.9817   11.9335    4.3251 C   0  0  0  0  0  0  0  0  0  0  0  0
   10.9298   13.0283    5.1493 N   0  0  0  0  0  0  0  0  0  0  0  0
  1  2  1  0  0  0  0
  1  6  1  0  0  0  0
  2  3  2  0  0  0  0
  3  4  1  0  0  0  0
  4  5  2  0  0  0  0
  4 10  1  0  0  0  0
  5  6  1  0  0  0  0
  5  8  1  0  0  0  0
  6  7  2  0  0  0  0
  8  9  1  0  0  0  0
  9 10  2  0  0  0  0
M  END
>  <CHROM.1>
11.46748379,11.63261258,6.72448072,0.34707955,-1.31960144,0.79936442

>  <Name>
ligand

>  <RI>
0

>  <Rbt.Current_Directory>
/home/itssahil/PROJECTS/Mol_Feturizer/New_Systems/rnas/4FEJ

>  <Rbt.Executable>
rbdock ($Id: //depot/dev/client3/rdock/2013.1/src/exe/rbdock.cxx#4 $)

>  <Rbt.Library>
libRbt.so (2013.1, Build901 2013/11/27)

>  <Rbt.Parameter_File>
/export/apps/rDock/src/rDock_2013.1_src/data/scripts/dock_solv.prm

>  <Rbt.Receptor>
prm/pocket_docking_6.prm

>  <SCORE>
-17.4531

>  <SCORE.INTER>
-17.4531

>  <SCORE.INTER.CONST>
1

>  <SCORE.INTER.POLAR>
0

>  <SCORE.INTER.ROT>
0

>  <SCORE.INTER.SOLV>
3.85693

>  <SCORE.INTER.VDW>
-16.521

>  <SCORE.INTER.norm>
-1.74531

>  <SCORE.INTRA>
0

>  <SCORE.INTRA.DIHEDRAL>
0

>  <SCORE.INTRA.DIHEDRAL.0>
0

>  <SCORE.INTRA.POLAR>
0

>  <SCORE.INTRA.POLAR.0>
0

>  <SCORE.INTRA.REPUL>
0

>  <SCORE.INTRA.REPUL.0>
0

>  <SCORE.INTRA.SOLV>
0

>  <SCORE.INTRA.SOLV.lig_0>
-4.26631

>  <SCORE.INTRA.VDW>
0

>  <SCORE.INTRA.VDW.0>
0

>  <SCORE.INTRA.norm>
0

>  <SCORE.RESTR>
0

>  <SCORE.RESTR.CAVITY>
0

>  <SCORE.RESTR.norm>
0

>  <SCORE.SYSTEM>
0

>  <SCORE.SYSTEM.CONST>
0

>  <SCORE.SYSTEM.DIHEDRAL>
0

>  <SCORE.SYSTEM.SOLV>
0

>  <SCORE.SYSTEM.norm>
0

>  <SCORE.heavy>
10

>  <SCORE.norm>
-1.74531

>  <RMSD>
0.511

$$$$
ligand
 OpenBabel11021811493D
libRbt.so/2013.1/901 2013/11/27
 10 11  0  0  0  0  0  0  0  0999 V2000
   11.8468   11.3435    8.6256 N   0  0  0  0  0  0  0  0  0  0  0  0
   11.6061   12.6942    8.6230 C   0  0  0  0  0  0  0  0  0  0  0  0
   11.2906   13.3484    7.4936 N   0  0  0  0  0  0  0  0  0  0  0  0
   11.2388   12.5538    6.4045 C   0  0  0  0  0  0  0  0  0  0  0  0
   11.4699   11.1973    6.3426 C   0  0  0  0  0  0  0  0  0  0  0  0
   11.8000   10.4922    7.5171 C   0  0  0  0  0  0  0  0  0  0  0  0
   12.0391    9.3026    7.6735 O   0  0  0  0  0  0  0  0  0  0  0  0
   11.3127   10.7837    5.0522 N   0  0  0  0  0  0  0  0  0  0  0  0
   10.9906   11.8809    4.3352 C   0  0  0  0  0  0  0  0  0  0  0  0
   10.9395   12.9884    5.1423 N   0  0  0  0  0  0  0  0  0  0  0  0
  1  2  1  0  0  0  0
  1  6  1  0  0  0  0
  2  3  2  0  0  0  0
  3  4  1  0  0  0  0
  4  5  2  0  0  0  0
  4 10  1  0  0  0  0
  5  6  1  0  0  0  0
  5  8  1  0  0  0  0
  6  7  2  0  0  0  0
  8  9  1  0  0  0  0
  9 10  2  0  0  0  0
M  END
>  <CHROM.1>
11.46468631,11.61500626,6.74109856,0.34873276,-1.32549666,0.78562909

>  <Name>
ligand

>  <RI>
0

>  <Rbt.Current_Directory>
/home/itssahil/PROJECTS/Mol_Feturizer/New_Systems/rnas/4FEJ

>  <Rbt.Executable>
rbdock ($Id: //depot/dev/client3/rdock/2013.1/src/exe/rbdock.cxx#4 $)

>  <Rbt.Library>
libRbt.so (2013.1, Build901 2013/11/27)

>  <Rbt.Parameter_File>
/export/apps/rDock/src/rDock_2013.1_src/data/scripts/dock_solv.prm

>  <Rbt.Receptor>
prm/blind_docking_40.prm

>  <SCORE>
-17.4605

>  <SCORE.INTER>
-17.4605

>  <SCORE.INTER.CONST>
1

>  <SCORE.INTER.POLAR>
0

>  <SCORE.INTER.ROT>
0

>  <SCORE.INTER.SOLV>
3.89348

>  <SCORE.INTER.VDW>
-16.5382

>  <SCORE.INTER.norm>
-1.74605

>  <SCORE.INTRA>
0

>  <SCORE.INTRA.DIHEDRAL>
0

>  <SCORE.INTRA.DIHEDRAL.0>
0

>  <SCORE.INTRA.POLAR>
0

>  <SCORE.INTRA.POLAR.0>
0

>  <SCORE.INTRA.REPUL>
0

>  <SCORE.INTRA.REPUL.0>
0

>  <SCORE.INTRA.SOLV>
0

>  <SCORE.INTRA.SOLV.lig_0>
-4.26631

>  <SCORE.INTRA.VDW>
0

>  <SCORE.INTRA.VDW.0>
0

>  <SCORE.INTRA.norm>
0

>  <SCORE.RESTR>
0

>  <SCORE.RESTR.CAVITY>
0

>  <SCORE.RESTR.norm>
0

>  <SCORE.SYSTEM>
0

>  <SCORE.SYSTEM.CONST>
0

>  <SCORE.SYSTEM.DIHEDRAL>
0

>  <SCORE.SYSTEM.SOLV>
0

>  <SCORE.SYSTEM.norm>
0

>  <SCORE.heavy>
10

>  <SCORE.norm>
-1.74605

>  <RMSD>
0.512

$$$$
ligand
 OpenBabel11021811493D
libRbt.so/2013.1/901 2013/11/27
 10 11  0  0  0  0  0  0  0  0999 V2000
   11.8631   11.3202    8.5997 N   0  0  0  0  0  0  0  0  0  0  0  0
   11.6312   12.6723    8.6179 C   0  0  0  0  0  0  0  0  0  0  0  0
   11.3140   13.3449    7.4998 N   0  0  0  0  0  0  0  0  0  0  0  0
   11.2511   12.5666    6.3996 C   0  0  0  0  0  0  0  0  0  0  0  0
   11.4729   11.2097    6.3168 C   0  0  0  0  0  0  0  0  0  0  0  0
   11.8047   10.4855    7.4792 C   0  0  0  0  0  0  0  0  0  0  0  0
   12.0368    9.2922    7.6170 O   0  0  0  0  0  0  0  0  0  0  0  0
   11.3062   10.8159    5.0214 N   0  0  0  0  0  0  0  0  0  0  0  0
   10.9875   11.9255    4.3222 C   0  0  0  0  0  0  0  0  0  0  0  0
   10.9480   13.0215    5.1456 N   0  0  0  0  0  0  0  0  0  0  0  0
  1  2  1  0  0  0  0
  1  6  1  0  0  0  0
  2  3  2  0  0  0  0
  3  4  1  0  0  0  0
  4  5  2  0  0  0  0
  4 10  1  0  0  0  0
  5  6  1  0  0  0  0
  5  8  1  0  0  0  0
  6  7  2  0  0  0  0
  8  9  1  0  0  0  0
  9 10  2  0  0  0  0
M  END
>  <CHROM.1>
11.47263236,11.62157657,6.72139765,0.31386660,-1.32623206,0.76632137

>  <Name>
ligand

>  <RI>
0

>  <Rbt.Current_Directory>
/home/itssahil/PROJECTS/Mol_Feturizer/New_Systems/rnas/4FEJ

>  <Rbt.Executable>
rbdock ($Id: //depot/dev/client3/rdock/2013.1/src/exe/rbdock.cxx#4 $)

>  <Rbt.Library>
libRbt.so (2013.1, Build901 2013/11/27)

>  <Rbt.Parameter_File>
/export/apps/rDock/src/rDock_2013.1_src/data/scripts/dock_solv.prm

>  <Rbt.Receptor>
prm/blind_docking_40.prm

>  <SCORE>
-17.4551

>  <SCORE.INTER>
-17.4551

>  <SCORE.INTER.CONST>
1

>  <SCORE.INTER.POLAR>
0

>  <SCORE.INTER.ROT>
0

>  <SCORE.INTER.SOLV>
3.88023

>  <SCORE.INTER.VDW>
-16.5302

>  <SCORE.INTER.norm>
-1.74551

>  <SCORE.INTRA>
0

>  <SCORE.INTRA.DIHEDRAL>
0

>  <SCORE.INTRA.DIHEDRAL.0>
0

>  <SCORE.INTRA.POLAR>
0

>  <SCORE.INTRA.POLAR.0>
0

>  <SCORE.INTRA.REPUL>
0

>  <SCORE.INTRA.REPUL.0>
0

>  <SCORE.INTRA.SOLV>
0

>  <SCORE.INTRA.SOLV.lig_0>
-4.26631

>  <SCORE.INTRA.VDW>
0

>  <SCORE.INTRA.VDW.0>
0

>  <SCORE.INTRA.norm>
0

>  <SCORE.RESTR>
0

>  <SCORE.RESTR.CAVITY>
0

>  <SCORE.RESTR.norm>
0

>  <SCORE.SYSTEM>
0

>  <SCORE.SYSTEM.CONST>
0

>  <SCORE.SYSTEM.DIHEDRAL>
0

>  <SCORE.SYSTEM.SOLV>
0

>  <SCORE.SYSTEM.norm>
0

>  <SCORE.heavy>
10

>  <SCORE.norm>
-1.74551

>  <RMSD>
0.512

$$$$
ligand
 OpenBabel11021811493D
libRbt.so/2013.1/901 2013/11/27
 10 11  0  0  0  0  0  0  0  0999 V2000
   11.8358   11.3434    8.6183 N   0  0  0  0  0  0  0  0  0  0  0  0
   11.5660   12.6886    8.6203 C   0  0  0  0  0  0  0  0  0  0  0  0
   11.2433   13.3412    7.4920 N   0  0  0  0  0  0  0  0  0  0  0  0
   11.2154   12.5508    6.3990 C   0  0  0  0  0  0  0  0  0  0  0  0
   11.4762   11.1999    6.3323 C   0  0  0  0  0  0  0  0  0  0  0  0
   11.8142   10.4966    7.5056 C   0  0  0  0  0  0  0  0  0  0  0  0
   12.0780    9.3117    7.6581 O   0  0  0  0  0  0  0  0  0  0  0  0
   11.3360   10.7892    5.0391 N   0  0  0  0  0  0  0  0  0  0  0  0
   10.9947   11.8825    4.3252 C   0  0  0  0  0  0  0  0  0  0  0  0
   10.9146   12.9849    5.1370 N   0  0  0  0  0  0  0  0  0  0  0  0
  1  2  1  0  0  0  0
  1  6  1  0  0  0  0
  2  3  2  0  0  0  0
  3  4  1  0  0  0  0
  4  5  2  0  0  0  0
  4 10  1  0  0  0  0
  5  6  1  0  0  0  0
  5  8  1  0  0  0  0
  6  7  2  0  0  0  0
  8  9  1  0  0  0  0
  9 10  2  0  0  0  0
M  END
>  <CHROM.1>
11.45952368,11.61555203,6.73270895,0.42607228,-1.31383082,0.86520453

>  <Name>
ligand

>  <RI>
0

>  <Rbt.Current_Directory>
/home/itssahil/PROJECTS/Mol_Feturizer/New_Systems/rnas/4FEJ

>  <Rbt.Executable>
rbdock ($Id: //depot/dev/client3/rdock/2013.1/src/exe/rbdock.cxx#4 $)

>  <Rbt.Library>
libRbt.so (2013.1, Build901 2013/11/27)

>  <Rbt.Parameter_File>
/export/apps/rDock/src/rDock_2013.1_src/data/scripts/dock_solv.prm

>  <Rbt.Receptor>
prm/blind_docking_60.prm

>  <SCORE>
-17.4586

>  <SCORE.INTER>
-17.4586

>  <SCORE.INTER.CONST>
1

>  <SCORE.INTER.POLAR>
0

>  <SCORE.INTER.ROT>
0

>  <SCORE.INTER.SOLV>
3.84577

>  <SCORE.INTER.VDW>
-16.521

>  <SCORE.INTER.norm>
-1.74586

>  <SCORE.INTRA>
0

>  <SCORE.INTRA.DIHEDRAL>
0

>  <SCORE.INTRA.DIHEDRAL.0>
0

>  <SCORE.INTRA.POLAR>
0

>  <SCORE.INTRA.POLAR.0>
0

>  <SCORE.INTRA.REPUL>
0

>  <SCORE.INTRA.REPUL.0>
0

>  <SCORE.INTRA.SOLV>
0

>  <SCORE.INTRA.SOLV.lig_0>
-4.26631

>  <SCORE.INTRA.VDW>
0

>  <SCORE.INTRA.VDW.0>
0

>  <SCORE.INTRA.norm>
0

>  <SCORE.RESTR>
0

>  <SCORE.RESTR.CAVITY>
0

>  <SCORE.RESTR.norm>
0

>  <SCORE.SYSTEM>
0

>  <SCORE.SYSTEM.CONST>
0

>  <SCORE.SYSTEM.DIHEDRAL>
0

>  <SCORE.SYSTEM.SOLV>
0

>  <SCORE.SYSTEM.norm>
0

>  <SCORE.heavy>
10

>  <SCORE.norm>
-1.74586

>  <RMSD>
0.512

$$$$
ligand
 OpenBabel11021811493D
libRbt.so/2013.1/901 2013/11/27
 10 11  0  0  0  0  0  0  0  0999 V2000
   11.8845   11.3634    8.6153 N   0  0  0  0  0  0  0  0  0  0  0  0
   11.6438   12.7142    8.6173 C   0  0  0  0  0  0  0  0  0  0  0  0
   11.3219   13.3712    7.4914 N   0  0  0  0  0  0  0  0  0  0  0  0
   11.2638   12.5793    6.4006 C   0  0  0  0  0  0  0  0  0  0  0  0
   11.4945   11.2229    6.3340 C   0  0  0  0  0  0  0  0  0  0  0  0
   11.8313   10.5149    7.5049 C   0  0  0  0  0  0  0  0  0  0  0  0
   12.0712    9.3250    7.6570 O   0  0  0  0  0  0  0  0  0  0  0  0
   11.3300   10.8125    5.0435 N   0  0  0  0  0  0  0  0  0  0  0  0
   11.0039   11.9115    4.3312 C   0  0  0  0  0  0  0  0  0  0  0  0
   10.9574   13.0171    5.1412 N   0  0  0  0  0  0  0  0  0  0  0  0
  1  2  1  0  0  0  0
  1  6  1  0  0  0  0
  2  3  2  0  0  0  0
  3  4  1  0  0  0  0
  4  5  2  0  0  0  0
  4 10  1  0  0  0  0
  5  6  1  0  0  0  0
  5  8  1  0  0  0  0
  6  7  2  0  0  0  0
  8  9  1  0  0  0  0
  9 10  2  0  0  0  0
M  END
>  <CHROM.1>
11.49163840,11.63965491,6.73362703,0.33228637,-1.32147042,0.77215998

>  <Name>
ligand

>  <RI>
0

>  <Rbt.Current_Directory>
/home/itssahil/PROJECTS/Mol_Feturizer/New_Systems/rnas/4FEJ

>  <Rbt.Executable>
rbdock ($Id: //depot/dev/client3/rdock/2013.1/src/exe/rbdock.cxx#4 $)

>  <Rbt.Library>
libRbt.so (2013.1, Build901 2013/11/27)

>  <Rbt.Parameter_File>
/export/apps/rDock/src/rDock_2013.1_src/data/scripts/dock_solv.prm

>  <Rbt.Receptor>
prm/blind_docking_80.prm

>  <SCORE>
-17.4509

>  <SCORE.INTER>
-17.4509

>  <SCORE.INTER.CONST>
1

>  <SCORE.INTER.POLAR>
0

>  <SCORE.INTER.ROT>
0

>  <SCORE.INTER.SOLV>
3.87204

>  <SCORE.INTER.VDW>
-16.5246

>  <SCORE.INTER.norm>
-1.74509

>  <SCORE.INTRA>
0

>  <SCORE.INTRA.DIHEDRAL>
0

>  <SCORE.INTRA.DIHEDRAL.0>
0

>  <SCORE.INTRA.POLAR>
0

>  <SCORE.INTRA.POLAR.0>
0

>  <SCORE.INTRA.REPUL>
0

>  <SCORE.INTRA.REPUL.0>
0

>  <SCORE.INTRA.SOLV>
0

>  <SCORE.INTRA.SOLV.lig_0>
-4.26631

>  <SCORE.INTRA.VDW>
0

>  <SCORE.INTRA.VDW.0>
0

>  <SCORE.INTRA.norm>
0

>  <SCORE.RESTR>
0

>  <SCORE.RESTR.CAVITY>
0

>  <SCORE.RESTR.norm>
0

>  <SCORE.SYSTEM>
0

>  <SCORE.SYSTEM.CONST>
0

>  <SCORE.SYSTEM.DIHEDRAL>
0

>  <SCORE.SYSTEM.SOLV>
0

>  <SCORE.SYSTEM.norm>
0

>  <SCORE.heavy>
10

>  <SCORE.norm>
-1.74509

>  <RMSD>
0.512

$$$$
ligand
 OpenBabel11021811493D
libRbt.so/2013.1/901 2013/11/27
 10 11  0  0  0  0  0  0  0  0999 V2000
   11.8644   11.3361    8.6015 N   0  0  0  0  0  0  0  0  0  0  0  0
   11.6193   12.6860    8.6167 C   0  0  0  0  0  0  0  0  0  0  0  0
   11.2953   13.3530    7.4972 N   0  0  0  0  0  0  0  0  0  0  0  0
   11.2398   12.5716    6.3988 C   0  0  0  0  0  0  0  0  0  0  0  0
   11.4748   11.2168    6.3189 C   0  0  0  0  0  0  0  0  0  0  0  0
   11.8139   10.4984    7.4828 C   0  0  0  0  0  0  0  0  0  0  0  0
   12.0576    9.3078    7.6233 O   0  0  0  0  0  0  0  0  0  0  0  0
   11.3117   10.8185    5.0245 N   0  0  0  0  0  0  0  0  0  0  0  0
   10.9820   11.9234    4.3229 C   0  0  0  0  0  0  0  0  0  0  0  0
   10.9320   13.0208    5.1438 N   0  0  0  0  0  0  0  0  0  0  0  0
  1  2  1  0  0  0  0
  1  6  1  0  0  0  0
  2  3  2  0  0  0  0
  3  4  1  0  0  0  0
  4  5  2  0  0  0  0
  4 10  1  0  0  0  0
  5  6  1  0  0  0  0
  5  8  1  0  0  0  0
  6  7  2  0  0  0  0
  8  9  1  0  0  0  0
  9 10  2  0  0  0  0
M  END
>  <CHROM.1>
11.47062062,11.62954070,6.72258671,0.34148971,-1.31922747,0.79087520

>  <Name>
ligand

>  <RI>
0

>  <Rbt.Current_Directory>
/home/itssahil/PROJECTS/Mol_Feturizer/New_Systems/rnas/4FEJ

>  <Rbt.Executable>
rbdock ($Id: //depot/dev/client3/rdock/2013.1/src/exe/rbdock.cxx#4 $)

>  <Rbt.Library>
libRbt.so (2013.1, Build901 2013/11/27)

>  <Rbt.Parameter_File>
/export/apps/rDock/src/rDock_2013.1_src/data/scripts/dock_solv.prm

>  <Rbt.Receptor>
prm/pocket_docking_3.prm

>  <SCORE>
-17.4507

>  <SCORE.INTER>
-17.4507

>  <SCORE.INTER.CONST>
1

>  <SCORE.INTER.POLAR>
0

>  <SCORE.INTER.ROT>
0

>  <SCORE.INTER.SOLV>
3.85713

>  <SCORE.INTER.VDW>
-16.5195

>  <SCORE.INTER.norm>
-1.74507

>  <SCORE.INTRA>
0

>  <SCORE.INTRA.DIHEDRAL>
0

>  <SCORE.INTRA.DIHEDRAL.0>
0

>  <SCORE.INTRA.POLAR>
0

>  <SCORE.INTRA.POLAR.0>
0

>  <SCORE.INTRA.REPUL>
0

>  <SCORE.INTRA.REPUL.0>
0

>  <SCORE.INTRA.SOLV>
0

>  <SCORE.INTRA.SOLV.lig_0>
-4.26631

>  <SCORE.INTRA.VDW>
0

>  <SCORE.INTRA.VDW.0>
0

>  <SCORE.INTRA.norm>
0

>  <SCORE.RESTR>
0

>  <SCORE.RESTR.CAVITY>
0

>  <SCORE.RESTR.norm>
0

>  <SCORE.SYSTEM>
0

>  <SCORE.SYSTEM.CONST>
0

>  <SCORE.SYSTEM.DIHEDRAL>
0

>  <SCORE.SYSTEM.SOLV>
0

>  <SCORE.SYSTEM.norm>
0

>  <SCORE.heavy>
10

>  <SCORE.norm>
-1.74507

>  <RMSD>
0.512

$$$$
ligand
 OpenBabel11021811493D
libRbt.so/2013.1/901 2013/11/27
 10 11  0  0  0  0  0  0  0  0999 V2000
   11.8559   11.3346    8.6027 N   0  0  0  0  0  0  0  0  0  0  0  0
   11.6155   12.6852    8.6269 C   0  0  0  0  0  0  0  0  0  0  0  0
   11.2961   13.3611    7.5115 N   0  0  0  0  0  0  0  0  0  0  0  0
   11.2400   12.5876    6.4075 C   0  0  0  0  0  0  0  0  0  0  0  0
   11.4704   11.2325    6.3187 C   0  0  0  0  0  0  0  0  0  0  0  0
   11.8047   10.5048    7.4782 C   0  0  0  0  0  0  0  0  0  0  0  0
   12.0439    9.3124    7.6108 O   0  0  0  0  0  0  0  0  0  0  0  0
   11.3084   10.8438    5.0211 N   0  0  0  0  0  0  0  0  0  0  0  0
   10.9840   11.9547    4.3266 C   0  0  0  0  0  0  0  0  0  0  0  0
   10.9362   13.0465    5.1550 N   0  0  0  0  0  0  0  0  0  0  0  0
  1  2  1  0  0  0  0
  1  6  1  0  0  0  0
  2  3  2  0  0  0  0
  3  4  1  0  0  0  0
  4  5  2  0  0  0  0
  4 10  1  0  0  0  0
  5  6  1  0  0  0  0
  5  8  1  0  0  0  0
  6  7  2  0  0  0  0
  8  9  1  0  0  0  0
  9 10  2  0  0  0  0
M  END
>  <CHROM.1>
11.46685594,11.64242986,6.72518179,0.33715754,-1.32310399,0.79363782

>  <Name>
ligand

>  <RI>
0

>  <Rbt.Current_Directory>
/home/itssahil/PROJECTS/Mol_Feturizer/New_Systems/rnas/4FEJ

>  <Rbt.Executable>
rbdock ($Id: //depot/dev/client3/rdock/2013.1/src/exe/rbdock.cxx#4 $)

>  <Rbt.Library>
libRbt.so (2013.1, Build901 2013/11/27)

>  <Rbt.Parameter_File>
/export/apps/rDock/src/rDock_2013.1_src/data/scripts/dock_solv.prm

>  <Rbt.Receptor>
prm/pocket_docking_3.prm

>  <SCORE>
-17.4553

>  <SCORE.INTER>
-17.4553

>  <SCORE.INTER.CONST>
1

>  <SCORE.INTER.POLAR>
0

>  <SCORE.INTER.ROT>
0

>  <SCORE.INTER.SOLV>
3.86539

>  <SCORE.INTER.VDW>
-16.5253

>  <SCORE.INTER.norm>
-1.74553

>  <SCORE.INTRA>
0

>  <SCORE.INTRA.DIHEDRAL>
0

>  <SCORE.INTRA.DIHEDRAL.0>
0

>  <SCORE.INTRA.POLAR>
0

>  <SCORE.INTRA.POLAR.0>
0

>  <SCORE.INTRA.REPUL>
0

>  <SCORE.INTRA.REPUL.0>
0

>  <SCORE.INTRA.SOLV>
0

>  <SCORE.INTRA.SOLV.lig_0>
-4.26631

>  <SCORE.INTRA.VDW>
0

>  <SCORE.INTRA.VDW.0>
0

>  <SCORE.INTRA.norm>
0

>  <SCORE.RESTR>
0

>  <SCORE.RESTR.CAVITY>
0

>  <SCORE.RESTR.norm>
0

>  <SCORE.SYSTEM>
0

>  <SCORE.SYSTEM.CONST>
0

>  <SCORE.SYSTEM.DIHEDRAL>
0

>  <SCORE.SYSTEM.SOLV>
0

>  <SCORE.SYSTEM.norm>
0

>  <SCORE.heavy>
10

>  <SCORE.norm>
-1.74553

>  <RMSD>
0.512

$$$$
ligand
 OpenBabel11021811493D
libRbt.so/2013.1/901 2013/11/27
 10 11  0  0  0  0  0  0  0  0999 V2000
   11.8492   11.3312    8.6023 N   0  0  0  0  0  0  0  0  0  0  0  0
   11.6011   12.6805    8.6228 C   0  0  0  0  0  0  0  0  0  0  0  0
   11.2813   13.3521    7.5049 N   0  0  0  0  0  0  0  0  0  0  0  0
   11.2332   12.5759    6.4024 C   0  0  0  0  0  0  0  0  0  0  0  0
   11.4717   11.2219    6.3173 C   0  0  0  0  0  0  0  0  0  0  0  0
   11.8064   10.4988    7.4795 C   0  0  0  0  0  0  0  0  0  0  0  0
   12.0521    9.3080    7.6155 O   0  0  0  0  0  0  0  0  0  0  0  0
   11.3161   10.8295    5.0201 N   0  0  0  0  0  0  0  0  0  0  0  0
   10.9875   11.9370    4.3222 C   0  0  0  0  0  0  0  0  0  0  0  0
   10.9308   13.0303    5.1480 N   0  0  0  0  0  0  0  0  0  0  0  0
  1  2  1  0  0  0  0
  1  6  1  0  0  0  0
  2  3  2  0  0  0  0
  3  4  1  0  0  0  0
  4  5  2  0  0  0  0
  4 10  1  0  0  0  0
  5  6  1  0  0  0  0
  5  8  1  0  0  0  0
  6  7  2  0  0  0  0
  8  9  1  0  0  0  0
  9 10  2  0  0  0  0
M  END
>  <CHROM.1>
11.46446335,11.63276010,6.72290704,0.36270542,-1.32117095,0.81622292

>  <Name>
ligand

>  <RI>
0

>  <Rbt.Current_Directory>
/home/itssahil/PROJECTS/Mol_Feturizer/New_Systems/rnas/4FEJ

>  <Rbt.Executable>
rbdock ($Id: //depot/dev/client3/rdock/2013.1/src/exe/rbdock.cxx#4 $)

>  <Rbt.Library>
libRbt.so (2013.1, Build901 2013/11/27)

>  <Rbt.Parameter_File>
/export/apps/rDock/src/rDock_2013.1_src/data/scripts/dock_solv.prm

>  <Rbt.Receptor>
prm/pocket_docking_4.prm

>  <SCORE>
-17.4543

>  <SCORE.INTER>
-17.4543

>  <SCORE.INTER.CONST>
1

>  <SCORE.INTER.POLAR>
0

>  <SCORE.INTER.ROT>
0

>  <SCORE.INTER.SOLV>
3.85904

>  <SCORE.INTER.VDW>
-16.5226

>  <SCORE.INTER.norm>
-1.74543

>  <SCORE.INTRA>
0

>  <SCORE.INTRA.DIHEDRAL>
0

>  <SCORE.INTRA.DIHEDRAL.0>
0

>  <SCORE.INTRA.POLAR>
0

>  <SCORE.INTRA.POLAR.0>
0

>  <SCORE.INTRA.REPUL>
0

>  <SCORE.INTRA.REPUL.0>
0

>  <SCORE.INTRA.SOLV>
0

>  <SCORE.INTRA.SOLV.lig_0>
-4.26631

>  <SCORE.INTRA.VDW>
0

>  <SCORE.INTRA.VDW.0>
0

>  <SCORE.INTRA.norm>
0

>  <SCORE.RESTR>
0

>  <SCORE.RESTR.CAVITY>
0

>  <SCORE.RESTR.norm>
0

>  <SCORE.SYSTEM>
0

>  <SCORE.SYSTEM.CONST>
0

>  <SCORE.SYSTEM.DIHEDRAL>
0

>  <SCORE.SYSTEM.SOLV>
0

>  <SCORE.SYSTEM.norm>
0

>  <SCORE.heavy>
10

>  <SCORE.norm>
-1.74543

>  <RMSD>
0.512

$$$$
ligand
 OpenBabel11021811493D
libRbt.so/2013.1/901 2013/11/27
 10 11  0  0  0  0  0  0  0  0999 V2000
   11.8424   11.3356    8.6223 N   0  0  0  0  0  0  0  0  0  0  0  0
   11.5978   12.6856    8.6221 C   0  0  0  0  0  0  0  0  0  0  0  0
   11.2829   13.3414    7.4934 N   0  0  0  0  0  0  0  0  0  0  0  0
   11.2358   12.5491    6.4025 C   0  0  0  0  0  0  0  0  0  0  0  0
   11.4709   11.1934    6.3381 C   0  0  0  0  0  0  0  0  0  0  0  0
   11.8004   10.4867    7.5118 C   0  0  0  0  0  0  0  0  0  0  0  0
   12.0426    9.2975    7.6661 O   0  0  0  0  0  0  0  0  0  0  0  0
   11.3178   10.7822    5.0465 N   0  0  0  0  0  0  0  0  0  0  0  0
   10.9942   11.8801    4.3312 C   0  0  0  0  0  0  0  0  0  0  0  0
   10.9381   12.9857    5.1406 N   0  0  0  0  0  0  0  0  0  0  0  0
  1  2  1  0  0  0  0
  1  6  1  0  0  0  0
  2  3  2  0  0  0  0
  3  4  1  0  0  0  0
  4  5  2  0  0  0  0
  4 10  1  0  0  0  0
  5  6  1  0  0  0  0
  5  8  1  0  0  0  0
  6  7  2  0  0  0  0
  8  9  1  0  0  0  0
  9 10  2  0  0  0  0
M  END
>  <CHROM.1>
11.46365393,11.61023063,6.73755001,0.36349902,-1.32502454,0.80216113

>  <Name>
ligand

>  <RI>
0

>  <Rbt.Current_Directory>
/home/itssahil/PROJECTS/Mol_Feturizer/New_Systems/rnas/4FEJ

>  <Rbt.Executable>
rbdock ($Id: //depot/dev/client3/rdock/2013.1/src/exe/rbdock.cxx#4 $)

>  <Rbt.Library>
libRbt.so (2013.1, Build901 2013/11/27)

>  <Rbt.Parameter_File>
/export/apps/rDock/src/rDock_2013.1_src/data/scripts/dock_solv.prm

>  <Rbt.Receptor>
prm/pocket_docking_5.prm

>  <SCORE>
-17.461

>  <SCORE.INTER>
-17.461

>  <SCORE.INTER.CONST>
1

>  <SCORE.INTER.POLAR>
0

>  <SCORE.INTER.ROT>
0

>  <SCORE.INTER.SOLV>
3.88804

>  <SCORE.INTER.VDW>
-16.5367

>  <SCORE.INTER.norm>
-1.7461

>  <SCORE.INTRA>
0

>  <SCORE.INTRA.DIHEDRAL>
0

>  <SCORE.INTRA.DIHEDRAL.0>
0

>  <SCORE.INTRA.POLAR>
0

>  <SCORE.INTRA.POLAR.0>
0

>  <SCORE.INTRA.REPUL>
0

>  <SCORE.INTRA.REPUL.0>
0

>  <SCORE.INTRA.SOLV>
0

>  <SCORE.INTRA.SOLV.lig_0>
-4.26631

>  <SCORE.INTRA.VDW>
0

>  <SCORE.INTRA.VDW.0>
0

>  <SCORE.INTRA.norm>
0

>  <SCORE.RESTR>
0

>  <SCORE.RESTR.CAVITY>
0

>  <SCORE.RESTR.norm>
0

>  <SCORE.SYSTEM>
0

>  <SCORE.SYSTEM.CONST>
0

>  <SCORE.SYSTEM.DIHEDRAL>
0

>  <SCORE.SYSTEM.SOLV>
0

>  <SCORE.SYSTEM.norm>
0

>  <SCORE.heavy>
10

>  <SCORE.norm>
-1.7461

>  <RMSD>
0.512

$$$$
ligand
 OpenBabel11021811493D
libRbt.so/2013.1/901 2013/11/27
 10 11  0  0  0  0  0  0  0  0999 V2000
   11.8115   11.3388    8.6361 N   0  0  0  0  0  0  0  0  0  0  0  0
   11.5589   12.6873    8.6348 C   0  0  0  0  0  0  0  0  0  0  0  0
   11.2477   13.3418    7.5044 N   0  0  0  0  0  0  0  0  0  0  0  0
   11.2127   12.5498    6.4128 C   0  0  0  0  0  0  0  0  0  0  0  0
   11.4564   11.1956    6.3493 C   0  0  0  0  0  0  0  0  0  0  0  0
   11.7821   10.4902    7.5249 C   0  0  0  0  0  0  0  0  0  0  0  0
   12.0303    9.3024    7.6803 O   0  0  0  0  0  0  0  0  0  0  0  0
   11.3145   10.7842    5.0565 N   0  0  0  0  0  0  0  0  0  0  0  0
   10.9892   11.8804    4.3396 C   0  0  0  0  0  0  0  0  0  0  0  0
   10.9210   12.9853    5.1491 N   0  0  0  0  0  0  0  0  0  0  0  0
  1  2  1  0  0  0  0
  1  6  1  0  0  0  0
  2  3  2  0  0  0  0
  3  4  1  0  0  0  0
  4  5  2  0  0  0  0
  4 10  1  0  0  0  0
  5  6  1  0  0  0  0
  5  8  1  0  0  0  0
  6  7  2  0  0  0  0
  8  9  1  0  0  0  0
  9 10  2  0  0  0  0
M  END
>  <CHROM.1>
11.44390743,11.61212986,6.74891399,0.40055204,-1.32528440,0.83859700

>  <Name>
ligand

>  <RI>
0

>  <Rbt.Current_Directory>
/home/itssahil/PROJECTS/Mol_Feturizer/New_Systems/rnas/4FEJ

>  <Rbt.Executable>
rbdock ($Id: //depot/dev/client3/rdock/2013.1/src/exe/rbdock.cxx#4 $)

>  <Rbt.Library>
libRbt.so (2013.1, Build901 2013/11/27)

>  <Rbt.Parameter_File>
/export/apps/rDock/src/rDock_2013.1_src/data/scripts/dock_solv.prm

>  <Rbt.Receptor>
prm/pocket_docking_5.prm

>  <SCORE>
-17.4558

>  <SCORE.INTER>
-17.4558

>  <SCORE.INTER.CONST>
1

>  <SCORE.INTER.POLAR>
0

>  <SCORE.INTER.ROT>
0

>  <SCORE.INTER.SOLV>
3.89819

>  <SCORE.INTER.VDW>
-16.5366

>  <SCORE.INTER.norm>
-1.74558

>  <SCORE.INTRA>
0

>  <SCORE.INTRA.DIHEDRAL>
0

>  <SCORE.INTRA.DIHEDRAL.0>
0

>  <SCORE.INTRA.POLAR>
0

>  <SCORE.INTRA.POLAR.0>
0

>  <SCORE.INTRA.REPUL>
0

>  <SCORE.INTRA.REPUL.0>
0

>  <SCORE.INTRA.SOLV>
0

>  <SCORE.INTRA.SOLV.lig_0>
-4.26631

>  <SCORE.INTRA.VDW>
0

>  <SCORE.INTRA.VDW.0>
0

>  <SCORE.INTRA.norm>
0

>  <SCORE.RESTR>
0

>  <SCORE.RESTR.CAVITY>
0

>  <SCORE.RESTR.norm>
0

>  <SCORE.SYSTEM>
0

>  <SCORE.SYSTEM.CONST>
0

>  <SCORE.SYSTEM.DIHEDRAL>
0

>  <SCORE.SYSTEM.SOLV>
0

>  <SCORE.SYSTEM.norm>
0

>  <SCORE.heavy>
10

>  <SCORE.norm>
-1.74558

>  <RMSD>
0.512

$$$$
ligand
 OpenBabel11021811493D
libRbt.so/2013.1/901 2013/11/27
 10 11  0  0  0  0  0  0  0  0999 V2000
   11.8458   11.3437    8.6250 N   0  0  0  0  0  0  0  0  0  0  0  0
   11.6019   12.6938    8.6234 C   0  0  0  0  0  0  0  0  0  0  0  0
   11.2855   13.3483    7.4944 N   0  0  0  0  0  0  0  0  0  0  0  0
   11.2361   12.5545    6.4046 C   0  0  0  0  0  0  0  0  0  0  0  0
   11.4704   11.1986    6.3416 C   0  0  0  0  0  0  0  0  0  0  0  0
   11.8015   10.4933    7.5157 C   0  0  0  0  0  0  0  0  0  0  0  0
   12.0433    9.3041    7.6712 O   0  0  0  0  0  0  0  0  0  0  0  0
   11.3149   10.7858    5.0508 N   0  0  0  0  0  0  0  0  0  0  0  0
   10.9907   11.8828    4.3346 C   0  0  0  0  0  0  0  0  0  0  0  0
   10.9365   12.9896    5.1426 N   0  0  0  0  0  0  0  0  0  0  0  0
  1  2  1  0  0  0  0
  1  6  1  0  0  0  0
  2  3  2  0  0  0  0
  3  4  1  0  0  0  0
  4  5  2  0  0  0  0
  4 10  1  0  0  0  0
  5  6  1  0  0  0  0
  5  8  1  0  0  0  0
  6  7  2  0  0  0  0
  8  9  1  0  0  0  0
  9 10  2  0  0  0  0
M  END
>  <CHROM.1>
11.46403525,11.61596351,6.74049694,0.35701076,-1.32422362,0.79453355

>  <Name>
ligand

>  <RI>
0

>  <Rbt.Current_Directory>
/home/itssahil/PROJECTS/Mol_Feturizer/New_Systems/rnas/4FEJ

>  <Rbt.Executable>
rbdock ($Id: //depot/dev/client3/rdock/2013.1/src/exe/rbdock.cxx#4 $)

>  <Rbt.Library>
libRbt.so (2013.1, Build901 2013/11/27)

>  <Rbt.Parameter_File>
/export/apps/rDock/src/rDock_2013.1_src/data/scripts/dock_solv.prm

>  <Rbt.Receptor>
prm/pocket_docking_5.prm

>  <SCORE>
-17.459

>  <SCORE.INTER>
-17.459

>  <SCORE.INTER.CONST>
1

>  <SCORE.INTER.POLAR>
0

>  <SCORE.INTER.ROT>
0

>  <SCORE.INTER.SOLV>
3.88779

>  <SCORE.INTER.VDW>
-16.5352

>  <SCORE.INTER.norm>
-1.7459

>  <SCORE.INTRA>
0

>  <SCORE.INTRA.DIHEDRAL>
0

>  <SCORE.INTRA.DIHEDRAL.0>
0

>  <SCORE.INTRA.POLAR>
0

>  <SCORE.INTRA.POLAR.0>
0

>  <SCORE.INTRA.REPUL>
0

>  <SCORE.INTRA.REPUL.0>
0

>  <SCORE.INTRA.SOLV>
0

>  <SCORE.INTRA.SOLV.lig_0>
-4.26631

>  <SCORE.INTRA.VDW>
0

>  <SCORE.INTRA.VDW.0>
0

>  <SCORE.INTRA.norm>
0

>  <SCORE.RESTR>
0

>  <SCORE.RESTR.CAVITY>
0

>  <SCORE.RESTR.norm>
0

>  <SCORE.SYSTEM>
0

>  <SCORE.SYSTEM.CONST>
0

>  <SCORE.SYSTEM.DIHEDRAL>
0

>  <SCORE.SYSTEM.SOLV>
0

>  <SCORE.SYSTEM.norm>
0

>  <SCORE.heavy>
10

>  <SCORE.norm>
-1.7459

>  <RMSD>
0.512

$$$$
ligand
 OpenBabel11021811493D
libRbt.so/2013.1/901 2013/11/27
 10 11  0  0  0  0  0  0  0  0999 V2000
   11.8394   11.3499    8.6201 N   0  0  0  0  0  0  0  0  0  0  0  0
   11.5774   12.6967    8.6233 C   0  0  0  0  0  0  0  0  0  0  0  0
   11.2495   13.3503    7.4971 N   0  0  0  0  0  0  0  0  0  0  0  0
   11.2080   12.5593    6.4050 C   0  0  0  0  0  0  0  0  0  0  0  0
   11.4603   11.2069    6.3372 C   0  0  0  0  0  0  0  0  0  0  0  0
   11.8037   10.5025    7.5083 C   0  0  0  0  0  0  0  0  0  0  0  0
   12.0618    9.3162    7.6595 O   0  0  0  0  0  0  0  0  0  0  0  0
   11.3071   10.7960    5.0455 N   0  0  0  0  0  0  0  0  0  0  0  0
   10.9665   11.8908    4.3335 C   0  0  0  0  0  0  0  0  0  0  0  0
   10.8995   12.9943    5.1451 N   0  0  0  0  0  0  0  0  0  0  0  0
  1  2  1  0  0  0  0
  1  6  1  0  0  0  0
  2  3  2  0  0  0  0
  3  4  1  0  0  0  0
  4  5  2  0  0  0  0
  4 10  1  0  0  0  0
  5  6  1  0  0  0  0
  5  8  1  0  0  0  0
  6  7  2  0  0  0  0
  8  9  1  0  0  0  0
  9 10  2  0  0  0  0
M  END
>  <CHROM.1>
11.44933255,11.62290338,6.73741212,0.38679030,-1.31284327,0.82646229

>  <Name>
ligand

>  <RI>
0

>  <Rbt.Current_Directory>
/home/itssahil/PROJECTS/Mol_Feturizer/New_Systems/rnas/4FEJ

>  <Rbt.Executable>
rbdock ($Id: //depot/dev/client3/rdock/2013.1/src/exe/rbdock.cxx#4 $)

>  <Rbt.Library>
libRbt.so (2013.1, Build901 2013/11/27)

>  <Rbt.Parameter_File>
/export/apps/rDock/src/rDock_2013.1_src/data/scripts/dock_solv.prm

>  <Rbt.Receptor>
prm/pocket_docking_5.prm

>  <SCORE>
-17.4594

>  <SCORE.INTER>
-17.4594

>  <SCORE.INTER.CONST>
1

>  <SCORE.INTER.POLAR>
0

>  <SCORE.INTER.ROT>
0

>  <SCORE.INTER.SOLV>
3.85249

>  <SCORE.INTER.VDW>
-16.5237

>  <SCORE.INTER.norm>
-1.74594

>  <SCORE.INTRA>
0

>  <SCORE.INTRA.DIHEDRAL>
0

>  <SCORE.INTRA.DIHEDRAL.0>
0

>  <SCORE.INTRA.POLAR>
0

>  <SCORE.INTRA.POLAR.0>
0

>  <SCORE.INTRA.REPUL>
0

>  <SCORE.INTRA.REPUL.0>
0

>  <SCORE.INTRA.SOLV>
0

>  <SCORE.INTRA.SOLV.lig_0>
-4.26631

>  <SCORE.INTRA.VDW>
0

>  <SCORE.INTRA.VDW.0>
0

>  <SCORE.INTRA.norm>
0

>  <SCORE.RESTR>
0

>  <SCORE.RESTR.CAVITY>
0

>  <SCORE.RESTR.norm>
0

>  <SCORE.SYSTEM>
0

>  <SCORE.SYSTEM.CONST>
0

>  <SCORE.SYSTEM.DIHEDRAL>
0

>  <SCORE.SYSTEM.SOLV>
0

>  <SCORE.SYSTEM.norm>
0

>  <SCORE.heavy>
10

>  <SCORE.norm>
-1.74594

>  <RMSD>
0.512

$$$$
ligand
 OpenBabel11021811493D
libRbt.so/2013.1/901 2013/11/27
 10 11  0  0  0  0  0  0  0  0999 V2000
   11.8594   11.3331    8.6021 N   0  0  0  0  0  0  0  0  0  0  0  0
   11.6148   12.6831    8.6189 C   0  0  0  0  0  0  0  0  0  0  0  0
   11.2951   13.3522    7.4995 N   0  0  0  0  0  0  0  0  0  0  0  0
   11.2431   12.5728    6.3994 C   0  0  0  0  0  0  0  0  0  0  0  0
   11.4779   11.2180    6.3180 C   0  0  0  0  0  0  0  0  0  0  0  0
   11.8125   10.4974    7.4819 C   0  0  0  0  0  0  0  0  0  0  0  0
   12.0552    9.3064    7.6210 O   0  0  0  0  0  0  0  0  0  0  0  0
   11.3191   10.8221    5.0223 N   0  0  0  0  0  0  0  0  0  0  0  0
   10.9924   11.9283    4.3215 C   0  0  0  0  0  0  0  0  0  0  0  0
   10.9399   13.0243    5.1441 N   0  0  0  0  0  0  0  0  0  0  0  0
  1  2  1  0  0  0  0
  1  6  1  0  0  0  0
  2  3  2  0  0  0  0
  3  4  1  0  0  0  0
  4  5  2  0  0  0  0
  4 10  1  0  0  0  0
  5  6  1  0  0  0  0
  5  8  1  0  0  0  0
  6  7  2  0  0  0  0
  8  9  1  0  0  0  0
  9 10  2  0  0  0  0
M  END
>  <CHROM.1>
11.47237925,11.63002521,6.72239153,0.35050517,-1.32200224,0.80137823

>  <Name>
ligand

>  <RI>
0

>  <Rbt.Current_Directory>
/home/itssahil/PROJECTS/Mol_Feturizer/New_Systems/rnas/4FEJ

>  <Rbt.Executable>
rbdock ($Id: //depot/dev/client3/rdock/2013.1/src/exe/rbdock.cxx#4 $)

>  <Rbt.Library>
libRbt.so (2013.1, Build901 2013/11/27)

>  <Rbt.Parameter_File>
/export/apps/rDock/src/rDock_2013.1_src/data/scripts/dock_solv.prm

>  <Rbt.Receptor>
prm/pocket_docking_5.prm

>  <SCORE>
-17.456

>  <SCORE.INTER>
-17.456

>  <SCORE.INTER.CONST>
1

>  <SCORE.INTER.POLAR>
0

>  <SCORE.INTER.ROT>
0

>  <SCORE.INTER.SOLV>
3.86205

>  <SCORE.INTER.VDW>
-16.5247

>  <SCORE.INTER.norm>
-1.7456

>  <SCORE.INTRA>
0

>  <SCORE.INTRA.DIHEDRAL>
0

>  <SCORE.INTRA.DIHEDRAL.0>
0

>  <SCORE.INTRA.POLAR>
0

>  <SCORE.INTRA.POLAR.0>
0

>  <SCORE.INTRA.REPUL>
0

>  <SCORE.INTRA.REPUL.0>
0

>  <SCORE.INTRA.SOLV>
0

>  <SCORE.INTRA.SOLV.lig_0>
-4.26631

>  <SCORE.INTRA.VDW>
0

>  <SCORE.INTRA.VDW.0>
0

>  <SCORE.INTRA.norm>
0

>  <SCORE.RESTR>
0

>  <SCORE.RESTR.CAVITY>
0

>  <SCORE.RESTR.norm>
0

>  <SCORE.SYSTEM>
0

>  <SCORE.SYSTEM.CONST>
0

>  <SCORE.SYSTEM.DIHEDRAL>
0

>  <SCORE.SYSTEM.SOLV>
0

>  <SCORE.SYSTEM.norm>
0

>  <SCORE.heavy>
10

>  <SCORE.norm>
-1.7456

>  <RMSD>
0.512

$$$$
ligand
 OpenBabel11021811493D
libRbt.so/2013.1/901 2013/11/27
 10 11  0  0  0  0  0  0  0  0999 V2000
   11.8672   11.3953    8.6310 N   0  0  0  0  0  0  0  0  0  0  0  0
   11.5870   12.7383    8.6193 C   0  0  0  0  0  0  0  0  0  0  0  0
   11.2517   13.3752    7.4858 N   0  0  0  0  0  0  0  0  0  0  0  0
   11.2224   12.5720    6.4021 C   0  0  0  0  0  0  0  0  0  0  0  0
   11.4931   11.2225    6.3493 C   0  0  0  0  0  0  0  0  0  0  0  0
   11.8446   10.5355    7.5283 C   0  0  0  0  0  0  0  0  0  0  0  0
   12.1185    9.3545    7.6926 O   0  0  0  0  0  0  0  0  0  0  0  0
   11.3473   10.7957    5.0619 N   0  0  0  0  0  0  0  0  0  0  0  0
   10.9927   11.8781    4.3378 C   0  0  0  0  0  0  0  0  0  0  0  0
   10.9097   12.9891    5.1373 N   0  0  0  0  0  0  0  0  0  0  0  0
  1  2  1  0  0  0  0
  1  6  1  0  0  0  0
  2  3  2  0  0  0  0
  3  4  1  0  0  0  0
  4  5  2  0  0  0  0
  4 10  1  0  0  0  0
  5  6  1  0  0  0  0
  5  8  1  0  0  0  0
  6  7  2  0  0  0  0
  8  9  1  0  0  0  0
  9 10  2  0  0  0  0
M  END
>  <CHROM.1>
11.47597345,11.64261676,6.74496399,0.42542180,-1.30355125,0.85300040

>  <Name>
ligand

>  <RI>
0

>  <Rbt.Current_Directory>
/home/itssahil/PROJECTS/Mol_Feturizer/New_Systems/rnas/4FEJ

>  <Rbt.Executable>
rbdock ($Id: //depot/dev/client3/rdock/2013.1/src/exe/rbdock.cxx#4 $)

>  <Rbt.Library>
libRbt.so (2013.1, Build901 2013/11/27)

>  <Rbt.Parameter_File>
/export/apps/rDock/src/rDock_2013.1_src/data/scripts/dock_solv.prm

>  <Rbt.Receptor>
prm/pocket_docking_7.prm

>  <SCORE>
-17.4685

>  <SCORE.INTER>
-17.4685

>  <SCORE.INTER.CONST>
1

>  <SCORE.INTER.POLAR>
0

>  <SCORE.INTER.ROT>
0

>  <SCORE.INTER.SOLV>
3.82291

>  <SCORE.INTER.VDW>
-16.52

>  <SCORE.INTER.norm>
-1.74685

>  <SCORE.INTRA>
0

>  <SCORE.INTRA.DIHEDRAL>
0

>  <SCORE.INTRA.DIHEDRAL.0>
0

>  <SCORE.INTRA.POLAR>
0

>  <SCORE.INTRA.POLAR.0>
0

>  <SCORE.INTRA.REPUL>
0

>  <SCORE.INTRA.REPUL.0>
0

>  <SCORE.INTRA.SOLV>
0

>  <SCORE.INTRA.SOLV.lig_0>
-4.26631

>  <SCORE.INTRA.VDW>
0

>  <SCORE.INTRA.VDW.0>
0

>  <SCORE.INTRA.norm>
0

>  <SCORE.RESTR>
0

>  <SCORE.RESTR.CAVITY>
0

>  <SCORE.RESTR.norm>
0

>  <SCORE.SYSTEM>
0

>  <SCORE.SYSTEM.CONST>
0

>  <SCORE.SYSTEM.DIHEDRAL>
0

>  <SCORE.SYSTEM.SOLV>
0

>  <SCORE.SYSTEM.norm>
0

>  <SCORE.heavy>
10

>  <SCORE.norm>
-1.74685

>  <RMSD>
0.512

$$$$
ligand
 OpenBabel11021811493D
libRbt.so/2013.1/901 2013/11/27
 10 11  0  0  0  0  0  0  0  0999 V2000
   11.8610   11.3155    8.5985 N   0  0  0  0  0  0  0  0  0  0  0  0
   11.6296   12.6677    8.6174 C   0  0  0  0  0  0  0  0  0  0  0  0
   11.3132   13.3411    7.4996 N   0  0  0  0  0  0  0  0  0  0  0  0
   11.2506   12.5635    6.3989 C   0  0  0  0  0  0  0  0  0  0  0  0
   11.4720   11.2065    6.3153 C   0  0  0  0  0  0  0  0  0  0  0  0
   11.8029   10.4815    7.4774 C   0  0  0  0  0  0  0  0  0  0  0  0
   12.0345    9.2881    7.6147 O   0  0  0  0  0  0  0  0  0  0  0  0
   11.3058   10.8136    5.0196 N   0  0  0  0  0  0  0  0  0  0  0  0
   10.9878   11.9237    4.3209 C   0  0  0  0  0  0  0  0  0  0  0  0
   10.9483   13.0193    5.1449 N   0  0  0  0  0  0  0  0  0  0  0  0
  1  2  1  0  0  0  0
  1  6  1  0  0  0  0
  2  3  2  0  0  0  0
  3  4  1  0  0  0  0
  4  5  2  0  0  0  0
  4 10  1  0  0  0  0
  5  6  1  0  0  0  0
  5  8  1  0  0  0  0
  6  7  2  0  0  0  0
  8  9  1  0  0  0  0
  9 10  2  0  0  0  0
M  END
>  <CHROM.1>
11.47162878,11.61818187,6.72014496,0.31428387,-1.32685439,0.76733173

>  <Name>
ligand

>  <RI>
0

>  <Rbt.Current_Directory>
/home/itssahil/PROJECTS/Mol_Feturizer/New_Systems/rnas/4FEJ

>  <Rbt.Executable>
rbdock ($Id: //depot/dev/client3/rdock/2013.1/src/exe/rbdock.cxx#4 $)

>  <Rbt.Library>
libRbt.so (2013.1, Build901 2013/11/27)

>  <Rbt.Parameter_File>
/export/apps/rDock/src/rDock_2013.1_src/data/scripts/dock_solv.prm

>  <Rbt.Receptor>
prm/pocket_docking_8.prm

>  <SCORE>
-17.4581

>  <SCORE.INTER>
-17.4581

>  <SCORE.INTER.CONST>
1

>  <SCORE.INTER.POLAR>
0

>  <SCORE.INTER.ROT>
0

>  <SCORE.INTER.SOLV>
3.88186

>  <SCORE.INTER.VDW>
-16.5327

>  <SCORE.INTER.norm>
-1.74581

>  <SCORE.INTRA>
0

>  <SCORE.INTRA.DIHEDRAL>
0

>  <SCORE.INTRA.DIHEDRAL.0>
0

>  <SCORE.INTRA.POLAR>
0

>  <SCORE.INTRA.POLAR.0>
0

>  <SCORE.INTRA.REPUL>
0

>  <SCORE.INTRA.REPUL.0>
0

>  <SCORE.INTRA.SOLV>
0

>  <SCORE.INTRA.SOLV.lig_0>
-4.26631

>  <SCORE.INTRA.VDW>
0

>  <SCORE.INTRA.VDW.0>
0

>  <SCORE.INTRA.norm>
0

>  <SCORE.RESTR>
0

>  <SCORE.RESTR.CAVITY>
0

>  <SCORE.RESTR.norm>
0

>  <SCORE.SYSTEM>
0

>  <SCORE.SYSTEM.CONST>
0

>  <SCORE.SYSTEM.DIHEDRAL>
0

>  <SCORE.SYSTEM.SOLV>
0

>  <SCORE.SYSTEM.norm>
0

>  <SCORE.heavy>
10

>  <SCORE.norm>
-1.74581

>  <RMSD>
0.512

$$$$
ligand
 OpenBabel11021811493D
libRbt.so/2013.1/901 2013/11/27
 10 11  0  0  0  0  0  0  0  0999 V2000
   11.8372   11.3427    8.6189 N   0  0  0  0  0  0  0  0  0  0  0  0
   11.5664   12.6878    8.6185 C   0  0  0  0  0  0  0  0  0  0  0  0
   11.2437   13.3382    7.4889 N   0  0  0  0  0  0  0  0  0  0  0  0
   11.2167   12.5459    6.3973 C   0  0  0  0  0  0  0  0  0  0  0  0
   11.4784   11.1951    6.3330 C   0  0  0  0  0  0  0  0  0  0  0  0
   11.8165   10.4940    7.5077 C   0  0  0  0  0  0  0  0  0  0  0  0
   12.0810    9.3096    7.6622 O   0  0  0  0  0  0  0  0  0  0  0  0
   11.3389   10.7819    5.0404 N   0  0  0  0  0  0  0  0  0  0  0  0
   10.9970   11.8738    4.3245 C   0  0  0  0  0  0  0  0  0  0  0  0
   10.9160   12.9776    5.1344 N   0  0  0  0  0  0  0  0  0  0  0  0
  1  2  1  0  0  0  0
  1  6  1  0  0  0  0
  2  3  2  0  0  0  0
  3  4  1  0  0  0  0
  4  5  2  0  0  0  0
  4 10  1  0  0  0  0
  5  6  1  0  0  0  0
  5  8  1  0  0  0  0
  6  7  2  0  0  0  0
  8  9  1  0  0  0  0
  9 10  2  0  0  0  0
M  END
>  <CHROM.1>
11.46128268,11.61135913,6.73270466,0.42876024,-1.31352849,0.86607170

>  <Name>
ligand

>  <RI>
0

>  <Rbt.Current_Directory>
/home/itssahil/PROJECTS/Mol_Feturizer/New_Systems/rnas/4FEJ

>  <Rbt.Executable>
rbdock ($Id: //depot/dev/client3/rdock/2013.1/src/exe/rbdock.cxx#4 $)

>  <Rbt.Library>
libRbt.so (2013.1, Build901 2013/11/27)

>  <Rbt.Parameter_File>
/export/apps/rDock/src/rDock_2013.1_src/data/scripts/dock_solv.prm

>  <Rbt.Receptor>
prm/pocket_docking_8.prm

>  <SCORE>
-17.4552

>  <SCORE.INTER>
-17.4552

>  <SCORE.INTER.CONST>
1

>  <SCORE.INTER.POLAR>
0

>  <SCORE.INTER.ROT>
0

>  <SCORE.INTER.SOLV>
3.84543

>  <SCORE.INTER.VDW>
-16.5186

>  <SCORE.INTER.norm>
-1.74552

>  <SCORE.INTRA>
0

>  <SCORE.INTRA.DIHEDRAL>
0

>  <SCORE.INTRA.DIHEDRAL.0>
0

>  <SCORE.INTRA.POLAR>
0

>  <SCORE.INTRA.POLAR.0>
0

>  <SCORE.INTRA.REPUL>
0

>  <SCORE.INTRA.REPUL.0>
0

>  <SCORE.INTRA.SOLV>
0

>  <SCORE.INTRA.SOLV.lig_0>
-4.26631

>  <SCORE.INTRA.VDW>
0

>  <SCORE.INTRA.VDW.0>
0

>  <SCORE.INTRA.norm>
0

>  <SCORE.RESTR>
0

>  <SCORE.RESTR.CAVITY>
0

>  <SCORE.RESTR.norm>
0

>  <SCORE.SYSTEM>
0

>  <SCORE.SYSTEM.CONST>
0

>  <SCORE.SYSTEM.DIHEDRAL>
0

>  <SCORE.SYSTEM.SOLV>
0

>  <SCORE.SYSTEM.norm>
0

>  <SCORE.heavy>
10

>  <SCORE.norm>
-1.74552

>  <RMSD>
0.512

$$$$
ligand
 OpenBabel11021811493D
libRbt.so/2013.1/901 2013/11/27
 10 11  0  0  0  0  0  0  0  0999 V2000
   11.8695   11.4018    8.6362 N   0  0  0  0  0  0  0  0  0  0  0  0
   11.5881   12.7445    8.6204 C   0  0  0  0  0  0  0  0  0  0  0  0
   11.2572   13.3787    7.4840 N   0  0  0  0  0  0  0  0  0  0  0  0
   11.2334   12.5732    6.4021 C   0  0  0  0  0  0  0  0  0  0  0  0
   11.5056   11.2238    6.3533 C   0  0  0  0  0  0  0  0  0  0  0  0
   11.8525   10.5396    7.5353 C   0  0  0  0  0  0  0  0  0  0  0  0
   12.1268    9.3592    7.7034 O   0  0  0  0  0  0  0  0  0  0  0  0
   11.3658   10.7940    5.0662 N   0  0  0  0  0  0  0  0  0  0  0  0
   11.0134   11.8745    4.3382 C   0  0  0  0  0  0  0  0  0  0  0  0
   10.9258   12.9872    5.1350 N   0  0  0  0  0  0  0  0  0  0  0  0
  1  2  1  0  0  0  0
  1  6  1  0  0  0  0
  2  3  2  0  0  0  0
  3  4  1  0  0  0  0
  4  5  2  0  0  0  0
  4 10  1  0  0  0  0
  5  6  1  0  0  0  0
  5  8  1  0  0  0  0
  6  7  2  0  0  0  0
  8  9  1  0  0  0  0
  9 10  2  0  0  0  0
M  END
>  <CHROM.1>
11.48631261,11.64471312,6.74800179,0.44027948,-1.30569555,0.86516855

>  <Name>
ligand

>  <RI>
0

>  <Rbt.Current_Directory>
/home/itssahil/PROJECTS/Mol_Feturizer/New_Systems/rnas/4FEJ

>  <Rbt.Executable>
rbdock ($Id: //depot/dev/client3/rdock/2013.1/src/exe/rbdock.cxx#4 $)

>  <Rbt.Library>
libRbt.so (2013.1, Build901 2013/11/27)

>  <Rbt.Parameter_File>
/export/apps/rDock/src/rDock_2013.1_src/data/scripts/dock_solv.prm

>  <Rbt.Receptor>
prm/blind_docking_60.prm

>  <SCORE>
-17.4949

>  <SCORE.INTER>
-17.4949

>  <SCORE.INTER.CONST>
1

>  <SCORE.INTER.POLAR>
0

>  <SCORE.INTER.ROT>
0

>  <SCORE.INTER.SOLV>
3.82736

>  <SCORE.INTER.VDW>
-16.5391

>  <SCORE.INTER.norm>
-1.74949

>  <SCORE.INTRA>
0

>  <SCORE.INTRA.DIHEDRAL>
0

>  <SCORE.INTRA.DIHEDRAL.0>
0

>  <SCORE.INTRA.POLAR>
0

>  <SCORE.INTRA.POLAR.0>
0

>  <SCORE.INTRA.REPUL>
0

>  <SCORE.INTRA.REPUL.0>
0

>  <SCORE.INTRA.SOLV>
0

>  <SCORE.INTRA.SOLV.lig_0>
-4.26631

>  <SCORE.INTRA.VDW>
0

>  <SCORE.INTRA.VDW.0>
0

>  <SCORE.INTRA.norm>
0

>  <SCORE.RESTR>
0

>  <SCORE.RESTR.CAVITY>
0

>  <SCORE.RESTR.norm>
0

>  <SCORE.SYSTEM>
0

>  <SCORE.SYSTEM.CONST>
0

>  <SCORE.SYSTEM.DIHEDRAL>
0

>  <SCORE.SYSTEM.SOLV>
0

>  <SCORE.SYSTEM.norm>
0

>  <SCORE.heavy>
10

>  <SCORE.norm>
-1.74949

>  <RMSD>
0.513

$$$$
ligand
 OpenBabel11021811493D
libRbt.so/2013.1/901 2013/11/27
 10 11  0  0  0  0  0  0  0  0999 V2000
   11.8536   11.3365    8.6197 N   0  0  0  0  0  0  0  0  0  0  0  0
   11.6133   12.6873    8.6164 C   0  0  0  0  0  0  0  0  0  0  0  0
   11.3008   13.3416    7.4862 N   0  0  0  0  0  0  0  0  0  0  0  0
   11.2514   12.5470    6.3970 C   0  0  0  0  0  0  0  0  0  0  0  0
   11.4822   11.1905    6.3357 C   0  0  0  0  0  0  0  0  0  0  0  0
   11.8092   10.4853    7.5110 C   0  0  0  0  0  0  0  0  0  0  0  0
   12.0475    9.2956    7.6680 O   0  0  0  0  0  0  0  0  0  0  0  0
   11.3281   10.7770    5.0449 N   0  0  0  0  0  0  0  0  0  0  0  0
   11.0081   11.8742    4.3272 C   0  0  0  0  0  0  0  0  0  0  0  0
   10.9553   12.9818    5.1341 N   0  0  0  0  0  0  0  0  0  0  0  0
  1  2  1  0  0  0  0
  1  6  1  0  0  0  0
  2  3  2  0  0  0  0
  3  4  1  0  0  0  0
  4  5  2  0  0  0  0
  4 10  1  0  0  0  0
  5  6  1  0  0  0  0
  5  8  1  0  0  0  0
  6  7  2  0  0  0  0
  8  9  1  0  0  0  0
  9 10  2  0  0  0  0
M  END
>  <CHROM.1>
11.47613871,11.60819509,6.73420235,0.35495475,-1.32747175,0.79166856

>  <Name>
ligand

>  <RI>
0

>  <Rbt.Current_Directory>
/home/itssahil/PROJECTS/Mol_Feturizer/New_Systems/rnas/4FEJ

>  <Rbt.Executable>
rbdock ($Id: //depot/dev/client3/rdock/2013.1/src/exe/rbdock.cxx#4 $)

>  <Rbt.Library>
libRbt.so (2013.1, Build901 2013/11/27)

>  <Rbt.Parameter_File>
/export/apps/rDock/src/rDock_2013.1_src/data/scripts/dock_solv.prm

>  <Rbt.Receptor>
prm/blind_docking_60.prm

>  <SCORE>
-17.4461

>  <SCORE.INTER>
-17.4461

>  <SCORE.INTER.CONST>
1

>  <SCORE.INTER.POLAR>
0

>  <SCORE.INTER.ROT>
0

>  <SCORE.INTER.SOLV>
3.89294

>  <SCORE.INTER.VDW>
-16.5284

>  <SCORE.INTER.norm>
-1.74461

>  <SCORE.INTRA>
0

>  <SCORE.INTRA.DIHEDRAL>
0

>  <SCORE.INTRA.DIHEDRAL.0>
0

>  <SCORE.INTRA.POLAR>
0

>  <SCORE.INTRA.POLAR.0>
0

>  <SCORE.INTRA.REPUL>
0

>  <SCORE.INTRA.REPUL.0>
0

>  <SCORE.INTRA.SOLV>
0

>  <SCORE.INTRA.SOLV.lig_0>
-4.26631

>  <SCORE.INTRA.VDW>
0

>  <SCORE.INTRA.VDW.0>
0

>  <SCORE.INTRA.norm>
0

>  <SCORE.RESTR>
0

>  <SCORE.RESTR.CAVITY>
0

>  <SCORE.RESTR.norm>
0

>  <SCORE.SYSTEM>
0

>  <SCORE.SYSTEM.CONST>
0

>  <SCORE.SYSTEM.DIHEDRAL>
0

>  <SCORE.SYSTEM.SOLV>
0

>  <SCORE.SYSTEM.norm>
0

>  <SCORE.heavy>
10

>  <SCORE.norm>
-1.74461

>  <RMSD>
0.513

$$$$
ligand
 OpenBabel11021811493D
libRbt.so/2013.1/901 2013/11/27
 10 11  0  0  0  0  0  0  0  0999 V2000
   11.8665   11.3944    8.6306 N   0  0  0  0  0  0  0  0  0  0  0  0
   11.5873   12.7377    8.6194 C   0  0  0  0  0  0  0  0  0  0  0  0
   11.2525   13.3753    7.4860 N   0  0  0  0  0  0  0  0  0  0  0  0
   11.2226   12.5725    6.4022 C   0  0  0  0  0  0  0  0  0  0  0  0
   11.4923   11.2228    6.3488 C   0  0  0  0  0  0  0  0  0  0  0  0
   11.8432   10.5350    7.5276 C   0  0  0  0  0  0  0  0  0  0  0  0
   12.1162    9.3538    7.6914 O   0  0  0  0  0  0  0  0  0  0  0  0
   11.3461   10.7965    5.0612 N   0  0  0  0  0  0  0  0  0  0  0  0
   10.9924   11.8794    4.3375 C   0  0  0  0  0  0  0  0  0  0  0  0
   10.9102   12.9903    5.1375 N   0  0  0  0  0  0  0  0  0  0  0  0
  1  2  1  0  0  0  0
  1  6  1  0  0  0  0
  2  3  2  0  0  0  0
  3  4  1  0  0  0  0
  4  5  2  0  0  0  0
  4 10  1  0  0  0  0
  5  6  1  0  0  0  0
  5  8  1  0  0  0  0
  6  7  2  0  0  0  0
  8  9  1  0  0  0  0
  9 10  2  0  0  0  0
M  END
>  <CHROM.1>
11.47545409,11.64275467,6.74463881,0.42343319,-1.30413074,0.85143352

>  <Name>
ligand

>  <RI>
0

>  <Rbt.Current_Directory>
/home/itssahil/PROJECTS/Mol_Feturizer/New_Systems/rnas/4FEJ

>  <Rbt.Executable>
rbdock ($Id: //depot/dev/client3/rdock/2013.1/src/exe/rbdock.cxx#4 $)

>  <Rbt.Library>
libRbt.so (2013.1, Build901 2013/11/27)

>  <Rbt.Parameter_File>
/export/apps/rDock/src/rDock_2013.1_src/data/scripts/dock_solv.prm

>  <Rbt.Receptor>
prm/blind_docking_80.prm

>  <SCORE>
-17.4713

>  <SCORE.INTER>
-17.4713

>  <SCORE.INTER.CONST>
1

>  <SCORE.INTER.POLAR>
0

>  <SCORE.INTER.ROT>
0

>  <SCORE.INTER.SOLV>
3.82457

>  <SCORE.INTER.VDW>
-16.5224

>  <SCORE.INTER.norm>
-1.74713

>  <SCORE.INTRA>
0

>  <SCORE.INTRA.DIHEDRAL>
0

>  <SCORE.INTRA.DIHEDRAL.0>
0

>  <SCORE.INTRA.POLAR>
0

>  <SCORE.INTRA.POLAR.0>
0

>  <SCORE.INTRA.REPUL>
0

>  <SCORE.INTRA.REPUL.0>
0

>  <SCORE.INTRA.SOLV>
0

>  <SCORE.INTRA.SOLV.lig_0>
-4.26631

>  <SCORE.INTRA.VDW>
0

>  <SCORE.INTRA.VDW.0>
0

>  <SCORE.INTRA.norm>
0

>  <SCORE.RESTR>
0

>  <SCORE.RESTR.CAVITY>
0

>  <SCORE.RESTR.norm>
0

>  <SCORE.SYSTEM>
0

>  <SCORE.SYSTEM.CONST>
0

>  <SCORE.SYSTEM.DIHEDRAL>
0

>  <SCORE.SYSTEM.SOLV>
0

>  <SCORE.SYSTEM.norm>
0

>  <SCORE.heavy>
10

>  <SCORE.norm>
-1.74713

>  <RMSD>
0.513

$$$$
ligand
 OpenBabel11021811493D
libRbt.so/2013.1/901 2013/11/27
 10 11  0  0  0  0  0  0  0  0999 V2000
   11.8786   11.3665    8.6154 N   0  0  0  0  0  0  0  0  0  0  0  0
   11.6327   12.7163    8.6185 C   0  0  0  0  0  0  0  0  0  0  0  0
   11.3086   13.3731    7.4930 N   0  0  0  0  0  0  0  0  0  0  0  0
   11.2541   12.5819    6.4015 C   0  0  0  0  0  0  0  0  0  0  0  0
   11.4901   11.2266    6.3338 C   0  0  0  0  0  0  0  0  0  0  0  0
   11.8292   10.5189    7.5042 C   0  0  0  0  0  0  0  0  0  0  0  0
   12.0737    9.3297    7.6553 O   0  0  0  0  0  0  0  0  0  0  0  0
   11.3277   10.8167    5.0429 N   0  0  0  0  0  0  0  0  0  0  0  0
   10.9976   11.9150    4.3314 C   0  0  0  0  0  0  0  0  0  0  0  0
   10.9465   13.0197    5.1424 N   0  0  0  0  0  0  0  0  0  0  0  0
  1  2  1  0  0  0  0
  1  6  1  0  0  0  0
  2  3  2  0  0  0  0
  3  4  1  0  0  0  0
  4  5  2  0  0  0  0
  4 10  1  0  0  0  0
  5  6  1  0  0  0  0
  5  8  1  0  0  0  0
  6  7  2  0  0  0  0
  8  9  1  0  0  0  0
  9 10  2  0  0  0  0
M  END
>  <CHROM.1>
11.48543701,11.64292420,6.73379519,0.34458900,-1.31901890,0.78497806

>  <Name>
ligand

>  <RI>
0

>  <Rbt.Current_Directory>
/home/itssahil/PROJECTS/Mol_Feturizer/New_Systems/rnas/4FEJ

>  <Rbt.Executable>
rbdock ($Id: //depot/dev/client3/rdock/2013.1/src/exe/rbdock.cxx#4 $)

>  <Rbt.Library>
libRbt.so (2013.1, Build901 2013/11/27)

>  <Rbt.Parameter_File>
/export/apps/rDock/src/rDock_2013.1_src/data/scripts/dock_solv.prm

>  <Rbt.Receptor>
prm/blind_docking_80.prm

>  <SCORE>
-17.4599

>  <SCORE.INTER>
-17.4599

>  <SCORE.INTER.CONST>
1

>  <SCORE.INTER.POLAR>
0

>  <SCORE.INTER.ROT>
0

>  <SCORE.INTER.SOLV>
3.86382

>  <SCORE.INTER.VDW>
-16.5279

>  <SCORE.INTER.norm>
-1.74599

>  <SCORE.INTRA>
0

>  <SCORE.INTRA.DIHEDRAL>
0

>  <SCORE.INTRA.DIHEDRAL.0>
0

>  <SCORE.INTRA.POLAR>
0

>  <SCORE.INTRA.POLAR.0>
0

>  <SCORE.INTRA.REPUL>
0

>  <SCORE.INTRA.REPUL.0>
0

>  <SCORE.INTRA.SOLV>
0

>  <SCORE.INTRA.SOLV.lig_0>
-4.26631

>  <SCORE.INTRA.VDW>
0

>  <SCORE.INTRA.VDW.0>
0

>  <SCORE.INTRA.norm>
0

>  <SCORE.RESTR>
0

>  <SCORE.RESTR.CAVITY>
0

>  <SCORE.RESTR.norm>
0

>  <SCORE.SYSTEM>
0

>  <SCORE.SYSTEM.CONST>
0

>  <SCORE.SYSTEM.DIHEDRAL>
0

>  <SCORE.SYSTEM.SOLV>
0

>  <SCORE.SYSTEM.norm>
0

>  <SCORE.heavy>
10

>  <SCORE.norm>
-1.74599

>  <RMSD>
0.513

$$$$
ligand
 OpenBabel11021811493D
libRbt.so/2013.1/901 2013/11/27
 10 11  0  0  0  0  0  0  0  0999 V2000
   11.8882   11.3603    8.6091 N   0  0  0  0  0  0  0  0  0  0  0  0
   11.6379   12.7092    8.6068 C   0  0  0  0  0  0  0  0  0  0  0  0
   11.3066   13.3594    7.4795 N   0  0  0  0  0  0  0  0  0  0  0  0
   11.2497   12.5627    6.3922 C   0  0  0  0  0  0  0  0  0  0  0  0
   11.4898   11.2077    6.3301 C   0  0  0  0  0  0  0  0  0  0  0  0
   11.8365   10.5069    7.5024 C   0  0  0  0  0  0  0  0  0  0  0  0
   12.0855    9.3193    7.6583 O   0  0  0  0  0  0  0  0  0  0  0  0
   11.3228   10.7910    5.0420 N   0  0  0  0  0  0  0  0  0  0  0  0
   10.9859   11.8847    4.3266 C   0  0  0  0  0  0  0  0  0  0  0  0
   10.9349   12.9932    5.1324 N   0  0  0  0  0  0  0  0  0  0  0  0
  1  2  1  0  0  0  0
  1  6  1  0  0  0  0
  2  3  2  0  0  0  0
  3  4  1  0  0  0  0
  4  5  2  0  0  0  0
  4 10  1  0  0  0  0
  5  6  1  0  0  0  0
  5  8  1  0  0  0  0
  6  7  2  0  0  0  0
  8  9  1  0  0  0  0
  9 10  2  0  0  0  0
M  END
>  <CHROM.1>
11.48555901,11.62605509,6.72804967,0.34097316,-1.31350844,0.77653630

>  <Name>
ligand

>  <RI>
0

>  <Rbt.Current_Directory>
/home/itssahil/PROJECTS/Mol_Feturizer/New_Systems/rnas/4FEJ

>  <Rbt.Executable>
rbdock ($Id: //depot/dev/client3/rdock/2013.1/src/exe/rbdock.cxx#4 $)

>  <Rbt.Library>
libRbt.so (2013.1, Build901 2013/11/27)

>  <Rbt.Parameter_File>
/export/apps/rDock/src/rDock_2013.1_src/data/scripts/dock_solv.prm

>  <Rbt.Receptor>
prm/pocket_docking_3.prm

>  <SCORE>
-17.4762

>  <SCORE.INTER>
-17.4762

>  <SCORE.INTER.CONST>
1

>  <SCORE.INTER.POLAR>
0

>  <SCORE.INTER.ROT>
0

>  <SCORE.INTER.SOLV>
3.8515

>  <SCORE.INTER.VDW>
-16.5347

>  <SCORE.INTER.norm>
-1.74762

>  <SCORE.INTRA>
0

>  <SCORE.INTRA.DIHEDRAL>
0

>  <SCORE.INTRA.DIHEDRAL.0>
0

>  <SCORE.INTRA.POLAR>
0

>  <SCORE.INTRA.POLAR.0>
0

>  <SCORE.INTRA.REPUL>
0

>  <SCORE.INTRA.REPUL.0>
0

>  <SCORE.INTRA.SOLV>
0

>  <SCORE.INTRA.SOLV.lig_0>
-4.26631

>  <SCORE.INTRA.VDW>
0

>  <SCORE.INTRA.VDW.0>
0

>  <SCORE.INTRA.norm>
0

>  <SCORE.RESTR>
0

>  <SCORE.RESTR.CAVITY>
0

>  <SCORE.RESTR.norm>
0

>  <SCORE.SYSTEM>
0

>  <SCORE.SYSTEM.CONST>
0

>  <SCORE.SYSTEM.DIHEDRAL>
0

>  <SCORE.SYSTEM.SOLV>
0

>  <SCORE.SYSTEM.norm>
0

>  <SCORE.heavy>
10

>  <SCORE.norm>
-1.74762

>  <RMSD>
0.513

$$$$
ligand
 OpenBabel11021811493D
libRbt.so/2013.1/901 2013/11/27
 10 11  0  0  0  0  0  0  0  0999 V2000
   11.8695   11.4052    8.6373 N   0  0  0  0  0  0  0  0  0  0  0  0
   11.5885   12.7480    8.6215 C   0  0  0  0  0  0  0  0  0  0  0  0
   11.2557   13.3819    7.4855 N   0  0  0  0  0  0  0  0  0  0  0  0
   11.2297   12.5759    6.4038 C   0  0  0  0  0  0  0  0  0  0  0  0
   11.5013   11.2264    6.3551 C   0  0  0  0  0  0  0  0  0  0  0  0
   11.8502   10.5426    7.5367 C   0  0  0  0  0  0  0  0  0  0  0  0
   12.1244    9.3622    7.7047 O   0  0  0  0  0  0  0  0  0  0  0  0
   11.3590   10.7963    5.0684 N   0  0  0  0  0  0  0  0  0  0  0  0
   11.0056   11.8766    4.3406 C   0  0  0  0  0  0  0  0  0  0  0  0
   10.9199   12.9896    5.1372 N   0  0  0  0  0  0  0  0  0  0  0  0
  1  2  1  0  0  0  0
  1  6  1  0  0  0  0
  2  3  2  0  0  0  0
  3  4  1  0  0  0  0
  4  5  2  0  0  0  0
  4 10  1  0  0  0  0
  5  6  1  0  0  0  0
  5  8  1  0  0  0  0
  6  7  2  0  0  0  0
  8  9  1  0  0  0  0
  9 10  2  0  0  0  0
M  END
>  <CHROM.1>
11.48293278,11.64751504,6.74966081,0.43412636,-1.30476257,0.85886151

>  <Name>
ligand

>  <RI>
0

>  <Rbt.Current_Directory>
/home/itssahil/PROJECTS/Mol_Feturizer/New_Systems/rnas/4FEJ

>  <Rbt.Executable>
rbdock ($Id: //depot/dev/client3/rdock/2013.1/src/exe/rbdock.cxx#4 $)

>  <Rbt.Library>
libRbt.so (2013.1, Build901 2013/11/27)

>  <Rbt.Parameter_File>
/export/apps/rDock/src/rDock_2013.1_src/data/scripts/dock_solv.prm

>  <Rbt.Receptor>
prm/pocket_docking_3.prm

>  <SCORE>
-17.494

>  <SCORE.INTER>
-17.494

>  <SCORE.INTER.CONST>
1

>  <SCORE.INTER.POLAR>
0

>  <SCORE.INTER.ROT>
0

>  <SCORE.INTER.SOLV>
3.8271

>  <SCORE.INTER.VDW>
-16.5384

>  <SCORE.INTER.norm>
-1.7494

>  <SCORE.INTRA>
0

>  <SCORE.INTRA.DIHEDRAL>
0

>  <SCORE.INTRA.DIHEDRAL.0>
0

>  <SCORE.INTRA.POLAR>
0

>  <SCORE.INTRA.POLAR.0>
0

>  <SCORE.INTRA.REPUL>
0

>  <SCORE.INTRA.REPUL.0>
0

>  <SCORE.INTRA.SOLV>
0

>  <SCORE.INTRA.SOLV.lig_0>
-4.26631

>  <SCORE.INTRA.VDW>
0

>  <SCORE.INTRA.VDW.0>
0

>  <SCORE.INTRA.norm>
0

>  <SCORE.RESTR>
0

>  <SCORE.RESTR.CAVITY>
0

>  <SCORE.RESTR.norm>
0

>  <SCORE.SYSTEM>
0

>  <SCORE.SYSTEM.CONST>
0

>  <SCORE.SYSTEM.DIHEDRAL>
0

>  <SCORE.SYSTEM.SOLV>
0

>  <SCORE.SYSTEM.norm>
0

>  <SCORE.heavy>
10

>  <SCORE.norm>
-1.7494

>  <RMSD>
0.513

$$$$
ligand
 OpenBabel11021811493D
libRbt.so/2013.1/901 2013/11/27
 10 11  0  0  0  0  0  0  0  0999 V2000
   11.8697   11.3583    8.6253 N   0  0  0  0  0  0  0  0  0  0  0  0
   11.6336   12.7098    8.6184 C   0  0  0  0  0  0  0  0  0  0  0  0
   11.3123   13.3602    7.4884 N   0  0  0  0  0  0  0  0  0  0  0  0
   11.2500   12.5610    6.4032 C   0  0  0  0  0  0  0  0  0  0  0  0
   11.4759   11.2034    6.3457 C   0  0  0  0  0  0  0  0  0  0  0  0
   11.8120   10.5024    7.5209 C   0  0  0  0  0  0  0  0  0  0  0  0
   12.0480    9.3126    7.6808 O   0  0  0  0  0  0  0  0  0  0  0  0
   11.3081   10.7847    5.0582 N   0  0  0  0  0  0  0  0  0  0  0  0
   10.9847   11.8799    4.3388 C   0  0  0  0  0  0  0  0  0  0  0  0
   10.9432   12.9911    5.1413 N   0  0  0  0  0  0  0  0  0  0  0  0
  1  2  1  0  0  0  0
  1  6  1  0  0  0  0
  2  3  2  0  0  0  0
  3  4  1  0  0  0  0
  4  5  2  0  0  0  0
  4 10  1  0  0  0  0
  5  6  1  0  0  0  0
  5  8  1  0  0  0  0
  6  7  2  0  0  0  0
  8  9  1  0  0  0  0
  9 10  2  0  0  0  0
M  END
>  <CHROM.1>
11.47501083,11.62288407,6.74235977,0.31803989,-1.32279229,0.75145652

>  <Name>
ligand

>  <RI>
0

>  <Rbt.Current_Directory>
/home/itssahil/PROJECTS/Mol_Feturizer/New_Systems/rnas/4FEJ

>  <Rbt.Executable>
rbdock ($Id: //depot/dev/client3/rdock/2013.1/src/exe/rbdock.cxx#4 $)

>  <Rbt.Library>
libRbt.so (2013.1, Build901 2013/11/27)

>  <Rbt.Parameter_File>
/export/apps/rDock/src/rDock_2013.1_src/data/scripts/dock_solv.prm

>  <Rbt.Receptor>
prm/pocket_docking_3.prm

>  <SCORE>
-17.4667

>  <SCORE.INTER>
-17.4667

>  <SCORE.INTER.CONST>
1

>  <SCORE.INTER.POLAR>
0

>  <SCORE.INTER.ROT>
0

>  <SCORE.INTER.SOLV>
3.8917

>  <SCORE.INTER.VDW>
-16.5417

>  <SCORE.INTER.norm>
-1.74667

>  <SCORE.INTRA>
0

>  <SCORE.INTRA.DIHEDRAL>
0

>  <SCORE.INTRA.DIHEDRAL.0>
0

>  <SCORE.INTRA.POLAR>
0

>  <SCORE.INTRA.POLAR.0>
0

>  <SCORE.INTRA.REPUL>
0

>  <SCORE.INTRA.REPUL.0>
0

>  <SCORE.INTRA.SOLV>
0

>  <SCORE.INTRA.SOLV.lig_0>
-4.26631

>  <SCORE.INTRA.VDW>
0

>  <SCORE.INTRA.VDW.0>
0

>  <SCORE.INTRA.norm>
0

>  <SCORE.RESTR>
0

>  <SCORE.RESTR.CAVITY>
0

>  <SCORE.RESTR.norm>
0

>  <SCORE.SYSTEM>
0

>  <SCORE.SYSTEM.CONST>
0

>  <SCORE.SYSTEM.DIHEDRAL>
0

>  <SCORE.SYSTEM.SOLV>
0

>  <SCORE.SYSTEM.norm>
0

>  <SCORE.heavy>
10

>  <SCORE.norm>
-1.74667

>  <RMSD>
0.513

$$$$
ligand
 OpenBabel11021811493D
libRbt.so/2013.1/901 2013/11/27
 10 11  0  0  0  0  0  0  0  0999 V2000
   11.8879   11.3597    8.6083 N   0  0  0  0  0  0  0  0  0  0  0  0
   11.6383   12.7088    8.6068 C   0  0  0  0  0  0  0  0  0  0  0  0
   11.3063   13.3597    7.4802 N   0  0  0  0  0  0  0  0  0  0  0  0
   11.2477   12.5636    6.3926 C   0  0  0  0  0  0  0  0  0  0  0  0
   11.4869   11.2086    6.3296 C   0  0  0  0  0  0  0  0  0  0  0  0
   11.8345   10.5069    7.5012 C   0  0  0  0  0  0  0  0  0  0  0  0
   12.0829    9.3191    7.6562 O   0  0  0  0  0  0  0  0  0  0  0  0
   11.3184   10.7925    5.0414 N   0  0  0  0  0  0  0  0  0  0  0  0
   10.9814   11.8868    4.3269 C   0  0  0  0  0  0  0  0  0  0  0  0
   10.9319   12.9949    5.1333 N   0  0  0  0  0  0  0  0  0  0  0  0
  1  2  1  0  0  0  0
  1  6  1  0  0  0  0
  2  3  2  0  0  0  0
  3  4  1  0  0  0  0
  4  5  2  0  0  0  0
  4 10  1  0  0  0  0
  5  6  1  0  0  0  0
  5  8  1  0  0  0  0
  6  7  2  0  0  0  0
  8  9  1  0  0  0  0
  9 10  2  0  0  0  0
M  END
>  <CHROM.1>
11.48340860,11.62666474,6.72772756,0.33640847,-1.31316992,0.77261690

>  <Name>
ligand

>  <RI>
0

>  <Rbt.Current_Directory>
/home/itssahil/PROJECTS/Mol_Feturizer/New_Systems/rnas/4FEJ

>  <Rbt.Executable>
rbdock ($Id: //depot/dev/client3/rdock/2013.1/src/exe/rbdock.cxx#4 $)

>  <Rbt.Library>
libRbt.so (2013.1, Build901 2013/11/27)

>  <Rbt.Parameter_File>
/export/apps/rDock/src/rDock_2013.1_src/data/scripts/dock_solv.prm

>  <Rbt.Receptor>
prm/pocket_docking_5.prm

>  <SCORE>
-17.4776

>  <SCORE.INTER>
-17.4776

>  <SCORE.INTER.CONST>
1

>  <SCORE.INTER.POLAR>
0

>  <SCORE.INTER.ROT>
0

>  <SCORE.INTER.SOLV>
3.85134

>  <SCORE.INTER.VDW>
-16.5355

>  <SCORE.INTER.norm>
-1.74776

>  <SCORE.INTRA>
0

>  <SCORE.INTRA.DIHEDRAL>
0

>  <SCORE.INTRA.DIHEDRAL.0>
0

>  <SCORE.INTRA.POLAR>
0

>  <SCORE.INTRA.POLAR.0>
0

>  <SCORE.INTRA.REPUL>
0

>  <SCORE.INTRA.REPUL.0>
0

>  <SCORE.INTRA.SOLV>
0

>  <SCORE.INTRA.SOLV.lig_0>
-4.26631

>  <SCORE.INTRA.VDW>
0

>  <SCORE.INTRA.VDW.0>
0

>  <SCORE.INTRA.norm>
0

>  <SCORE.RESTR>
0

>  <SCORE.RESTR.CAVITY>
0

>  <SCORE.RESTR.norm>
0

>  <SCORE.SYSTEM>
0

>  <SCORE.SYSTEM.CONST>
0

>  <SCORE.SYSTEM.DIHEDRAL>
0

>  <SCORE.SYSTEM.SOLV>
0

>  <SCORE.SYSTEM.norm>
0

>  <SCORE.heavy>
10

>  <SCORE.norm>
-1.74776

>  <RMSD>
0.513

$$$$
ligand
 OpenBabel11021811493D
libRbt.so/2013.1/901 2013/11/27
 10 11  0  0  0  0  0  0  0  0999 V2000
   11.8441   11.3343    8.6227 N   0  0  0  0  0  0  0  0  0  0  0  0
   11.6071   12.6857    8.6215 C   0  0  0  0  0  0  0  0  0  0  0  0
   11.2914   13.3418    7.4932 N   0  0  0  0  0  0  0  0  0  0  0  0
   11.2356   12.5482    6.4036 C   0  0  0  0  0  0  0  0  0  0  0  0
   11.4628   11.1912    6.3401 C   0  0  0  0  0  0  0  0  0  0  0  0
   11.7930   10.4842    7.5135 C   0  0  0  0  0  0  0  0  0  0  0  0
   12.0291    9.2938    7.6685 O   0  0  0  0  0  0  0  0  0  0  0  0
   11.3024   10.7791    5.0496 N   0  0  0  0  0  0  0  0  0  0  0  0
   10.9821   11.8778    4.3342 C   0  0  0  0  0  0  0  0  0  0  0  0
   10.9354   12.9848    5.1423 N   0  0  0  0  0  0  0  0  0  0  0  0
  1  2  1  0  0  0  0
  1  6  1  0  0  0  0
  2  3  2  0  0  0  0
  3  4  1  0  0  0  0
  4  5  2  0  0  0  0
  4 10  1  0  0  0  0
  5  6  1  0  0  0  0
  5  8  1  0  0  0  0
  6  7  2  0  0  0  0
  8  9  1  0  0  0  0
  9 10  2  0  0  0  0
M  END
>  <CHROM.1>
11.45949475,11.60854647,6.73901559,0.33570141,-1.32622137,0.77383471

>  <Name>
ligand

>  <RI>
0

>  <Rbt.Current_Directory>
/home/itssahil/PROJECTS/Mol_Feturizer/New_Systems/rnas/4FEJ

>  <Rbt.Executable>
rbdock ($Id: //depot/dev/client3/rdock/2013.1/src/exe/rbdock.cxx#4 $)

>  <Rbt.Library>
libRbt.so (2013.1, Build901 2013/11/27)

>  <Rbt.Parameter_File>
/export/apps/rDock/src/rDock_2013.1_src/data/scripts/dock_solv.prm

>  <Rbt.Receptor>
prm/pocket_docking_6.prm

>  <SCORE>
-17.4271

>  <SCORE.INTER>
-17.4271

>  <SCORE.INTER.CONST>
1

>  <SCORE.INTER.POLAR>
0

>  <SCORE.INTER.ROT>
0

>  <SCORE.INTER.SOLV>
3.89912

>  <SCORE.INTER.VDW>
-16.5177

>  <SCORE.INTER.norm>
-1.74271

>  <SCORE.INTRA>
0

>  <SCORE.INTRA.DIHEDRAL>
0

>  <SCORE.INTRA.DIHEDRAL.0>
0

>  <SCORE.INTRA.POLAR>
0

>  <SCORE.INTRA.POLAR.0>
0

>  <SCORE.INTRA.REPUL>
0

>  <SCORE.INTRA.REPUL.0>
0

>  <SCORE.INTRA.SOLV>
0

>  <SCORE.INTRA.SOLV.lig_0>
-4.26631

>  <SCORE.INTRA.VDW>
0

>  <SCORE.INTRA.VDW.0>
0

>  <SCORE.INTRA.norm>
0

>  <SCORE.RESTR>
0

>  <SCORE.RESTR.CAVITY>
0

>  <SCORE.RESTR.norm>
0

>  <SCORE.SYSTEM>
0

>  <SCORE.SYSTEM.CONST>
0

>  <SCORE.SYSTEM.DIHEDRAL>
0

>  <SCORE.SYSTEM.SOLV>
0

>  <SCORE.SYSTEM.norm>
0

>  <SCORE.heavy>
10

>  <SCORE.norm>
-1.74271

>  <RMSD>
0.513

$$$$
ligand
 OpenBabel11021811493D
libRbt.so/2013.1/901 2013/11/27
 10 11  0  0  0  0  0  0  0  0999 V2000
   11.8767   11.3687    8.6164 N   0  0  0  0  0  0  0  0  0  0  0  0
   11.6316   12.7186    8.6206 C   0  0  0  0  0  0  0  0  0  0  0  0
   11.3037   13.3757    7.4963 N   0  0  0  0  0  0  0  0  0  0  0  0
   11.2445   12.5846    6.4051 C   0  0  0  0  0  0  0  0  0  0  0  0
   11.4794   11.2291    6.3364 C   0  0  0  0  0  0  0  0  0  0  0  0
   11.8225   10.5211    7.5055 C   0  0  0  0  0  0  0  0  0  0  0  0
   12.0668    9.3318    7.6556 O   0  0  0  0  0  0  0  0  0  0  0  0
   11.3118   10.8194    5.0461 N   0  0  0  0  0  0  0  0  0  0  0  0
   10.9797   11.9179    4.3359 C   0  0  0  0  0  0  0  0  0  0  0  0
   10.9323   13.0226    5.1472 N   0  0  0  0  0  0  0  0  0  0  0  0
  1  2  1  0  0  0  0
  1  6  1  0  0  0  0
  2  3  2  0  0  0  0
  3  4  1  0  0  0  0
  4  5  2  0  0  0  0
  4 10  1  0  0  0  0
  5  6  1  0  0  0  0
  5  8  1  0  0  0  0
  6  7  2  0  0  0  0
  8  9  1  0  0  0  0
  9 10  2  0  0  0  0
M  END
>  <CHROM.1>
11.47648097,11.64542702,6.73640720,0.33209634,-1.31675042,0.77292000

>  <Name>
ligand

>  <RI>
0

>  <Rbt.Current_Directory>
/home/itssahil/PROJECTS/Mol_Feturizer/New_Systems/rnas/4FEJ

>  <Rbt.Executable>
rbdock ($Id: //depot/dev/client3/rdock/2013.1/src/exe/rbdock.cxx#4 $)

>  <Rbt.Library>
libRbt.so (2013.1, Build901 2013/11/27)

>  <Rbt.Parameter_File>
/export/apps/rDock/src/rDock_2013.1_src/data/scripts/dock_solv.prm

>  <Rbt.Receptor>
prm/pocket_docking_7.prm

>  <SCORE>
-17.4577

>  <SCORE.INTER>
-17.4577

>  <SCORE.INTER.CONST>
1

>  <SCORE.INTER.POLAR>
0

>  <SCORE.INTER.ROT>
0

>  <SCORE.INTER.SOLV>
3.86267

>  <SCORE.INTER.VDW>
-16.526

>  <SCORE.INTER.norm>
-1.74577

>  <SCORE.INTRA>
0

>  <SCORE.INTRA.DIHEDRAL>
0

>  <SCORE.INTRA.DIHEDRAL.0>
0

>  <SCORE.INTRA.POLAR>
0

>  <SCORE.INTRA.POLAR.0>
0

>  <SCORE.INTRA.REPUL>
0

>  <SCORE.INTRA.REPUL.0>
0

>  <SCORE.INTRA.SOLV>
0

>  <SCORE.INTRA.SOLV.lig_0>
-4.26631

>  <SCORE.INTRA.VDW>
0

>  <SCORE.INTRA.VDW.0>
0

>  <SCORE.INTRA.norm>
0

>  <SCORE.RESTR>
0

>  <SCORE.RESTR.CAVITY>
0

>  <SCORE.RESTR.norm>
0

>  <SCORE.SYSTEM>
0

>  <SCORE.SYSTEM.CONST>
0

>  <SCORE.SYSTEM.DIHEDRAL>
0

>  <SCORE.SYSTEM.SOLV>
0

>  <SCORE.SYSTEM.norm>
0

>  <SCORE.heavy>
10

>  <SCORE.norm>
-1.74577

>  <RMSD>
0.513

$$$$
ligand
 OpenBabel11021811493D
libRbt.so/2013.1/901 2013/11/27
 10 11  0  0  0  0  0  0  0  0999 V2000
   11.8490   11.3438    8.6234 N   0  0  0  0  0  0  0  0  0  0  0  0
   11.6076   12.6945    8.6214 C   0  0  0  0  0  0  0  0  0  0  0  0
   11.2915   13.3490    7.4924 N   0  0  0  0  0  0  0  0  0  0  0  0
   11.2397   12.5549    6.4030 C   0  0  0  0  0  0  0  0  0  0  0  0
   11.4713   11.1985    6.3404 C   0  0  0  0  0  0  0  0  0  0  0  0
   11.8021   10.4931    7.5145 C   0  0  0  0  0  0  0  0  0  0  0  0
   12.0417    9.3035    7.6703 O   0  0  0  0  0  0  0  0  0  0  0  0
   11.3139   10.7855    5.0499 N   0  0  0  0  0  0  0  0  0  0  0  0
   10.9911   11.8828    4.3335 C   0  0  0  0  0  0  0  0  0  0  0  0
   10.9398   12.9900    5.1411 N   0  0  0  0  0  0  0  0  0  0  0  0
  1  2  1  0  0  0  0
  1  6  1  0  0  0  0
  2  3  2  0  0  0  0
  3  4  1  0  0  0  0
  4  5  2  0  0  0  0
  4 10  1  0  0  0  0
  5  6  1  0  0  0  0
  5  8  1  0  0  0  0
  6  7  2  0  0  0  0
  8  9  1  0  0  0  0
  9 10  2  0  0  0  0
M  END
>  <CHROM.1>
11.46607977,11.61607312,6.73912441,0.34895454,-1.32498170,0.78628663

>  <Name>
ligand

>  <RI>
0

>  <Rbt.Current_Directory>
/home/itssahil/PROJECTS/Mol_Feturizer/New_Systems/rnas/4FEJ

>  <Rbt.Executable>
rbdock ($Id: //depot/dev/client3/rdock/2013.1/src/exe/rbdock.cxx#4 $)

>  <Rbt.Library>
libRbt.so (2013.1, Build901 2013/11/27)

>  <Rbt.Parameter_File>
/export/apps/rDock/src/rDock_2013.1_src/data/scripts/dock_solv.prm

>  <Rbt.Receptor>
prm/pocket_docking_8.prm

>  <SCORE>
-17.4592

>  <SCORE.INTER>
-17.4592

>  <SCORE.INTER.CONST>
1

>  <SCORE.INTER.POLAR>
0

>  <SCORE.INTER.ROT>
0

>  <SCORE.INTER.SOLV>
3.89019

>  <SCORE.INTER.VDW>
-16.5362

>  <SCORE.INTER.norm>
-1.74592

>  <SCORE.INTRA>
0

>  <SCORE.INTRA.DIHEDRAL>
0

>  <SCORE.INTRA.DIHEDRAL.0>
0

>  <SCORE.INTRA.POLAR>
0

>  <SCORE.INTRA.POLAR.0>
0

>  <SCORE.INTRA.REPUL>
0

>  <SCORE.INTRA.REPUL.0>
0

>  <SCORE.INTRA.SOLV>
0

>  <SCORE.INTRA.SOLV.lig_0>
-4.26631

>  <SCORE.INTRA.VDW>
0

>  <SCORE.INTRA.VDW.0>
0

>  <SCORE.INTRA.norm>
0

>  <SCORE.RESTR>
0

>  <SCORE.RESTR.CAVITY>
0

>  <SCORE.RESTR.norm>
0

>  <SCORE.SYSTEM>
0

>  <SCORE.SYSTEM.CONST>
0

>  <SCORE.SYSTEM.DIHEDRAL>
0

>  <SCORE.SYSTEM.SOLV>
0

>  <SCORE.SYSTEM.norm>
0

>  <SCORE.heavy>
10

>  <SCORE.norm>
-1.74592

>  <RMSD>
0.513

$$$$
ligand
 OpenBabel11021811493D
libRbt.so/2013.1/901 2013/11/27
 10 11  0  0  0  0  0  0  0  0999 V2000
   11.8840   11.3328    8.5971 N   0  0  0  0  0  0  0  0  0  0  0  0
   11.6567   12.6858    8.6116 C   0  0  0  0  0  0  0  0  0  0  0  0
   11.3334   13.3550    7.4932 N   0  0  0  0  0  0  0  0  0  0  0  0
   11.2597   12.5725    6.3966 C   0  0  0  0  0  0  0  0  0  0  0  0
   11.4765   11.2145    6.3176 C   0  0  0  0  0  0  0  0  0  0  0  0
   11.8145   10.4939    7.4804 C   0  0  0  0  0  0  0  0  0  0  0  0
   12.0437    9.3004    7.6213 O   0  0  0  0  0  0  0  0  0  0  0  0
   11.2988   10.8161    5.0251 N   0  0  0  0  0  0  0  0  0  0  0  0
   10.9785   11.9239    4.3239 C   0  0  0  0  0  0  0  0  0  0  0  0
   10.9487   13.0234    5.1430 N   0  0  0  0  0  0  0  0  0  0  0  0
  1  2  1  0  0  0  0
  1  6  1  0  0  0  0
  2  3  2  0  0  0  0
  3  4  1  0  0  0  0
  4  5  2  0  0  0  0
  4 10  1  0  0  0  0
  5  6  1  0  0  0  0
  5  8  1  0  0  0  0
  6  7  2  0  0  0  0
  8  9  1  0  0  0  0
  9 10  2  0  0  0  0
M  END
>  <CHROM.1>
11.48056703,11.62801363,6.72052644,0.28312451,-1.32301508,0.73249717

>  <Name>
ligand

>  <RI>
0

>  <Rbt.Current_Directory>
/home/itssahil/PROJECTS/Mol_Feturizer/New_Systems/rnas/4FEJ

>  <Rbt.Executable>
rbdock ($Id: //depot/dev/client3/rdock/2013.1/src/exe/rbdock.cxx#4 $)

>  <Rbt.Library>
libRbt.so (2013.1, Build901 2013/11/27)

>  <Rbt.Parameter_File>
/export/apps/rDock/src/rDock_2013.1_src/data/scripts/dock_solv.prm

>  <Rbt.Receptor>
prm/blind_docking_40.prm

>  <SCORE>
-17.4655

>  <SCORE.INTER>
-17.4655

>  <SCORE.INTER.CONST>
1

>  <SCORE.INTER.POLAR>
0

>  <SCORE.INTER.ROT>
0

>  <SCORE.INTER.SOLV>
3.87645

>  <SCORE.INTER.VDW>
-16.5358

>  <SCORE.INTER.norm>
-1.74655

>  <SCORE.INTRA>
0

>  <SCORE.INTRA.DIHEDRAL>
0

>  <SCORE.INTRA.DIHEDRAL.0>
0

>  <SCORE.INTRA.POLAR>
0

>  <SCORE.INTRA.POLAR.0>
0

>  <SCORE.INTRA.REPUL>
0

>  <SCORE.INTRA.REPUL.0>
0

>  <SCORE.INTRA.SOLV>
0

>  <SCORE.INTRA.SOLV.lig_0>
-4.26631

>  <SCORE.INTRA.VDW>
0

>  <SCORE.INTRA.VDW.0>
0

>  <SCORE.INTRA.norm>
0

>  <SCORE.RESTR>
0

>  <SCORE.RESTR.CAVITY>
0

>  <SCORE.RESTR.norm>
0

>  <SCORE.SYSTEM>
0

>  <SCORE.SYSTEM.CONST>
0

>  <SCORE.SYSTEM.DIHEDRAL>
0

>  <SCORE.SYSTEM.SOLV>
0

>  <SCORE.SYSTEM.norm>
0

>  <SCORE.heavy>
10

>  <SCORE.norm>
-1.74655

>  <RMSD>
0.514

$$$$
ligand
 OpenBabel11021811493D
libRbt.so/2013.1/901 2013/11/27
 10 11  0  0  0  0  0  0  0  0999 V2000
   11.8534   11.3374    8.6193 N   0  0  0  0  0  0  0  0  0  0  0  0
   11.6168   12.6889    8.6161 C   0  0  0  0  0  0  0  0  0  0  0  0
   11.3052   13.3439    7.4861 N   0  0  0  0  0  0  0  0  0  0  0  0
   11.2527   12.5494    6.3970 C   0  0  0  0  0  0  0  0  0  0  0  0
   11.4798   11.1922    6.3356 C   0  0  0  0  0  0  0  0  0  0  0  0
   11.8058   10.4862    7.5107 C   0  0  0  0  0  0  0  0  0  0  0  0
   12.0409    9.2959    7.6676 O   0  0  0  0  0  0  0  0  0  0  0  0
   11.3235   10.7790    5.0450 N   0  0  0  0  0  0  0  0  0  0  0  0
   11.0059   11.8771    4.3274 C   0  0  0  0  0  0  0  0  0  0  0  0
   10.9569   12.9849    5.1343 N   0  0  0  0  0  0  0  0  0  0  0  0
  1  2  1  0  0  0  0
  1  6  1  0  0  0  0
  2  3  2  0  0  0  0
  3  4  1  0  0  0  0
  4  5  2  0  0  0  0
  4 10  1  0  0  0  0
  5  6  1  0  0  0  0
  5  8  1  0  0  0  0
  6  7  2  0  0  0  0
  8  9  1  0  0  0  0
  9 10  2  0  0  0  0
M  END
>  <CHROM.1>
11.47521298,11.60996310,6.73408673,0.34446813,-1.32883722,0.78139595

>  <Name>
ligand

>  <RI>
0

>  <Rbt.Current_Directory>
/home/itssahil/PROJECTS/Mol_Feturizer/New_Systems/rnas/4FEJ

>  <Rbt.Executable>
rbdock ($Id: //depot/dev/client3/rdock/2013.1/src/exe/rbdock.cxx#4 $)

>  <Rbt.Library>
libRbt.so (2013.1, Build901 2013/11/27)

>  <Rbt.Parameter_File>
/export/apps/rDock/src/rDock_2013.1_src/data/scripts/dock_solv.prm

>  <Rbt.Receptor>
prm/blind_docking_60.prm

>  <SCORE>
-17.4491

>  <SCORE.INTER>
-17.4491

>  <SCORE.INTER.CONST>
1

>  <SCORE.INTER.POLAR>
0

>  <SCORE.INTER.ROT>
0

>  <SCORE.INTER.SOLV>
3.89856

>  <SCORE.INTER.VDW>
-16.5323

>  <SCORE.INTER.norm>
-1.74491

>  <SCORE.INTRA>
0

>  <SCORE.INTRA.DIHEDRAL>
0

>  <SCORE.INTRA.DIHEDRAL.0>
0

>  <SCORE.INTRA.POLAR>
0

>  <SCORE.INTRA.POLAR.0>
0

>  <SCORE.INTRA.REPUL>
0

>  <SCORE.INTRA.REPUL.0>
0

>  <SCORE.INTRA.SOLV>
0

>  <SCORE.INTRA.SOLV.lig_0>
-4.26631

>  <SCORE.INTRA.VDW>
0

>  <SCORE.INTRA.VDW.0>
0

>  <SCORE.INTRA.norm>
0

>  <SCORE.RESTR>
0

>  <SCORE.RESTR.CAVITY>
0

>  <SCORE.RESTR.norm>
0

>  <SCORE.SYSTEM>
0

>  <SCORE.SYSTEM.CONST>
0

>  <SCORE.SYSTEM.DIHEDRAL>
0

>  <SCORE.SYSTEM.SOLV>
0

>  <SCORE.SYSTEM.norm>
0

>  <SCORE.heavy>
10

>  <SCORE.norm>
-1.74491

>  <RMSD>
0.514

$$$$
ligand
 OpenBabel11021811493D
libRbt.so/2013.1/901 2013/11/27
 10 11  0  0  0  0  0  0  0  0999 V2000
   11.8492   11.3493    8.6267 N   0  0  0  0  0  0  0  0  0  0  0  0
   11.6118   12.7006    8.6225 C   0  0  0  0  0  0  0  0  0  0  0  0
   11.2964   13.3540    7.4926 N   0  0  0  0  0  0  0  0  0  0  0  0
   11.2411   12.5581    6.4047 C   0  0  0  0  0  0  0  0  0  0  0  0
   11.4687   11.2009    6.3444 C   0  0  0  0  0  0  0  0  0  0  0  0
   11.7986   10.4966    7.5194 C   0  0  0  0  0  0  0  0  0  0  0  0
   12.0349    9.3067    7.6771 O   0  0  0  0  0  0  0  0  0  0  0  0
   11.3087   10.7860    5.0548 N   0  0  0  0  0  0  0  0  0  0  0  0
   10.9884   11.8830    4.3368 C   0  0  0  0  0  0  0  0  0  0  0  0
   10.9411   12.9918    5.1424 N   0  0  0  0  0  0  0  0  0  0  0  0
  1  2  1  0  0  0  0
  1  6  1  0  0  0  0
  2  3  2  0  0  0  0
  3  4  1  0  0  0  0
  4  5  2  0  0  0  0
  4 10  1  0  0  0  0
  5  6  1  0  0  0  0
  5  8  1  0  0  0  0
  6  7  2  0  0  0  0
  8  9  1  0  0  0  0
  9 10  2  0  0  0  0
M  END
>  <CHROM.1>
11.46508786,11.61919527,6.74234043,0.33724244,-1.32628538,0.77310401

>  <Name>
ligand

>  <RI>
0

>  <Rbt.Current_Directory>
/home/itssahil/PROJECTS/Mol_Feturizer/New_Systems/rnas/4FEJ

>  <Rbt.Executable>
rbdock ($Id: //depot/dev/client3/rdock/2013.1/src/exe/rbdock.cxx#4 $)

>  <Rbt.Library>
libRbt.so (2013.1, Build901 2013/11/27)

>  <Rbt.Parameter_File>
/export/apps/rDock/src/rDock_2013.1_src/data/scripts/dock_solv.prm

>  <Rbt.Receptor>
prm/blind_docking_80.prm

>  <SCORE>
-17.4587

>  <SCORE.INTER>
-17.4587

>  <SCORE.INTER.CONST>
1

>  <SCORE.INTER.POLAR>
0

>  <SCORE.INTER.ROT>
0

>  <SCORE.INTER.SOLV>
3.89842

>  <SCORE.INTER.VDW>
-16.5386

>  <SCORE.INTER.norm>
-1.74587

>  <SCORE.INTRA>
0

>  <SCORE.INTRA.DIHEDRAL>
0

>  <SCORE.INTRA.DIHEDRAL.0>
0

>  <SCORE.INTRA.POLAR>
0

>  <SCORE.INTRA.POLAR.0>
0

>  <SCORE.INTRA.REPUL>
0

>  <SCORE.INTRA.REPUL.0>
0

>  <SCORE.INTRA.SOLV>
0

>  <SCORE.INTRA.SOLV.lig_0>
-4.26631

>  <SCORE.INTRA.VDW>
0

>  <SCORE.INTRA.VDW.0>
0

>  <SCORE.INTRA.norm>
0

>  <SCORE.RESTR>
0

>  <SCORE.RESTR.CAVITY>
0

>  <SCORE.RESTR.norm>
0

>  <SCORE.SYSTEM>
0

>  <SCORE.SYSTEM.CONST>
0

>  <SCORE.SYSTEM.DIHEDRAL>
0

>  <SCORE.SYSTEM.SOLV>
0

>  <SCORE.SYSTEM.norm>
0

>  <SCORE.heavy>
10

>  <SCORE.norm>
-1.74587

>  <RMSD>
0.514

$$$$
ligand
 OpenBabel11021811493D
libRbt.so/2013.1/901 2013/11/27
 10 11  0  0  0  0  0  0  0  0999 V2000
   11.8697   11.3649    8.6351 N   0  0  0  0  0  0  0  0  0  0  0  0
   11.6398   12.7174    8.6186 C   0  0  0  0  0  0  0  0  0  0  0  0
   11.3138   13.3599    7.4854 N   0  0  0  0  0  0  0  0  0  0  0  0
   11.2404   12.5520    6.4074 C   0  0  0  0  0  0  0  0  0  0  0  0
   11.4597   11.1930    6.3596 C   0  0  0  0  0  0  0  0  0  0  0  0
   11.8005   10.5001    7.5383 C   0  0  0  0  0  0  0  0  0  0  0  0
   12.0322    9.3107    7.7066 O   0  0  0  0  0  0  0  0  0  0  0  0
   11.2812   10.7644    5.0769 N   0  0  0  0  0  0  0  0  0  0  0  0
   10.9580   11.8550    4.3505 C   0  0  0  0  0  0  0  0  0  0  0  0
   10.9270   12.9731    5.1440 N   0  0  0  0  0  0  0  0  0  0  0  0
  1  2  1  0  0  0  0
  1  6  1  0  0  0  0
  2  3  2  0  0  0  0
  3  4  1  0  0  0  0
  4  5  2  0  0  0  0
  4 10  1  0  0  0  0
  5  6  1  0  0  0  0
  5  8  1  0  0  0  0
  6  7  2  0  0  0  0
  8  9  1  0  0  0  0
  9 10  2  0  0  0  0
M  END
>  <CHROM.1>
11.46342601,11.61573151,6.75277687,0.28579171,-1.32082646,0.71189797

>  <Name>
ligand

>  <RI>
0

>  <Rbt.Current_Directory>
/home/itssahil/PROJECTS/Mol_Feturizer/New_Systems/rnas/4FEJ

>  <Rbt.Executable>
rbdock ($Id: //depot/dev/client3/rdock/2013.1/src/exe/rbdock.cxx#4 $)

>  <Rbt.Library>
libRbt.so (2013.1, Build901 2013/11/27)

>  <Rbt.Parameter_File>
/export/apps/rDock/src/rDock_2013.1_src/data/scripts/dock_solv.prm

>  <Rbt.Receptor>
prm/blind_docking_80.prm

>  <SCORE>
-17.4496

>  <SCORE.INTER>
-17.4496

>  <SCORE.INTER.CONST>
1

>  <SCORE.INTER.POLAR>
0

>  <SCORE.INTER.ROT>
0

>  <SCORE.INTER.SOLV>
3.90889

>  <SCORE.INTER.VDW>
-16.536

>  <SCORE.INTER.norm>
-1.74496

>  <SCORE.INTRA>
0

>  <SCORE.INTRA.DIHEDRAL>
0

>  <SCORE.INTRA.DIHEDRAL.0>
0

>  <SCORE.INTRA.POLAR>
0

>  <SCORE.INTRA.POLAR.0>
0

>  <SCORE.INTRA.REPUL>
0

>  <SCORE.INTRA.REPUL.0>
0

>  <SCORE.INTRA.SOLV>
0

>  <SCORE.INTRA.SOLV.lig_0>
-4.26631

>  <SCORE.INTRA.VDW>
0

>  <SCORE.INTRA.VDW.0>
0

>  <SCORE.INTRA.norm>
0

>  <SCORE.RESTR>
0

>  <SCORE.RESTR.CAVITY>
0

>  <SCORE.RESTR.norm>
0

>  <SCORE.SYSTEM>
0

>  <SCORE.SYSTEM.CONST>
0

>  <SCORE.SYSTEM.DIHEDRAL>
0

>  <SCORE.SYSTEM.SOLV>
0

>  <SCORE.SYSTEM.norm>
0

>  <SCORE.heavy>
10

>  <SCORE.norm>
-1.74496

>  <RMSD>
0.514

$$$$
ligand
 OpenBabel11021811493D
libRbt.so/2013.1/901 2013/11/27
 10 11  0  0  0  0  0  0  0  0999 V2000
   11.8747   11.3511    8.6214 N   0  0  0  0  0  0  0  0  0  0  0  0
   11.6391   12.7027    8.6104 C   0  0  0  0  0  0  0  0  0  0  0  0
   11.3069   13.3479    7.4806 N   0  0  0  0  0  0  0  0  0  0  0  0
   11.2335   12.5437    6.3999 C   0  0  0  0  0  0  0  0  0  0  0  0
   11.4583   11.1857    6.3465 C   0  0  0  0  0  0  0  0  0  0  0  0
   11.8056   10.4901    7.5216 C   0  0  0  0  0  0  0  0  0  0  0  0
   12.0428    9.3010    7.6848 O   0  0  0  0  0  0  0  0  0  0  0  0
   11.2776   10.7611    5.0628 N   0  0  0  0  0  0  0  0  0  0  0  0
   10.9476   11.8530    4.3414 C   0  0  0  0  0  0  0  0  0  0  0  0
   10.9145   12.9680    5.1390 N   0  0  0  0  0  0  0  0  0  0  0  0
  1  2  1  0  0  0  0
  1  6  1  0  0  0  0
  2  3  2  0  0  0  0
  3  4  1  0  0  0  0
  4  5  2  0  0  0  0
  4 10  1  0  0  0  0
  5  6  1  0  0  0  0
  5  8  1  0  0  0  0
  6  7  2  0  0  0  0
  8  9  1  0  0  0  0
  9 10  2  0  0  0  0
M  END
>  <CHROM.1>
11.46150135,11.60708456,6.74118586,0.29009161,-1.31576215,0.71968613

>  <Name>
ligand

>  <RI>
0

>  <Rbt.Current_Directory>
/home/itssahil/PROJECTS/Mol_Feturizer/New_Systems/rnas/4FEJ

>  <Rbt.Executable>
rbdock ($Id: //depot/dev/client3/rdock/2013.1/src/exe/rbdock.cxx#4 $)

>  <Rbt.Library>
libRbt.so (2013.1, Build901 2013/11/27)

>  <Rbt.Parameter_File>
/export/apps/rDock/src/rDock_2013.1_src/data/scripts/dock_solv.prm

>  <Rbt.Receptor>
prm/pocket_docking_4.prm

>  <SCORE>
-17.4434

>  <SCORE.INTER>
-17.4434

>  <SCORE.INTER.CONST>
1

>  <SCORE.INTER.POLAR>
0

>  <SCORE.INTER.ROT>
0

>  <SCORE.INTER.SOLV>
3.88691

>  <SCORE.INTER.VDW>
-16.5246

>  <SCORE.INTER.norm>
-1.74434

>  <SCORE.INTRA>
0

>  <SCORE.INTRA.DIHEDRAL>
0

>  <SCORE.INTRA.DIHEDRAL.0>
0

>  <SCORE.INTRA.POLAR>
0

>  <SCORE.INTRA.POLAR.0>
0

>  <SCORE.INTRA.REPUL>
0

>  <SCORE.INTRA.REPUL.0>
0

>  <SCORE.INTRA.SOLV>
0

>  <SCORE.INTRA.SOLV.lig_0>
-4.26631

>  <SCORE.INTRA.VDW>
0

>  <SCORE.INTRA.VDW.0>
0

>  <SCORE.INTRA.norm>
0

>  <SCORE.RESTR>
0

>  <SCORE.RESTR.CAVITY>
0

>  <SCORE.RESTR.norm>
0

>  <SCORE.SYSTEM>
0

>  <SCORE.SYSTEM.CONST>
0

>  <SCORE.SYSTEM.DIHEDRAL>
0

>  <SCORE.SYSTEM.SOLV>
0

>  <SCORE.SYSTEM.norm>
0

>  <SCORE.heavy>
10

>  <SCORE.norm>
-1.74434

>  <RMSD>
0.514

$$$$
ligand
 OpenBabel11021811493D
libRbt.so/2013.1/901 2013/11/27
 10 11  0  0  0  0  0  0  0  0999 V2000
   11.8682   11.3241    8.5955 N   0  0  0  0  0  0  0  0  0  0  0  0
   11.6413   12.6771    8.6183 C   0  0  0  0  0  0  0  0  0  0  0  0
   11.3227   13.3539    7.5032 N   0  0  0  0  0  0  0  0  0  0  0  0
   11.2532   12.5789    6.4011 C   0  0  0  0  0  0  0  0  0  0  0  0
   11.4698   11.2214    6.3137 C   0  0  0  0  0  0  0  0  0  0  0  0
   11.8030   10.4928    7.4729 C   0  0  0  0  0  0  0  0  0  0  0  0
   12.0312    9.2983    7.6067 O   0  0  0  0  0  0  0  0  0  0  0  0
   11.2972   10.8319    5.0178 N   0  0  0  0  0  0  0  0  0  0  0  0
   10.9801   11.9445    4.3228 C   0  0  0  0  0  0  0  0  0  0  0  0
   10.9474   13.0384    5.1493 N   0  0  0  0  0  0  0  0  0  0  0  0
  1  2  1  0  0  0  0
  1  6  1  0  0  0  0
  2  3  2  0  0  0  0
  3  4  1  0  0  0  0
  4  5  2  0  0  0  0
  4 10  1  0  0  0  0
  5  6  1  0  0  0  0
  5  8  1  0  0  0  0
  6  7  2  0  0  0  0
  8  9  1  0  0  0  0
  9 10  2  0  0  0  0
M  END
>  <CHROM.1>
11.47241506,11.63217123,6.71943968,0.29318840,-1.32620359,0.74903290

>  <Name>
ligand

>  <RI>
0

>  <Rbt.Current_Directory>
/home/itssahil/PROJECTS/Mol_Feturizer/New_Systems/rnas/4FEJ

>  <Rbt.Executable>
rbdock ($Id: //depot/dev/client3/rdock/2013.1/src/exe/rbdock.cxx#4 $)

>  <Rbt.Library>
libRbt.so (2013.1, Build901 2013/11/27)

>  <Rbt.Parameter_File>
/export/apps/rDock/src/rDock_2013.1_src/data/scripts/dock_solv.prm

>  <Rbt.Receptor>
prm/pocket_docking_4.prm

>  <SCORE>
-17.447

>  <SCORE.INTER>
-17.447

>  <SCORE.INTER.CONST>
1

>  <SCORE.INTER.POLAR>
0

>  <SCORE.INTER.ROT>
0

>  <SCORE.INTER.SOLV>
3.88004

>  <SCORE.INTER.VDW>
-16.5247

>  <SCORE.INTER.norm>
-1.7447

>  <SCORE.INTRA>
0

>  <SCORE.INTRA.DIHEDRAL>
0

>  <SCORE.INTRA.DIHEDRAL.0>
0

>  <SCORE.INTRA.POLAR>
0

>  <SCORE.INTRA.POLAR.0>
0

>  <SCORE.INTRA.REPUL>
0

>  <SCORE.INTRA.REPUL.0>
0

>  <SCORE.INTRA.SOLV>
0

>  <SCORE.INTRA.SOLV.lig_0>
-4.26631

>  <SCORE.INTRA.VDW>
0

>  <SCORE.INTRA.VDW.0>
0

>  <SCORE.INTRA.norm>
0

>  <SCORE.RESTR>
0

>  <SCORE.RESTR.CAVITY>
0

>  <SCORE.RESTR.norm>
0

>  <SCORE.SYSTEM>
0

>  <SCORE.SYSTEM.CONST>
0

>  <SCORE.SYSTEM.DIHEDRAL>
0

>  <SCORE.SYSTEM.SOLV>
0

>  <SCORE.SYSTEM.norm>
0

>  <SCORE.heavy>
10

>  <SCORE.norm>
-1.7447

>  <RMSD>
0.514

$$$$
ligand
 OpenBabel11021811493D
libRbt.so/2013.1/901 2013/11/27
 10 11  0  0  0  0  0  0  0  0999 V2000
   11.8399   11.3316    8.6033 N   0  0  0  0  0  0  0  0  0  0  0  0
   11.5874   12.6800    8.6243 C   0  0  0  0  0  0  0  0  0  0  0  0
   11.2702   13.3519    7.5058 N   0  0  0  0  0  0  0  0  0  0  0  0
   11.2290   12.5768    6.4023 C   0  0  0  0  0  0  0  0  0  0  0  0
   11.4721   11.2237    6.3166 C   0  0  0  0  0  0  0  0  0  0  0  0
   11.8043   10.5003    7.4793 C   0  0  0  0  0  0  0  0  0  0  0  0
   12.0532    9.3102    7.6150 O   0  0  0  0  0  0  0  0  0  0  0  0
   11.3231   10.8324    5.0183 N   0  0  0  0  0  0  0  0  0  0  0  0
   10.9940   11.9396    4.3203 C   0  0  0  0  0  0  0  0  0  0  0  0
   10.9304   13.0318    5.1471 N   0  0  0  0  0  0  0  0  0  0  0  0
  1  2  1  0  0  0  0
  1  6  1  0  0  0  0
  2  3  2  0  0  0  0
  3  4  1  0  0  0  0
  4  5  2  0  0  0  0
  4 10  1  0  0  0  0
  5  6  1  0  0  0  0
  5  8  1  0  0  0  0
  6  7  2  0  0  0  0
  8  9  1  0  0  0  0
  9 10  2  0  0  0  0
M  END
>  <CHROM.1>
11.46195061,11.63407802,6.72261636,0.38364117,-1.32167071,0.83765130

>  <Name>
ligand

>  <RI>
0

>  <Rbt.Current_Directory>
/home/itssahil/PROJECTS/Mol_Feturizer/New_Systems/rnas/4FEJ

>  <Rbt.Executable>
rbdock ($Id: //depot/dev/client3/rdock/2013.1/src/exe/rbdock.cxx#4 $)

>  <Rbt.Library>
libRbt.so (2013.1, Build901 2013/11/27)

>  <Rbt.Parameter_File>
/export/apps/rDock/src/rDock_2013.1_src/data/scripts/dock_solv.prm

>  <Rbt.Receptor>
prm/pocket_docking_4.prm

>  <SCORE>
-17.449

>  <SCORE.INTER>
-17.449

>  <SCORE.INTER.CONST>
1

>  <SCORE.INTER.POLAR>
0

>  <SCORE.INTER.ROT>
0

>  <SCORE.INTER.SOLV>
3.85801

>  <SCORE.INTER.VDW>
-16.5187

>  <SCORE.INTER.norm>
-1.7449

>  <SCORE.INTRA>
0

>  <SCORE.INTRA.DIHEDRAL>
0

>  <SCORE.INTRA.DIHEDRAL.0>
0

>  <SCORE.INTRA.POLAR>
0

>  <SCORE.INTRA.POLAR.0>
0

>  <SCORE.INTRA.REPUL>
0

>  <SCORE.INTRA.REPUL.0>
0

>  <SCORE.INTRA.SOLV>
0

>  <SCORE.INTRA.SOLV.lig_0>
-4.26631

>  <SCORE.INTRA.VDW>
0

>  <SCORE.INTRA.VDW.0>
0

>  <SCORE.INTRA.norm>
0

>  <SCORE.RESTR>
0

>  <SCORE.RESTR.CAVITY>
0

>  <SCORE.RESTR.norm>
0

>  <SCORE.SYSTEM>
0

>  <SCORE.SYSTEM.CONST>
0

>  <SCORE.SYSTEM.DIHEDRAL>
0

>  <SCORE.SYSTEM.SOLV>
0

>  <SCORE.SYSTEM.norm>
0

>  <SCORE.heavy>
10

>  <SCORE.norm>
-1.7449

>  <RMSD>
0.514

$$$$
ligand
 OpenBabel11021811493D
libRbt.so/2013.1/901 2013/11/27
 10 11  0  0  0  0  0  0  0  0999 V2000
   11.8738   11.4107    8.6373 N   0  0  0  0  0  0  0  0  0  0  0  0
   11.5973   12.7545    8.6217 C   0  0  0  0  0  0  0  0  0  0  0  0
   11.2610   13.3885    7.4868 N   0  0  0  0  0  0  0  0  0  0  0  0
   11.2269   12.5817    6.4060 C   0  0  0  0  0  0  0  0  0  0  0  0
   11.4938   11.2312    6.3571 C   0  0  0  0  0  0  0  0  0  0  0  0
   11.8462   10.5472    7.5376 C   0  0  0  0  0  0  0  0  0  0  0  0
   12.1173    9.3661    7.7053 O   0  0  0  0  0  0  0  0  0  0  0  0
   11.3437   10.8004    5.0715 N   0  0  0  0  0  0  0  0  0  0  0  0
   10.9903   11.8813    4.3446 C   0  0  0  0  0  0  0  0  0  0  0  0
   10.9123   12.9953    5.1405 N   0  0  0  0  0  0  0  0  0  0  0  0
  1  2  1  0  0  0  0
  1  6  1  0  0  0  0
  2  3  2  0  0  0  0
  3  4  1  0  0  0  0
  4  5  2  0  0  0  0
  4 10  1  0  0  0  0
  5  6  1  0  0  0  0
  5  8  1  0  0  0  0
  6  7  2  0  0  0  0
  8  9  1  0  0  0  0
  9 10  2  0  0  0  0
M  END
>  <CHROM.1>
11.47875634,11.65270957,6.75138978,0.41167704,-1.30399872,0.83632821

>  <Name>
ligand

>  <RI>
0

>  <Rbt.Current_Directory>
/home/itssahil/PROJECTS/Mol_Feturizer/New_Systems/rnas/4FEJ

>  <Rbt.Executable>
rbdock ($Id: //depot/dev/client3/rdock/2013.1/src/exe/rbdock.cxx#4 $)

>  <Rbt.Library>
libRbt.so (2013.1, Build901 2013/11/27)

>  <Rbt.Parameter_File>
/export/apps/rDock/src/rDock_2013.1_src/data/scripts/dock_solv.prm

>  <Rbt.Receptor>
prm/pocket_docking_5.prm

>  <SCORE>
-17.4924

>  <SCORE.INTER>
-17.4924

>  <SCORE.INTER.CONST>
1

>  <SCORE.INTER.POLAR>
0

>  <SCORE.INTER.ROT>
0

>  <SCORE.INTER.SOLV>
3.82981

>  <SCORE.INTER.VDW>
-16.5382

>  <SCORE.INTER.norm>
-1.74924

>  <SCORE.INTRA>
0

>  <SCORE.INTRA.DIHEDRAL>
0

>  <SCORE.INTRA.DIHEDRAL.0>
0

>  <SCORE.INTRA.POLAR>
0

>  <SCORE.INTRA.POLAR.0>
0

>  <SCORE.INTRA.REPUL>
0

>  <SCORE.INTRA.REPUL.0>
0

>  <SCORE.INTRA.SOLV>
0

>  <SCORE.INTRA.SOLV.lig_0>
-4.26631

>  <SCORE.INTRA.VDW>
0

>  <SCORE.INTRA.VDW.0>
0

>  <SCORE.INTRA.norm>
0

>  <SCORE.RESTR>
0

>  <SCORE.RESTR.CAVITY>
0

>  <SCORE.RESTR.norm>
0

>  <SCORE.SYSTEM>
0

>  <SCORE.SYSTEM.CONST>
0

>  <SCORE.SYSTEM.DIHEDRAL>
0

>  <SCORE.SYSTEM.SOLV>
0

>  <SCORE.SYSTEM.norm>
0

>  <SCORE.heavy>
10

>  <SCORE.norm>
-1.74924

>  <RMSD>
0.514

$$$$
ligand
 OpenBabel11021811493D
libRbt.so/2013.1/901 2013/11/27
 10 11  0  0  0  0  0  0  0  0999 V2000
   11.8575   11.3275    8.5979 N   0  0  0  0  0  0  0  0  0  0  0  0
   11.6167   12.6781    8.6184 C   0  0  0  0  0  0  0  0  0  0  0  0
   11.2965   13.3507    7.5012 N   0  0  0  0  0  0  0  0  0  0  0  0
   11.2402   12.5741    6.3995 C   0  0  0  0  0  0  0  0  0  0  0  0
   11.4710   11.2188    6.3144 C   0  0  0  0  0  0  0  0  0  0  0  0
   11.8060   10.4946    7.4758 C   0  0  0  0  0  0  0  0  0  0  0  0
   12.0457    9.3026    7.6116 O   0  0  0  0  0  0  0  0  0  0  0  0
   11.3085   10.8265    5.0180 N   0  0  0  0  0  0  0  0  0  0  0  0
   10.9835   11.9353    4.3205 C   0  0  0  0  0  0  0  0  0  0  0  0
   10.9357   13.0294    5.1459 N   0  0  0  0  0  0  0  0  0  0  0  0
  1  2  1  0  0  0  0
  1  6  1  0  0  0  0
  2  3  2  0  0  0  0
  3  4  1  0  0  0  0
  4  5  2  0  0  0  0
  4 10  1  0  0  0  0
  5  6  1  0  0  0  0
  5  8  1  0  0  0  0
  6  7  2  0  0  0  0
  8  9  1  0  0  0  0
  9 10  2  0  0  0  0
M  END
>  <CHROM.1>
11.46750080,11.62994415,6.71970290,0.33672328,-1.32255646,0.79041117

>  <Name>
ligand

>  <RI>
0

>  <Rbt.Current_Directory>
/home/itssahil/PROJECTS/Mol_Feturizer/New_Systems/rnas/4FEJ

>  <Rbt.Executable>
rbdock ($Id: //depot/dev/client3/rdock/2013.1/src/exe/rbdock.cxx#4 $)

>  <Rbt.Library>
libRbt.so (2013.1, Build901 2013/11/27)

>  <Rbt.Parameter_File>
/export/apps/rDock/src/rDock_2013.1_src/data/scripts/dock_solv.prm

>  <Rbt.Receptor>
prm/pocket_docking_6.prm

>  <SCORE>
-17.4596

>  <SCORE.INTER>
-17.4596

>  <SCORE.INTER.CONST>
1

>  <SCORE.INTER.POLAR>
0

>  <SCORE.INTER.ROT>
0

>  <SCORE.INTER.SOLV>
3.86517

>  <SCORE.INTER.VDW>
-16.5281

>  <SCORE.INTER.norm>
-1.74596

>  <SCORE.INTRA>
0

>  <SCORE.INTRA.DIHEDRAL>
0

>  <SCORE.INTRA.DIHEDRAL.0>
0

>  <SCORE.INTRA.POLAR>
0

>  <SCORE.INTRA.POLAR.0>
0

>  <SCORE.INTRA.REPUL>
0

>  <SCORE.INTRA.REPUL.0>
0

>  <SCORE.INTRA.SOLV>
0

>  <SCORE.INTRA.SOLV.lig_0>
-4.26631

>  <SCORE.INTRA.VDW>
0

>  <SCORE.INTRA.VDW.0>
0

>  <SCORE.INTRA.norm>
0

>  <SCORE.RESTR>
0

>  <SCORE.RESTR.CAVITY>
0

>  <SCORE.RESTR.norm>
0

>  <SCORE.SYSTEM>
0

>  <SCORE.SYSTEM.CONST>
0

>  <SCORE.SYSTEM.DIHEDRAL>
0

>  <SCORE.SYSTEM.SOLV>
0

>  <SCORE.SYSTEM.norm>
0

>  <SCORE.heavy>
10

>  <SCORE.norm>
-1.74596

>  <RMSD>
0.514

$$$$
ligand
 OpenBabel11021811493D
libRbt.so/2013.1/901 2013/11/27
 10 11  0  0  0  0  0  0  0  0999 V2000
   11.8189   11.2932    8.5989 N   0  0  0  0  0  0  0  0  0  0  0  0
   11.5820   12.6443    8.6265 C   0  0  0  0  0  0  0  0  0  0  0  0
   11.2766   13.3261    7.5107 N   0  0  0  0  0  0  0  0  0  0  0  0
   11.2304   12.5577    6.4027 C   0  0  0  0  0  0  0  0  0  0  0  0
   11.4581   11.2023    6.3103 C   0  0  0  0  0  0  0  0  0  0  0  0
   11.7777   10.4686    7.4701 C   0  0  0  0  0  0  0  0  0  0  0  0
   12.0123    9.2750    7.6000 O   0  0  0  0  0  0  0  0  0  0  0  0
   11.3092   10.8200    5.0094 N   0  0  0  0  0  0  0  0  0  0  0  0
   10.9955   11.9348    4.3164 C   0  0  0  0  0  0  0  0  0  0  0  0
   10.9416   13.0231    5.1491 N   0  0  0  0  0  0  0  0  0  0  0  0
  1  2  1  0  0  0  0
  1  6  1  0  0  0  0
  2  3  2  0  0  0  0
  3  4  1  0  0  0  0
  4  5  2  0  0  0  0
  4 10  1  0  0  0  0
  5  6  1  0  0  0  0
  5  8  1  0  0  0  0
  6  7  2  0  0  0  0
  8  9  1  0  0  0  0
  9 10  2  0  0  0  0
M  END
>  <CHROM.1>
11.45125192,11.61049686,6.71861970,0.36205327,-1.33262944,0.82229614

>  <Name>
ligand

>  <RI>
0

>  <Rbt.Current_Directory>
/home/itssahil/PROJECTS/Mol_Feturizer/New_Systems/rnas/4FEJ

>  <Rbt.Executable>
rbdock ($Id: //depot/dev/client3/rdock/2013.1/src/exe/rbdock.cxx#4 $)

>  <Rbt.Library>
libRbt.so (2013.1, Build901 2013/11/27)

>  <Rbt.Parameter_File>
/export/apps/rDock/src/rDock_2013.1_src/data/scripts/dock_solv.prm

>  <Rbt.Receptor>
prm/blind_docking_100.prm

>  <SCORE>
-17.4299

>  <SCORE.INTER>
-17.4299

>  <SCORE.INTER.CONST>
1

>  <SCORE.INTER.POLAR>
0

>  <SCORE.INTER.ROT>
0

>  <SCORE.INTER.SOLV>
3.89311

>  <SCORE.INTER.VDW>
-16.5176

>  <SCORE.INTER.norm>
-1.74299

>  <SCORE.INTRA>
0

>  <SCORE.INTRA.DIHEDRAL>
0

>  <SCORE.INTRA.DIHEDRAL.0>
0

>  <SCORE.INTRA.POLAR>
0

>  <SCORE.INTRA.POLAR.0>
0

>  <SCORE.INTRA.REPUL>
0

>  <SCORE.INTRA.REPUL.0>
0

>  <SCORE.INTRA.SOLV>
0

>  <SCORE.INTRA.SOLV.lig_0>
-4.26631

>  <SCORE.INTRA.VDW>
0

>  <SCORE.INTRA.VDW.0>
0

>  <SCORE.INTRA.norm>
0

>  <SCORE.RESTR>
0

>  <SCORE.RESTR.CAVITY>
0

>  <SCORE.RESTR.norm>
0

>  <SCORE.SYSTEM>
0

>  <SCORE.SYSTEM.CONST>
0

>  <SCORE.SYSTEM.DIHEDRAL>
0

>  <SCORE.SYSTEM.SOLV>
0

>  <SCORE.SYSTEM.norm>
0

>  <SCORE.heavy>
10

>  <SCORE.norm>
-1.74299

>  <RMSD>
0.515

$$$$
ligand
 OpenBabel11021811493D
libRbt.so/2013.1/901 2013/11/27
 10 11  0  0  0  0  0  0  0  0999 V2000
   11.8242   11.3317    8.6273 N   0  0  0  0  0  0  0  0  0  0  0  0
   11.5839   12.6825    8.6266 C   0  0  0  0  0  0  0  0  0  0  0  0
   11.2742   13.3394    7.4971 N   0  0  0  0  0  0  0  0  0  0  0  0
   11.2276   12.5473    6.4060 C   0  0  0  0  0  0  0  0  0  0  0  0
   11.4586   11.1909    6.3421 C   0  0  0  0  0  0  0  0  0  0  0  0
   11.7827   10.4830    7.5166 C   0  0  0  0  0  0  0  0  0  0  0  0
   12.0206    9.2930    7.6715 O   0  0  0  0  0  0  0  0  0  0  0  0
   11.3078   10.7803    5.0500 N   0  0  0  0  0  0  0  0  0  0  0  0
   10.9896   11.8792    4.3340 C   0  0  0  0  0  0  0  0  0  0  0  0
   10.9348   12.9849    5.1433 N   0  0  0  0  0  0  0  0  0  0  0  0
  1  2  1  0  0  0  0
  1  6  1  0  0  0  0
  2  3  2  0  0  0  0
  3  4  1  0  0  0  0
  4  5  2  0  0  0  0
  4 10  1  0  0  0  0
  5  6  1  0  0  0  0
  5  8  1  0  0  0  0
  6  7  2  0  0  0  0
  8  9  1  0  0  0  0
  9 10  2  0  0  0  0
M  END
>  <CHROM.1>
11.45156306,11.60765017,6.74156239,0.36256530,-1.32920749,0.80134919

>  <Name>
ligand

>  <RI>
0

>  <Rbt.Current_Directory>
/home/itssahil/PROJECTS/Mol_Feturizer/New_Systems/rnas/4FEJ

>  <Rbt.Executable>
rbdock ($Id: //depot/dev/client3/rdock/2013.1/src/exe/rbdock.cxx#4 $)

>  <Rbt.Library>
libRbt.so (2013.1, Build901 2013/11/27)

>  <Rbt.Parameter_File>
/export/apps/rDock/src/rDock_2013.1_src/data/scripts/dock_solv.prm

>  <Rbt.Receptor>
prm/blind_docking_100.prm

>  <SCORE>
-17.402

>  <SCORE.INTER>
-17.402

>  <SCORE.INTER.CONST>
1

>  <SCORE.INTER.POLAR>
0

>  <SCORE.INTER.ROT>
0

>  <SCORE.INTER.SOLV>
3.90826

>  <SCORE.INTER.VDW>
-16.5041

>  <SCORE.INTER.norm>
-1.7402

>  <SCORE.INTRA>
0

>  <SCORE.INTRA.DIHEDRAL>
0

>  <SCORE.INTRA.DIHEDRAL.0>
0

>  <SCORE.INTRA.POLAR>
0

>  <SCORE.INTRA.POLAR.0>
0

>  <SCORE.INTRA.REPUL>
0

>  <SCORE.INTRA.REPUL.0>
0

>  <SCORE.INTRA.SOLV>
0

>  <SCORE.INTRA.SOLV.lig_0>
-4.26631

>  <SCORE.INTRA.VDW>
0

>  <SCORE.INTRA.VDW.0>
0

>  <SCORE.INTRA.norm>
0

>  <SCORE.RESTR>
0

>  <SCORE.RESTR.CAVITY>
0

>  <SCORE.RESTR.norm>
0

>  <SCORE.SYSTEM>
0

>  <SCORE.SYSTEM.CONST>
0

>  <SCORE.SYSTEM.DIHEDRAL>
0

>  <SCORE.SYSTEM.SOLV>
0

>  <SCORE.SYSTEM.norm>
0

>  <SCORE.heavy>
10

>  <SCORE.norm>
-1.7402

>  <RMSD>
0.515

$$$$
ligand
 OpenBabel11021811493D
libRbt.so/2013.1/901 2013/11/27
 10 11  0  0  0  0  0  0  0  0999 V2000
   11.8703   11.3372    8.5991 N   0  0  0  0  0  0  0  0  0  0  0  0
   11.6298   12.6879    8.6104 C   0  0  0  0  0  0  0  0  0  0  0  0
   11.3085   13.3527    7.4888 N   0  0  0  0  0  0  0  0  0  0  0  0
   11.2509   12.5684    6.3926 C   0  0  0  0  0  0  0  0  0  0  0  0
   11.4814   11.2125    6.3168 C   0  0  0  0  0  0  0  0  0  0  0  0
   11.8175   10.4964    7.4830 C   0  0  0  0  0  0  0  0  0  0  0  0
   12.0572    9.3054    7.6269 O   0  0  0  0  0  0  0  0  0  0  0  0
   11.3174   10.8110    5.0234 N   0  0  0  0  0  0  0  0  0  0  0  0
   10.9918   11.9149    4.3185 C   0  0  0  0  0  0  0  0  0  0  0  0
   10.9451   13.0149    5.1362 N   0  0  0  0  0  0  0  0  0  0  0  0
  1  2  1  0  0  0  0
  1  6  1  0  0  0  0
  2  3  2  0  0  0  0
  3  4  1  0  0  0  0
  4  5  2  0  0  0  0
  4 10  1  0  0  0  0
  5  6  1  0  0  0  0
  5  8  1  0  0  0  0
  6  7  2  0  0  0  0
  8  9  1  0  0  0  0
  9 10  2  0  0  0  0
M  END
>  <CHROM.1>
11.47837316,11.62646052,6.71925854,0.33313652,-1.32191192,0.77987220

>  <Name>
ligand

>  <RI>
0

>  <Rbt.Current_Directory>
/home/itssahil/PROJECTS/Mol_Feturizer/New_Systems/rnas/4FEJ

>  <Rbt.Executable>
rbdock ($Id: //depot/dev/client3/rdock/2013.1/src/exe/rbdock.cxx#4 $)

>  <Rbt.Library>
libRbt.so (2013.1, Build901 2013/11/27)

>  <Rbt.Parameter_File>
/export/apps/rDock/src/rDock_2013.1_src/data/scripts/dock_solv.prm

>  <Rbt.Receptor>
prm/blind_docking_40.prm

>  <SCORE>
-17.4731

>  <SCORE.INTER>
-17.4731

>  <SCORE.INTER.CONST>
1

>  <SCORE.INTER.POLAR>
0

>  <SCORE.INTER.ROT>
0

>  <SCORE.INTER.SOLV>
3.86552

>  <SCORE.INTER.VDW>
-16.5372

>  <SCORE.INTER.norm>
-1.74731

>  <SCORE.INTRA>
0

>  <SCORE.INTRA.DIHEDRAL>
0

>  <SCORE.INTRA.DIHEDRAL.0>
0

>  <SCORE.INTRA.POLAR>
0

>  <SCORE.INTRA.POLAR.0>
0

>  <SCORE.INTRA.REPUL>
0

>  <SCORE.INTRA.REPUL.0>
0

>  <SCORE.INTRA.SOLV>
0

>  <SCORE.INTRA.SOLV.lig_0>
-4.26631

>  <SCORE.INTRA.VDW>
0

>  <SCORE.INTRA.VDW.0>
0

>  <SCORE.INTRA.norm>
0

>  <SCORE.RESTR>
0

>  <SCORE.RESTR.CAVITY>
0

>  <SCORE.RESTR.norm>
0

>  <SCORE.SYSTEM>
0

>  <SCORE.SYSTEM.CONST>
0

>  <SCORE.SYSTEM.DIHEDRAL>
0

>  <SCORE.SYSTEM.SOLV>
0

>  <SCORE.SYSTEM.norm>
0

>  <SCORE.heavy>
10

>  <SCORE.norm>
-1.74731

>  <RMSD>
0.515

$$$$
ligand
 OpenBabel11021811493D
libRbt.so/2013.1/901 2013/11/27
 10 11  0  0  0  0  0  0  0  0999 V2000
   11.8553   11.3368    8.6222 N   0  0  0  0  0  0  0  0  0  0  0  0
   11.6321   12.6905    8.6180 C   0  0  0  0  0  0  0  0  0  0  0  0
   11.3137   13.3456    7.4900 N   0  0  0  0  0  0  0  0  0  0  0  0
   11.2405   12.5487    6.4038 C   0  0  0  0  0  0  0  0  0  0  0  0
   11.4534   11.1892    6.3435 C   0  0  0  0  0  0  0  0  0  0  0  0
   11.7862   10.4832    7.5167 C   0  0  0  0  0  0  0  0  0  0  0  0
   12.0114    9.2910    7.6741 O   0  0  0  0  0  0  0  0  0  0  0  0
   11.2779   10.7741    5.0560 N   0  0  0  0  0  0  0  0  0  0  0  0
   10.9628   11.8734    4.3391 C   0  0  0  0  0  0  0  0  0  0  0  0
   10.9342   12.9838    5.1434 N   0  0  0  0  0  0  0  0  0  0  0  0
  1  2  1  0  0  0  0
  1  6  1  0  0  0  0
  2  3  2  0  0  0  0
  3  4  1  0  0  0  0
  4  5  2  0  0  0  0
  4 10  1  0  0  0  0
  5  6  1  0  0  0  0
  5  8  1  0  0  0  0
  6  7  2  0  0  0  0
  8  9  1  0  0  0  0
  9 10  2  0  0  0  0
M  END
>  <CHROM.1>
11.45766707,11.60804372,6.74084710,0.28104167,-1.32699501,0.71711128

>  <Name>
ligand

>  <RI>
0

>  <Rbt.Current_Directory>
/home/itssahil/PROJECTS/Mol_Feturizer/New_Systems/rnas/4FEJ

>  <Rbt.Executable>
rbdock ($Id: //depot/dev/client3/rdock/2013.1/src/exe/rbdock.cxx#4 $)

>  <Rbt.Library>
libRbt.so (2013.1, Build901 2013/11/27)

>  <Rbt.Parameter_File>
/export/apps/rDock/src/rDock_2013.1_src/data/scripts/dock_solv.prm

>  <Rbt.Receptor>
prm/blind_docking_40.prm

>  <SCORE>
-17.4388

>  <SCORE.INTER>
-17.4388

>  <SCORE.INTER.CONST>
1

>  <SCORE.INTER.POLAR>
0

>  <SCORE.INTER.ROT>
0

>  <SCORE.INTER.SOLV>
3.9152

>  <SCORE.INTER.VDW>
-16.5309

>  <SCORE.INTER.norm>
-1.74388

>  <SCORE.INTRA>
0

>  <SCORE.INTRA.DIHEDRAL>
0

>  <SCORE.INTRA.DIHEDRAL.0>
0

>  <SCORE.INTRA.POLAR>
0

>  <SCORE.INTRA.POLAR.0>
0

>  <SCORE.INTRA.REPUL>
0

>  <SCORE.INTRA.REPUL.0>
0

>  <SCORE.INTRA.SOLV>
0

>  <SCORE.INTRA.SOLV.lig_0>
-4.26631

>  <SCORE.INTRA.VDW>
0

>  <SCORE.INTRA.VDW.0>
0

>  <SCORE.INTRA.norm>
0

>  <SCORE.RESTR>
0

>  <SCORE.RESTR.CAVITY>
0

>  <SCORE.RESTR.norm>
0

>  <SCORE.SYSTEM>
0

>  <SCORE.SYSTEM.CONST>
0

>  <SCORE.SYSTEM.DIHEDRAL>
0

>  <SCORE.SYSTEM.SOLV>
0

>  <SCORE.SYSTEM.norm>
0

>  <SCORE.heavy>
10

>  <SCORE.norm>
-1.74388

>  <RMSD>
0.515

$$$$
ligand
 OpenBabel11021811493D
libRbt.so/2013.1/901 2013/11/27
 10 11  0  0  0  0  0  0  0  0999 V2000
   11.8017   11.3404    8.6392 N   0  0  0  0  0  0  0  0  0  0  0  0
   11.5506   12.6893    8.6374 C   0  0  0  0  0  0  0  0  0  0  0  0
   11.2414   13.3439    7.5066 N   0  0  0  0  0  0  0  0  0  0  0  0
   11.2066   12.5517    6.4151 C   0  0  0  0  0  0  0  0  0  0  0  0
   11.4487   11.1972    6.3521 C   0  0  0  0  0  0  0  0  0  0  0  0
   11.7725   10.4917    7.5282 C   0  0  0  0  0  0  0  0  0  0  0  0
   12.0192    9.3036    7.6840 O   0  0  0  0  0  0  0  0  0  0  0  0
   11.3077   10.7857    5.0592 N   0  0  0  0  0  0  0  0  0  0  0  0
   10.9844   11.8822    4.3418 C   0  0  0  0  0  0  0  0  0  0  0  0
   10.9167   12.9873    5.1510 N   0  0  0  0  0  0  0  0  0  0  0  0
  1  2  1  0  0  0  0
  1  6  1  0  0  0  0
  2  3  2  0  0  0  0
  3  4  1  0  0  0  0
  4  5  2  0  0  0  0
  4 10  1  0  0  0  0
  5  6  1  0  0  0  0
  5  8  1  0  0  0  0
  6  7  2  0  0  0  0
  8  9  1  0  0  0  0
  9 10  2  0  0  0  0
M  END
>  <CHROM.1>
11.43636051,11.61383062,6.75160994,0.40052686,-1.32682130,0.83839137

>  <Name>
ligand

>  <RI>
0

>  <Rbt.Current_Directory>
/home/itssahil/PROJECTS/Mol_Feturizer/New_Systems/rnas/4FEJ

>  <Rbt.Executable>
rbdock ($Id: //depot/dev/client3/rdock/2013.1/src/exe/rbdock.cxx#4 $)

>  <Rbt.Library>
libRbt.so (2013.1, Build901 2013/11/27)

>  <Rbt.Parameter_File>
/export/apps/rDock/src/rDock_2013.1_src/data/scripts/dock_solv.prm

>  <Rbt.Receptor>
prm/blind_docking_60.prm

>  <SCORE>
-17.4481

>  <SCORE.INTER>
-17.4481

>  <SCORE.INTER.CONST>
1

>  <SCORE.INTER.POLAR>
0

>  <SCORE.INTER.ROT>
0

>  <SCORE.INTER.SOLV>
3.90777

>  <SCORE.INTER.VDW>
-16.5347

>  <SCORE.INTER.norm>
-1.74481

>  <SCORE.INTRA>
0

>  <SCORE.INTRA.DIHEDRAL>
0

>  <SCORE.INTRA.DIHEDRAL.0>
0

>  <SCORE.INTRA.POLAR>
0

>  <SCORE.INTRA.POLAR.0>
0

>  <SCORE.INTRA.REPUL>
0

>  <SCORE.INTRA.REPUL.0>
0

>  <SCORE.INTRA.SOLV>
0

>  <SCORE.INTRA.SOLV.lig_0>
-4.26631

>  <SCORE.INTRA.VDW>
0

>  <SCORE.INTRA.VDW.0>
0

>  <SCORE.INTRA.norm>
0

>  <SCORE.RESTR>
0

>  <SCORE.RESTR.CAVITY>
0

>  <SCORE.RESTR.norm>
0

>  <SCORE.SYSTEM>
0

>  <SCORE.SYSTEM.CONST>
0

>  <SCORE.SYSTEM.DIHEDRAL>
0

>  <SCORE.SYSTEM.SOLV>
0

>  <SCORE.SYSTEM.norm>
0

>  <SCORE.heavy>
10

>  <SCORE.norm>
-1.74481

>  <RMSD>
0.515

$$$$
ligand
 OpenBabel11021811493D
libRbt.so/2013.1/901 2013/11/27
 10 11  0  0  0  0  0  0  0  0999 V2000
   11.8905   11.3951    8.6211 N   0  0  0  0  0  0  0  0  0  0  0  0
   11.6120   12.7384    8.6031 C   0  0  0  0  0  0  0  0  0  0  0  0
   11.2612   13.3672    7.4697 N   0  0  0  0  0  0  0  0  0  0  0  0
   11.2153   12.5557    6.3928 C   0  0  0  0  0  0  0  0  0  0  0  0
   11.4833   11.2054    6.3464 C   0  0  0  0  0  0  0  0  0  0  0  0
   11.8508   10.5269    7.5255 C   0  0  0  0  0  0  0  0  0  0  0  0
   12.1255    9.3468    7.6949 O   0  0  0  0  0  0  0  0  0  0  0  0
   11.3184   10.7690    5.0645 N   0  0  0  0  0  0  0  0  0  0  0  0
   10.9549   11.8463    4.3373 C   0  0  0  0  0  0  0  0  0  0  0  0
   10.8849   12.9636    5.1294 N   0  0  0  0  0  0  0  0  0  0  0  0
  1  2  1  0  0  0  0
  1  6  1  0  0  0  0
  2  3  2  0  0  0  0
  3  4  1  0  0  0  0
  4  5  2  0  0  0  0
  4 10  1  0  0  0  0
  5  6  1  0  0  0  0
  5  8  1  0  0  0  0
  6  7  2  0  0  0  0
  8  9  1  0  0  0  0
  9 10  2  0  0  0  0
M  END
>  <CHROM.1>
11.47247722,11.62856757,6.73905596,0.38227841,-1.29483724,0.80376155

>  <Name>
ligand

>  <RI>
0

>  <Rbt.Current_Directory>
/home/itssahil/PROJECTS/Mol_Feturizer/New_Systems/rnas/4FEJ

>  <Rbt.Executable>
rbdock ($Id: //depot/dev/client3/rdock/2013.1/src/exe/rbdock.cxx#4 $)

>  <Rbt.Library>
libRbt.so (2013.1, Build901 2013/11/27)

>  <Rbt.Parameter_File>
/export/apps/rDock/src/rDock_2013.1_src/data/scripts/dock_solv.prm

>  <Rbt.Receptor>
prm/pocket_docking_3.prm

>  <SCORE>
-17.4402

>  <SCORE.INTER>
-17.4402

>  <SCORE.INTER.CONST>
1

>  <SCORE.INTER.POLAR>
0

>  <SCORE.INTER.ROT>
0

>  <SCORE.INTER.SOLV>
3.81003

>  <SCORE.INTER.VDW>
-16.4968

>  <SCORE.INTER.norm>
-1.74402

>  <SCORE.INTRA>
0

>  <SCORE.INTRA.DIHEDRAL>
0

>  <SCORE.INTRA.DIHEDRAL.0>
0

>  <SCORE.INTRA.POLAR>
0

>  <SCORE.INTRA.POLAR.0>
0

>  <SCORE.INTRA.REPUL>
0

>  <SCORE.INTRA.REPUL.0>
0

>  <SCORE.INTRA.SOLV>
0

>  <SCORE.INTRA.SOLV.lig_0>
-4.26631

>  <SCORE.INTRA.VDW>
0

>  <SCORE.INTRA.VDW.0>
0

>  <SCORE.INTRA.norm>
0

>  <SCORE.RESTR>
0

>  <SCORE.RESTR.CAVITY>
0

>  <SCORE.RESTR.norm>
0

>  <SCORE.SYSTEM>
0

>  <SCORE.SYSTEM.CONST>
0

>  <SCORE.SYSTEM.DIHEDRAL>
0

>  <SCORE.SYSTEM.SOLV>
0

>  <SCORE.SYSTEM.norm>
0

>  <SCORE.heavy>
10

>  <SCORE.norm>
-1.74402

>  <RMSD>
0.515

$$$$
ligand
 OpenBabel11021811493D
libRbt.so/2013.1/901 2013/11/27
 10 11  0  0  0  0  0  0  0  0999 V2000
   11.8843   11.3595    8.6070 N   0  0  0  0  0  0  0  0  0  0  0  0
   11.6339   12.7084    8.6045 C   0  0  0  0  0  0  0  0  0  0  0  0
   11.3034   13.3586    7.4770 N   0  0  0  0  0  0  0  0  0  0  0  0
   11.2474   12.5619    6.3897 C   0  0  0  0  0  0  0  0  0  0  0  0
   11.4876   11.2070    6.3277 C   0  0  0  0  0  0  0  0  0  0  0  0
   11.8335   10.5062    7.5003 C   0  0  0  0  0  0  0  0  0  0  0  0
   12.0825    9.3186    7.6563 O   0  0  0  0  0  0  0  0  0  0  0  0
   11.3217   10.7902    5.0394 N   0  0  0  0  0  0  0  0  0  0  0  0
   10.9853   11.8839    4.3238 C   0  0  0  0  0  0  0  0  0  0  0  0
   10.9335   12.9924    5.1296 N   0  0  0  0  0  0  0  0  0  0  0  0
  1  2  1  0  0  0  0
  1  6  1  0  0  0  0
  2  3  2  0  0  0  0
  3  4  1  0  0  0  0
  4  5  2  0  0  0  0
  4 10  1  0  0  0  0
  5  6  1  0  0  0  0
  5  8  1  0  0  0  0
  6  7  2  0  0  0  0
  8  9  1  0  0  0  0
  9 10  2  0  0  0  0
M  END
>  <CHROM.1>
11.48308615,11.62527912,6.72564834,0.34331029,-1.31399154,0.77881879

>  <Name>
ligand

>  <RI>
0

>  <Rbt.Current_Directory>
/home/itssahil/PROJECTS/Mol_Feturizer/New_Systems/rnas/4FEJ

>  <Rbt.Executable>
rbdock ($Id: //depot/dev/client3/rdock/2013.1/src/exe/rbdock.cxx#4 $)

>  <Rbt.Library>
libRbt.so (2013.1, Build901 2013/11/27)

>  <Rbt.Parameter_File>
/export/apps/rDock/src/rDock_2013.1_src/data/scripts/dock_solv.prm

>  <Rbt.Receptor>
prm/pocket_docking_4.prm

>  <SCORE>
-17.4783

>  <SCORE.INTER>
-17.4783

>  <SCORE.INTER.CONST>
1

>  <SCORE.INTER.POLAR>
0

>  <SCORE.INTER.ROT>
0

>  <SCORE.INTER.SOLV>
3.85239

>  <SCORE.INTER.VDW>
-16.5364

>  <SCORE.INTER.norm>
-1.74783

>  <SCORE.INTRA>
0

>  <SCORE.INTRA.DIHEDRAL>
0

>  <SCORE.INTRA.DIHEDRAL.0>
0

>  <SCORE.INTRA.POLAR>
0

>  <SCORE.INTRA.POLAR.0>
0

>  <SCORE.INTRA.REPUL>
0

>  <SCORE.INTRA.REPUL.0>
0

>  <SCORE.INTRA.SOLV>
0

>  <SCORE.INTRA.SOLV.lig_0>
-4.26631

>  <SCORE.INTRA.VDW>
0

>  <SCORE.INTRA.VDW.0>
0

>  <SCORE.INTRA.norm>
0

>  <SCORE.RESTR>
0

>  <SCORE.RESTR.CAVITY>
0

>  <SCORE.RESTR.norm>
0

>  <SCORE.SYSTEM>
0

>  <SCORE.SYSTEM.CONST>
0

>  <SCORE.SYSTEM.DIHEDRAL>
0

>  <SCORE.SYSTEM.SOLV>
0

>  <SCORE.SYSTEM.norm>
0

>  <SCORE.heavy>
10

>  <SCORE.norm>
-1.74783

>  <RMSD>
0.515

$$$$
ligand
 OpenBabel11021811493D
libRbt.so/2013.1/901 2013/11/27
 10 11  0  0  0  0  0  0  0  0999 V2000
   11.8523   11.3263    8.5963 N   0  0  0  0  0  0  0  0  0  0  0  0
   11.6093   12.6764    8.6172 C   0  0  0  0  0  0  0  0  0  0  0  0
   11.2886   13.3490    7.5001 N   0  0  0  0  0  0  0  0  0  0  0  0
   11.2341   12.5728    6.3980 C   0  0  0  0  0  0  0  0  0  0  0  0
   11.4673   11.2179    6.3125 C   0  0  0  0  0  0  0  0  0  0  0  0
   11.8028   10.4937    7.4738 C   0  0  0  0  0  0  0  0  0  0  0  0
   12.0444    9.3021    7.6092 O   0  0  0  0  0  0  0  0  0  0  0  0
   11.3061   10.8258    5.0159 N   0  0  0  0  0  0  0  0  0  0  0  0
   10.9796   11.9344    4.3187 C   0  0  0  0  0  0  0  0  0  0  0  0
   10.9296   13.0281    5.1445 N   0  0  0  0  0  0  0  0  0  0  0  0
  1  2  1  0  0  0  0
  1  6  1  0  0  0  0
  2  3  2  0  0  0  0
  3  4  1  0  0  0  0
  4  5  2  0  0  0  0
  4 10  1  0  0  0  0
  5  6  1  0  0  0  0
  5  8  1  0  0  0  0
  6  7  2  0  0  0  0
  8  9  1  0  0  0  0
  9 10  2  0  0  0  0
M  END
>  <CHROM.1>
11.46284250,11.62884691,6.71799211,0.34293207,-1.32174931,0.79683843

>  <Name>
ligand

>  <RI>
0

>  <Rbt.Current_Directory>
/home/itssahil/PROJECTS/Mol_Feturizer/New_Systems/rnas/4FEJ

>  <Rbt.Executable>
rbdock ($Id: //depot/dev/client3/rdock/2013.1/src/exe/rbdock.cxx#4 $)

>  <Rbt.Library>
libRbt.so (2013.1, Build901 2013/11/27)

>  <Rbt.Parameter_File>
/export/apps/rDock/src/rDock_2013.1_src/data/scripts/dock_solv.prm

>  <Rbt.Receptor>
prm/pocket_docking_4.prm

>  <SCORE>
-17.4579

>  <SCORE.INTER>
-17.4579

>  <SCORE.INTER.CONST>
1

>  <SCORE.INTER.POLAR>
0

>  <SCORE.INTER.ROT>
0

>  <SCORE.INTER.SOLV>
3.86317

>  <SCORE.INTER.VDW>
-16.5263

>  <SCORE.INTER.norm>
-1.74579

>  <SCORE.INTRA>
0

>  <SCORE.INTRA.DIHEDRAL>
0

>  <SCORE.INTRA.DIHEDRAL.0>
0

>  <SCORE.INTRA.POLAR>
0

>  <SCORE.INTRA.POLAR.0>
0

>  <SCORE.INTRA.REPUL>
0

>  <SCORE.INTRA.REPUL.0>
0

>  <SCORE.INTRA.SOLV>
0

>  <SCORE.INTRA.SOLV.lig_0>
-4.26631

>  <SCORE.INTRA.VDW>
0

>  <SCORE.INTRA.VDW.0>
0

>  <SCORE.INTRA.norm>
0

>  <SCORE.RESTR>
0

>  <SCORE.RESTR.CAVITY>
0

>  <SCORE.RESTR.norm>
0

>  <SCORE.SYSTEM>
0

>  <SCORE.SYSTEM.CONST>
0

>  <SCORE.SYSTEM.DIHEDRAL>
0

>  <SCORE.SYSTEM.SOLV>
0

>  <SCORE.SYSTEM.norm>
0

>  <SCORE.heavy>
10

>  <SCORE.norm>
-1.74579

>  <RMSD>
0.515

$$$$
ligand
 OpenBabel11021811493D
libRbt.so/2013.1/901 2013/11/27
 10 11  0  0  0  0  0  0  0  0999 V2000
   11.8722   11.3416    8.6013 N   0  0  0  0  0  0  0  0  0  0  0  0
   11.6444   12.6944    8.6201 C   0  0  0  0  0  0  0  0  0  0  0  0
   11.3247   13.3677    7.5032 N   0  0  0  0  0  0  0  0  0  0  0  0
   11.2552   12.5893    6.4034 C   0  0  0  0  0  0  0  0  0  0  0  0
   11.4728   11.2317    6.3201 C   0  0  0  0  0  0  0  0  0  0  0  0
   11.8070   10.5068    7.4813 C   0  0  0  0  0  0  0  0  0  0  0  0
   12.0361    9.3129    7.6185 O   0  0  0  0  0  0  0  0  0  0  0  0
   11.2998   10.8382    5.0254 N   0  0  0  0  0  0  0  0  0  0  0  0
   10.9816   11.9485    4.3272 C   0  0  0  0  0  0  0  0  0  0  0  0
   10.9485   13.0448    5.1504 N   0  0  0  0  0  0  0  0  0  0  0  0
  1  2  1  0  0  0  0
  1  6  1  0  0  0  0
  2  3  2  0  0  0  0
  3  4  1  0  0  0  0
  4  5  2  0  0  0  0
  4 10  1  0  0  0  0
  5  6  1  0  0  0  0
  5  8  1  0  0  0  0
  6  7  2  0  0  0  0
  8  9  1  0  0  0  0
  9 10  2  0  0  0  0
M  END
>  <CHROM.1>
11.47527053,11.64368945,6.72451932,0.29391110,-1.32537922,0.74673656

>  <Name>
ligand

>  <RI>
0

>  <Rbt.Current_Directory>
/home/itssahil/PROJECTS/Mol_Feturizer/New_Systems/rnas/4FEJ

>  <Rbt.Executable>
rbdock ($Id: //depot/dev/client3/rdock/2013.1/src/exe/rbdock.cxx#4 $)

>  <Rbt.Library>
libRbt.so (2013.1, Build901 2013/11/27)

>  <Rbt.Parameter_File>
/export/apps/rDock/src/rDock_2013.1_src/data/scripts/dock_solv.prm

>  <Rbt.Receptor>
prm/pocket_docking_5.prm

>  <SCORE>
-17.4445

>  <SCORE.INTER>
-17.4445

>  <SCORE.INTER.CONST>
1

>  <SCORE.INTER.POLAR>
0

>  <SCORE.INTER.ROT>
0

>  <SCORE.INTER.SOLV>
3.8799

>  <SCORE.INTER.VDW>
-16.523

>  <SCORE.INTER.norm>
-1.74445

>  <SCORE.INTRA>
0

>  <SCORE.INTRA.DIHEDRAL>
0

>  <SCORE.INTRA.DIHEDRAL.0>
0

>  <SCORE.INTRA.POLAR>
0

>  <SCORE.INTRA.POLAR.0>
0

>  <SCORE.INTRA.REPUL>
0

>  <SCORE.INTRA.REPUL.0>
0

>  <SCORE.INTRA.SOLV>
0

>  <SCORE.INTRA.SOLV.lig_0>
-4.26631

>  <SCORE.INTRA.VDW>
0

>  <SCORE.INTRA.VDW.0>
0

>  <SCORE.INTRA.norm>
0

>  <SCORE.RESTR>
0

>  <SCORE.RESTR.CAVITY>
0

>  <SCORE.RESTR.norm>
0

>  <SCORE.SYSTEM>
0

>  <SCORE.SYSTEM.CONST>
0

>  <SCORE.SYSTEM.DIHEDRAL>
0

>  <SCORE.SYSTEM.SOLV>
0

>  <SCORE.SYSTEM.norm>
0

>  <SCORE.heavy>
10

>  <SCORE.norm>
-1.74445

>  <RMSD>
0.515

$$$$
ligand
 OpenBabel11021811493D
libRbt.so/2013.1/901 2013/11/27
 10 11  0  0  0  0  0  0  0  0999 V2000
   11.8504   11.3349    8.6227 N   0  0  0  0  0  0  0  0  0  0  0  0
   11.6210   12.6876    8.6182 C   0  0  0  0  0  0  0  0  0  0  0  0
   11.3056   13.3420    7.4889 N   0  0  0  0  0  0  0  0  0  0  0  0
   11.2419   12.5455    6.4018 C   0  0  0  0  0  0  0  0  0  0  0  0
   11.4613   11.1870    6.3418 C   0  0  0  0  0  0  0  0  0  0  0  0
   11.7912   10.4817    7.5163 C   0  0  0  0  0  0  0  0  0  0  0  0
   12.0210    9.2905    7.6742 O   0  0  0  0  0  0  0  0  0  0  0  0
   11.2946   10.7719    5.0531 N   0  0  0  0  0  0  0  0  0  0  0  0
   10.9783   11.8702    4.3353 C   0  0  0  0  0  0  0  0  0  0  0  0
   10.9403   12.9799    5.1402 N   0  0  0  0  0  0  0  0  0  0  0  0
  1  2  1  0  0  0  0
  1  6  1  0  0  0  0
  2  3  2  0  0  0  0
  3  4  1  0  0  0  0
  4  5  2  0  0  0  0
  4 10  1  0  0  0  0
  5  6  1  0  0  0  0
  5  8  1  0  0  0  0
  6  7  2  0  0  0  0
  8  9  1  0  0  0  0
  9 10  2  0  0  0  0
M  END
>  <CHROM.1>
11.46155836,11.60556905,6.73944867,0.31003448,-1.32787382,0.74590125

>  <Name>
ligand

>  <RI>
0

>  <Rbt.Current_Directory>
/home/itssahil/PROJECTS/Mol_Feturizer/New_Systems/rnas/4FEJ

>  <Rbt.Executable>
rbdock ($Id: //depot/dev/client3/rdock/2013.1/src/exe/rbdock.cxx#4 $)

>  <Rbt.Library>
libRbt.so (2013.1, Build901 2013/11/27)

>  <Rbt.Parameter_File>
/export/apps/rDock/src/rDock_2013.1_src/data/scripts/dock_solv.prm

>  <Rbt.Receptor>
prm/pocket_docking_5.prm

>  <SCORE>
-17.4485

>  <SCORE.INTER>
-17.4485

>  <SCORE.INTER.CONST>
1

>  <SCORE.INTER.POLAR>
0

>  <SCORE.INTER.ROT>
0

>  <SCORE.INTER.SOLV>
3.91031

>  <SCORE.INTER.VDW>
-16.5358

>  <SCORE.INTER.norm>
-1.74485

>  <SCORE.INTRA>
0

>  <SCORE.INTRA.DIHEDRAL>
0

>  <SCORE.INTRA.DIHEDRAL.0>
0

>  <SCORE.INTRA.POLAR>
0

>  <SCORE.INTRA.POLAR.0>
0

>  <SCORE.INTRA.REPUL>
0

>  <SCORE.INTRA.REPUL.0>
0

>  <SCORE.INTRA.SOLV>
0

>  <SCORE.INTRA.SOLV.lig_0>
-4.26631

>  <SCORE.INTRA.VDW>
0

>  <SCORE.INTRA.VDW.0>
0

>  <SCORE.INTRA.norm>
0

>  <SCORE.RESTR>
0

>  <SCORE.RESTR.CAVITY>
0

>  <SCORE.RESTR.norm>
0

>  <SCORE.SYSTEM>
0

>  <SCORE.SYSTEM.CONST>
0

>  <SCORE.SYSTEM.DIHEDRAL>
0

>  <SCORE.SYSTEM.SOLV>
0

>  <SCORE.SYSTEM.norm>
0

>  <SCORE.heavy>
10

>  <SCORE.norm>
-1.74485

>  <RMSD>
0.515

$$$$
ligand
 OpenBabel11021811493D
libRbt.so/2013.1/901 2013/11/27
 10 11  0  0  0  0  0  0  0  0999 V2000
   11.8441   11.2960    8.5979 N   0  0  0  0  0  0  0  0  0  0  0  0
   11.6132   12.6484    8.6121 C   0  0  0  0  0  0  0  0  0  0  0  0
   11.2984   13.3182    7.4917 N   0  0  0  0  0  0  0  0  0  0  0  0
   11.2368   12.5369    6.3935 C   0  0  0  0  0  0  0  0  0  0  0  0
   11.4578   11.1796    6.3147 C   0  0  0  0  0  0  0  0  0  0  0  0
   11.7870   10.4583    7.4796 C   0  0  0  0  0  0  0  0  0  0  0  0
   12.0180    9.2652    7.6211 O   0  0  0  0  0  0  0  0  0  0  0  0
   11.2929   10.7824    5.0201 N   0  0  0  0  0  0  0  0  0  0  0  0
   10.9763   11.8903    4.3174 C   0  0  0  0  0  0  0  0  0  0  0  0
   10.9362   12.9886    5.1376 N   0  0  0  0  0  0  0  0  0  0  0  0
  1  2  1  0  0  0  0
  1  6  1  0  0  0  0
  2  3  2  0  0  0  0
  3  4  1  0  0  0  0
  4  5  2  0  0  0  0
  4 10  1  0  0  0  0
  5  6  1  0  0  0  0
  5  8  1  0  0  0  0
  6  7  2  0  0  0  0
  8  9  1  0  0  0  0
  9 10  2  0  0  0  0
M  END
>  <CHROM.1>
11.45709904,11.59257678,6.71817263,0.31655411,-1.32797789,0.76621036

>  <Name>
ligand

>  <RI>
0

>  <Rbt.Current_Directory>
/home/itssahil/PROJECTS/Mol_Feturizer/New_Systems/rnas/4FEJ

>  <Rbt.Executable>
rbdock ($Id: //depot/dev/client3/rdock/2013.1/src/exe/rbdock.cxx#4 $)

>  <Rbt.Library>
libRbt.so (2013.1, Build901 2013/11/27)

>  <Rbt.Parameter_File>
/export/apps/rDock/src/rDock_2013.1_src/data/scripts/dock_solv.prm

>  <Rbt.Receptor>
prm/pocket_docking_6.prm

>  <SCORE>
-17.4474

>  <SCORE.INTER>
-17.4474

>  <SCORE.INTER.CONST>
1

>  <SCORE.INTER.POLAR>
0

>  <SCORE.INTER.ROT>
0

>  <SCORE.INTER.SOLV>
3.89395

>  <SCORE.INTER.VDW>
-16.5296

>  <SCORE.INTER.norm>
-1.74474

>  <SCORE.INTRA>
0

>  <SCORE.INTRA.DIHEDRAL>
0

>  <SCORE.INTRA.DIHEDRAL.0>
0

>  <SCORE.INTRA.POLAR>
0

>  <SCORE.INTRA.POLAR.0>
0

>  <SCORE.INTRA.REPUL>
0

>  <SCORE.INTRA.REPUL.0>
0

>  <SCORE.INTRA.SOLV>
0

>  <SCORE.INTRA.SOLV.lig_0>
-4.26631

>  <SCORE.INTRA.VDW>
0

>  <SCORE.INTRA.VDW.0>
0

>  <SCORE.INTRA.norm>
0

>  <SCORE.RESTR>
0

>  <SCORE.RESTR.CAVITY>
0

>  <SCORE.RESTR.norm>
0

>  <SCORE.SYSTEM>
0

>  <SCORE.SYSTEM.CONST>
0

>  <SCORE.SYSTEM.DIHEDRAL>
0

>  <SCORE.SYSTEM.SOLV>
0

>  <SCORE.SYSTEM.norm>
0

>  <SCORE.heavy>
10

>  <SCORE.norm>
-1.74474

>  <RMSD>
0.515

$$$$
ligand
 OpenBabel11021811493D
libRbt.so/2013.1/901 2013/11/27
 10 11  0  0  0  0  0  0  0  0999 V2000
   11.8584   11.3092    8.6049 N   0  0  0  0  0  0  0  0  0  0  0  0
   11.6440   12.6643    8.6154 C   0  0  0  0  0  0  0  0  0  0  0  0
   11.3251   13.3329    7.4955 N   0  0  0  0  0  0  0  0  0  0  0  0
   11.2421   12.5477    6.4016 C   0  0  0  0  0  0  0  0  0  0  0  0
   11.4458   11.1875    6.3265 C   0  0  0  0  0  0  0  0  0  0  0  0
   11.7790   10.4673    7.4910 C   0  0  0  0  0  0  0  0  0  0  0  0
   11.9971    9.2722    7.6353 O   0  0  0  0  0  0  0  0  0  0  0  0
   11.2620   10.7867    5.0356 N   0  0  0  0  0  0  0  0  0  0  0  0
   10.9510   11.8953    4.3314 C   0  0  0  0  0  0  0  0  0  0  0  0
   10.9331   12.9975    5.1471 N   0  0  0  0  0  0  0  0  0  0  0  0
  1  2  1  0  0  0  0
  1  6  1  0  0  0  0
  2  3  2  0  0  0  0
  3  4  1  0  0  0  0
  4  5  2  0  0  0  0
  4 10  1  0  0  0  0
  5  6  1  0  0  0  0
  5  8  1  0  0  0  0
  6  7  2  0  0  0  0
  8  9  1  0  0  0  0
  9 10  2  0  0  0  0
M  END
>  <CHROM.1>
11.45448317,11.60219812,6.72810699,0.24879855,-1.32791262,0.69601663

>  <Name>
ligand

>  <RI>
0

>  <Rbt.Current_Directory>
/home/itssahil/PROJECTS/Mol_Feturizer/New_Systems/rnas/4FEJ

>  <Rbt.Executable>
rbdock ($Id: //depot/dev/client3/rdock/2013.1/src/exe/rbdock.cxx#4 $)

>  <Rbt.Library>
libRbt.so (2013.1, Build901 2013/11/27)

>  <Rbt.Parameter_File>
/export/apps/rDock/src/rDock_2013.1_src/data/scripts/dock_solv.prm

>  <Rbt.Receptor>
prm/pocket_docking_6.prm

>  <SCORE>
-17.4385

>  <SCORE.INTER>
-17.4385

>  <SCORE.INTER.CONST>
1

>  <SCORE.INTER.POLAR>
0

>  <SCORE.INTER.ROT>
0

>  <SCORE.INTER.SOLV>
3.91233

>  <SCORE.INTER.VDW>
-16.5297

>  <SCORE.INTER.norm>
-1.74385

>  <SCORE.INTRA>
0

>  <SCORE.INTRA.DIHEDRAL>
0

>  <SCORE.INTRA.DIHEDRAL.0>
0

>  <SCORE.INTRA.POLAR>
0

>  <SCORE.INTRA.POLAR.0>
0

>  <SCORE.INTRA.REPUL>
0

>  <SCORE.INTRA.REPUL.0>
0

>  <SCORE.INTRA.SOLV>
0

>  <SCORE.INTRA.SOLV.lig_0>
-4.26631

>  <SCORE.INTRA.VDW>
0

>  <SCORE.INTRA.VDW.0>
0

>  <SCORE.INTRA.norm>
0

>  <SCORE.RESTR>
0

>  <SCORE.RESTR.CAVITY>
0

>  <SCORE.RESTR.norm>
0

>  <SCORE.SYSTEM>
0

>  <SCORE.SYSTEM.CONST>
0

>  <SCORE.SYSTEM.DIHEDRAL>
0

>  <SCORE.SYSTEM.SOLV>
0

>  <SCORE.SYSTEM.norm>
0

>  <SCORE.heavy>
10

>  <SCORE.norm>
-1.74385

>  <RMSD>
0.515

$$$$
ligand
 OpenBabel11021811493D
libRbt.so/2013.1/901 2013/11/27
 10 11  0  0  0  0  0  0  0  0999 V2000
   11.8745   11.4001    8.6334 N   0  0  0  0  0  0  0  0  0  0  0  0
   11.5997   12.7442    8.6152 C   0  0  0  0  0  0  0  0  0  0  0  0
   11.2733   13.3782    7.4774 N   0  0  0  0  0  0  0  0  0  0  0  0
   11.2469   12.5710    6.3966 C   0  0  0  0  0  0  0  0  0  0  0  0
   11.5125   11.2203    6.3504 C   0  0  0  0  0  0  0  0  0  0  0  0
   11.8546   10.5363    7.5339 C   0  0  0  0  0  0  0  0  0  0  0  0
   12.1229    9.3548    7.7041 O   0  0  0  0  0  0  0  0  0  0  0  0
   11.3722   10.7892    5.0637 N   0  0  0  0  0  0  0  0  0  0  0  0
   11.0260   11.8702    4.3336 C   0  0  0  0  0  0  0  0  0  0  0  0
   10.9430   12.9846    5.1285 N   0  0  0  0  0  0  0  0  0  0  0  0
  1  2  1  0  0  0  0
  1  6  1  0  0  0  0
  2  3  2  0  0  0  0
  3  4  1  0  0  0  0
  4  5  2  0  0  0  0
  4 10  1  0  0  0  0
  5  6  1  0  0  0  0
  5  8  1  0  0  0  0
  6  7  2  0  0  0  0
  8  9  1  0  0  0  0
  9 10  2  0  0  0  0
M  END
>  <CHROM.1>
11.49484615,11.64191673,6.74434879,0.43158742,-1.31024609,0.85519690

>  <Name>
ligand

>  <RI>
0

>  <Rbt.Current_Directory>
/home/itssahil/PROJECTS/Mol_Feturizer/New_Systems/rnas/4FEJ

>  <Rbt.Executable>
rbdock ($Id: //depot/dev/client3/rdock/2013.1/src/exe/rbdock.cxx#4 $)

>  <Rbt.Library>
libRbt.so (2013.1, Build901 2013/11/27)

>  <Rbt.Parameter_File>
/export/apps/rDock/src/rDock_2013.1_src/data/scripts/dock_solv.prm

>  <Rbt.Receptor>
prm/pocket_docking_8.prm

>  <SCORE>
-17.4278

>  <SCORE.INTER>
-17.4278

>  <SCORE.INTER.CONST>
1

>  <SCORE.INTER.POLAR>
0

>  <SCORE.INTER.ROT>
0

>  <SCORE.INTER.SOLV>
3.8394

>  <SCORE.INTER.VDW>
-16.4983

>  <SCORE.INTER.norm>
-1.74278

>  <SCORE.INTRA>
0

>  <SCORE.INTRA.DIHEDRAL>
0

>  <SCORE.INTRA.DIHEDRAL.0>
0

>  <SCORE.INTRA.POLAR>
0

>  <SCORE.INTRA.POLAR.0>
0

>  <SCORE.INTRA.REPUL>
0

>  <SCORE.INTRA.REPUL.0>
0

>  <SCORE.INTRA.SOLV>
0

>  <SCORE.INTRA.SOLV.lig_0>
-4.26631

>  <SCORE.INTRA.VDW>
0

>  <SCORE.INTRA.VDW.0>
0

>  <SCORE.INTRA.norm>
0

>  <SCORE.RESTR>
0

>  <SCORE.RESTR.CAVITY>
0

>  <SCORE.RESTR.norm>
0

>  <SCORE.SYSTEM>
0

>  <SCORE.SYSTEM.CONST>
0

>  <SCORE.SYSTEM.DIHEDRAL>
0

>  <SCORE.SYSTEM.SOLV>
0

>  <SCORE.SYSTEM.norm>
0

>  <SCORE.heavy>
10

>  <SCORE.norm>
-1.74278

>  <RMSD>
0.515

$$$$
ligand
 OpenBabel11021811493D
libRbt.so/2013.1/901 2013/11/27
 10 11  0  0  0  0  0  0  0  0999 V2000
   11.8800   11.3641    8.6161 N   0  0  0  0  0  0  0  0  0  0  0  0
   11.6410   12.7151    8.6114 C   0  0  0  0  0  0  0  0  0  0  0  0
   11.3136   13.3658    7.4834 N   0  0  0  0  0  0  0  0  0  0  0  0
   11.2485   12.5675    6.3977 C   0  0  0  0  0  0  0  0  0  0  0  0
   11.4772   11.2106    6.3379 C   0  0  0  0  0  0  0  0  0  0  0  0
   11.8196   10.5091    7.5111 C   0  0  0  0  0  0  0  0  0  0  0  0
   12.0589    9.3198    7.6689 O   0  0  0  0  0  0  0  0  0  0  0  0
   11.3050   10.7927    5.0508 N   0  0  0  0  0  0  0  0  0  0  0  0
   10.9762   11.8878    4.3337 C   0  0  0  0  0  0  0  0  0  0  0  0
   10.9356   12.9983    5.1375 N   0  0  0  0  0  0  0  0  0  0  0  0
  1  2  1  0  0  0  0
  1  6  1  0  0  0  0
  2  3  2  0  0  0  0
  3  4  1  0  0  0  0
  4  5  2  0  0  0  0
  4 10  1  0  0  0  0
  5  6  1  0  0  0  0
  5  8  1  0  0  0  0
  6  7  2  0  0  0  0
  8  9  1  0  0  0  0
  9 10  2  0  0  0  0
M  END
>  <CHROM.1>
11.47701455,11.62964864,6.73502418,0.31321106,-1.31828100,0.74774229

>  <Name>
ligand

>  <RI>
0

>  <Rbt.Current_Directory>
/home/itssahil/PROJECTS/Mol_Feturizer/New_Systems/rnas/4FEJ

>  <Rbt.Executable>
rbdock ($Id: //depot/dev/client3/rdock/2013.1/src/exe/rbdock.cxx#4 $)

>  <Rbt.Library>
libRbt.so (2013.1, Build901 2013/11/27)

>  <Rbt.Parameter_File>
/export/apps/rDock/src/rDock_2013.1_src/data/scripts/dock_solv.prm

>  <Rbt.Receptor>
prm/pocket_docking_8.prm

>  <SCORE>
-17.4488

>  <SCORE.INTER>
-17.4488

>  <SCORE.INTER.CONST>
1

>  <SCORE.INTER.POLAR>
0

>  <SCORE.INTER.ROT>
0

>  <SCORE.INTER.SOLV>
3.87615

>  <SCORE.INTER.VDW>
-16.5246

>  <SCORE.INTER.norm>
-1.74488

>  <SCORE.INTRA>
0

>  <SCORE.INTRA.DIHEDRAL>
0

>  <SCORE.INTRA.DIHEDRAL.0>
0

>  <SCORE.INTRA.POLAR>
0

>  <SCORE.INTRA.POLAR.0>
0

>  <SCORE.INTRA.REPUL>
0

>  <SCORE.INTRA.REPUL.0>
0

>  <SCORE.INTRA.SOLV>
0

>  <SCORE.INTRA.SOLV.lig_0>
-4.26631

>  <SCORE.INTRA.VDW>
0

>  <SCORE.INTRA.VDW.0>
0

>  <SCORE.INTRA.norm>
0

>  <SCORE.RESTR>
0

>  <SCORE.RESTR.CAVITY>
0

>  <SCORE.RESTR.norm>
0

>  <SCORE.SYSTEM>
0

>  <SCORE.SYSTEM.CONST>
0

>  <SCORE.SYSTEM.DIHEDRAL>
0

>  <SCORE.SYSTEM.SOLV>
0

>  <SCORE.SYSTEM.norm>
0

>  <SCORE.heavy>
10

>  <SCORE.norm>
-1.74488

>  <RMSD>
0.515

$$$$
ligand
 OpenBabel11021811493D
libRbt.so/2013.1/901 2013/11/27
 10 11  0  0  0  0  0  0  0  0999 V2000
   11.8572   11.3287    8.5968 N   0  0  0  0  0  0  0  0  0  0  0  0
   11.6159   12.6792    8.6151 C   0  0  0  0  0  0  0  0  0  0  0  0
   11.2960   13.3500    7.4967 N   0  0  0  0  0  0  0  0  0  0  0  0
   11.2405   12.5716    6.3961 C   0  0  0  0  0  0  0  0  0  0  0  0
   11.4718   11.2163    6.3132 C   0  0  0  0  0  0  0  0  0  0  0  0
   11.8065   10.4940    7.4759 C   0  0  0  0  0  0  0  0  0  0  0  0
   12.0466    9.3023    7.6138 O   0  0  0  0  0  0  0  0  0  0  0  0
   11.3101   10.8218    5.0174 N   0  0  0  0  0  0  0  0  0  0  0  0
   10.9850   11.9294    4.3180 C   0  0  0  0  0  0  0  0  0  0  0  0
   10.9364   13.0249    5.1416 N   0  0  0  0  0  0  0  0  0  0  0  0
  1  2  1  0  0  0  0
  1  6  1  0  0  0  0
  2  3  2  0  0  0  0
  3  4  1  0  0  0  0
  4  5  2  0  0  0  0
  4 10  1  0  0  0  0
  5  6  1  0  0  0  0
  5  8  1  0  0  0  0
  6  7  2  0  0  0  0
  8  9  1  0  0  0  0
  9 10  2  0  0  0  0
M  END
>  <CHROM.1>
11.46796491,11.62803211,6.71793369,0.33910287,-1.32263076,0.79114023

>  <Name>
ligand

>  <RI>
0

>  <Rbt.Current_Directory>
/home/itssahil/PROJECTS/Mol_Feturizer/New_Systems/rnas/4FEJ

>  <Rbt.Executable>
rbdock ($Id: //depot/dev/client3/rdock/2013.1/src/exe/rbdock.cxx#4 $)

>  <Rbt.Library>
libRbt.so (2013.1, Build901 2013/11/27)

>  <Rbt.Parameter_File>
/export/apps/rDock/src/rDock_2013.1_src/data/scripts/dock_solv.prm

>  <Rbt.Receptor>
prm/blind_docking_100.prm

>  <SCORE>
-17.4584

>  <SCORE.INTER>
-17.4584

>  <SCORE.INTER.CONST>
1

>  <SCORE.INTER.POLAR>
0

>  <SCORE.INTER.ROT>
0

>  <SCORE.INTER.SOLV>
3.86563

>  <SCORE.INTER.VDW>
-16.5274

>  <SCORE.INTER.norm>
-1.74584

>  <SCORE.INTRA>
0

>  <SCORE.INTRA.DIHEDRAL>
0

>  <SCORE.INTRA.DIHEDRAL.0>
0

>  <SCORE.INTRA.POLAR>
0

>  <SCORE.INTRA.POLAR.0>
0

>  <SCORE.INTRA.REPUL>
0

>  <SCORE.INTRA.REPUL.0>
0

>  <SCORE.INTRA.SOLV>
0

>  <SCORE.INTRA.SOLV.lig_0>
-4.26631

>  <SCORE.INTRA.VDW>
0

>  <SCORE.INTRA.VDW.0>
0

>  <SCORE.INTRA.norm>
0

>  <SCORE.RESTR>
0

>  <SCORE.RESTR.CAVITY>
0

>  <SCORE.RESTR.norm>
0

>  <SCORE.SYSTEM>
0

>  <SCORE.SYSTEM.CONST>
0

>  <SCORE.SYSTEM.DIHEDRAL>
0

>  <SCORE.SYSTEM.SOLV>
0

>  <SCORE.SYSTEM.norm>
0

>  <SCORE.heavy>
10

>  <SCORE.norm>
-1.74584

>  <RMSD>
0.516

$$$$
ligand
 OpenBabel11021811493D
libRbt.so/2013.1/901 2013/11/27
 10 11  0  0  0  0  0  0  0  0999 V2000
   11.8522   11.3715    8.6156 N   0  0  0  0  0  0  0  0  0  0  0  0
   11.5840   12.7170    8.6197 C   0  0  0  0  0  0  0  0  0  0  0  0
   11.2561   13.3705    7.4934 N   0  0  0  0  0  0  0  0  0  0  0  0
   11.2213   12.5807    6.4002 C   0  0  0  0  0  0  0  0  0  0  0  0
   11.4801   11.2296    6.3315 C   0  0  0  0  0  0  0  0  0  0  0  0
   11.8236   10.5253    7.5026 C   0  0  0  0  0  0  0  0  0  0  0  0
   12.0867    9.3400    7.6530 O   0  0  0  0  0  0  0  0  0  0  0  0
   11.3324   10.8196    5.0388 N   0  0  0  0  0  0  0  0  0  0  0  0
   10.9886   11.9137    4.3273 C   0  0  0  0  0  0  0  0  0  0  0  0
   10.9142   13.0158    5.1400 N   0  0  0  0  0  0  0  0  0  0  0  0
  1  2  1  0  0  0  0
  1  6  1  0  0  0  0
  2  3  2  0  0  0  0
  3  4  1  0  0  0  0
  4  5  2  0  0  0  0
  4 10  1  0  0  0  0
  5  6  1  0  0  0  0
  5  8  1  0  0  0  0
  6  7  2  0  0  0  0
  8  9  1  0  0  0  0
  9 10  2  0  0  0  0
M  END
>  <CHROM.1>
11.46606738,11.64500125,6.73213680,0.40698994,-1.31121656,0.84725033

>  <Name>
ligand

>  <RI>
0

>  <Rbt.Current_Directory>
/home/itssahil/PROJECTS/Mol_Feturizer/New_Systems/rnas/4FEJ

>  <Rbt.Executable>
rbdock ($Id: //depot/dev/client3/rdock/2013.1/src/exe/rbdock.cxx#4 $)

>  <Rbt.Library>
libRbt.so (2013.1, Build901 2013/11/27)

>  <Rbt.Parameter_File>
/export/apps/rDock/src/rDock_2013.1_src/data/scripts/dock_solv.prm

>  <Rbt.Receptor>
prm/blind_docking_100.prm

>  <SCORE>
-17.4741

>  <SCORE.INTER>
-17.4741

>  <SCORE.INTER.CONST>
1

>  <SCORE.INTER.POLAR>
0

>  <SCORE.INTER.ROT>
0

>  <SCORE.INTER.SOLV>
3.8361

>  <SCORE.INTER.VDW>
-16.5281

>  <SCORE.INTER.norm>
-1.74741

>  <SCORE.INTRA>
0

>  <SCORE.INTRA.DIHEDRAL>
0

>  <SCORE.INTRA.DIHEDRAL.0>
0

>  <SCORE.INTRA.POLAR>
0

>  <SCORE.INTRA.POLAR.0>
0

>  <SCORE.INTRA.REPUL>
0

>  <SCORE.INTRA.REPUL.0>
0

>  <SCORE.INTRA.SOLV>
0

>  <SCORE.INTRA.SOLV.lig_0>
-4.26631

>  <SCORE.INTRA.VDW>
0

>  <SCORE.INTRA.VDW.0>
0

>  <SCORE.INTRA.norm>
0

>  <SCORE.RESTR>
0

>  <SCORE.RESTR.CAVITY>
0

>  <SCORE.RESTR.norm>
0

>  <SCORE.SYSTEM>
0

>  <SCORE.SYSTEM.CONST>
0

>  <SCORE.SYSTEM.DIHEDRAL>
0

>  <SCORE.SYSTEM.SOLV>
0

>  <SCORE.SYSTEM.norm>
0

>  <SCORE.heavy>
10

>  <SCORE.norm>
-1.74741

>  <RMSD>
0.516

$$$$
ligand
 OpenBabel11021811493D
libRbt.so/2013.1/901 2013/11/27
 10 11  0  0  0  0  0  0  0  0999 V2000
   11.8366   11.3459    8.6276 N   0  0  0  0  0  0  0  0  0  0  0  0
   11.5980   12.6970    8.6232 C   0  0  0  0  0  0  0  0  0  0  0  0
   11.2867   13.3508    7.4923 N   0  0  0  0  0  0  0  0  0  0  0  0
   11.2367   12.5554    6.4037 C   0  0  0  0  0  0  0  0  0  0  0  0
   11.4659   11.1985    6.3436 C   0  0  0  0  0  0  0  0  0  0  0  0
   11.7915   10.4938    7.5196 C   0  0  0  0  0  0  0  0  0  0  0  0
   12.0283    9.3040    7.6777 O   0  0  0  0  0  0  0  0  0  0  0  0
   11.3118   10.7841    5.0531 N   0  0  0  0  0  0  0  0  0  0  0  0
   10.9935   11.8812    4.3343 C   0  0  0  0  0  0  0  0  0  0  0  0
   10.9418   12.9895    5.1404 N   0  0  0  0  0  0  0  0  0  0  0  0
  1  2  1  0  0  0  0
  1  6  1  0  0  0  0
  2  3  2  0  0  0  0
  3  4  1  0  0  0  0
  4  5  2  0  0  0  0
  4 10  1  0  0  0  0
  5  6  1  0  0  0  0
  5  8  1  0  0  0  0
  6  7  2  0  0  0  0
  8  9  1  0  0  0  0
  9 10  2  0  0  0  0
M  END
>  <CHROM.1>
11.46022276,11.61652061,6.74177030,0.35241697,-1.32863389,0.78839790

>  <Name>
ligand

>  <RI>
0

>  <Rbt.Current_Directory>
/home/itssahil/PROJECTS/Mol_Feturizer/New_Systems/rnas/4FEJ

>  <Rbt.Executable>
rbdock ($Id: //depot/dev/client3/rdock/2013.1/src/exe/rbdock.cxx#4 $)

>  <Rbt.Library>
libRbt.so (2013.1, Build901 2013/11/27)

>  <Rbt.Parameter_File>
/export/apps/rDock/src/rDock_2013.1_src/data/scripts/dock_solv.prm

>  <Rbt.Receptor>
prm/blind_docking_80.prm

>  <SCORE>
-17.4359

>  <SCORE.INTER>
-17.4359

>  <SCORE.INTER.CONST>
1

>  <SCORE.INTER.POLAR>
0

>  <SCORE.INTER.ROT>
0

>  <SCORE.INTER.SOLV>
3.90509

>  <SCORE.INTER.VDW>
-16.5256

>  <SCORE.INTER.norm>
-1.74359

>  <SCORE.INTRA>
0

>  <SCORE.INTRA.DIHEDRAL>
0

>  <SCORE.INTRA.DIHEDRAL.0>
0

>  <SCORE.INTRA.POLAR>
0

>  <SCORE.INTRA.POLAR.0>
0

>  <SCORE.INTRA.REPUL>
0

>  <SCORE.INTRA.REPUL.0>
0

>  <SCORE.INTRA.SOLV>
0

>  <SCORE.INTRA.SOLV.lig_0>
-4.26631

>  <SCORE.INTRA.VDW>
0

>  <SCORE.INTRA.VDW.0>
0

>  <SCORE.INTRA.norm>
0

>  <SCORE.RESTR>
0

>  <SCORE.RESTR.CAVITY>
0

>  <SCORE.RESTR.norm>
0

>  <SCORE.SYSTEM>
0

>  <SCORE.SYSTEM.CONST>
0

>  <SCORE.SYSTEM.DIHEDRAL>
0

>  <SCORE.SYSTEM.SOLV>
0

>  <SCORE.SYSTEM.norm>
0

>  <SCORE.heavy>
10

>  <SCORE.norm>
-1.74359

>  <RMSD>
0.516

$$$$
ligand
 OpenBabel11021811493D
libRbt.so/2013.1/901 2013/11/27
 10 11  0  0  0  0  0  0  0  0999 V2000
   11.8651   11.3628    8.6091 N   0  0  0  0  0  0  0  0  0  0  0  0
   11.6019   12.7093    8.6087 C   0  0  0  0  0  0  0  0  0  0  0  0
   11.2690   13.3588    7.4816 N   0  0  0  0  0  0  0  0  0  0  0  0
   11.2242   12.5641    6.3923 C   0  0  0  0  0  0  0  0  0  0  0  0
   11.4775   11.2117    6.3282 C   0  0  0  0  0  0  0  0  0  0  0  0
   11.8261   10.5116    7.5003 C   0  0  0  0  0  0  0  0  0  0  0  0
   12.0859    9.3260    7.6545 O   0  0  0  0  0  0  0  0  0  0  0  0
   11.3198   10.7963    5.0384 N   0  0  0  0  0  0  0  0  0  0  0  0
   10.9754   11.8883    4.3241 C   0  0  0  0  0  0  0  0  0  0  0  0
   10.9104   12.9944    5.1321 N   0  0  0  0  0  0  0  0  0  0  0  0
  1  2  1  0  0  0  0
  1  6  1  0  0  0  0
  2  3  2  0  0  0  0
  3  4  1  0  0  0  0
  4  5  2  0  0  0  0
  4 10  1  0  0  0  0
  5  6  1  0  0  0  0
  5  8  1  0  0  0  0
  6  7  2  0  0  0  0
  8  9  1  0  0  0  0
  9 10  2  0  0  0  0
M  END
>  <CHROM.1>
11.46765066,11.62903006,6.72698144,0.37857393,-1.30950816,0.81513602

>  <Name>
ligand

>  <RI>
0

>  <Rbt.Current_Directory>
/home/itssahil/PROJECTS/Mol_Feturizer/New_Systems/rnas/4FEJ

>  <Rbt.Executable>
rbdock ($Id: //depot/dev/client3/rdock/2013.1/src/exe/rbdock.cxx#4 $)

>  <Rbt.Library>
libRbt.so (2013.1, Build901 2013/11/27)

>  <Rbt.Parameter_File>
/export/apps/rDock/src/rDock_2013.1_src/data/scripts/dock_solv.prm

>  <Rbt.Receptor>
prm/pocket_docking_6.prm

>  <SCORE>
-17.4482

>  <SCORE.INTER>
-17.4482

>  <SCORE.INTER.CONST>
1

>  <SCORE.INTER.POLAR>
0

>  <SCORE.INTER.ROT>
0

>  <SCORE.INTER.SOLV>
3.83695

>  <SCORE.INTER.VDW>
-16.5111

>  <SCORE.INTER.norm>
-1.74482

>  <SCORE.INTRA>
0

>  <SCORE.INTRA.DIHEDRAL>
0

>  <SCORE.INTRA.DIHEDRAL.0>
0

>  <SCORE.INTRA.POLAR>
0

>  <SCORE.INTRA.POLAR.0>
0

>  <SCORE.INTRA.REPUL>
0

>  <SCORE.INTRA.REPUL.0>
0

>  <SCORE.INTRA.SOLV>
0

>  <SCORE.INTRA.SOLV.lig_0>
-4.26631

>  <SCORE.INTRA.VDW>
0

>  <SCORE.INTRA.VDW.0>
0

>  <SCORE.INTRA.norm>
0

>  <SCORE.RESTR>
0

>  <SCORE.RESTR.CAVITY>
0

>  <SCORE.RESTR.norm>
0

>  <SCORE.SYSTEM>
0

>  <SCORE.SYSTEM.CONST>
0

>  <SCORE.SYSTEM.DIHEDRAL>
0

>  <SCORE.SYSTEM.SOLV>
0

>  <SCORE.SYSTEM.norm>
0

>  <SCORE.heavy>
10

>  <SCORE.norm>
-1.74482

>  <RMSD>
0.516

$$$$
ligand
 OpenBabel11021811493D
libRbt.so/2013.1/901 2013/11/27
 10 11  0  0  0  0  0  0  0  0999 V2000
   11.8609   11.4094    8.6384 N   0  0  0  0  0  0  0  0  0  0  0  0
   11.5756   12.7513    8.6212 C   0  0  0  0  0  0  0  0  0  0  0  0
   11.2440   13.3836    7.4839 N   0  0  0  0  0  0  0  0  0  0  0  0
   11.2238   12.5770    6.4026 C   0  0  0  0  0  0  0  0  0  0  0  0
   11.4999   11.2284    6.3553 C   0  0  0  0  0  0  0  0  0  0  0  0
   11.8476   10.5462    7.5383 C   0  0  0  0  0  0  0  0  0  0  0  0
   12.1251    9.3668    7.7076 O   0  0  0  0  0  0  0  0  0  0  0  0
   11.3627   10.7972    5.0684 N   0  0  0  0  0  0  0  0  0  0  0  0
   11.0080   11.8759    4.3391 C   0  0  0  0  0  0  0  0  0  0  0  0
   10.9163   12.9891    5.1348 N   0  0  0  0  0  0  0  0  0  0  0  0
  1  2  1  0  0  0  0
  1  6  1  0  0  0  0
  2  3  2  0  0  0  0
  3  4  1  0  0  0  0
  4  5  2  0  0  0  0
  4 10  1  0  0  0  0
  5  6  1  0  0  0  0
  5  8  1  0  0  0  0
  6  7  2  0  0  0  0
  8  9  1  0  0  0  0
  9 10  2  0  0  0  0
M  END
>  <CHROM.1>
11.47900763,11.64961005,6.74957748,0.45050326,-1.30416603,0.87417225

>  <Name>
ligand

>  <RI>
0

>  <Rbt.Current_Directory>
/home/itssahil/PROJECTS/Mol_Feturizer/New_Systems/rnas/4FEJ

>  <Rbt.Executable>
rbdock ($Id: //depot/dev/client3/rdock/2013.1/src/exe/rbdock.cxx#4 $)

>  <Rbt.Library>
libRbt.so (2013.1, Build901 2013/11/27)

>  <Rbt.Parameter_File>
/export/apps/rDock/src/rDock_2013.1_src/data/scripts/dock_solv.prm

>  <Rbt.Receptor>
prm/pocket_docking_7.prm

>  <SCORE>
-17.4812

>  <SCORE.INTER>
-17.4812

>  <SCORE.INTER.CONST>
1

>  <SCORE.INTER.POLAR>
0

>  <SCORE.INTER.ROT>
0

>  <SCORE.INTER.SOLV>
3.82502

>  <SCORE.INTER.VDW>
-16.5291

>  <SCORE.INTER.norm>
-1.74812

>  <SCORE.INTRA>
0

>  <SCORE.INTRA.DIHEDRAL>
0

>  <SCORE.INTRA.DIHEDRAL.0>
0

>  <SCORE.INTRA.POLAR>
0

>  <SCORE.INTRA.POLAR.0>
0

>  <SCORE.INTRA.REPUL>
0

>  <SCORE.INTRA.REPUL.0>
0

>  <SCORE.INTRA.SOLV>
0

>  <SCORE.INTRA.SOLV.lig_0>
-4.26631

>  <SCORE.INTRA.VDW>
0

>  <SCORE.INTRA.VDW.0>
0

>  <SCORE.INTRA.norm>
0

>  <SCORE.RESTR>
0

>  <SCORE.RESTR.CAVITY>
0

>  <SCORE.RESTR.norm>
0

>  <SCORE.SYSTEM>
0

>  <SCORE.SYSTEM.CONST>
0

>  <SCORE.SYSTEM.DIHEDRAL>
0

>  <SCORE.SYSTEM.SOLV>
0

>  <SCORE.SYSTEM.norm>
0

>  <SCORE.heavy>
10

>  <SCORE.norm>
-1.74812

>  <RMSD>
0.516

$$$$
ligand
 OpenBabel11021811493D
libRbt.so/2013.1/901 2013/11/27
 10 11  0  0  0  0  0  0  0  0999 V2000
   11.8616   11.3129    8.5939 N   0  0  0  0  0  0  0  0  0  0  0  0
   11.6374   12.6663    8.6141 C   0  0  0  0  0  0  0  0  0  0  0  0
   11.3215   13.3418    7.4974 N   0  0  0  0  0  0  0  0  0  0  0  0
   11.2517   12.5650    6.3966 C   0  0  0  0  0  0  0  0  0  0  0  0
   11.4657   11.2070    6.3118 C   0  0  0  0  0  0  0  0  0  0  0  0
   11.7960   10.4797    7.4727 C   0  0  0  0  0  0  0  0  0  0  0  0
   12.0216    9.2850    7.6088 O   0  0  0  0  0  0  0  0  0  0  0  0
   11.2939   10.8155    5.0164 N   0  0  0  0  0  0  0  0  0  0  0  0
   10.9799   11.9276    4.3191 C   0  0  0  0  0  0  0  0  0  0  0  0
   10.9484   13.0230    5.1436 N   0  0  0  0  0  0  0  0  0  0  0  0
  1  2  1  0  0  0  0
  1  6  1  0  0  0  0
  2  3  2  0  0  0  0
  3  4  1  0  0  0  0
  4  5  2  0  0  0  0
  4 10  1  0  0  0  0
  5  6  1  0  0  0  0
  5  8  1  0  0  0  0
  6  7  2  0  0  0  0
  8  9  1  0  0  0  0
  9 10  2  0  0  0  0
M  END
>  <CHROM.1>
11.46865825,11.61843836,6.71683640,0.29047238,-1.32848245,0.74467268

>  <Name>
ligand

>  <RI>
0

>  <Rbt.Current_Directory>
/home/itssahil/PROJECTS/Mol_Feturizer/New_Systems/rnas/4FEJ

>  <Rbt.Executable>
rbdock ($Id: //depot/dev/client3/rdock/2013.1/src/exe/rbdock.cxx#4 $)

>  <Rbt.Library>
libRbt.so (2013.1, Build901 2013/11/27)

>  <Rbt.Parameter_File>
/export/apps/rDock/src/rDock_2013.1_src/data/scripts/dock_solv.prm

>  <Rbt.Receptor>
prm/pocket_docking_8.prm

>  <SCORE>
-17.4472

>  <SCORE.INTER>
-17.4472

>  <SCORE.INTER.CONST>
1

>  <SCORE.INTER.POLAR>
0

>  <SCORE.INTER.ROT>
0

>  <SCORE.INTER.SOLV>
3.89032

>  <SCORE.INTER.VDW>
-16.5282

>  <SCORE.INTER.norm>
-1.74472

>  <SCORE.INTRA>
0

>  <SCORE.INTRA.DIHEDRAL>
0

>  <SCORE.INTRA.DIHEDRAL.0>
0

>  <SCORE.INTRA.POLAR>
0

>  <SCORE.INTRA.POLAR.0>
0

>  <SCORE.INTRA.REPUL>
0

>  <SCORE.INTRA.REPUL.0>
0

>  <SCORE.INTRA.SOLV>
0

>  <SCORE.INTRA.SOLV.lig_0>
-4.26631

>  <SCORE.INTRA.VDW>
0

>  <SCORE.INTRA.VDW.0>
0

>  <SCORE.INTRA.norm>
0

>  <SCORE.RESTR>
0

>  <SCORE.RESTR.CAVITY>
0

>  <SCORE.RESTR.norm>
0

>  <SCORE.SYSTEM>
0

>  <SCORE.SYSTEM.CONST>
0

>  <SCORE.SYSTEM.DIHEDRAL>
0

>  <SCORE.SYSTEM.SOLV>
0

>  <SCORE.SYSTEM.norm>
0

>  <SCORE.heavy>
10

>  <SCORE.norm>
-1.74472

>  <RMSD>
0.516

$$$$
ligand
 OpenBabel11021811493D
libRbt.so/2013.1/901 2013/11/27
 10 11  0  0  0  0  0  0  0  0999 V2000
   11.8397   11.3684    8.6191 N   0  0  0  0  0  0  0  0  0  0  0  0
   11.5722   12.7140    8.6253 C   0  0  0  0  0  0  0  0  0  0  0  0
   11.2488   13.3703    7.4993 N   0  0  0  0  0  0  0  0  0  0  0  0
   11.2176   12.5830    6.4042 C   0  0  0  0  0  0  0  0  0  0  0  0
   11.4758   11.2318    6.3334 C   0  0  0  0  0  0  0  0  0  0  0  0
   11.8146   10.5247    7.5042 C   0  0  0  0  0  0  0  0  0  0  0  0
   12.0766    9.3389    7.6529 O   0  0  0  0  0  0  0  0  0  0  0  0
   11.3327   10.8249    5.0392 N   0  0  0  0  0  0  0  0  0  0  0  0
   10.9921   11.9208    4.3289 C   0  0  0  0  0  0  0  0  0  0  0  0
   10.9154   13.0210    5.1439 N   0  0  0  0  0  0  0  0  0  0  0  0
  1  2  1  0  0  0  0
  1  6  1  0  0  0  0
  2  3  2  0  0  0  0
  3  4  1  0  0  0  0
  4  5  2  0  0  0  0
  4 10  1  0  0  0  0
  5  6  1  0  0  0  0
  5  8  1  0  0  0  0
  6  7  2  0  0  0  0
  8  9  1  0  0  0  0
  9 10  2  0  0  0  0
M  END
>  <CHROM.1>
11.46058471,11.64636634,6.73491598,0.41637000,-1.31405789,0.85856929

>  <Name>
ligand

>  <RI>
0

>  <Rbt.Current_Directory>
/home/itssahil/PROJECTS/Mol_Feturizer/New_Systems/rnas/4FEJ

>  <Rbt.Executable>
rbdock ($Id: //depot/dev/client3/rdock/2013.1/src/exe/rbdock.cxx#4 $)

>  <Rbt.Library>
libRbt.so (2013.1, Build901 2013/11/27)

>  <Rbt.Parameter_File>
/export/apps/rDock/src/rDock_2013.1_src/data/scripts/dock_solv.prm

>  <Rbt.Receptor>
prm/pocket_docking_8.prm

>  <SCORE>
-17.4766

>  <SCORE.INTER>
-17.4766

>  <SCORE.INTER.CONST>
1

>  <SCORE.INTER.POLAR>
0

>  <SCORE.INTER.ROT>
0

>  <SCORE.INTER.SOLV>
3.84383

>  <SCORE.INTER.VDW>
-16.5323

>  <SCORE.INTER.norm>
-1.74766

>  <SCORE.INTRA>
0

>  <SCORE.INTRA.DIHEDRAL>
0

>  <SCORE.INTRA.DIHEDRAL.0>
0

>  <SCORE.INTRA.POLAR>
0

>  <SCORE.INTRA.POLAR.0>
0

>  <SCORE.INTRA.REPUL>
0

>  <SCORE.INTRA.REPUL.0>
0

>  <SCORE.INTRA.SOLV>
0

>  <SCORE.INTRA.SOLV.lig_0>
-4.26631

>  <SCORE.INTRA.VDW>
0

>  <SCORE.INTRA.VDW.0>
0

>  <SCORE.INTRA.norm>
0

>  <SCORE.RESTR>
0

>  <SCORE.RESTR.CAVITY>
0

>  <SCORE.RESTR.norm>
0

>  <SCORE.SYSTEM>
0

>  <SCORE.SYSTEM.CONST>
0

>  <SCORE.SYSTEM.DIHEDRAL>
0

>  <SCORE.SYSTEM.SOLV>
0

>  <SCORE.SYSTEM.norm>
0

>  <SCORE.heavy>
10

>  <SCORE.norm>
-1.74766

>  <RMSD>
0.516

$$$$
ligand
 OpenBabel11021811493D
libRbt.so/2013.1/901 2013/11/27
 10 11  0  0  0  0  0  0  0  0999 V2000
   11.8528   11.3401    8.6209 N   0  0  0  0  0  0  0  0  0  0  0  0
   11.6256   12.6932    8.6171 C   0  0  0  0  0  0  0  0  0  0  0  0
   11.3073   13.3481    7.4889 N   0  0  0  0  0  0  0  0  0  0  0  0
   11.2384   12.5517    6.4021 C   0  0  0  0  0  0  0  0  0  0  0  0
   11.4554   11.1928    6.3414 C   0  0  0  0  0  0  0  0  0  0  0  0
   11.7882   10.4870    7.5147 C   0  0  0  0  0  0  0  0  0  0  0  0
   12.0167    9.2954    7.6718 O   0  0  0  0  0  0  0  0  0  0  0  0
   11.2834   10.7780    5.0533 N   0  0  0  0  0  0  0  0  0  0  0  0
   10.9664   11.8768    4.3365 C   0  0  0  0  0  0  0  0  0  0  0  0
   10.9331   12.9866    5.1415 N   0  0  0  0  0  0  0  0  0  0  0  0
  1  2  1  0  0  0  0
  1  6  1  0  0  0  0
  2  3  2  0  0  0  0
  3  4  1  0  0  0  0
  4  5  2  0  0  0  0
  4 10  1  0  0  0  0
  5  6  1  0  0  0  0
  5  8  1  0  0  0  0
  6  7  2  0  0  0  0
  8  9  1  0  0  0  0
  9 10  2  0  0  0  0
M  END
>  <CHROM.1>
11.45774608,11.61140902,6.73897889,0.29505727,-1.32636775,0.73133324

>  <Name>
ligand

>  <RI>
0

>  <Rbt.Current_Directory>
/home/itssahil/PROJECTS/Mol_Feturizer/New_Systems/rnas/4FEJ

>  <Rbt.Executable>
rbdock ($Id: //depot/dev/client3/rdock/2013.1/src/exe/rbdock.cxx#4 $)

>  <Rbt.Library>
libRbt.so (2013.1, Build901 2013/11/27)

>  <Rbt.Parameter_File>
/export/apps/rDock/src/rDock_2013.1_src/data/scripts/dock_solv.prm

>  <Rbt.Receptor>
prm/blind_docking_100.prm

>  <SCORE>
-17.4417

>  <SCORE.INTER>
-17.4417

>  <SCORE.INTER.CONST>
1

>  <SCORE.INTER.POLAR>
0

>  <SCORE.INTER.ROT>
0

>  <SCORE.INTER.SOLV>
3.90892

>  <SCORE.INTER.VDW>
-16.5308

>  <SCORE.INTER.norm>
-1.74417

>  <SCORE.INTRA>
0

>  <SCORE.INTRA.DIHEDRAL>
0

>  <SCORE.INTRA.DIHEDRAL.0>
0

>  <SCORE.INTRA.POLAR>
0

>  <SCORE.INTRA.POLAR.0>
0

>  <SCORE.INTRA.REPUL>
0

>  <SCORE.INTRA.REPUL.0>
0

>  <SCORE.INTRA.SOLV>
0

>  <SCORE.INTRA.SOLV.lig_0>
-4.26631

>  <SCORE.INTRA.VDW>
0

>  <SCORE.INTRA.VDW.0>
0

>  <SCORE.INTRA.norm>
0

>  <SCORE.RESTR>
0

>  <SCORE.RESTR.CAVITY>
0

>  <SCORE.RESTR.norm>
0

>  <SCORE.SYSTEM>
0

>  <SCORE.SYSTEM.CONST>
0

>  <SCORE.SYSTEM.DIHEDRAL>
0

>  <SCORE.SYSTEM.SOLV>
0

>  <SCORE.SYSTEM.norm>
0

>  <SCORE.heavy>
10

>  <SCORE.norm>
-1.74417

>  <RMSD>
0.517

$$$$
ligand
 OpenBabel11021811493D
libRbt.so/2013.1/901 2013/11/27
 10 11  0  0  0  0  0  0  0  0999 V2000
   11.8483   11.3150    8.6007 N   0  0  0  0  0  0  0  0  0  0  0  0
   11.6255   12.6686    8.6189 C   0  0  0  0  0  0  0  0  0  0  0  0
   11.3142   13.3435    7.5005 N   0  0  0  0  0  0  0  0  0  0  0  0
   11.2474   12.5658    6.4001 C   0  0  0  0  0  0  0  0  0  0  0  0
   11.4602   11.2074    6.3174 C   0  0  0  0  0  0  0  0  0  0  0  0
   11.7857   10.4808    7.4800 C   0  0  0  0  0  0  0  0  0  0  0  0
   12.0095    9.2860    7.6179 O   0  0  0  0  0  0  0  0  0  0  0  0
   11.2923   10.8150    5.0217 N   0  0  0  0  0  0  0  0  0  0  0  0
   10.9820   11.9268    4.3223 C   0  0  0  0  0  0  0  0  0  0  0  0
   10.9488   13.0229    5.1458 N   0  0  0  0  0  0  0  0  0  0  0  0
  1  2  1  0  0  0  0
  1  6  1  0  0  0  0
  2  3  2  0  0  0  0
  3  4  1  0  0  0  0
  4  5  2  0  0  0  0
  4 10  1  0  0  0  0
  5  6  1  0  0  0  0
  5  8  1  0  0  0  0
  6  7  2  0  0  0  0
  8  9  1  0  0  0  0
  9 10  2  0  0  0  0
M  END
>  <CHROM.1>
11.46217271,11.61926508,6.72200608,0.29686729,-1.33173062,0.74997850

>  <Name>
ligand

>  <RI>
0

>  <Rbt.Current_Directory>
/home/itssahil/PROJECTS/Mol_Feturizer/New_Systems/rnas/4FEJ

>  <Rbt.Executable>
rbdock ($Id: //depot/dev/client3/rdock/2013.1/src/exe/rbdock.cxx#4 $)

>  <Rbt.Library>
libRbt.so (2013.1, Build901 2013/11/27)

>  <Rbt.Parameter_File>
/export/apps/rDock/src/rDock_2013.1_src/data/scripts/dock_solv.prm

>  <Rbt.Receptor>
prm/blind_docking_40.prm

>  <SCORE>
-17.4524

>  <SCORE.INTER>
-17.4524

>  <SCORE.INTER.CONST>
1

>  <SCORE.INTER.POLAR>
0

>  <SCORE.INTER.ROT>
0

>  <SCORE.INTER.SOLV>
3.90278

>  <SCORE.INTER.VDW>
-16.5358

>  <SCORE.INTER.norm>
-1.74524

>  <SCORE.INTRA>
0

>  <SCORE.INTRA.DIHEDRAL>
0

>  <SCORE.INTRA.DIHEDRAL.0>
0

>  <SCORE.INTRA.POLAR>
0

>  <SCORE.INTRA.POLAR.0>
0

>  <SCORE.INTRA.REPUL>
0

>  <SCORE.INTRA.REPUL.0>
0

>  <SCORE.INTRA.SOLV>
0

>  <SCORE.INTRA.SOLV.lig_0>
-4.26631

>  <SCORE.INTRA.VDW>
0

>  <SCORE.INTRA.VDW.0>
0

>  <SCORE.INTRA.norm>
0

>  <SCORE.RESTR>
0

>  <SCORE.RESTR.CAVITY>
0

>  <SCORE.RESTR.norm>
0

>  <SCORE.SYSTEM>
0

>  <SCORE.SYSTEM.CONST>
0

>  <SCORE.SYSTEM.DIHEDRAL>
0

>  <SCORE.SYSTEM.SOLV>
0

>  <SCORE.SYSTEM.norm>
0

>  <SCORE.heavy>
10

>  <SCORE.norm>
-1.74524

>  <RMSD>
0.517

$$$$
ligand
 OpenBabel11021811493D
libRbt.so/2013.1/901 2013/11/27
 10 11  0  0  0  0  0  0  0  0999 V2000
   11.8783   11.3663    8.6127 N   0  0  0  0  0  0  0  0  0  0  0  0
   11.6378   12.7170    8.6128 C   0  0  0  0  0  0  0  0  0  0  0  0
   11.3186   13.3730    7.4854 N   0  0  0  0  0  0  0  0  0  0  0  0
   11.2631   12.5800    6.3954 C   0  0  0  0  0  0  0  0  0  0  0  0
   11.4937   11.2236    6.3307 C   0  0  0  0  0  0  0  0  0  0  0  0
   11.8277   10.5167    7.5030 C   0  0  0  0  0  0  0  0  0  0  0  0
   12.0671    9.3268    7.6569 O   0  0  0  0  0  0  0  0  0  0  0  0
   11.3323   10.8119    5.0402 N   0  0  0  0  0  0  0  0  0  0  0  0
   11.0080   11.9102    4.3259 C   0  0  0  0  0  0  0  0  0  0  0  0
   10.9597   13.0166    5.1348 N   0  0  0  0  0  0  0  0  0  0  0  0
  1  2  1  0  0  0  0
  1  6  1  0  0  0  0
  2  3  2  0  0  0  0
  3  4  1  0  0  0  0
  4  5  2  0  0  0  0
  4 10  1  0  0  0  0
  5  6  1  0  0  0  0
  5  8  1  0  0  0  0
  6  7  2  0  0  0  0
  8  9  1  0  0  0  0
  9 10  2  0  0  0  0
M  END
>  <CHROM.1>
11.48996240,11.64068329,6.72983343,0.33863137,-1.32325766,0.77732419

>  <Name>
ligand

>  <RI>
0

>  <Rbt.Current_Directory>
/home/itssahil/PROJECTS/Mol_Feturizer/New_Systems/rnas/4FEJ

>  <Rbt.Executable>
rbdock ($Id: //depot/dev/client3/rdock/2013.1/src/exe/rbdock.cxx#4 $)

>  <Rbt.Library>
libRbt.so (2013.1, Build901 2013/11/27)

>  <Rbt.Parameter_File>
/export/apps/rDock/src/rDock_2013.1_src/data/scripts/dock_solv.prm

>  <Rbt.Receptor>
prm/blind_docking_40.prm

>  <SCORE>
-17.4503

>  <SCORE.INTER>
-17.4503

>  <SCORE.INTER.CONST>
1

>  <SCORE.INTER.POLAR>
0

>  <SCORE.INTER.ROT>
0

>  <SCORE.INTER.SOLV>
3.87602

>  <SCORE.INTER.VDW>
-16.5255

>  <SCORE.INTER.norm>
-1.74503

>  <SCORE.INTRA>
0

>  <SCORE.INTRA.DIHEDRAL>
0

>  <SCORE.INTRA.DIHEDRAL.0>
0

>  <SCORE.INTRA.POLAR>
0

>  <SCORE.INTRA.POLAR.0>
0

>  <SCORE.INTRA.REPUL>
0

>  <SCORE.INTRA.REPUL.0>
0

>  <SCORE.INTRA.SOLV>
0

>  <SCORE.INTRA.SOLV.lig_0>
-4.26631

>  <SCORE.INTRA.VDW>
0

>  <SCORE.INTRA.VDW.0>
0

>  <SCORE.INTRA.norm>
0

>  <SCORE.RESTR>
0

>  <SCORE.RESTR.CAVITY>
0

>  <SCORE.RESTR.norm>
0

>  <SCORE.SYSTEM>
0

>  <SCORE.SYSTEM.CONST>
0

>  <SCORE.SYSTEM.DIHEDRAL>
0

>  <SCORE.SYSTEM.SOLV>
0

>  <SCORE.SYSTEM.norm>
0

>  <SCORE.heavy>
10

>  <SCORE.norm>
-1.74503

>  <RMSD>
0.517

$$$$
ligand
 OpenBabel11021811493D
libRbt.so/2013.1/901 2013/11/27
 10 11  0  0  0  0  0  0  0  0999 V2000
   11.8587   11.3187    8.5892 N   0  0  0  0  0  0  0  0  0  0  0  0
   11.6243   12.6703    8.6142 C   0  0  0  0  0  0  0  0  0  0  0  0
   11.3005   13.3469    7.5005 N   0  0  0  0  0  0  0  0  0  0  0  0
   11.2339   12.5731    6.3974 C   0  0  0  0  0  0  0  0  0  0  0  0
   11.4579   11.2170    6.3078 C   0  0  0  0  0  0  0  0  0  0  0  0
   11.7966   10.4885    7.4655 C   0  0  0  0  0  0  0  0  0  0  0  0
   12.0316    9.2952    7.5973 O   0  0  0  0  0  0  0  0  0  0  0  0
   11.2858   10.8283    5.0116 N   0  0  0  0  0  0  0  0  0  0  0  0
   10.9617   11.9402    4.3186 C   0  0  0  0  0  0  0  0  0  0  0  0
   10.9239   13.0327    5.1466 N   0  0  0  0  0  0  0  0  0  0  0  0
  1  2  1  0  0  0  0
  1  6  1  0  0  0  0
  2  3  2  0  0  0  0
  3  4  1  0  0  0  0
  4  5  2  0  0  0  0
  4 10  1  0  0  0  0
  5  6  1  0  0  0  0
  5  8  1  0  0  0  0
  6  7  2  0  0  0  0
  8  9  1  0  0  0  0
  9 10  2  0  0  0  0
M  END
>  <CHROM.1>
11.45875936,11.62715770,6.71409326,0.30608142,-1.32148572,0.76296472

>  <Name>
ligand

>  <RI>
0

>  <Rbt.Current_Directory>
/home/itssahil/PROJECTS/Mol_Feturizer/New_Systems/rnas/4FEJ

>  <Rbt.Executable>
rbdock ($Id: //depot/dev/client3/rdock/2013.1/src/exe/rbdock.cxx#4 $)

>  <Rbt.Library>
libRbt.so (2013.1, Build901 2013/11/27)

>  <Rbt.Parameter_File>
/export/apps/rDock/src/rDock_2013.1_src/data/scripts/dock_solv.prm

>  <Rbt.Receptor>
prm/blind_docking_60.prm

>  <SCORE>
-17.4179

>  <SCORE.INTER>
-17.4179

>  <SCORE.INTER.CONST>
1

>  <SCORE.INTER.POLAR>
0

>  <SCORE.INTER.ROT>
0

>  <SCORE.INTER.SOLV>
3.86725

>  <SCORE.INTER.VDW>
-16.501

>  <SCORE.INTER.norm>
-1.74179

>  <SCORE.INTRA>
0

>  <SCORE.INTRA.DIHEDRAL>
0

>  <SCORE.INTRA.DIHEDRAL.0>
0

>  <SCORE.INTRA.POLAR>
0

>  <SCORE.INTRA.POLAR.0>
0

>  <SCORE.INTRA.REPUL>
0

>  <SCORE.INTRA.REPUL.0>
0

>  <SCORE.INTRA.SOLV>
0

>  <SCORE.INTRA.SOLV.lig_0>
-4.26631

>  <SCORE.INTRA.VDW>
0

>  <SCORE.INTRA.VDW.0>
0

>  <SCORE.INTRA.norm>
0

>  <SCORE.RESTR>
0

>  <SCORE.RESTR.CAVITY>
0

>  <SCORE.RESTR.norm>
0

>  <SCORE.SYSTEM>
0

>  <SCORE.SYSTEM.CONST>
0

>  <SCORE.SYSTEM.DIHEDRAL>
0

>  <SCORE.SYSTEM.SOLV>
0

>  <SCORE.SYSTEM.norm>
0

>  <SCORE.heavy>
10

>  <SCORE.norm>
-1.74179

>  <RMSD>
0.517

$$$$
ligand
 OpenBabel11021811493D
libRbt.so/2013.1/901 2013/11/27
 10 11  0  0  0  0  0  0  0  0999 V2000
   11.8647   11.3207    8.5896 N   0  0  0  0  0  0  0  0  0  0  0  0
   11.6329   12.6728    8.6112 C   0  0  0  0  0  0  0  0  0  0  0  0
   11.3107   13.3473    7.4957 N   0  0  0  0  0  0  0  0  0  0  0  0
   11.2427   12.5708    6.3945 C   0  0  0  0  0  0  0  0  0  0  0  0
   11.4641   11.2140    6.3084 C   0  0  0  0  0  0  0  0  0  0  0  0
   11.8011   10.4879    7.4680 C   0  0  0  0  0  0  0  0  0  0  0  0
   12.0337    9.2944    7.6027 O   0  0  0  0  0  0  0  0  0  0  0  0
   11.2914   10.8225    5.0131 N   0  0  0  0  0  0  0  0  0  0  0  0
   10.9696   11.9333    4.3172 C   0  0  0  0  0  0  0  0  0  0  0  0
   10.9339   13.0279    5.1426 N   0  0  0  0  0  0  0  0  0  0  0  0
  1  2  1  0  0  0  0
  1  6  1  0  0  0  0
  2  3  2  0  0  0  0
  3  4  1  0  0  0  0
  4  5  2  0  0  0  0
  4 10  1  0  0  0  0
  5  6  1  0  0  0  0
  5  8  1  0  0  0  0
  6  7  2  0  0  0  0
  8  9  1  0  0  0  0
  9 10  2  0  0  0  0
M  END
>  <CHROM.1>
11.46565642,11.62526237,6.71362734,0.30075294,-1.32295954,0.75530428

>  <Name>
ligand

>  <RI>
0

>  <Rbt.Current_Directory>
/home/itssahil/PROJECTS/Mol_Feturizer/New_Systems/rnas/4FEJ

>  <Rbt.Executable>
rbdock ($Id: //depot/dev/client3/rdock/2013.1/src/exe/rbdock.cxx#4 $)

>  <Rbt.Library>
libRbt.so (2013.1, Build901 2013/11/27)

>  <Rbt.Parameter_File>
/export/apps/rDock/src/rDock_2013.1_src/data/scripts/dock_solv.prm

>  <Rbt.Receptor>
prm/pocket_docking_3.prm

>  <SCORE>
-17.4462

>  <SCORE.INTER>
-17.4462

>  <SCORE.INTER.CONST>
1

>  <SCORE.INTER.POLAR>
0

>  <SCORE.INTER.ROT>
0

>  <SCORE.INTER.SOLV>
3.8716

>  <SCORE.INTER.VDW>
-16.5213

>  <SCORE.INTER.norm>
-1.74462

>  <SCORE.INTRA>
0

>  <SCORE.INTRA.DIHEDRAL>
0

>  <SCORE.INTRA.DIHEDRAL.0>
0

>  <SCORE.INTRA.POLAR>
0

>  <SCORE.INTRA.POLAR.0>
0

>  <SCORE.INTRA.REPUL>
0

>  <SCORE.INTRA.REPUL.0>
0

>  <SCORE.INTRA.SOLV>
0

>  <SCORE.INTRA.SOLV.lig_0>
-4.26631

>  <SCORE.INTRA.VDW>
0

>  <SCORE.INTRA.VDW.0>
0

>  <SCORE.INTRA.norm>
0

>  <SCORE.RESTR>
0

>  <SCORE.RESTR.CAVITY>
0

>  <SCORE.RESTR.norm>
0

>  <SCORE.SYSTEM>
0

>  <SCORE.SYSTEM.CONST>
0

>  <SCORE.SYSTEM.DIHEDRAL>
0

>  <SCORE.SYSTEM.SOLV>
0

>  <SCORE.SYSTEM.norm>
0

>  <SCORE.heavy>
10

>  <SCORE.norm>
-1.74462

>  <RMSD>
0.517

$$$$
ligand
 OpenBabel11021811493D
libRbt.so/2013.1/901 2013/11/27
 10 11  0  0  0  0  0  0  0  0999 V2000
   11.8697   11.3387    8.5961 N   0  0  0  0  0  0  0  0  0  0  0  0
   11.6267   12.6889    8.6080 C   0  0  0  0  0  0  0  0  0  0  0  0
   11.3007   13.3531    7.4874 N   0  0  0  0  0  0  0  0  0  0  0  0
   11.2410   12.5685    6.3915 C   0  0  0  0  0  0  0  0  0  0  0  0
   11.4739   11.2131    6.3150 C   0  0  0  0  0  0  0  0  0  0  0  0
   11.8150   10.4977    7.4801 C   0  0  0  0  0  0  0  0  0  0  0  0
   12.0573    9.3071    7.6234 O   0  0  0  0  0  0  0  0  0  0  0  0
   11.3066   10.8112    5.0222 N   0  0  0  0  0  0  0  0  0  0  0  0
   10.9767   11.9145    4.3182 C   0  0  0  0  0  0  0  0  0  0  0  0
   10.9305   13.0144    5.1359 N   0  0  0  0  0  0  0  0  0  0  0  0
  1  2  1  0  0  0  0
  1  6  1  0  0  0  0
  2  3  2  0  0  0  0
  3  4  1  0  0  0  0
  4  5  2  0  0  0  0
  4 10  1  0  0  0  0
  5  6  1  0  0  0  0
  5  8  1  0  0  0  0
  6  7  2  0  0  0  0
  8  9  1  0  0  0  0
  9 10  2  0  0  0  0
M  END
>  <CHROM.1>
11.47133154,11.62706125,6.71744904,0.32960696,-1.31835952,0.77638982

>  <Name>
ligand

>  <RI>
0

>  <Rbt.Current_Directory>
/home/itssahil/PROJECTS/Mol_Feturizer/New_Systems/rnas/4FEJ

>  <Rbt.Executable>
rbdock ($Id: //depot/dev/client3/rdock/2013.1/src/exe/rbdock.cxx#4 $)

>  <Rbt.Library>
libRbt.so (2013.1, Build901 2013/11/27)

>  <Rbt.Parameter_File>
/export/apps/rDock/src/rDock_2013.1_src/data/scripts/dock_solv.prm

>  <Rbt.Receptor>
prm/pocket_docking_6.prm

>  <SCORE>
-17.4425

>  <SCORE.INTER>
-17.4425

>  <SCORE.INTER.CONST>
1

>  <SCORE.INTER.POLAR>
0

>  <SCORE.INTER.ROT>
0

>  <SCORE.INTER.SOLV>
3.85763

>  <SCORE.INTER.VDW>
-16.5142

>  <SCORE.INTER.norm>
-1.74425

>  <SCORE.INTRA>
0

>  <SCORE.INTRA.DIHEDRAL>
0

>  <SCORE.INTRA.DIHEDRAL.0>
0

>  <SCORE.INTRA.POLAR>
0

>  <SCORE.INTRA.POLAR.0>
0

>  <SCORE.INTRA.REPUL>
0

>  <SCORE.INTRA.REPUL.0>
0

>  <SCORE.INTRA.SOLV>
0

>  <SCORE.INTRA.SOLV.lig_0>
-4.26631

>  <SCORE.INTRA.VDW>
0

>  <SCORE.INTRA.VDW.0>
0

>  <SCORE.INTRA.norm>
0

>  <SCORE.RESTR>
0

>  <SCORE.RESTR.CAVITY>
0

>  <SCORE.RESTR.norm>
0

>  <SCORE.SYSTEM>
0

>  <SCORE.SYSTEM.CONST>
0

>  <SCORE.SYSTEM.DIHEDRAL>
0

>  <SCORE.SYSTEM.SOLV>
0

>  <SCORE.SYSTEM.norm>
0

>  <SCORE.heavy>
10

>  <SCORE.norm>
-1.74425

>  <RMSD>
0.517

$$$$
ligand
 OpenBabel11021811493D
libRbt.so/2013.1/901 2013/11/27
 10 11  0  0  0  0  0  0  0  0999 V2000
   11.8835   11.3616    8.6064 N   0  0  0  0  0  0  0  0  0  0  0  0
   11.6344   12.7108    8.6031 C   0  0  0  0  0  0  0  0  0  0  0  0
   11.3046   13.3607    7.4753 N   0  0  0  0  0  0  0  0  0  0  0  0
   11.2478   12.5635    6.3884 C   0  0  0  0  0  0  0  0  0  0  0  0
   11.4867   11.2083    6.3271 C   0  0  0  0  0  0  0  0  0  0  0  0
   11.8319   10.5078    7.5001 C   0  0  0  0  0  0  0  0  0  0  0  0
   12.0797    9.3200    7.6567 O   0  0  0  0  0  0  0  0  0  0  0  0
   11.3204   10.7911    5.0391 N   0  0  0  0  0  0  0  0  0  0  0  0
   10.9850   11.8847    4.3229 C   0  0  0  0  0  0  0  0  0  0  0  0
   10.9344   12.9937    5.1281 N   0  0  0  0  0  0  0  0  0  0  0  0
  1  2  1  0  0  0  0
  1  6  1  0  0  0  0
  2  3  2  0  0  0  0
  3  4  1  0  0  0  0
  4  5  2  0  0  0  0
  4 10  1  0  0  0  0
  5  6  1  0  0  0  0
  5  8  1  0  0  0  0
  6  7  2  0  0  0  0
  8  9  1  0  0  0  0
  9 10  2  0  0  0  0
M  END
>  <CHROM.1>
11.48257776,11.62683612,6.72484348,0.34052148,-1.31469715,0.77560124

>  <Name>
ligand

>  <RI>
0

>  <Rbt.Current_Directory>
/home/itssahil/PROJECTS/Mol_Feturizer/New_Systems/rnas/4FEJ

>  <Rbt.Executable>
rbdock ($Id: //depot/dev/client3/rdock/2013.1/src/exe/rbdock.cxx#4 $)

>  <Rbt.Library>
libRbt.so (2013.1, Build901 2013/11/27)

>  <Rbt.Parameter_File>
/export/apps/rDock/src/rDock_2013.1_src/data/scripts/dock_solv.prm

>  <Rbt.Receptor>
prm/pocket_docking_6.prm

>  <SCORE>
-17.4773

>  <SCORE.INTER>
-17.4773

>  <SCORE.INTER.CONST>
1

>  <SCORE.INTER.POLAR>
0

>  <SCORE.INTER.ROT>
0

>  <SCORE.INTER.SOLV>
3.85521

>  <SCORE.INTER.VDW>
-16.5366

>  <SCORE.INTER.norm>
-1.74773

>  <SCORE.INTRA>
0

>  <SCORE.INTRA.DIHEDRAL>
0

>  <SCORE.INTRA.DIHEDRAL.0>
0

>  <SCORE.INTRA.POLAR>
0

>  <SCORE.INTRA.POLAR.0>
0

>  <SCORE.INTRA.REPUL>
0

>  <SCORE.INTRA.REPUL.0>
0

>  <SCORE.INTRA.SOLV>
0

>  <SCORE.INTRA.SOLV.lig_0>
-4.26631

>  <SCORE.INTRA.VDW>
0

>  <SCORE.INTRA.VDW.0>
0

>  <SCORE.INTRA.norm>
0

>  <SCORE.RESTR>
0

>  <SCORE.RESTR.CAVITY>
0

>  <SCORE.RESTR.norm>
0

>  <SCORE.SYSTEM>
0

>  <SCORE.SYSTEM.CONST>
0

>  <SCORE.SYSTEM.DIHEDRAL>
0

>  <SCORE.SYSTEM.SOLV>
0

>  <SCORE.SYSTEM.norm>
0

>  <SCORE.heavy>
10

>  <SCORE.norm>
-1.74773

>  <RMSD>
0.517

$$$$
ligand
 OpenBabel11021811493D
libRbt.so/2013.1/901 2013/11/27
 10 11  0  0  0  0  0  0  0  0999 V2000
   11.8436   11.3282    8.6180 N   0  0  0  0  0  0  0  0  0  0  0  0
   11.6187   12.6816    8.6194 C   0  0  0  0  0  0  0  0  0  0  0  0
   11.3068   13.3422    7.4926 N   0  0  0  0  0  0  0  0  0  0  0  0
   11.2417   12.5508    6.4019 C   0  0  0  0  0  0  0  0  0  0  0  0
   11.4565   11.1919    6.3360 C   0  0  0  0  0  0  0  0  0  0  0  0
   11.7826   10.4802    7.5077 C   0  0  0  0  0  0  0  0  0  0  0  0
   12.0083    9.2875    7.6604 O   0  0  0  0  0  0  0  0  0  0  0  0
   11.2898   10.7832    5.0452 N   0  0  0  0  0  0  0  0  0  0  0  0
   10.9781   11.8858    4.3320 C   0  0  0  0  0  0  0  0  0  0  0  0
   10.9429   12.9920    5.1419 N   0  0  0  0  0  0  0  0  0  0  0  0
  1  2  1  0  0  0  0
  1  6  1  0  0  0  0
  2  3  2  0  0  0  0
  3  4  1  0  0  0  0
  4  5  2  0  0  0  0
  4 10  1  0  0  0  0
  5  6  1  0  0  0  0
  5  8  1  0  0  0  0
  6  7  2  0  0  0  0
  8  9  1  0  0  0  0
  9 10  2  0  0  0  0
M  END
>  <CHROM.1>
11.45774359,11.60866453,6.73552227,0.30273673,-1.33099507,0.74332961

>  <Name>
ligand

>  <RI>
0

>  <Rbt.Current_Directory>
/home/itssahil/PROJECTS/Mol_Feturizer/New_Systems/rnas/4FEJ

>  <Rbt.Executable>
rbdock ($Id: //depot/dev/client3/rdock/2013.1/src/exe/rbdock.cxx#4 $)

>  <Rbt.Library>
libRbt.so (2013.1, Build901 2013/11/27)

>  <Rbt.Parameter_File>
/export/apps/rDock/src/rDock_2013.1_src/data/scripts/dock_solv.prm

>  <Rbt.Receptor>
prm/pocket_docking_7.prm

>  <SCORE>
-17.428

>  <SCORE.INTER>
-17.428

>  <SCORE.INTER.CONST>
1

>  <SCORE.INTER.POLAR>
0

>  <SCORE.INTER.ROT>
0

>  <SCORE.INTER.SOLV>
3.91676

>  <SCORE.INTER.VDW>
-16.5242

>  <SCORE.INTER.norm>
-1.7428

>  <SCORE.INTRA>
0

>  <SCORE.INTRA.DIHEDRAL>
0

>  <SCORE.INTRA.DIHEDRAL.0>
0

>  <SCORE.INTRA.POLAR>
0

>  <SCORE.INTRA.POLAR.0>
0

>  <SCORE.INTRA.REPUL>
0

>  <SCORE.INTRA.REPUL.0>
0

>  <SCORE.INTRA.SOLV>
0

>  <SCORE.INTRA.SOLV.lig_0>
-4.26631

>  <SCORE.INTRA.VDW>
0

>  <SCORE.INTRA.VDW.0>
0

>  <SCORE.INTRA.norm>
0

>  <SCORE.RESTR>
0

>  <SCORE.RESTR.CAVITY>
0

>  <SCORE.RESTR.norm>
0

>  <SCORE.SYSTEM>
0

>  <SCORE.SYSTEM.CONST>
0

>  <SCORE.SYSTEM.DIHEDRAL>
0

>  <SCORE.SYSTEM.SOLV>
0

>  <SCORE.SYSTEM.norm>
0

>  <SCORE.heavy>
10

>  <SCORE.norm>
-1.7428

>  <RMSD>
0.517

$$$$
ligand
 OpenBabel11021811493D
libRbt.so/2013.1/901 2013/11/27
 10 11  0  0  0  0  0  0  0  0999 V2000
   11.8284   11.4120    8.6635 N   0  0  0  0  0  0  0  0  0  0  0  0
   11.5594   12.7572    8.6384 C   0  0  0  0  0  0  0  0  0  0  0  0
   11.2444   13.3885    7.4959 N   0  0  0  0  0  0  0  0  0  0  0  0
   11.2229   12.5777    6.4179 C   0  0  0  0  0  0  0  0  0  0  0  0
   11.4832   11.2257    6.3784 C   0  0  0  0  0  0  0  0  0  0  0  0
   11.8133   10.5444    7.5669 C   0  0  0  0  0  0  0  0  0  0  0  0
   12.0753    9.3625    7.7433 O   0  0  0  0  0  0  0  0  0  0  0  0
   11.3509   10.7906    5.0922 N   0  0  0  0  0  0  0  0  0  0  0  0
   11.0149   11.8705    4.3557 C   0  0  0  0  0  0  0  0  0  0  0  0
   10.9304   12.9880    5.1460 N   0  0  0  0  0  0  0  0  0  0  0  0
  1  2  1  0  0  0  0
  1  6  1  0  0  0  0
  2  3  2  0  0  0  0
  3  4  1  0  0  0  0
  4  5  2  0  0  0  0
  4 10  1  0  0  0  0
  5  6  1  0  0  0  0
  5  8  1  0  0  0  0
  6  7  2  0  0  0  0
  8  9  1  0  0  0  0
  9 10  2  0  0  0  0
M  END
>  <CHROM.1>
11.46424748,11.64876245,6.77072502,0.44373633,-1.31842598,0.86343312

>  <Name>
ligand

>  <RI>
0

>  <Rbt.Current_Directory>
/home/itssahil/PROJECTS/Mol_Feturizer/New_Systems/rnas/4FEJ

>  <Rbt.Executable>
rbdock ($Id: //depot/dev/client3/rdock/2013.1/src/exe/rbdock.cxx#4 $)

>  <Rbt.Library>
libRbt.so (2013.1, Build901 2013/11/27)

>  <Rbt.Parameter_File>
/export/apps/rDock/src/rDock_2013.1_src/data/scripts/dock_solv.prm

>  <Rbt.Receptor>
prm/blind_docking_100.prm

>  <SCORE>
-17.4517

>  <SCORE.INTER>
-17.4517

>  <SCORE.INTER.CONST>
1

>  <SCORE.INTER.POLAR>
0

>  <SCORE.INTER.ROT>
0

>  <SCORE.INTER.SOLV>
3.88578

>  <SCORE.INTER.VDW>
-16.5297

>  <SCORE.INTER.norm>
-1.74517

>  <SCORE.INTRA>
0

>  <SCORE.INTRA.DIHEDRAL>
0

>  <SCORE.INTRA.DIHEDRAL.0>
0

>  <SCORE.INTRA.POLAR>
0

>  <SCORE.INTRA.POLAR.0>
0

>  <SCORE.INTRA.REPUL>
0

>  <SCORE.INTRA.REPUL.0>
0

>  <SCORE.INTRA.SOLV>
0

>  <SCORE.INTRA.SOLV.lig_0>
-4.26631

>  <SCORE.INTRA.VDW>
0

>  <SCORE.INTRA.VDW.0>
0

>  <SCORE.INTRA.norm>
0

>  <SCORE.RESTR>
0

>  <SCORE.RESTR.CAVITY>
0

>  <SCORE.RESTR.norm>
0

>  <SCORE.SYSTEM>
0

>  <SCORE.SYSTEM.CONST>
0

>  <SCORE.SYSTEM.DIHEDRAL>
0

>  <SCORE.SYSTEM.SOLV>
0

>  <SCORE.SYSTEM.norm>
0

>  <SCORE.heavy>
10

>  <SCORE.norm>
-1.74517

>  <RMSD>
0.518

$$$$
ligand
 OpenBabel11021811493D
libRbt.so/2013.1/901 2013/11/27
 10 11  0  0  0  0  0  0  0  0999 V2000
   11.8433   11.3387    8.6220 N   0  0  0  0  0  0  0  0  0  0  0  0
   11.6091   12.6906    8.6162 C   0  0  0  0  0  0  0  0  0  0  0  0
   11.3027   13.3448    7.4844 N   0  0  0  0  0  0  0  0  0  0  0  0
   11.2527   12.5490    6.3961 C   0  0  0  0  0  0  0  0  0  0  0  0
   11.4775   11.1913    6.3372 C   0  0  0  0  0  0  0  0  0  0  0  0
   11.7981   10.4863    7.5143 C   0  0  0  0  0  0  0  0  0  0  0  0
   12.0306    9.2957    7.6735 O   0  0  0  0  0  0  0  0  0  0  0  0
   11.3251   10.7768    5.0465 N   0  0  0  0  0  0  0  0  0  0  0  0
   11.0121   11.8746    4.3264 C   0  0  0  0  0  0  0  0  0  0  0  0
   10.9621   12.9834    5.1318 N   0  0  0  0  0  0  0  0  0  0  0  0
  1  2  1  0  0  0  0
  1  6  1  0  0  0  0
  2  3  2  0  0  0  0
  3  4  1  0  0  0  0
  4  5  2  0  0  0  0
  4 10  1  0  0  0  0
  5  6  1  0  0  0  0
  5  8  1  0  0  0  0
  6  7  2  0  0  0  0
  8  9  1  0  0  0  0
  9 10  2  0  0  0  0
M  END
>  <CHROM.1>
11.47228996,11.60960605,6.73510549,0.34979048,-1.33260741,0.78532711

>  <Name>
ligand

>  <RI>
0

>  <Rbt.Current_Directory>
/home/itssahil/PROJECTS/Mol_Feturizer/New_Systems/rnas/4FEJ

>  <Rbt.Executable>
rbdock ($Id: //depot/dev/client3/rdock/2013.1/src/exe/rbdock.cxx#4 $)

>  <Rbt.Library>
libRbt.so (2013.1, Build901 2013/11/27)

>  <Rbt.Parameter_File>
/export/apps/rDock/src/rDock_2013.1_src/data/scripts/dock_solv.prm

>  <Rbt.Receptor>
prm/blind_docking_60.prm

>  <SCORE>
-17.4505

>  <SCORE.INTER>
-17.4505

>  <SCORE.INTER.CONST>
1

>  <SCORE.INTER.POLAR>
0

>  <SCORE.INTER.ROT>
0

>  <SCORE.INTER.SOLV>
3.91133

>  <SCORE.INTER.VDW>
-16.5375

>  <SCORE.INTER.norm>
-1.74505

>  <SCORE.INTRA>
0

>  <SCORE.INTRA.DIHEDRAL>
0

>  <SCORE.INTRA.DIHEDRAL.0>
0

>  <SCORE.INTRA.POLAR>
0

>  <SCORE.INTRA.POLAR.0>
0

>  <SCORE.INTRA.REPUL>
0

>  <SCORE.INTRA.REPUL.0>
0

>  <SCORE.INTRA.SOLV>
0

>  <SCORE.INTRA.SOLV.lig_0>
-4.26631

>  <SCORE.INTRA.VDW>
0

>  <SCORE.INTRA.VDW.0>
0

>  <SCORE.INTRA.norm>
0

>  <SCORE.RESTR>
0

>  <SCORE.RESTR.CAVITY>
0

>  <SCORE.RESTR.norm>
0

>  <SCORE.SYSTEM>
0

>  <SCORE.SYSTEM.CONST>
0

>  <SCORE.SYSTEM.DIHEDRAL>
0

>  <SCORE.SYSTEM.SOLV>
0

>  <SCORE.SYSTEM.norm>
0

>  <SCORE.heavy>
10

>  <SCORE.norm>
-1.74505

>  <RMSD>
0.518

$$$$
ligand
 OpenBabel11021811493D
libRbt.so/2013.1/901 2013/11/27
 10 11  0  0  0  0  0  0  0  0999 V2000
   11.8584   11.3443    8.6282 N   0  0  0  0  0  0  0  0  0  0  0  0
   11.6395   12.6987    8.6151 C   0  0  0  0  0  0  0  0  0  0  0  0
   11.3188   13.3467    7.4836 N   0  0  0  0  0  0  0  0  0  0  0  0
   11.2389   12.5423    6.4035 C   0  0  0  0  0  0  0  0  0  0  0  0
   11.4471   11.1816    6.3522 C   0  0  0  0  0  0  0  0  0  0  0  0
   11.7822   10.4830    7.5291 C   0  0  0  0  0  0  0  0  0  0  0  0
   12.0042    9.2913    7.6943 O   0  0  0  0  0  0  0  0  0  0  0  0
   11.2652   10.7579    5.0684 N   0  0  0  0  0  0  0  0  0  0  0  0
   10.9509   11.8530    4.3448 C   0  0  0  0  0  0  0  0  0  0  0  0
   10.9290   12.9692    5.1412 N   0  0  0  0  0  0  0  0  0  0  0  0
  1  2  1  0  0  0  0
  1  6  1  0  0  0  0
  2  3  2  0  0  0  0
  3  4  1  0  0  0  0
  4  5  2  0  0  0  0
  4 10  1  0  0  0  0
  5  6  1  0  0  0  0
  5  8  1  0  0  0  0
  6  7  2  0  0  0  0
  8  9  1  0  0  0  0
  9 10  2  0  0  0  0
M  END
>  <CHROM.1>
11.45428614,11.60333520,6.74648134,0.26038553,-1.32612183,0.68985440

>  <Name>
ligand

>  <RI>
0

>  <Rbt.Current_Directory>
/home/itssahil/PROJECTS/Mol_Feturizer/New_Systems/rnas/4FEJ

>  <Rbt.Executable>
rbdock ($Id: //depot/dev/client3/rdock/2013.1/src/exe/rbdock.cxx#4 $)

>  <Rbt.Library>
libRbt.so (2013.1, Build901 2013/11/27)

>  <Rbt.Parameter_File>
/export/apps/rDock/src/rDock_2013.1_src/data/scripts/dock_solv.prm

>  <Rbt.Receptor>
prm/blind_docking_80.prm

>  <SCORE>
-17.4543

>  <SCORE.INTER>
-17.4543

>  <SCORE.INTER.CONST>
1

>  <SCORE.INTER.POLAR>
0

>  <SCORE.INTER.ROT>
0

>  <SCORE.INTER.SOLV>
3.92827

>  <SCORE.INTER.VDW>
-16.5456

>  <SCORE.INTER.norm>
-1.74543

>  <SCORE.INTRA>
0

>  <SCORE.INTRA.DIHEDRAL>
0

>  <SCORE.INTRA.DIHEDRAL.0>
0

>  <SCORE.INTRA.POLAR>
0

>  <SCORE.INTRA.POLAR.0>
0

>  <SCORE.INTRA.REPUL>
0

>  <SCORE.INTRA.REPUL.0>
0

>  <SCORE.INTRA.SOLV>
0

>  <SCORE.INTRA.SOLV.lig_0>
-4.26631

>  <SCORE.INTRA.VDW>
0

>  <SCORE.INTRA.VDW.0>
0

>  <SCORE.INTRA.norm>
0

>  <SCORE.RESTR>
0

>  <SCORE.RESTR.CAVITY>
0

>  <SCORE.RESTR.norm>
0

>  <SCORE.SYSTEM>
0

>  <SCORE.SYSTEM.CONST>
0

>  <SCORE.SYSTEM.DIHEDRAL>
0

>  <SCORE.SYSTEM.SOLV>
0

>  <SCORE.SYSTEM.norm>
0

>  <SCORE.heavy>
10

>  <SCORE.norm>
-1.74543

>  <RMSD>
0.518

$$$$
ligand
 OpenBabel11021811493D
libRbt.so/2013.1/901 2013/11/27
 10 11  0  0  0  0  0  0  0  0999 V2000
   11.8782   11.3410    8.5976 N   0  0  0  0  0  0  0  0  0  0  0  0
   11.6593   12.6953    8.6177 C   0  0  0  0  0  0  0  0  0  0  0  0
   11.3392   13.3709    7.5022 N   0  0  0  0  0  0  0  0  0  0  0  0
   11.2600   12.5932    6.4026 C   0  0  0  0  0  0  0  0  0  0  0  0
   11.4683   11.2343    6.3180 C   0  0  0  0  0  0  0  0  0  0  0  0
   11.8028   10.5069    7.4777 C   0  0  0  0  0  0  0  0  0  0  0  0
   12.0248    9.3116    7.6136 O   0  0  0  0  0  0  0  0  0  0  0  0
   11.2872   10.8422    5.0241 N   0  0  0  0  0  0  0  0  0  0  0  0
   10.9733   11.9547    4.3275 C   0  0  0  0  0  0  0  0  0  0  0  0
   10.9508   13.0510    5.1510 N   0  0  0  0  0  0  0  0  0  0  0  0
  1  2  1  0  0  0  0
  1  6  1  0  0  0  0
  2  3  2  0  0  0  0
  3  4  1  0  0  0  0
  4  5  2  0  0  0  0
  4 10  1  0  0  0  0
  5  6  1  0  0  0  0
  5  8  1  0  0  0  0
  6  7  2  0  0  0  0
  8  9  1  0  0  0  0
  9 10  2  0  0  0  0
M  END
>  <CHROM.1>
11.47523234,11.64615032,6.72256322,0.26223048,-1.32651972,0.71621847

>  <Name>
ligand

>  <RI>
0

>  <Rbt.Current_Directory>
/home/itssahil/PROJECTS/Mol_Feturizer/New_Systems/rnas/4FEJ

>  <Rbt.Executable>
rbdock ($Id: //depot/dev/client3/rdock/2013.1/src/exe/rbdock.cxx#4 $)

>  <Rbt.Library>
libRbt.so (2013.1, Build901 2013/11/27)

>  <Rbt.Parameter_File>
/export/apps/rDock/src/rDock_2013.1_src/data/scripts/dock_solv.prm

>  <Rbt.Receptor>
prm/pocket_docking_3.prm

>  <SCORE>
-17.4563

>  <SCORE.INTER>
-17.4563

>  <SCORE.INTER.CONST>
1

>  <SCORE.INTER.POLAR>
0

>  <SCORE.INTER.ROT>
0

>  <SCORE.INTER.SOLV>
3.88836

>  <SCORE.INTER.VDW>
-16.5337

>  <SCORE.INTER.norm>
-1.74563

>  <SCORE.INTRA>
0

>  <SCORE.INTRA.DIHEDRAL>
0

>  <SCORE.INTRA.DIHEDRAL.0>
0

>  <SCORE.INTRA.POLAR>
0

>  <SCORE.INTRA.POLAR.0>
0

>  <SCORE.INTRA.REPUL>
0

>  <SCORE.INTRA.REPUL.0>
0

>  <SCORE.INTRA.SOLV>
0

>  <SCORE.INTRA.SOLV.lig_0>
-4.26631

>  <SCORE.INTRA.VDW>
0

>  <SCORE.INTRA.VDW.0>
0

>  <SCORE.INTRA.norm>
0

>  <SCORE.RESTR>
0

>  <SCORE.RESTR.CAVITY>
0

>  <SCORE.RESTR.norm>
0

>  <SCORE.SYSTEM>
0

>  <SCORE.SYSTEM.CONST>
0

>  <SCORE.SYSTEM.DIHEDRAL>
0

>  <SCORE.SYSTEM.SOLV>
0

>  <SCORE.SYSTEM.norm>
0

>  <SCORE.heavy>
10

>  <SCORE.norm>
-1.74563

>  <RMSD>
0.518

$$$$
ligand
 OpenBabel11021811493D
libRbt.so/2013.1/901 2013/11/27
 10 11  0  0  0  0  0  0  0  0999 V2000
   11.8353   11.3674    8.6182 N   0  0  0  0  0  0  0  0  0  0  0  0
   11.5636   12.7122    8.6211 C   0  0  0  0  0  0  0  0  0  0  0  0
   11.2440   13.3659    7.4926 N   0  0  0  0  0  0  0  0  0  0  0  0
   11.2210   12.5771    6.3984 C   0  0  0  0  0  0  0  0  0  0  0  0
   11.4839   11.2267    6.3307 C   0  0  0  0  0  0  0  0  0  0  0  0
   11.8188   10.5222    7.5042 C   0  0  0  0  0  0  0  0  0  0  0  0
   12.0837    9.3374    7.6559 O   0  0  0  0  0  0  0  0  0  0  0  0
   11.3488   10.8175    5.0364 N   0  0  0  0  0  0  0  0  0  0  0  0
   11.0084   11.9114    4.3228 C   0  0  0  0  0  0  0  0  0  0  0  0
   10.9240   13.0125    5.1359 N   0  0  0  0  0  0  0  0  0  0  0  0
  1  2  1  0  0  0  0
  1  6  1  0  0  0  0
  2  3  2  0  0  0  0
  3  4  1  0  0  0  0
  4  5  2  0  0  0  0
  4 10  1  0  0  0  0
  5  6  1  0  0  0  0
  5  8  1  0  0  0  0
  6  7  2  0  0  0  0
  8  9  1  0  0  0  0
  9 10  2  0  0  0  0
M  END
>  <CHROM.1>
11.46523534,11.64168205,6.73161613,0.44020448,-1.31499902,0.88028707

>  <Name>
ligand

>  <RI>
0

>  <Rbt.Current_Directory>
/home/itssahil/PROJECTS/Mol_Feturizer/New_Systems/rnas/4FEJ

>  <Rbt.Executable>
rbdock ($Id: //depot/dev/client3/rdock/2013.1/src/exe/rbdock.cxx#4 $)

>  <Rbt.Library>
libRbt.so (2013.1, Build901 2013/11/27)

>  <Rbt.Parameter_File>
/export/apps/rDock/src/rDock_2013.1_src/data/scripts/dock_solv.prm

>  <Rbt.Receptor>
prm/pocket_docking_3.prm

>  <SCORE>
-17.4722

>  <SCORE.INTER>
-17.4722

>  <SCORE.INTER.CONST>
1

>  <SCORE.INTER.POLAR>
0

>  <SCORE.INTER.ROT>
0

>  <SCORE.INTER.SOLV>
3.84244

>  <SCORE.INTER.VDW>
-16.5289

>  <SCORE.INTER.norm>
-1.74722

>  <SCORE.INTRA>
0

>  <SCORE.INTRA.DIHEDRAL>
0

>  <SCORE.INTRA.DIHEDRAL.0>
0

>  <SCORE.INTRA.POLAR>
0

>  <SCORE.INTRA.POLAR.0>
0

>  <SCORE.INTRA.REPUL>
0

>  <SCORE.INTRA.REPUL.0>
0

>  <SCORE.INTRA.SOLV>
0

>  <SCORE.INTRA.SOLV.lig_0>
-4.26631

>  <SCORE.INTRA.VDW>
0

>  <SCORE.INTRA.VDW.0>
0

>  <SCORE.INTRA.norm>
0

>  <SCORE.RESTR>
0

>  <SCORE.RESTR.CAVITY>
0

>  <SCORE.RESTR.norm>
0

>  <SCORE.SYSTEM>
0

>  <SCORE.SYSTEM.CONST>
0

>  <SCORE.SYSTEM.DIHEDRAL>
0

>  <SCORE.SYSTEM.SOLV>
0

>  <SCORE.SYSTEM.norm>
0

>  <SCORE.heavy>
10

>  <SCORE.norm>
-1.74722

>  <RMSD>
0.518

$$$$
ligand
 OpenBabel11021811493D
libRbt.so/2013.1/901 2013/11/27
 10 11  0  0  0  0  0  0  0  0999 V2000
   11.8657   11.3325    8.6192 N   0  0  0  0  0  0  0  0  0  0  0  0
   11.6532   12.6879    8.6106 C   0  0  0  0  0  0  0  0  0  0  0  0
   11.3300   13.3403    7.4823 N   0  0  0  0  0  0  0  0  0  0  0  0
   11.2407   12.5389    6.4006 C   0  0  0  0  0  0  0  0  0  0  0  0
   11.4422   11.1775    6.3449 C   0  0  0  0  0  0  0  0  0  0  0  0
   11.7799   10.4743    7.5184 C   0  0  0  0  0  0  0  0  0  0  0  0
   11.9970    9.2811    7.6795 O   0  0  0  0  0  0  0  0  0  0  0  0
   11.2518   10.7578    5.0610 N   0  0  0  0  0  0  0  0  0  0  0  0
   10.9391   11.8562    4.3418 C   0  0  0  0  0  0  0  0  0  0  0  0
   10.9266   12.9705    5.1410 N   0  0  0  0  0  0  0  0  0  0  0  0
  1  2  1  0  0  0  0
  1  6  1  0  0  0  0
  2  3  2  0  0  0  0
  3  4  1  0  0  0  0
  4  5  2  0  0  0  0
  4 10  1  0  0  0  0
  5  6  1  0  0  0  0
  5  8  1  0  0  0  0
  6  7  2  0  0  0  0
  8  9  1  0  0  0  0
  9 10  2  0  0  0  0
M  END
>  <CHROM.1>
11.45337345,11.59813600,6.74020487,0.23205451,-1.32517043,0.66487236

>  <Name>
ligand

>  <RI>
0

>  <Rbt.Current_Directory>
/home/itssahil/PROJECTS/Mol_Feturizer/New_Systems/rnas/4FEJ

>  <Rbt.Executable>
rbdock ($Id: //depot/dev/client3/rdock/2013.1/src/exe/rbdock.cxx#4 $)

>  <Rbt.Library>
libRbt.so (2013.1, Build901 2013/11/27)

>  <Rbt.Parameter_File>
/export/apps/rDock/src/rDock_2013.1_src/data/scripts/dock_solv.prm

>  <Rbt.Receptor>
prm/pocket_docking_3.prm

>  <SCORE>
-17.4374

>  <SCORE.INTER>
-17.4374

>  <SCORE.INTER.CONST>
1

>  <SCORE.INTER.POLAR>
0

>  <SCORE.INTER.ROT>
0

>  <SCORE.INTER.SOLV>
3.92775

>  <SCORE.INTER.VDW>
-16.5342

>  <SCORE.INTER.norm>
-1.74374

>  <SCORE.INTRA>
0

>  <SCORE.INTRA.DIHEDRAL>
0

>  <SCORE.INTRA.DIHEDRAL.0>
0

>  <SCORE.INTRA.POLAR>
0

>  <SCORE.INTRA.POLAR.0>
0

>  <SCORE.INTRA.REPUL>
0

>  <SCORE.INTRA.REPUL.0>
0

>  <SCORE.INTRA.SOLV>
0

>  <SCORE.INTRA.SOLV.lig_0>
-4.26631

>  <SCORE.INTRA.VDW>
0

>  <SCORE.INTRA.VDW.0>
0

>  <SCORE.INTRA.norm>
0

>  <SCORE.RESTR>
0

>  <SCORE.RESTR.CAVITY>
0

>  <SCORE.RESTR.norm>
0

>  <SCORE.SYSTEM>
0

>  <SCORE.SYSTEM.CONST>
0

>  <SCORE.SYSTEM.DIHEDRAL>
0

>  <SCORE.SYSTEM.SOLV>
0

>  <SCORE.SYSTEM.norm>
0

>  <SCORE.heavy>
10

>  <SCORE.norm>
-1.74374

>  <RMSD>
0.518

$$$$
ligand
 OpenBabel11021811493D
libRbt.so/2013.1/901 2013/11/27
 10 11  0  0  0  0  0  0  0  0999 V2000
   11.8431   11.3372    8.6211 N   0  0  0  0  0  0  0  0  0  0  0  0
   11.6093   12.6892    8.6169 C   0  0  0  0  0  0  0  0  0  0  0  0
   11.3022   13.3446    7.4859 N   0  0  0  0  0  0  0  0  0  0  0  0
   11.2511   12.5499    6.3968 C   0  0  0  0  0  0  0  0  0  0  0  0
   11.4754   11.1922    6.3364 C   0  0  0  0  0  0  0  0  0  0  0  0
   11.7967   10.4859    7.5127 C   0  0  0  0  0  0  0  0  0  0  0  0
   12.0290    9.2951    7.6705 O   0  0  0  0  0  0  0  0  0  0  0  0
   11.3219   10.7789    5.0455 N   0  0  0  0  0  0  0  0  0  0  0  0
   11.0086   11.8775    4.3268 C   0  0  0  0  0  0  0  0  0  0  0  0
   10.9596   12.9856    5.1332 N   0  0  0  0  0  0  0  0  0  0  0  0
  1  2  1  0  0  0  0
  1  6  1  0  0  0  0
  2  3  2  0  0  0  0
  3  4  1  0  0  0  0
  4  5  2  0  0  0  0
  4 10  1  0  0  0  0
  5  6  1  0  0  0  0
  5  8  1  0  0  0  0
  6  7  2  0  0  0  0
  8  9  1  0  0  0  0
  9 10  2  0  0  0  0
M  END
>  <CHROM.1>
11.47065512,11.61006219,6.73479001,0.34644840,-1.33226967,0.78305125

>  <Name>
ligand

>  <RI>
0

>  <Rbt.Current_Directory>
/home/itssahil/PROJECTS/Mol_Feturizer/New_Systems/rnas/4FEJ

>  <Rbt.Executable>
rbdock ($Id: //depot/dev/client3/rdock/2013.1/src/exe/rbdock.cxx#4 $)

>  <Rbt.Library>
libRbt.so (2013.1, Build901 2013/11/27)

>  <Rbt.Parameter_File>
/export/apps/rDock/src/rDock_2013.1_src/data/scripts/dock_solv.prm

>  <Rbt.Receptor>
prm/pocket_docking_4.prm

>  <SCORE>
-17.4536

>  <SCORE.INTER>
-17.4536

>  <SCORE.INTER.CONST>
1

>  <SCORE.INTER.POLAR>
0

>  <SCORE.INTER.ROT>
0

>  <SCORE.INTER.SOLV>
3.91045

>  <SCORE.INTER.VDW>
-16.5392

>  <SCORE.INTER.norm>
-1.74536

>  <SCORE.INTRA>
0

>  <SCORE.INTRA.DIHEDRAL>
0

>  <SCORE.INTRA.DIHEDRAL.0>
0

>  <SCORE.INTRA.POLAR>
0

>  <SCORE.INTRA.POLAR.0>
0

>  <SCORE.INTRA.REPUL>
0

>  <SCORE.INTRA.REPUL.0>
0

>  <SCORE.INTRA.SOLV>
0

>  <SCORE.INTRA.SOLV.lig_0>
-4.26631

>  <SCORE.INTRA.VDW>
0

>  <SCORE.INTRA.VDW.0>
0

>  <SCORE.INTRA.norm>
0

>  <SCORE.RESTR>
0

>  <SCORE.RESTR.CAVITY>
0

>  <SCORE.RESTR.norm>
0

>  <SCORE.SYSTEM>
0

>  <SCORE.SYSTEM.CONST>
0

>  <SCORE.SYSTEM.DIHEDRAL>
0

>  <SCORE.SYSTEM.SOLV>
0

>  <SCORE.SYSTEM.norm>
0

>  <SCORE.heavy>
10

>  <SCORE.norm>
-1.74536

>  <RMSD>
0.518

$$$$
ligand
 OpenBabel11021811493D
libRbt.so/2013.1/901 2013/11/27
 10 11  0  0  0  0  0  0  0  0999 V2000
   11.8304   11.3493    8.6141 N   0  0  0  0  0  0  0  0  0  0  0  0
   11.5557   12.6936    8.6141 C   0  0  0  0  0  0  0  0  0  0  0  0
   11.2343   13.3440    7.4842 N   0  0  0  0  0  0  0  0  0  0  0  0
   11.2126   12.5526    6.3918 C   0  0  0  0  0  0  0  0  0  0  0  0
   11.4783   11.2026    6.3271 C   0  0  0  0  0  0  0  0  0  0  0  0
   11.8152   10.5015    7.5021 C   0  0  0  0  0  0  0  0  0  0  0  0
   12.0827    9.3177    7.6564 O   0  0  0  0  0  0  0  0  0  0  0  0
   11.3436   10.7902    5.0338 N   0  0  0  0  0  0  0  0  0  0  0  0
   11.0006   11.8817    4.3179 C   0  0  0  0  0  0  0  0  0  0  0  0
   10.9141   12.9845    5.1285 N   0  0  0  0  0  0  0  0  0  0  0  0
  1  2  1  0  0  0  0
  1  6  1  0  0  0  0
  2  3  2  0  0  0  0
  3  4  1  0  0  0  0
  4  5  2  0  0  0  0
  4 10  1  0  0  0  0
  5  6  1  0  0  0  0
  5  8  1  0  0  0  0
  6  7  2  0  0  0  0
  8  9  1  0  0  0  0
  9 10  2  0  0  0  0
M  END
>  <CHROM.1>
11.45894401,11.61847468,6.72712454,0.44430508,-1.31310205,0.88195978

>  <Name>
ligand

>  <RI>
0

>  <Rbt.Current_Directory>
/home/itssahil/PROJECTS/Mol_Feturizer/New_Systems/rnas/4FEJ

>  <Rbt.Executable>
rbdock ($Id: //depot/dev/client3/rdock/2013.1/src/exe/rbdock.cxx#4 $)

>  <Rbt.Library>
libRbt.so (2013.1, Build901 2013/11/27)

>  <Rbt.Parameter_File>
/export/apps/rDock/src/rDock_2013.1_src/data/scripts/dock_solv.prm

>  <Rbt.Receptor>
prm/pocket_docking_4.prm

>  <SCORE>
-17.4412

>  <SCORE.INTER>
-17.4412

>  <SCORE.INTER.CONST>
1

>  <SCORE.INTER.POLAR>
0

>  <SCORE.INTER.ROT>
0

>  <SCORE.INTER.SOLV>
3.84036

>  <SCORE.INTER.VDW>
-16.5076

>  <SCORE.INTER.norm>
-1.74412

>  <SCORE.INTRA>
0

>  <SCORE.INTRA.DIHEDRAL>
0

>  <SCORE.INTRA.DIHEDRAL.0>
0

>  <SCORE.INTRA.POLAR>
0

>  <SCORE.INTRA.POLAR.0>
0

>  <SCORE.INTRA.REPUL>
0

>  <SCORE.INTRA.REPUL.0>
0

>  <SCORE.INTRA.SOLV>
0

>  <SCORE.INTRA.SOLV.lig_0>
-4.26631

>  <SCORE.INTRA.VDW>
0

>  <SCORE.INTRA.VDW.0>
0

>  <SCORE.INTRA.norm>
0

>  <SCORE.RESTR>
0

>  <SCORE.RESTR.CAVITY>
0

>  <SCORE.RESTR.norm>
0

>  <SCORE.SYSTEM>
0

>  <SCORE.SYSTEM.CONST>
0

>  <SCORE.SYSTEM.DIHEDRAL>
0

>  <SCORE.SYSTEM.SOLV>
0

>  <SCORE.SYSTEM.norm>
0

>  <SCORE.heavy>
10

>  <SCORE.norm>
-1.74412

>  <RMSD>
0.518

$$$$
ligand
 OpenBabel11021811493D
libRbt.so/2013.1/901 2013/11/27
 10 11  0  0  0  0  0  0  0  0999 V2000
   11.8528   11.3625    8.6088 N   0  0  0  0  0  0  0  0  0  0  0  0
   11.5807   12.7073    8.6088 C   0  0  0  0  0  0  0  0  0  0  0  0
   11.2476   13.3557    7.4811 N   0  0  0  0  0  0  0  0  0  0  0  0
   11.2119   12.5618    6.3909 C   0  0  0  0  0  0  0  0  0  0  0  0
   11.4743   11.2111    6.3264 C   0  0  0  0  0  0  0  0  0  0  0  0
   11.8233   10.5121    7.4991 C   0  0  0  0  0  0  0  0  0  0  0  0
   12.0903    9.3282    7.6531 O   0  0  0  0  0  0  0  0  0  0  0  0
   11.3240   10.7960    5.0357 N   0  0  0  0  0  0  0  0  0  0  0  0
   10.9749   11.8865    4.3212 C   0  0  0  0  0  0  0  0  0  0  0  0
   10.8998   12.9913    5.1301 N   0  0  0  0  0  0  0  0  0  0  0  0
  1  2  1  0  0  0  0
  1  6  1  0  0  0  0
  2  3  2  0  0  0  0
  3  4  1  0  0  0  0
  4  5  2  0  0  0  0
  4 10  1  0  0  0  0
  5  6  1  0  0  0  0
  5  8  1  0  0  0  0
  6  7  2  0  0  0  0
  8  9  1  0  0  0  0
  9 10  2  0  0  0  0
M  END
>  <CHROM.1>
11.46029635,11.62799028,6.72557343,0.40573592,-1.30709558,0.84235343

>  <Name>
ligand

>  <RI>
0

>  <Rbt.Current_Directory>
/home/itssahil/PROJECTS/Mol_Feturizer/New_Systems/rnas/4FEJ

>  <Rbt.Executable>
rbdock ($Id: //depot/dev/client3/rdock/2013.1/src/exe/rbdock.cxx#4 $)

>  <Rbt.Library>
libRbt.so (2013.1, Build901 2013/11/27)

>  <Rbt.Parameter_File>
/export/apps/rDock/src/rDock_2013.1_src/data/scripts/dock_solv.prm

>  <Rbt.Receptor>
prm/pocket_docking_5.prm

>  <SCORE>
-17.4718

>  <SCORE.INTER>
-17.4718

>  <SCORE.INTER.CONST>
1

>  <SCORE.INTER.POLAR>
0

>  <SCORE.INTER.ROT>
0

>  <SCORE.INTER.SOLV>
3.82718

>  <SCORE.INTER.VDW>
-16.5236

>  <SCORE.INTER.norm>
-1.74718

>  <SCORE.INTRA>
0

>  <SCORE.INTRA.DIHEDRAL>
0

>  <SCORE.INTRA.DIHEDRAL.0>
0

>  <SCORE.INTRA.POLAR>
0

>  <SCORE.INTRA.POLAR.0>
0

>  <SCORE.INTRA.REPUL>
0

>  <SCORE.INTRA.REPUL.0>
0

>  <SCORE.INTRA.SOLV>
0

>  <SCORE.INTRA.SOLV.lig_0>
-4.26631

>  <SCORE.INTRA.VDW>
0

>  <SCORE.INTRA.VDW.0>
0

>  <SCORE.INTRA.norm>
0

>  <SCORE.RESTR>
0

>  <SCORE.RESTR.CAVITY>
0

>  <SCORE.RESTR.norm>
0

>  <SCORE.SYSTEM>
0

>  <SCORE.SYSTEM.CONST>
0

>  <SCORE.SYSTEM.DIHEDRAL>
0

>  <SCORE.SYSTEM.SOLV>
0

>  <SCORE.SYSTEM.norm>
0

>  <SCORE.heavy>
10

>  <SCORE.norm>
-1.74718

>  <RMSD>
0.518

$$$$
ligand
 OpenBabel11021811493D
libRbt.so/2013.1/901 2013/11/27
 10 11  0  0  0  0  0  0  0  0999 V2000
   11.8497   11.3146    8.5995 N   0  0  0  0  0  0  0  0  0  0  0  0
   11.6283   12.6685    8.6173 C   0  0  0  0  0  0  0  0  0  0  0  0
   11.3166   13.3432    7.4990 N   0  0  0  0  0  0  0  0  0  0  0  0
   11.2478   12.5651    6.3990 C   0  0  0  0  0  0  0  0  0  0  0  0
   11.4591   11.2065    6.3166 C   0  0  0  0  0  0  0  0  0  0  0  0
   11.7850   10.4800    7.4792 C   0  0  0  0  0  0  0  0  0  0  0  0
   12.0077    9.2850    7.6174 O   0  0  0  0  0  0  0  0  0  0  0  0
   11.2895   10.8137    5.0213 N   0  0  0  0  0  0  0  0  0  0  0  0
   10.9796   11.9255    4.3217 C   0  0  0  0  0  0  0  0  0  0  0  0
   10.9485   13.0220    5.1447 N   0  0  0  0  0  0  0  0  0  0  0  0
  1  2  1  0  0  0  0
  1  6  1  0  0  0  0
  2  3  2  0  0  0  0
  3  4  1  0  0  0  0
  4  5  2  0  0  0  0
  4 10  1  0  0  0  0
  5  6  1  0  0  0  0
  5  8  1  0  0  0  0
  6  7  2  0  0  0  0
  8  9  1  0  0  0  0
  9 10  2  0  0  0  0
M  END
>  <CHROM.1>
11.46193026,11.61847930,6.72103980,0.29063751,-1.33171019,0.74349398

>  <Name>
ligand

>  <RI>
0

>  <Rbt.Current_Directory>
/home/itssahil/PROJECTS/Mol_Feturizer/New_Systems/rnas/4FEJ

>  <Rbt.Executable>
rbdock ($Id: //depot/dev/client3/rdock/2013.1/src/exe/rbdock.cxx#4 $)

>  <Rbt.Library>
libRbt.so (2013.1, Build901 2013/11/27)

>  <Rbt.Parameter_File>
/export/apps/rDock/src/rDock_2013.1_src/data/scripts/dock_solv.prm

>  <Rbt.Receptor>
prm/pocket_docking_5.prm

>  <SCORE>
-17.4505

>  <SCORE.INTER>
-17.4505

>  <SCORE.INTER.CONST>
1

>  <SCORE.INTER.POLAR>
0

>  <SCORE.INTER.ROT>
0

>  <SCORE.INTER.SOLV>
3.90396

>  <SCORE.INTER.VDW>
-16.535

>  <SCORE.INTER.norm>
-1.74505

>  <SCORE.INTRA>
0

>  <SCORE.INTRA.DIHEDRAL>
0

>  <SCORE.INTRA.DIHEDRAL.0>
0

>  <SCORE.INTRA.POLAR>
0

>  <SCORE.INTRA.POLAR.0>
0

>  <SCORE.INTRA.REPUL>
0

>  <SCORE.INTRA.REPUL.0>
0

>  <SCORE.INTRA.SOLV>
0

>  <SCORE.INTRA.SOLV.lig_0>
-4.26631

>  <SCORE.INTRA.VDW>
0

>  <SCORE.INTRA.VDW.0>
0

>  <SCORE.INTRA.norm>
0

>  <SCORE.RESTR>
0

>  <SCORE.RESTR.CAVITY>
0

>  <SCORE.RESTR.norm>
0

>  <SCORE.SYSTEM>
0

>  <SCORE.SYSTEM.CONST>
0

>  <SCORE.SYSTEM.DIHEDRAL>
0

>  <SCORE.SYSTEM.SOLV>
0

>  <SCORE.SYSTEM.norm>
0

>  <SCORE.heavy>
10

>  <SCORE.norm>
-1.74505

>  <RMSD>
0.518

$$$$
ligand
 OpenBabel11021811493D
libRbt.so/2013.1/901 2013/11/27
 10 11  0  0  0  0  0  0  0  0999 V2000
   11.8436   11.3368    8.6203 N   0  0  0  0  0  0  0  0  0  0  0  0
   11.6086   12.6885    8.6160 C   0  0  0  0  0  0  0  0  0  0  0  0
   11.3017   13.3437    7.4848 N   0  0  0  0  0  0  0  0  0  0  0  0
   11.2522   12.5491    6.3957 C   0  0  0  0  0  0  0  0  0  0  0  0
   11.4778   11.1916    6.3353 C   0  0  0  0  0  0  0  0  0  0  0  0
   11.7989   10.4854    7.5117 C   0  0  0  0  0  0  0  0  0  0  0  0
   12.0321    9.2949    7.6696 O   0  0  0  0  0  0  0  0  0  0  0  0
   11.3256   10.7783    5.0442 N   0  0  0  0  0  0  0  0  0  0  0  0
   11.0119   11.8767    4.3253 C   0  0  0  0  0  0  0  0  0  0  0  0
   10.9613   12.9847    5.1319 N   0  0  0  0  0  0  0  0  0  0  0  0
  1  2  1  0  0  0  0
  1  6  1  0  0  0  0
  2  3  2  0  0  0  0
  3  4  1  0  0  0  0
  4  5  2  0  0  0  0
  4 10  1  0  0  0  0
  5  6  1  0  0  0  0
  5  8  1  0  0  0  0
  6  7  2  0  0  0  0
  8  9  1  0  0  0  0
  9 10  2  0  0  0  0
M  END
>  <CHROM.1>
11.47236328,11.60943436,6.73369622,0.35152489,-1.33216342,0.78808398

>  <Name>
ligand

>  <RI>
0

>  <Rbt.Current_Directory>
/home/itssahil/PROJECTS/Mol_Feturizer/New_Systems/rnas/4FEJ

>  <Rbt.Executable>
rbdock ($Id: //depot/dev/client3/rdock/2013.1/src/exe/rbdock.cxx#4 $)

>  <Rbt.Library>
libRbt.so (2013.1, Build901 2013/11/27)

>  <Rbt.Parameter_File>
/export/apps/rDock/src/rDock_2013.1_src/data/scripts/dock_solv.prm

>  <Rbt.Receptor>
prm/pocket_docking_5.prm

>  <SCORE>
-17.4511

>  <SCORE.INTER>
-17.4511

>  <SCORE.INTER.CONST>
1

>  <SCORE.INTER.POLAR>
0

>  <SCORE.INTER.ROT>
0

>  <SCORE.INTER.SOLV>
3.90841

>  <SCORE.INTER.VDW>
-16.5369

>  <SCORE.INTER.norm>
-1.74511

>  <SCORE.INTRA>
0

>  <SCORE.INTRA.DIHEDRAL>
0

>  <SCORE.INTRA.DIHEDRAL.0>
0

>  <SCORE.INTRA.POLAR>
0

>  <SCORE.INTRA.POLAR.0>
0

>  <SCORE.INTRA.REPUL>
0

>  <SCORE.INTRA.REPUL.0>
0

>  <SCORE.INTRA.SOLV>
0

>  <SCORE.INTRA.SOLV.lig_0>
-4.26631

>  <SCORE.INTRA.VDW>
0

>  <SCORE.INTRA.VDW.0>
0

>  <SCORE.INTRA.norm>
0

>  <SCORE.RESTR>
0

>  <SCORE.RESTR.CAVITY>
0

>  <SCORE.RESTR.norm>
0

>  <SCORE.SYSTEM>
0

>  <SCORE.SYSTEM.CONST>
0

>  <SCORE.SYSTEM.DIHEDRAL>
0

>  <SCORE.SYSTEM.SOLV>
0

>  <SCORE.SYSTEM.norm>
0

>  <SCORE.heavy>
10

>  <SCORE.norm>
-1.74511

>  <RMSD>
0.518

$$$$
ligand
 OpenBabel11021811493D
libRbt.so/2013.1/901 2013/11/27
 10 11  0  0  0  0  0  0  0  0999 V2000
   11.8830   11.3724    8.6122 N   0  0  0  0  0  0  0  0  0  0  0  0
   11.6479   12.7242    8.6126 C   0  0  0  0  0  0  0  0  0  0  0  0
   11.3225   13.3801    7.4870 N   0  0  0  0  0  0  0  0  0  0  0  0
   11.2552   12.5860    6.3983 C   0  0  0  0  0  0  0  0  0  0  0  0
   11.4799   11.2286    6.3335 C   0  0  0  0  0  0  0  0  0  0  0  0
   11.8201   10.5218    7.5040 C   0  0  0  0  0  0  0  0  0  0  0  0
   12.0560    9.3312    7.6574 O   0  0  0  0  0  0  0  0  0  0  0  0
   11.3066   10.8161    5.0448 N   0  0  0  0  0  0  0  0  0  0  0  0
   10.9811   11.9149    4.3318 C   0  0  0  0  0  0  0  0  0  0  0  0
   10.9436   13.0224    5.1397 N   0  0  0  0  0  0  0  0  0  0  0  0
  1  2  1  0  0  0  0
  1  6  1  0  0  0  0
  2  3  2  0  0  0  0
  3  4  1  0  0  0  0
  4  5  2  0  0  0  0
  4 10  1  0  0  0  0
  5  6  1  0  0  0  0
  5  8  1  0  0  0  0
  6  7  2  0  0  0  0
  8  9  1  0  0  0  0
  9 10  2  0  0  0  0
M  END
>  <CHROM.1>
11.48090180,11.64622580,6.73214359,0.30479848,-1.32033314,0.74335025

>  <Name>
ligand

>  <RI>
0

>  <Rbt.Current_Directory>
/home/itssahil/PROJECTS/Mol_Feturizer/New_Systems/rnas/4FEJ

>  <Rbt.Executable>
rbdock ($Id: //depot/dev/client3/rdock/2013.1/src/exe/rbdock.cxx#4 $)

>  <Rbt.Library>
libRbt.so (2013.1, Build901 2013/11/27)

>  <Rbt.Parameter_File>
/export/apps/rDock/src/rDock_2013.1_src/data/scripts/dock_solv.prm

>  <Rbt.Receptor>
prm/pocket_docking_3.prm

>  <SCORE>
-17.4749

>  <SCORE.INTER>
-17.4749

>  <SCORE.INTER.CONST>
1

>  <SCORE.INTER.POLAR>
0

>  <SCORE.INTER.ROT>
0

>  <SCORE.INTER.SOLV>
3.87756

>  <SCORE.INTER.VDW>
-16.5425

>  <SCORE.INTER.norm>
-1.74749

>  <SCORE.INTRA>
0

>  <SCORE.INTRA.DIHEDRAL>
0

>  <SCORE.INTRA.DIHEDRAL.0>
0

>  <SCORE.INTRA.POLAR>
0

>  <SCORE.INTRA.POLAR.0>
0

>  <SCORE.INTRA.REPUL>
0

>  <SCORE.INTRA.REPUL.0>
0

>  <SCORE.INTRA.SOLV>
0

>  <SCORE.INTRA.SOLV.lig_0>
-4.26631

>  <SCORE.INTRA.VDW>
0

>  <SCORE.INTRA.VDW.0>
0

>  <SCORE.INTRA.norm>
0

>  <SCORE.RESTR>
0

>  <SCORE.RESTR.CAVITY>
0

>  <SCORE.RESTR.norm>
0

>  <SCORE.SYSTEM>
0

>  <SCORE.SYSTEM.CONST>
0

>  <SCORE.SYSTEM.DIHEDRAL>
0

>  <SCORE.SYSTEM.SOLV>
0

>  <SCORE.SYSTEM.norm>
0

>  <SCORE.heavy>
10

>  <SCORE.norm>
-1.74749

>  <RMSD>
0.519

$$$$
ligand
 OpenBabel11021811493D
libRbt.so/2013.1/901 2013/11/27
 10 11  0  0  0  0  0  0  0  0999 V2000
   11.8718   11.3137    8.5837 N   0  0  0  0  0  0  0  0  0  0  0  0
   11.6487   12.6672    8.6070 C   0  0  0  0  0  0  0  0  0  0  0  0
   11.3259   13.3444    7.4933 N   0  0  0  0  0  0  0  0  0  0  0  0
   11.2483   12.5691    6.3920 C   0  0  0  0  0  0  0  0  0  0  0  0
   11.4607   11.2110    6.3041 C   0  0  0  0  0  0  0  0  0  0  0  0
   11.7981   10.4820    7.4619 C   0  0  0  0  0  0  0  0  0  0  0  0
   12.0237    9.2869    7.5949 O   0  0  0  0  0  0  0  0  0  0  0  0
   11.2799   10.8213    5.0094 N   0  0  0  0  0  0  0  0  0  0  0  0
   10.9622   11.9345    4.3156 C   0  0  0  0  0  0  0  0  0  0  0  0
   10.9370   13.0288    5.1417 N   0  0  0  0  0  0  0  0  0  0  0  0
  1  2  1  0  0  0  0
  1  6  1  0  0  0  0
  2  3  2  0  0  0  0
  3  4  1  0  0  0  0
  4  5  2  0  0  0  0
  4 10  1  0  0  0  0
  5  6  1  0  0  0  0
  5  8  1  0  0  0  0
  6  7  2  0  0  0  0
  8  9  1  0  0  0  0
  9 10  2  0  0  0  0
M  END
>  <CHROM.1>
11.46662342,11.62192071,6.70961523,0.26977285,-1.32405808,0.72584023

>  <Name>
ligand

>  <RI>
0

>  <Rbt.Current_Directory>
/home/itssahil/PROJECTS/Mol_Feturizer/New_Systems/rnas/4FEJ

>  <Rbt.Executable>
rbdock ($Id: //depot/dev/client3/rdock/2013.1/src/exe/rbdock.cxx#4 $)

>  <Rbt.Library>
libRbt.so (2013.1, Build901 2013/11/27)

>  <Rbt.Parameter_File>
/export/apps/rDock/src/rDock_2013.1_src/data/scripts/dock_solv.prm

>  <Rbt.Receptor>
prm/pocket_docking_4.prm

>  <SCORE>
-17.4681

>  <SCORE.INTER>
-17.4681

>  <SCORE.INTER.CONST>
1

>  <SCORE.INTER.POLAR>
0

>  <SCORE.INTER.ROT>
0

>  <SCORE.INTER.SOLV>
3.87871

>  <SCORE.INTER.VDW>
-16.5383

>  <SCORE.INTER.norm>
-1.74681

>  <SCORE.INTRA>
0

>  <SCORE.INTRA.DIHEDRAL>
0

>  <SCORE.INTRA.DIHEDRAL.0>
0

>  <SCORE.INTRA.POLAR>
0

>  <SCORE.INTRA.POLAR.0>
0

>  <SCORE.INTRA.REPUL>
0

>  <SCORE.INTRA.REPUL.0>
0

>  <SCORE.INTRA.SOLV>
0

>  <SCORE.INTRA.SOLV.lig_0>
-4.26631

>  <SCORE.INTRA.VDW>
0

>  <SCORE.INTRA.VDW.0>
0

>  <SCORE.INTRA.norm>
0

>  <SCORE.RESTR>
0

>  <SCORE.RESTR.CAVITY>
0

>  <SCORE.RESTR.norm>
0

>  <SCORE.SYSTEM>
0

>  <SCORE.SYSTEM.CONST>
0

>  <SCORE.SYSTEM.DIHEDRAL>
0

>  <SCORE.SYSTEM.SOLV>
0

>  <SCORE.SYSTEM.norm>
0

>  <SCORE.heavy>
10

>  <SCORE.norm>
-1.74681

>  <RMSD>
0.519

$$$$
ligand
 OpenBabel11021811493D
libRbt.so/2013.1/901 2013/11/27
 10 11  0  0  0  0  0  0  0  0999 V2000
   11.8605   11.3551    8.6326 N   0  0  0  0  0  0  0  0  0  0  0  0
   11.6387   12.7089    8.6153 C   0  0  0  0  0  0  0  0  0  0  0  0
   11.3192   13.3532    7.4813 N   0  0  0  0  0  0  0  0  0  0  0  0
   11.2435   12.5456    6.4032 C   0  0  0  0  0  0  0  0  0  0  0  0
   11.4549   11.1853    6.3561 C   0  0  0  0  0  0  0  0  0  0  0  0
   11.7888   10.4906    7.5357 C   0  0  0  0  0  0  0  0  0  0  0  0
   12.0131    9.2999    7.7046 O   0  0  0  0  0  0  0  0  0  0  0  0
   11.2770   10.7577    5.0730 N   0  0  0  0  0  0  0  0  0  0  0  0
   10.9619   11.8501    4.3457 C   0  0  0  0  0  0  0  0  0  0  0  0
   10.9357   12.9684    5.1390 N   0  0  0  0  0  0  0  0  0  0  0  0
  1  2  1  0  0  0  0
  1  6  1  0  0  0  0
  2  3  2  0  0  0  0
  3  4  1  0  0  0  0
  4  5  2  0  0  0  0
  4 10  1  0  0  0  0
  5  6  1  0  0  0  0
  5  8  1  0  0  0  0
  6  7  2  0  0  0  0
  8  9  1  0  0  0  0
  9 10  2  0  0  0  0
M  END
>  <CHROM.1>
11.46023217,11.60809564,6.74921222,0.27361719,-1.32648087,0.69998015

>  <Name>
ligand

>  <RI>
0

>  <Rbt.Current_Directory>
/home/itssahil/PROJECTS/Mol_Feturizer/New_Systems/rnas/4FEJ

>  <Rbt.Executable>
rbdock ($Id: //depot/dev/client3/rdock/2013.1/src/exe/rbdock.cxx#4 $)

>  <Rbt.Library>
libRbt.so (2013.1, Build901 2013/11/27)

>  <Rbt.Parameter_File>
/export/apps/rDock/src/rDock_2013.1_src/data/scripts/dock_solv.prm

>  <Rbt.Receptor>
prm/pocket_docking_6.prm

>  <SCORE>
-17.4574

>  <SCORE.INTER>
-17.4574

>  <SCORE.INTER.CONST>
1

>  <SCORE.INTER.POLAR>
0

>  <SCORE.INTER.ROT>
0

>  <SCORE.INTER.SOLV>
3.92785

>  <SCORE.INTER.VDW>
-16.5476

>  <SCORE.INTER.norm>
-1.74574

>  <SCORE.INTRA>
0

>  <SCORE.INTRA.DIHEDRAL>
0

>  <SCORE.INTRA.DIHEDRAL.0>
0

>  <SCORE.INTRA.POLAR>
0

>  <SCORE.INTRA.POLAR.0>
0

>  <SCORE.INTRA.REPUL>
0

>  <SCORE.INTRA.REPUL.0>
0

>  <SCORE.INTRA.SOLV>
0

>  <SCORE.INTRA.SOLV.lig_0>
-4.26631

>  <SCORE.INTRA.VDW>
0

>  <SCORE.INTRA.VDW.0>
0

>  <SCORE.INTRA.norm>
0

>  <SCORE.RESTR>
0

>  <SCORE.RESTR.CAVITY>
0

>  <SCORE.RESTR.norm>
0

>  <SCORE.SYSTEM>
0

>  <SCORE.SYSTEM.CONST>
0

>  <SCORE.SYSTEM.DIHEDRAL>
0

>  <SCORE.SYSTEM.SOLV>
0

>  <SCORE.SYSTEM.norm>
0

>  <SCORE.heavy>
10

>  <SCORE.norm>
-1.74574

>  <RMSD>
0.519

$$$$
ligand
 OpenBabel11021811493D
libRbt.so/2013.1/901 2013/11/27
 10 11  0  0  0  0  0  0  0  0999 V2000
   11.8670   11.3696    8.6138 N   0  0  0  0  0  0  0  0  0  0  0  0
   11.6224   12.7196    8.6149 C   0  0  0  0  0  0  0  0  0  0  0  0
   11.3015   13.3755    7.4880 N   0  0  0  0  0  0  0  0  0  0  0  0
   11.2485   12.5832    6.3973 C   0  0  0  0  0  0  0  0  0  0  0  0
   11.4833   11.2275    6.3316 C   0  0  0  0  0  0  0  0  0  0  0  0
   11.8191   10.5207    7.5035 C   0  0  0  0  0  0  0  0  0  0  0  0
   12.0621    9.3315    7.6565 O   0  0  0  0  0  0  0  0  0  0  0  0
   11.3233   10.8164    5.0408 N   0  0  0  0  0  0  0  0  0  0  0  0
   10.9958   11.9142    4.3273 C   0  0  0  0  0  0  0  0  0  0  0  0
   10.9440   13.0198    5.1371 N   0  0  0  0  0  0  0  0  0  0  0  0
  1  2  1  0  0  0  0
  1  6  1  0  0  0  0
  2  3  2  0  0  0  0
  3  4  1  0  0  0  0
  4  5  2  0  0  0  0
  4 10  1  0  0  0  0
  5  6  1  0  0  0  0
  5  8  1  0  0  0  0
  6  7  2  0  0  0  0
  8  9  1  0  0  0  0
  9 10  2  0  0  0  0
M  END
>  <CHROM.1>
11.47817757,11.64430466,6.73110211,0.34786924,-1.32125356,0.78704437

>  <Name>
ligand

>  <RI>
0

>  <Rbt.Current_Directory>
/home/itssahil/PROJECTS/Mol_Feturizer/New_Systems/rnas/4FEJ

>  <Rbt.Executable>
rbdock ($Id: //depot/dev/client3/rdock/2013.1/src/exe/rbdock.cxx#4 $)

>  <Rbt.Library>
libRbt.so (2013.1, Build901 2013/11/27)

>  <Rbt.Parameter_File>
/export/apps/rDock/src/rDock_2013.1_src/data/scripts/dock_solv.prm

>  <Rbt.Receptor>
prm/pocket_docking_6.prm

>  <SCORE>
-17.4636

>  <SCORE.INTER>
-17.4636

>  <SCORE.INTER.CONST>
1

>  <SCORE.INTER.POLAR>
0

>  <SCORE.INTER.ROT>
0

>  <SCORE.INTER.SOLV>
3.87152

>  <SCORE.INTER.VDW>
-16.5329

>  <SCORE.INTER.norm>
-1.74636

>  <SCORE.INTRA>
0

>  <SCORE.INTRA.DIHEDRAL>
0

>  <SCORE.INTRA.DIHEDRAL.0>
0

>  <SCORE.INTRA.POLAR>
0

>  <SCORE.INTRA.POLAR.0>
0

>  <SCORE.INTRA.REPUL>
0

>  <SCORE.INTRA.REPUL.0>
0

>  <SCORE.INTRA.SOLV>
0

>  <SCORE.INTRA.SOLV.lig_0>
-4.26631

>  <SCORE.INTRA.VDW>
0

>  <SCORE.INTRA.VDW.0>
0

>  <SCORE.INTRA.norm>
0

>  <SCORE.RESTR>
0

>  <SCORE.RESTR.CAVITY>
0

>  <SCORE.RESTR.norm>
0

>  <SCORE.SYSTEM>
0

>  <SCORE.SYSTEM.CONST>
0

>  <SCORE.SYSTEM.DIHEDRAL>
0

>  <SCORE.SYSTEM.SOLV>
0

>  <SCORE.SYSTEM.norm>
0

>  <SCORE.heavy>
10

>  <SCORE.norm>
-1.74636

>  <RMSD>
0.519

$$$$
ligand
 OpenBabel11021811493D
libRbt.so/2013.1/901 2013/11/27
 10 11  0  0  0  0  0  0  0  0999 V2000
   11.8529   11.3557    8.6314 N   0  0  0  0  0  0  0  0  0  0  0  0
   11.6252   12.7085    8.6149 C   0  0  0  0  0  0  0  0  0  0  0  0
   11.3045   13.3523    7.4810 N   0  0  0  0  0  0  0  0  0  0  0  0
   11.2340   12.5453    6.4021 C   0  0  0  0  0  0  0  0  0  0  0  0
   11.4514   11.1860    6.3541 C   0  0  0  0  0  0  0  0  0  0  0  0
   11.7867   10.4918    7.5337 C   0  0  0  0  0  0  0  0  0  0  0  0
   12.0159    9.3019    7.7019 O   0  0  0  0  0  0  0  0  0  0  0  0
   11.2772   10.7587    5.0704 N   0  0  0  0  0  0  0  0  0  0  0  0
   10.9584   11.8504    4.3437 C   0  0  0  0  0  0  0  0  0  0  0  0
   10.9261   12.9679    5.1379 N   0  0  0  0  0  0  0  0  0  0  0  0
  1  2  1  0  0  0  0
  1  6  1  0  0  0  0
  2  3  2  0  0  0  0
  3  4  1  0  0  0  0
  4  5  2  0  0  0  0
  4 10  1  0  0  0  0
  5  6  1  0  0  0  0
  5  8  1  0  0  0  0
  6  7  2  0  0  0  0
  8  9  1  0  0  0  0
  9 10  2  0  0  0  0
M  END
>  <CHROM.1>
11.45428876,11.60849421,6.74765856,0.29130217,-1.32472019,0.71798313

>  <Name>
ligand

>  <RI>
0

>  <Rbt.Current_Directory>
/home/itssahil/PROJECTS/Mol_Feturizer/New_Systems/rnas/4FEJ

>  <Rbt.Executable>
rbdock ($Id: //depot/dev/client3/rdock/2013.1/src/exe/rbdock.cxx#4 $)

>  <Rbt.Library>
libRbt.so (2013.1, Build901 2013/11/27)

>  <Rbt.Parameter_File>
/export/apps/rDock/src/rDock_2013.1_src/data/scripts/dock_solv.prm

>  <Rbt.Receptor>
prm/blind_docking_100.prm

>  <SCORE>
-17.4595

>  <SCORE.INTER>
-17.4595

>  <SCORE.INTER.CONST>
1

>  <SCORE.INTER.POLAR>
0

>  <SCORE.INTER.ROT>
0

>  <SCORE.INTER.SOLV>
3.91984

>  <SCORE.INTER.VDW>
-16.5462

>  <SCORE.INTER.norm>
-1.74595

>  <SCORE.INTRA>
0

>  <SCORE.INTRA.DIHEDRAL>
0

>  <SCORE.INTRA.DIHEDRAL.0>
0

>  <SCORE.INTRA.POLAR>
0

>  <SCORE.INTRA.POLAR.0>
0

>  <SCORE.INTRA.REPUL>
0

>  <SCORE.INTRA.REPUL.0>
0

>  <SCORE.INTRA.SOLV>
0

>  <SCORE.INTRA.SOLV.lig_0>
-4.26631

>  <SCORE.INTRA.VDW>
0

>  <SCORE.INTRA.VDW.0>
0

>  <SCORE.INTRA.norm>
0

>  <SCORE.RESTR>
0

>  <SCORE.RESTR.CAVITY>
0

>  <SCORE.RESTR.norm>
0

>  <SCORE.SYSTEM>
0

>  <SCORE.SYSTEM.CONST>
0

>  <SCORE.SYSTEM.DIHEDRAL>
0

>  <SCORE.SYSTEM.SOLV>
0

>  <SCORE.SYSTEM.norm>
0

>  <SCORE.heavy>
10

>  <SCORE.norm>
-1.74595

>  <RMSD>
0.520

$$$$
ligand
 OpenBabel11021811493D
libRbt.so/2013.1/901 2013/11/27
 10 11  0  0  0  0  0  0  0  0999 V2000
   11.8465   11.3620    8.6089 N   0  0  0  0  0  0  0  0  0  0  0  0
   11.5721   12.7062    8.6086 C   0  0  0  0  0  0  0  0  0  0  0  0
   11.2421   13.3547    7.4800 N   0  0  0  0  0  0  0  0  0  0  0  0
   11.2120   12.5613    6.3892 C   0  0  0  0  0  0  0  0  0  0  0  0
   11.4770   11.2112    6.3249 C   0  0  0  0  0  0  0  0  0  0  0  0
   11.8227   10.5121    7.4985 C   0  0  0  0  0  0  0  0  0  0  0  0
   12.0912    9.3286    7.6529 O   0  0  0  0  0  0  0  0  0  0  0  0
   11.3323   10.7965    5.0334 N   0  0  0  0  0  0  0  0  0  0  0  0
   10.9841   11.8868    4.3182 C   0  0  0  0  0  0  0  0  0  0  0  0
   10.9040   12.9910    5.1274 N   0  0  0  0  0  0  0  0  0  0  0  0
  1  2  1  0  0  0  0
  1  6  1  0  0  0  0
  2  3  2  0  0  0  0
  3  4  1  0  0  0  0
  4  5  2  0  0  0  0
  4 10  1  0  0  0  0
  5  6  1  0  0  0  0
  5  8  1  0  0  0  0
  6  7  2  0  0  0  0
  8  9  1  0  0  0  0
  9 10  2  0  0  0  0
M  END
>  <CHROM.1>
11.46072497,11.62781222,6.72426896,0.42127866,-1.30831192,0.85792248

>  <Name>
ligand

>  <RI>
0

>  <Rbt.Current_Directory>
/home/itssahil/PROJECTS/Mol_Feturizer/New_Systems/rnas/4FEJ

>  <Rbt.Executable>
rbdock ($Id: //depot/dev/client3/rdock/2013.1/src/exe/rbdock.cxx#4 $)

>  <Rbt.Library>
libRbt.so (2013.1, Build901 2013/11/27)

>  <Rbt.Parameter_File>
/export/apps/rDock/src/rDock_2013.1_src/data/scripts/dock_solv.prm

>  <Rbt.Receptor>
prm/blind_docking_40.prm

>  <SCORE>
-17.4702

>  <SCORE.INTER>
-17.4702

>  <SCORE.INTER.CONST>
1

>  <SCORE.INTER.POLAR>
0

>  <SCORE.INTER.ROT>
0

>  <SCORE.INTER.SOLV>
3.82759

>  <SCORE.INTER.VDW>
-16.5227

>  <SCORE.INTER.norm>
-1.74702

>  <SCORE.INTRA>
0

>  <SCORE.INTRA.DIHEDRAL>
0

>  <SCORE.INTRA.DIHEDRAL.0>
0

>  <SCORE.INTRA.POLAR>
0

>  <SCORE.INTRA.POLAR.0>
0

>  <SCORE.INTRA.REPUL>
0

>  <SCORE.INTRA.REPUL.0>
0

>  <SCORE.INTRA.SOLV>
0

>  <SCORE.INTRA.SOLV.lig_0>
-4.26631

>  <SCORE.INTRA.VDW>
0

>  <SCORE.INTRA.VDW.0>
0

>  <SCORE.INTRA.norm>
0

>  <SCORE.RESTR>
0

>  <SCORE.RESTR.CAVITY>
0

>  <SCORE.RESTR.norm>
0

>  <SCORE.SYSTEM>
0

>  <SCORE.SYSTEM.CONST>
0

>  <SCORE.SYSTEM.DIHEDRAL>
0

>  <SCORE.SYSTEM.SOLV>
0

>  <SCORE.SYSTEM.norm>
0

>  <SCORE.heavy>
10

>  <SCORE.norm>
-1.74702

>  <RMSD>
0.520

$$$$
ligand
 OpenBabel11021811493D
libRbt.so/2013.1/901 2013/11/27
 10 11  0  0  0  0  0  0  0  0999 V2000
   11.8533   11.3560    8.6225 N   0  0  0  0  0  0  0  0  0  0  0  0
   11.6220   12.7083    8.6149 C   0  0  0  0  0  0  0  0  0  0  0  0
   11.3090   13.3603    7.4835 N   0  0  0  0  0  0  0  0  0  0  0  0
   11.2496   12.5618    6.3976 C   0  0  0  0  0  0  0  0  0  0  0  0
   11.4711   11.2035    6.3407 C   0  0  0  0  0  0  0  0  0  0  0  0
   11.7985   10.5007    7.5174 C   0  0  0  0  0  0  0  0  0  0  0  0
   12.0295    9.3101    7.6781 O   0  0  0  0  0  0  0  0  0  0  0  0
   11.3088   10.7859    5.0522 N   0  0  0  0  0  0  0  0  0  0  0  0
   10.9931   11.8825    4.3315 C   0  0  0  0  0  0  0  0  0  0  0  0
   10.9511   12.9935    5.1343 N   0  0  0  0  0  0  0  0  0  0  0  0
  1  2  1  0  0  0  0
  1  6  1  0  0  0  0
  2  3  2  0  0  0  0
  3  4  1  0  0  0  0
  4  5  2  0  0  0  0
  4 10  1  0  0  0  0
  5  6  1  0  0  0  0
  5  8  1  0  0  0  0
  6  7  2  0  0  0  0
  8  9  1  0  0  0  0
  9 10  2  0  0  0  0
M  END
>  <CHROM.1>
11.46961601,11.62277119,6.73755150,0.32266258,-1.32907932,0.75637788

>  <Name>
ligand

>  <RI>
0

>  <Rbt.Current_Directory>
/home/itssahil/PROJECTS/Mol_Feturizer/New_Systems/rnas/4FEJ

>  <Rbt.Executable>
rbdock ($Id: //depot/dev/client3/rdock/2013.1/src/exe/rbdock.cxx#4 $)

>  <Rbt.Library>
libRbt.so (2013.1, Build901 2013/11/27)

>  <Rbt.Parameter_File>
/export/apps/rDock/src/rDock_2013.1_src/data/scripts/dock_solv.prm

>  <Rbt.Receptor>
prm/blind_docking_60.prm

>  <SCORE>
-17.4444

>  <SCORE.INTER>
-17.4444

>  <SCORE.INTER.CONST>
1

>  <SCORE.INTER.POLAR>
0

>  <SCORE.INTER.ROT>
0

>  <SCORE.INTER.SOLV>
3.90783

>  <SCORE.INTER.VDW>
-16.5322

>  <SCORE.INTER.norm>
-1.74444

>  <SCORE.INTRA>
0

>  <SCORE.INTRA.DIHEDRAL>
0

>  <SCORE.INTRA.DIHEDRAL.0>
0

>  <SCORE.INTRA.POLAR>
0

>  <SCORE.INTRA.POLAR.0>
0

>  <SCORE.INTRA.REPUL>
0

>  <SCORE.INTRA.REPUL.0>
0

>  <SCORE.INTRA.SOLV>
0

>  <SCORE.INTRA.SOLV.lig_0>
-4.26631

>  <SCORE.INTRA.VDW>
0

>  <SCORE.INTRA.VDW.0>
0

>  <SCORE.INTRA.norm>
0

>  <SCORE.RESTR>
0

>  <SCORE.RESTR.CAVITY>
0

>  <SCORE.RESTR.norm>
0

>  <SCORE.SYSTEM>
0

>  <SCORE.SYSTEM.CONST>
0

>  <SCORE.SYSTEM.DIHEDRAL>
0

>  <SCORE.SYSTEM.SOLV>
0

>  <SCORE.SYSTEM.norm>
0

>  <SCORE.heavy>
10

>  <SCORE.norm>
-1.74444

>  <RMSD>
0.520

$$$$
ligand
 OpenBabel11021811493D
libRbt.so/2013.1/901 2013/11/27
 10 11  0  0  0  0  0  0  0  0999 V2000
   11.8802   11.3603    8.6057 N   0  0  0  0  0  0  0  0  0  0  0  0
   11.6322   12.7097    8.6002 C   0  0  0  0  0  0  0  0  0  0  0  0
   11.3086   13.3590    7.4703 N   0  0  0  0  0  0  0  0  0  0  0  0
   11.2566   12.5610    6.3837 C   0  0  0  0  0  0  0  0  0  0  0  0
   11.4948   11.2056    6.3246 C   0  0  0  0  0  0  0  0  0  0  0  0
   11.8335   10.5057    7.4998 C   0  0  0  0  0  0  0  0  0  0  0  0
   12.0796    9.3178    7.6585 O   0  0  0  0  0  0  0  0  0  0  0  0
   11.3346   10.7876    5.0360 N   0  0  0  0  0  0  0  0  0  0  0  0
   11.0037   11.8810    4.3174 C   0  0  0  0  0  0  0  0  0  0  0  0
   10.9499   12.9905    5.1215 N   0  0  0  0  0  0  0  0  0  0  0  0
  1  2  1  0  0  0  0
  1  6  1  0  0  0  0
  2  3  2  0  0  0  0
  3  4  1  0  0  0  0
  4  5  2  0  0  0  0
  4 10  1  0  0  0  0
  5  6  1  0  0  0  0
  5  8  1  0  0  0  0
  6  7  2  0  0  0  0
  8  9  1  0  0  0  0
  9 10  2  0  0  0  0
M  END
>  <CHROM.1>
11.48895768,11.62443466,6.72200955,0.35243615,-1.31881838,0.78640858

>  <Name>
ligand

>  <RI>
0

>  <Rbt.Current_Directory>
/home/itssahil/PROJECTS/Mol_Feturizer/New_Systems/rnas/4FEJ

>  <Rbt.Executable>
rbdock ($Id: //depot/dev/client3/rdock/2013.1/src/exe/rbdock.cxx#4 $)

>  <Rbt.Library>
libRbt.so (2013.1, Build901 2013/11/27)

>  <Rbt.Parameter_File>
/export/apps/rDock/src/rDock_2013.1_src/data/scripts/dock_solv.prm

>  <Rbt.Receptor>
prm/pocket_docking_3.prm

>  <SCORE>
-17.4415

>  <SCORE.INTER>
-17.4415

>  <SCORE.INTER.CONST>
1

>  <SCORE.INTER.POLAR>
0

>  <SCORE.INTER.ROT>
0

>  <SCORE.INTER.SOLV>
3.86331

>  <SCORE.INTER.VDW>
-16.5154

>  <SCORE.INTER.norm>
-1.74415

>  <SCORE.INTRA>
0

>  <SCORE.INTRA.DIHEDRAL>
0

>  <SCORE.INTRA.DIHEDRAL.0>
0

>  <SCORE.INTRA.POLAR>
0

>  <SCORE.INTRA.POLAR.0>
0

>  <SCORE.INTRA.REPUL>
0

>  <SCORE.INTRA.REPUL.0>
0

>  <SCORE.INTRA.SOLV>
0

>  <SCORE.INTRA.SOLV.lig_0>
-4.26631

>  <SCORE.INTRA.VDW>
0

>  <SCORE.INTRA.VDW.0>
0

>  <SCORE.INTRA.norm>
0

>  <SCORE.RESTR>
0

>  <SCORE.RESTR.CAVITY>
0

>  <SCORE.RESTR.norm>
0

>  <SCORE.SYSTEM>
0

>  <SCORE.SYSTEM.CONST>
0

>  <SCORE.SYSTEM.DIHEDRAL>
0

>  <SCORE.SYSTEM.SOLV>
0

>  <SCORE.SYSTEM.norm>
0

>  <SCORE.heavy>
10

>  <SCORE.norm>
-1.74415

>  <RMSD>
0.520

$$$$
ligand
 OpenBabel11021811493D
libRbt.so/2013.1/901 2013/11/27
 10 11  0  0  0  0  0  0  0  0999 V2000
   11.8700   11.3262    8.5872 N   0  0  0  0  0  0  0  0  0  0  0  0
   11.6368   12.6781    8.6029 C   0  0  0  0  0  0  0  0  0  0  0  0
   11.3104   13.3468    7.4851 N   0  0  0  0  0  0  0  0  0  0  0  0
   11.2401   12.5649    6.3879 C   0  0  0  0  0  0  0  0  0  0  0  0
   11.4627   11.2080    6.3077 C   0  0  0  0  0  0  0  0  0  0  0  0
   11.8040   10.4878    7.4698 C   0  0  0  0  0  0  0  0  0  0  0  0
   12.0384    9.2953    7.6097 O   0  0  0  0  0  0  0  0  0  0  0  0
   11.2866   10.8100    5.0149 N   0  0  0  0  0  0  0  0  0  0  0  0
   10.9615   11.9169    4.3146 C   0  0  0  0  0  0  0  0  0  0  0  0
   10.9270   13.0155    5.1347 N   0  0  0  0  0  0  0  0  0  0  0  0
  1  2  1  0  0  0  0
  1  6  1  0  0  0  0
  2  3  2  0  0  0  0
  3  4  1  0  0  0  0
  4  5  2  0  0  0  0
  4 10  1  0  0  0  0
  5  6  1  0  0  0  0
  5  8  1  0  0  0  0
  6  7  2  0  0  0  0
  8  9  1  0  0  0  0
  9 10  2  0  0  0  0
M  END
>  <CHROM.1>
11.46503571,11.62118166,6.71094710,0.29584592,-1.32001273,0.74567545

>  <Name>
ligand

>  <RI>
0

>  <Rbt.Current_Directory>
/home/itssahil/PROJECTS/Mol_Feturizer/New_Systems/rnas/4FEJ

>  <Rbt.Executable>
rbdock ($Id: //depot/dev/client3/rdock/2013.1/src/exe/rbdock.cxx#4 $)

>  <Rbt.Library>
libRbt.so (2013.1, Build901 2013/11/27)

>  <Rbt.Parameter_File>
/export/apps/rDock/src/rDock_2013.1_src/data/scripts/dock_solv.prm

>  <Rbt.Receptor>
prm/pocket_docking_6.prm

>  <SCORE>
-17.4335

>  <SCORE.INTER>
-17.4335

>  <SCORE.INTER.CONST>
1

>  <SCORE.INTER.POLAR>
0

>  <SCORE.INTER.ROT>
0

>  <SCORE.INTER.SOLV>
3.86744

>  <SCORE.INTER.VDW>
-16.5115

>  <SCORE.INTER.norm>
-1.74335

>  <SCORE.INTRA>
0

>  <SCORE.INTRA.DIHEDRAL>
0

>  <SCORE.INTRA.DIHEDRAL.0>
0

>  <SCORE.INTRA.POLAR>
0

>  <SCORE.INTRA.POLAR.0>
0

>  <SCORE.INTRA.REPUL>
0

>  <SCORE.INTRA.REPUL.0>
0

>  <SCORE.INTRA.SOLV>
0

>  <SCORE.INTRA.SOLV.lig_0>
-4.26631

>  <SCORE.INTRA.VDW>
0

>  <SCORE.INTRA.VDW.0>
0

>  <SCORE.INTRA.norm>
0

>  <SCORE.RESTR>
0

>  <SCORE.RESTR.CAVITY>
0

>  <SCORE.RESTR.norm>
0

>  <SCORE.SYSTEM>
0

>  <SCORE.SYSTEM.CONST>
0

>  <SCORE.SYSTEM.DIHEDRAL>
0

>  <SCORE.SYSTEM.SOLV>
0

>  <SCORE.SYSTEM.norm>
0

>  <SCORE.heavy>
10

>  <SCORE.norm>
-1.74335

>  <RMSD>
0.520

$$$$
ligand
 OpenBabel11021811493D
libRbt.so/2013.1/901 2013/11/27
 10 11  0  0  0  0  0  0  0  0999 V2000
   11.7943   11.3446    8.6395 N   0  0  0  0  0  0  0  0  0  0  0  0
   11.5417   12.6931    8.6324 C   0  0  0  0  0  0  0  0  0  0  0  0
   11.2412   13.3447    7.4974 N   0  0  0  0  0  0  0  0  0  0  0  0
   11.2164   12.5499    6.4076 C   0  0  0  0  0  0  0  0  0  0  0  0
   11.4606   11.1955    6.3499 C   0  0  0  0  0  0  0  0  0  0  0  0
   11.7753   10.4932    7.5303 C   0  0  0  0  0  0  0  0  0  0  0  0
   12.0219    9.3057    7.6910 O   0  0  0  0  0  0  0  0  0  0  0  0
   11.3308   10.7808    5.0568 N   0  0  0  0  0  0  0  0  0  0  0  0
   11.0122   11.8752    4.3341 C   0  0  0  0  0  0  0  0  0  0  0  0
   10.9365   12.9821    5.1401 N   0  0  0  0  0  0  0  0  0  0  0  0
  1  2  1  0  0  0  0
  1  6  1  0  0  0  0
  2  3  2  0  0  0  0
  3  4  1  0  0  0  0
  4  5  2  0  0  0  0
  4 10  1  0  0  0  0
  5  6  1  0  0  0  0
  5  8  1  0  0  0  0
  6  7  2  0  0  0  0
  8  9  1  0  0  0  0
  9 10  2  0  0  0  0
M  END
>  <CHROM.1>
11.44438213,11.61306643,6.74828428,0.42981206,-1.33147357,0.86443341

>  <Name>
ligand

>  <RI>
0

>  <Rbt.Current_Directory>
/home/itssahil/PROJECTS/Mol_Feturizer/New_Systems/rnas/4FEJ

>  <Rbt.Executable>
rbdock ($Id: //depot/dev/client3/rdock/2013.1/src/exe/rbdock.cxx#4 $)

>  <Rbt.Library>
libRbt.so (2013.1, Build901 2013/11/27)

>  <Rbt.Parameter_File>
/export/apps/rDock/src/rDock_2013.1_src/data/scripts/dock_solv.prm

>  <Rbt.Receptor>
prm/pocket_docking_6.prm

>  <SCORE>
-17.445

>  <SCORE.INTER>
-17.445

>  <SCORE.INTER.CONST>
1

>  <SCORE.INTER.POLAR>
0

>  <SCORE.INTER.ROT>
0

>  <SCORE.INTER.SOLV>
3.91594

>  <SCORE.INTER.VDW>
-16.5353

>  <SCORE.INTER.norm>
-1.7445

>  <SCORE.INTRA>
0

>  <SCORE.INTRA.DIHEDRAL>
0

>  <SCORE.INTRA.DIHEDRAL.0>
0

>  <SCORE.INTRA.POLAR>
0

>  <SCORE.INTRA.POLAR.0>
0

>  <SCORE.INTRA.REPUL>
0

>  <SCORE.INTRA.REPUL.0>
0

>  <SCORE.INTRA.SOLV>
0

>  <SCORE.INTRA.SOLV.lig_0>
-4.26631

>  <SCORE.INTRA.VDW>
0

>  <SCORE.INTRA.VDW.0>
0

>  <SCORE.INTRA.norm>
0

>  <SCORE.RESTR>
0

>  <SCORE.RESTR.CAVITY>
0

>  <SCORE.RESTR.norm>
0

>  <SCORE.SYSTEM>
0

>  <SCORE.SYSTEM.CONST>
0

>  <SCORE.SYSTEM.DIHEDRAL>
0

>  <SCORE.SYSTEM.SOLV>
0

>  <SCORE.SYSTEM.norm>
0

>  <SCORE.heavy>
10

>  <SCORE.norm>
-1.7445

>  <RMSD>
0.520

$$$$
ligand
 OpenBabel11021811493D
libRbt.so/2013.1/901 2013/11/27
 10 11  0  0  0  0  0  0  0  0999 V2000
   11.8544   11.3438    8.6212 N   0  0  0  0  0  0  0  0  0  0  0  0
   11.6376   12.6985    8.6169 C   0  0  0  0  0  0  0  0  0  0  0  0
   11.3237   13.3553    7.4885 N   0  0  0  0  0  0  0  0  0  0  0  0
   11.2481   12.5588    6.4021 C   0  0  0  0  0  0  0  0  0  0  0  0
   11.4547   11.1983    6.3420 C   0  0  0  0  0  0  0  0  0  0  0  0
   11.7827   10.4906    7.5155 C   0  0  0  0  0  0  0  0  0  0  0  0
   12.0021    9.2974    7.6731 O   0  0  0  0  0  0  0  0  0  0  0  0
   11.2788   10.7842    5.0541 N   0  0  0  0  0  0  0  0  0  0  0  0
   10.9698   11.8850    4.3370 C   0  0  0  0  0  0  0  0  0  0  0  0
   10.9454   12.9954    5.1414 N   0  0  0  0  0  0  0  0  0  0  0  0
  1  2  1  0  0  0  0
  1  6  1  0  0  0  0
  2  3  2  0  0  0  0
  3  4  1  0  0  0  0
  4  5  2  0  0  0  0
  4 10  1  0  0  0  0
  5  6  1  0  0  0  0
  5  8  1  0  0  0  0
  6  7  2  0  0  0  0
  8  9  1  0  0  0  0
  9 10  2  0  0  0  0
M  END
>  <CHROM.1>
11.46040853,11.61709292,6.73934324,0.26947490,-1.33100893,0.70597946

>  <Name>
ligand

>  <RI>
0

>  <Rbt.Current_Directory>
/home/itssahil/PROJECTS/Mol_Feturizer/New_Systems/rnas/4FEJ

>  <Rbt.Executable>
rbdock ($Id: //depot/dev/client3/rdock/2013.1/src/exe/rbdock.cxx#4 $)

>  <Rbt.Library>
libRbt.so (2013.1, Build901 2013/11/27)

>  <Rbt.Parameter_File>
/export/apps/rDock/src/rDock_2013.1_src/data/scripts/dock_solv.prm

>  <Rbt.Receptor>
prm/pocket_docking_6.prm

>  <SCORE>
-17.439

>  <SCORE.INTER>
-17.439

>  <SCORE.INTER.CONST>
1

>  <SCORE.INTER.POLAR>
0

>  <SCORE.INTER.ROT>
0

>  <SCORE.INTER.SOLV>
3.92601

>  <SCORE.INTER.VDW>
-16.5347

>  <SCORE.INTER.norm>
-1.7439

>  <SCORE.INTRA>
0

>  <SCORE.INTRA.DIHEDRAL>
0

>  <SCORE.INTRA.DIHEDRAL.0>
0

>  <SCORE.INTRA.POLAR>
0

>  <SCORE.INTRA.POLAR.0>
0

>  <SCORE.INTRA.REPUL>
0

>  <SCORE.INTRA.REPUL.0>
0

>  <SCORE.INTRA.SOLV>
0

>  <SCORE.INTRA.SOLV.lig_0>
-4.26631

>  <SCORE.INTRA.VDW>
0

>  <SCORE.INTRA.VDW.0>
0

>  <SCORE.INTRA.norm>
0

>  <SCORE.RESTR>
0

>  <SCORE.RESTR.CAVITY>
0

>  <SCORE.RESTR.norm>
0

>  <SCORE.SYSTEM>
0

>  <SCORE.SYSTEM.CONST>
0

>  <SCORE.SYSTEM.DIHEDRAL>
0

>  <SCORE.SYSTEM.SOLV>
0

>  <SCORE.SYSTEM.norm>
0

>  <SCORE.heavy>
10

>  <SCORE.norm>
-1.7439

>  <RMSD>
0.520

$$$$
ligand
 OpenBabel11021811493D
libRbt.so/2013.1/901 2013/11/27
 10 11  0  0  0  0  0  0  0  0999 V2000
   11.8787   11.4376    8.6438 N   0  0  0  0  0  0  0  0  0  0  0  0
   11.5872   12.7780    8.6146 C   0  0  0  0  0  0  0  0  0  0  0  0
   11.2385   13.3955    7.4743 N   0  0  0  0  0  0  0  0  0  0  0  0
   11.2082   12.5763    6.4028 C   0  0  0  0  0  0  0  0  0  0  0  0
   11.4899   11.2284    6.3676 C   0  0  0  0  0  0  0  0  0  0  0  0
   11.8554   10.5616    7.5540 C   0  0  0  0  0  0  0  0  0  0  0  0
   12.1404    9.3855    7.7334 O   0  0  0  0  0  0  0  0  0  0  0  0
   11.3384   10.7816    5.0877 N   0  0  0  0  0  0  0  0  0  0  0  0
   10.9697   11.8503    4.3504 C   0  0  0  0  0  0  0  0  0  0  0  0
   10.8831   12.9722    5.1343 N   0  0  0  0  0  0  0  0  0  0  0  0
  1  2  1  0  0  0  0
  1  6  1  0  0  0  0
  2  3  2  0  0  0  0
  3  4  1  0  0  0  0
  4  5  2  0  0  0  0
  4 10  1  0  0  0  0
  5  6  1  0  0  0  0
  5  8  1  0  0  0  0
  6  7  2  0  0  0  0
  8  9  1  0  0  0  0
  9 10  2  0  0  0  0
M  END
>  <CHROM.1>
11.47201066,11.65409921,6.75725886,0.42592648,-1.29256273,0.83888476

>  <Name>
ligand

>  <RI>
0

>  <Rbt.Current_Directory>
/home/itssahil/PROJECTS/Mol_Feturizer/New_Systems/rnas/4FEJ

>  <Rbt.Executable>
rbdock ($Id: //depot/dev/client3/rdock/2013.1/src/exe/rbdock.cxx#4 $)

>  <Rbt.Library>
libRbt.so (2013.1, Build901 2013/11/27)

>  <Rbt.Parameter_File>
/export/apps/rDock/src/rDock_2013.1_src/data/scripts/dock_solv.prm

>  <Rbt.Receptor>
prm/pocket_docking_7.prm

>  <SCORE>
-17.4605

>  <SCORE.INTER>
-17.4605

>  <SCORE.INTER.CONST>
1

>  <SCORE.INTER.POLAR>
0

>  <SCORE.INTER.ROT>
0

>  <SCORE.INTER.SOLV>
3.80945

>  <SCORE.INTER.VDW>
-16.5102

>  <SCORE.INTER.norm>
-1.74605

>  <SCORE.INTRA>
0

>  <SCORE.INTRA.DIHEDRAL>
0

>  <SCORE.INTRA.DIHEDRAL.0>
0

>  <SCORE.INTRA.POLAR>
0

>  <SCORE.INTRA.POLAR.0>
0

>  <SCORE.INTRA.REPUL>
0

>  <SCORE.INTRA.REPUL.0>
0

>  <SCORE.INTRA.SOLV>
0

>  <SCORE.INTRA.SOLV.lig_0>
-4.26631

>  <SCORE.INTRA.VDW>
0

>  <SCORE.INTRA.VDW.0>
0

>  <SCORE.INTRA.norm>
0

>  <SCORE.RESTR>
0

>  <SCORE.RESTR.CAVITY>
0

>  <SCORE.RESTR.norm>
0

>  <SCORE.SYSTEM>
0

>  <SCORE.SYSTEM.CONST>
0

>  <SCORE.SYSTEM.DIHEDRAL>
0

>  <SCORE.SYSTEM.SOLV>
0

>  <SCORE.SYSTEM.norm>
0

>  <SCORE.heavy>
10

>  <SCORE.norm>
-1.74605

>  <RMSD>
0.520

$$$$
ligand
 OpenBabel11021811493D
libRbt.so/2013.1/901 2013/11/27
 10 11  0  0  0  0  0  0  0  0999 V2000
   11.8337   11.4136    8.6618 N   0  0  0  0  0  0  0  0  0  0  0  0
   11.5692   12.7596    8.6349 C   0  0  0  0  0  0  0  0  0  0  0  0
   11.2554   13.3902    7.4917 N   0  0  0  0  0  0  0  0  0  0  0  0
   11.2302   12.5778    6.4149 C   0  0  0  0  0  0  0  0  0  0  0  0
   11.4859   11.2248    6.3773 C   0  0  0  0  0  0  0  0  0  0  0  0
   11.8147   10.5443    7.5666 C   0  0  0  0  0  0  0  0  0  0  0  0
   12.0729    9.3618    7.7447 O   0  0  0  0  0  0  0  0  0  0  0  0
   11.3511   10.7882    5.0919 N   0  0  0  0  0  0  0  0  0  0  0  0
   11.0181   11.8680    4.3540 C   0  0  0  0  0  0  0  0  0  0  0  0
   10.9380   12.9871    5.1426 N   0  0  0  0  0  0  0  0  0  0  0  0
  1  2  1  0  0  0  0
  1  6  1  0  0  0  0
  2  3  2  0  0  0  0
  3  4  1  0  0  0  0
  4  5  2  0  0  0  0
  4 10  1  0  0  0  0
  5  6  1  0  0  0  0
  5  8  1  0  0  0  0
  6  7  2  0  0  0  0
  8  9  1  0  0  0  0
  9 10  2  0  0  0  0
M  END
>  <CHROM.1>
11.46873389,11.64857995,6.76900418,0.43225237,-1.32041298,0.85072675

>  <Name>
ligand

>  <RI>
0

>  <Rbt.Current_Directory>
/home/itssahil/PROJECTS/Mol_Feturizer/New_Systems/rnas/4FEJ

>  <Rbt.Executable>
rbdock ($Id: //depot/dev/client3/rdock/2013.1/src/exe/rbdock.cxx#4 $)

>  <Rbt.Library>
libRbt.so (2013.1, Build901 2013/11/27)

>  <Rbt.Parameter_File>
/export/apps/rDock/src/rDock_2013.1_src/data/scripts/dock_solv.prm

>  <Rbt.Receptor>
prm/pocket_docking_8.prm

>  <SCORE>
-17.4596

>  <SCORE.INTER>
-17.4596

>  <SCORE.INTER.CONST>
1

>  <SCORE.INTER.POLAR>
0

>  <SCORE.INTER.ROT>
0

>  <SCORE.INTER.SOLV>
3.89169

>  <SCORE.INTER.VDW>
-16.537

>  <SCORE.INTER.norm>
-1.74596

>  <SCORE.INTRA>
0

>  <SCORE.INTRA.DIHEDRAL>
0

>  <SCORE.INTRA.DIHEDRAL.0>
0

>  <SCORE.INTRA.POLAR>
0

>  <SCORE.INTRA.POLAR.0>
0

>  <SCORE.INTRA.REPUL>
0

>  <SCORE.INTRA.REPUL.0>
0

>  <SCORE.INTRA.SOLV>
0

>  <SCORE.INTRA.SOLV.lig_0>
-4.26631

>  <SCORE.INTRA.VDW>
0

>  <SCORE.INTRA.VDW.0>
0

>  <SCORE.INTRA.norm>
0

>  <SCORE.RESTR>
0

>  <SCORE.RESTR.CAVITY>
0

>  <SCORE.RESTR.norm>
0

>  <SCORE.SYSTEM>
0

>  <SCORE.SYSTEM.CONST>
0

>  <SCORE.SYSTEM.DIHEDRAL>
0

>  <SCORE.SYSTEM.SOLV>
0

>  <SCORE.SYSTEM.norm>
0

>  <SCORE.heavy>
10

>  <SCORE.norm>
-1.74596

>  <RMSD>
0.520

$$$$
ligand
 OpenBabel11021811493D
libRbt.so/2013.1/901 2013/11/27
 10 11  0  0  0  0  0  0  0  0999 V2000
   11.8390   11.3606    8.6215 N   0  0  0  0  0  0  0  0  0  0  0  0
   11.5764   12.7072    8.6095 C   0  0  0  0  0  0  0  0  0  0  0  0
   11.2422   13.3468    7.4771 N   0  0  0  0  0  0  0  0  0  0  0  0
   11.1953   12.5424    6.3950 C   0  0  0  0  0  0  0  0  0  0  0  0
   11.4479   11.1893    6.3426 C   0  0  0  0  0  0  0  0  0  0  0  0
   11.7979   10.4995    7.5204 C   0  0  0  0  0  0  0  0  0  0  0  0
   12.0573    9.3153    7.6848 O   0  0  0  0  0  0  0  0  0  0  0  0
   11.2881   10.7625    5.0568 N   0  0  0  0  0  0  0  0  0  0  0  0
   10.9431   11.8483    4.3333 C   0  0  0  0  0  0  0  0  0  0  0  0
   10.8799   12.9616    5.1315 N   0  0  0  0  0  0  0  0  0  0  0  0
  1  2  1  0  0  0  0
  1  6  1  0  0  0  0
  2  3  2  0  0  0  0
  3  4  1  0  0  0  0
  4  5  2  0  0  0  0
  4 10  1  0  0  0  0
  5  6  1  0  0  0  0
  5  8  1  0  0  0  0
  6  7  2  0  0  0  0
  8  9  1  0  0  0  0
  9 10  2  0  0  0  0
M  END
>  <CHROM.1>
11.43884146,11.61024043,6.73767147,0.37307775,-1.30886427,0.80089528

>  <Name>
ligand

>  <RI>
0

>  <Rbt.Current_Directory>
/home/itssahil/PROJECTS/Mol_Feturizer/New_Systems/rnas/4FEJ

>  <Rbt.Executable>
rbdock ($Id: //depot/dev/client3/rdock/2013.1/src/exe/rbdock.cxx#4 $)

>  <Rbt.Library>
libRbt.so (2013.1, Build901 2013/11/27)

>  <Rbt.Parameter_File>
/export/apps/rDock/src/rDock_2013.1_src/data/scripts/dock_solv.prm

>  <Rbt.Receptor>
prm/blind_docking_40.prm

>  <SCORE>
-17.4252

>  <SCORE.INTER>
-17.4252

>  <SCORE.INTER.CONST>
1

>  <SCORE.INTER.POLAR>
0

>  <SCORE.INTER.ROT>
0

>  <SCORE.INTER.SOLV>
3.85801

>  <SCORE.INTER.VDW>
-16.5028

>  <SCORE.INTER.norm>
-1.74252

>  <SCORE.INTRA>
0

>  <SCORE.INTRA.DIHEDRAL>
0

>  <SCORE.INTRA.DIHEDRAL.0>
0

>  <SCORE.INTRA.POLAR>
0

>  <SCORE.INTRA.POLAR.0>
0

>  <SCORE.INTRA.REPUL>
0

>  <SCORE.INTRA.REPUL.0>
0

>  <SCORE.INTRA.SOLV>
0

>  <SCORE.INTRA.SOLV.lig_0>
-4.26631

>  <SCORE.INTRA.VDW>
0

>  <SCORE.INTRA.VDW.0>
0

>  <SCORE.INTRA.norm>
0

>  <SCORE.RESTR>
0

>  <SCORE.RESTR.CAVITY>
0

>  <SCORE.RESTR.norm>
0

>  <SCORE.SYSTEM>
0

>  <SCORE.SYSTEM.CONST>
0

>  <SCORE.SYSTEM.DIHEDRAL>
0

>  <SCORE.SYSTEM.SOLV>
0

>  <SCORE.SYSTEM.norm>
0

>  <SCORE.heavy>
10

>  <SCORE.norm>
-1.74252

>  <RMSD>
0.521

$$$$
ligand
 OpenBabel11021811493D
libRbt.so/2013.1/901 2013/11/27
 10 11  0  0  0  0  0  0  0  0999 V2000
   11.8460   11.3487    8.6249 N   0  0  0  0  0  0  0  0  0  0  0  0
   11.6177   12.7015    8.6159 C   0  0  0  0  0  0  0  0  0  0  0  0
   11.3113   13.3538    7.4830 N   0  0  0  0  0  0  0  0  0  0  0  0
   11.2552   12.5551    6.3971 C   0  0  0  0  0  0  0  0  0  0  0  0
   11.4740   11.1964    6.3415 C   0  0  0  0  0  0  0  0  0  0  0  0
   11.7945   10.4932    7.5199 C   0  0  0  0  0  0  0  0  0  0  0  0
   12.0222    9.3022    7.6819 O   0  0  0  0  0  0  0  0  0  0  0  0
   11.3167   10.7788    5.0524 N   0  0  0  0  0  0  0  0  0  0  0  0
   11.0066   11.8759    4.3300 C   0  0  0  0  0  0  0  0  0  0  0  0
   10.9634   12.9872    5.1323 N   0  0  0  0  0  0  0  0  0  0  0  0
  1  2  1  0  0  0  0
  1  6  1  0  0  0  0
  2  3  2  0  0  0  0
  3  4  1  0  0  0  0
  4  5  2  0  0  0  0
  4 10  1  0  0  0  0
  5  6  1  0  0  0  0
  5  8  1  0  0  0  0
  6  7  2  0  0  0  0
  8  9  1  0  0  0  0
  9 10  2  0  0  0  0
M  END
>  <CHROM.1>
11.47157081,11.61577579,6.73823185,0.32942199,-1.33387106,0.76268758

>  <Name>
ligand

>  <RI>
0

>  <Rbt.Current_Directory>
/home/itssahil/PROJECTS/Mol_Feturizer/New_Systems/rnas/4FEJ

>  <Rbt.Executable>
rbdock ($Id: //depot/dev/client3/rdock/2013.1/src/exe/rbdock.cxx#4 $)

>  <Rbt.Library>
libRbt.so (2013.1, Build901 2013/11/27)

>  <Rbt.Parameter_File>
/export/apps/rDock/src/rDock_2013.1_src/data/scripts/dock_solv.prm

>  <Rbt.Receptor>
prm/pocket_docking_3.prm

>  <SCORE>
-17.45

>  <SCORE.INTER>
-17.45

>  <SCORE.INTER.CONST>
1

>  <SCORE.INTER.POLAR>
0

>  <SCORE.INTER.ROT>
0

>  <SCORE.INTER.SOLV>
3.92069

>  <SCORE.INTER.VDW>
-16.5402

>  <SCORE.INTER.norm>
-1.745

>  <SCORE.INTRA>
0

>  <SCORE.INTRA.DIHEDRAL>
0

>  <SCORE.INTRA.DIHEDRAL.0>
0

>  <SCORE.INTRA.POLAR>
0

>  <SCORE.INTRA.POLAR.0>
0

>  <SCORE.INTRA.REPUL>
0

>  <SCORE.INTRA.REPUL.0>
0

>  <SCORE.INTRA.SOLV>
0

>  <SCORE.INTRA.SOLV.lig_0>
-4.26631

>  <SCORE.INTRA.VDW>
0

>  <SCORE.INTRA.VDW.0>
0

>  <SCORE.INTRA.norm>
0

>  <SCORE.RESTR>
0

>  <SCORE.RESTR.CAVITY>
0

>  <SCORE.RESTR.norm>
0

>  <SCORE.SYSTEM>
0

>  <SCORE.SYSTEM.CONST>
0

>  <SCORE.SYSTEM.DIHEDRAL>
0

>  <SCORE.SYSTEM.SOLV>
0

>  <SCORE.SYSTEM.norm>
0

>  <SCORE.heavy>
10

>  <SCORE.norm>
-1.745

>  <RMSD>
0.521

$$$$
ligand
 OpenBabel11021811493D
libRbt.so/2013.1/901 2013/11/27
 10 11  0  0  0  0  0  0  0  0999 V2000
   11.8801   11.3911    8.6130 N   0  0  0  0  0  0  0  0  0  0  0  0
   11.6143   12.7371    8.6038 C   0  0  0  0  0  0  0  0  0  0  0  0
   11.2791   13.3784    7.4727 N   0  0  0  0  0  0  0  0  0  0  0  0
   11.2345   12.5763    6.3888 C   0  0  0  0  0  0  0  0  0  0  0  0
   11.4903   11.2239    6.3335 C   0  0  0  0  0  0  0  0  0  0  0  0
   11.8414   10.5324    7.5100 C   0  0  0  0  0  0  0  0  0  0  0  0
   12.1035    9.3484    7.6719 O   0  0  0  0  0  0  0  0  0  0  0  0
   11.3320   10.7996    5.0468 N   0  0  0  0  0  0  0  0  0  0  0  0
   10.9848   11.8862    4.3255 C   0  0  0  0  0  0  0  0  0  0  0  0
   10.9187   12.9976    5.1262 N   0  0  0  0  0  0  0  0  0  0  0  0
  1  2  1  0  0  0  0
  1  6  1  0  0  0  0
  2  3  2  0  0  0  0
  3  4  1  0  0  0  0
  4  5  2  0  0  0  0
  4 10  1  0  0  0  0
  5  6  1  0  0  0  0
  5  8  1  0  0  0  0
  6  7  2  0  0  0  0
  8  9  1  0  0  0  0
  9 10  2  0  0  0  0
M  END
>  <CHROM.1>
11.48009754,11.64394204,6.72954939,0.38041750,-1.30745172,0.81018895

>  <Name>
ligand

>  <RI>
0

>  <Rbt.Current_Directory>
/home/itssahil/PROJECTS/Mol_Feturizer/New_Systems/rnas/4FEJ

>  <Rbt.Executable>
rbdock ($Id: //depot/dev/client3/rdock/2013.1/src/exe/rbdock.cxx#4 $)

>  <Rbt.Library>
libRbt.so (2013.1, Build901 2013/11/27)

>  <Rbt.Parameter_File>
/export/apps/rDock/src/rDock_2013.1_src/data/scripts/dock_solv.prm

>  <Rbt.Receptor>
prm/pocket_docking_3.prm

>  <SCORE>
-17.4524

>  <SCORE.INTER>
-17.4524

>  <SCORE.INTER.CONST>
1

>  <SCORE.INTER.POLAR>
0

>  <SCORE.INTER.ROT>
0

>  <SCORE.INTER.SOLV>
3.83284

>  <SCORE.INTER.VDW>
-16.5125

>  <SCORE.INTER.norm>
-1.74524

>  <SCORE.INTRA>
0

>  <SCORE.INTRA.DIHEDRAL>
0

>  <SCORE.INTRA.DIHEDRAL.0>
0

>  <SCORE.INTRA.POLAR>
0

>  <SCORE.INTRA.POLAR.0>
0

>  <SCORE.INTRA.REPUL>
0

>  <SCORE.INTRA.REPUL.0>
0

>  <SCORE.INTRA.SOLV>
0

>  <SCORE.INTRA.SOLV.lig_0>
-4.26631

>  <SCORE.INTRA.VDW>
0

>  <SCORE.INTRA.VDW.0>
0

>  <SCORE.INTRA.norm>
0

>  <SCORE.RESTR>
0

>  <SCORE.RESTR.CAVITY>
0

>  <SCORE.RESTR.norm>
0

>  <SCORE.SYSTEM>
0

>  <SCORE.SYSTEM.CONST>
0

>  <SCORE.SYSTEM.DIHEDRAL>
0

>  <SCORE.SYSTEM.SOLV>
0

>  <SCORE.SYSTEM.norm>
0

>  <SCORE.heavy>
10

>  <SCORE.norm>
-1.74524

>  <RMSD>
0.521

$$$$
ligand
 OpenBabel11021811493D
libRbt.so/2013.1/901 2013/11/27
 10 11  0  0  0  0  0  0  0  0999 V2000
   11.8307   11.3345    8.6054 N   0  0  0  0  0  0  0  0  0  0  0  0
   11.5975   12.6864    8.6292 C   0  0  0  0  0  0  0  0  0  0  0  0
   11.2916   13.3654    7.5119 N   0  0  0  0  0  0  0  0  0  0  0  0
   11.2410   12.5935    6.4065 C   0  0  0  0  0  0  0  0  0  0  0  0
   11.4649   11.2373    6.3180 C   0  0  0  0  0  0  0  0  0  0  0  0
   11.7849   10.5065    7.4794 C   0  0  0  0  0  0  0  0  0  0  0  0
   12.0165    9.3126    7.6126 O   0  0  0  0  0  0  0  0  0  0  0  0
   11.3122   10.8512    5.0185 N   0  0  0  0  0  0  0  0  0  0  0  0
   11.0000   11.9646    4.3226 C   0  0  0  0  0  0  0  0  0  0  0  0
   10.9508   13.0557    5.1520 N   0  0  0  0  0  0  0  0  0  0  0  0
  1  2  1  0  0  0  0
  1  6  1  0  0  0  0
  2  3  2  0  0  0  0
  3  4  1  0  0  0  0
  4  5  2  0  0  0  0
  4 10  1  0  0  0  0
  5  6  1  0  0  0  0
  5  8  1  0  0  0  0
  6  7  2  0  0  0  0
  8  9  1  0  0  0  0
  9 10  2  0  0  0  0
M  END
>  <CHROM.1>
11.45994295,11.64679590,6.72493310,0.34762937,-1.33314599,0.80506411

>  <Name>
ligand

>  <RI>
0

>  <Rbt.Current_Directory>
/home/itssahil/PROJECTS/Mol_Feturizer/New_Systems/rnas/4FEJ

>  <Rbt.Executable>
rbdock ($Id: //depot/dev/client3/rdock/2013.1/src/exe/rbdock.cxx#4 $)

>  <Rbt.Library>
libRbt.so (2013.1, Build901 2013/11/27)

>  <Rbt.Parameter_File>
/export/apps/rDock/src/rDock_2013.1_src/data/scripts/dock_solv.prm

>  <Rbt.Receptor>
prm/pocket_docking_3.prm

>  <SCORE>
-17.4193

>  <SCORE.INTER>
-17.4193

>  <SCORE.INTER.CONST>
1

>  <SCORE.INTER.POLAR>
0

>  <SCORE.INTER.ROT>
0

>  <SCORE.INTER.SOLV>
3.89441

>  <SCORE.INTER.VDW>
-16.511

>  <SCORE.INTER.norm>
-1.74193

>  <SCORE.INTRA>
0

>  <SCORE.INTRA.DIHEDRAL>
0

>  <SCORE.INTRA.DIHEDRAL.0>
0

>  <SCORE.INTRA.POLAR>
0

>  <SCORE.INTRA.POLAR.0>
0

>  <SCORE.INTRA.REPUL>
0

>  <SCORE.INTRA.REPUL.0>
0

>  <SCORE.INTRA.SOLV>
0

>  <SCORE.INTRA.SOLV.lig_0>
-4.26631

>  <SCORE.INTRA.VDW>
0

>  <SCORE.INTRA.VDW.0>
0

>  <SCORE.INTRA.norm>
0

>  <SCORE.RESTR>
0

>  <SCORE.RESTR.CAVITY>
0

>  <SCORE.RESTR.norm>
0

>  <SCORE.SYSTEM>
0

>  <SCORE.SYSTEM.CONST>
0

>  <SCORE.SYSTEM.DIHEDRAL>
0

>  <SCORE.SYSTEM.SOLV>
0

>  <SCORE.SYSTEM.norm>
0

>  <SCORE.heavy>
10

>  <SCORE.norm>
-1.74193

>  <RMSD>
0.521

$$$$
ligand
 OpenBabel11021811493D
libRbt.so/2013.1/901 2013/11/27
 10 11  0  0  0  0  0  0  0  0999 V2000
   11.8483   11.3147    8.5965 N   0  0  0  0  0  0  0  0  0  0  0  0
   11.6295   12.6690    8.6148 C   0  0  0  0  0  0  0  0  0  0  0  0
   11.3247   13.3456    7.4957 N   0  0  0  0  0  0  0  0  0  0  0  0
   11.2599   12.5689    6.3945 C   0  0  0  0  0  0  0  0  0  0  0  0
   11.4690   11.2099    6.3116 C   0  0  0  0  0  0  0  0  0  0  0  0
   11.7876   10.4815    7.4750 C   0  0  0  0  0  0  0  0  0  0  0  0
   12.0074    9.2860    7.6129 O   0  0  0  0  0  0  0  0  0  0  0  0
   11.3051   10.8190    5.0150 N   0  0  0  0  0  0  0  0  0  0  0  0
   11.0008   11.9322    4.3152 C   0  0  0  0  0  0  0  0  0  0  0  0
   10.9677   13.0278    5.1393 N   0  0  0  0  0  0  0  0  0  0  0  0
  1  2  1  0  0  0  0
  1  6  1  0  0  0  0
  2  3  2  0  0  0  0
  3  4  1  0  0  0  0
  4  5  2  0  0  0  0
  4 10  1  0  0  0  0
  5  6  1  0  0  0  0
  5  8  1  0  0  0  0
  6  7  2  0  0  0  0
  8  9  1  0  0  0  0
  9 10  2  0  0  0  0
M  END
>  <CHROM.1>
11.47057800,11.62148185,6.71653501,0.29910067,-1.33669082,0.75286562

>  <Name>
ligand

>  <RI>
0

>  <Rbt.Current_Directory>
/home/itssahil/PROJECTS/Mol_Feturizer/New_Systems/rnas/4FEJ

>  <Rbt.Executable>
rbdock ($Id: //depot/dev/client3/rdock/2013.1/src/exe/rbdock.cxx#4 $)

>  <Rbt.Library>
libRbt.so (2013.1, Build901 2013/11/27)

>  <Rbt.Parameter_File>
/export/apps/rDock/src/rDock_2013.1_src/data/scripts/dock_solv.prm

>  <Rbt.Receptor>
prm/pocket_docking_3.prm

>  <SCORE>
-17.4169

>  <SCORE.INTER>
-17.4169

>  <SCORE.INTER.CONST>
1

>  <SCORE.INTER.POLAR>
0

>  <SCORE.INTER.ROT>
0

>  <SCORE.INTER.SOLV>
3.91167

>  <SCORE.INTER.VDW>
-16.5151

>  <SCORE.INTER.norm>
-1.74169

>  <SCORE.INTRA>
0

>  <SCORE.INTRA.DIHEDRAL>
0

>  <SCORE.INTRA.DIHEDRAL.0>
0

>  <SCORE.INTRA.POLAR>
0

>  <SCORE.INTRA.POLAR.0>
0

>  <SCORE.INTRA.REPUL>
0

>  <SCORE.INTRA.REPUL.0>
0

>  <SCORE.INTRA.SOLV>
0

>  <SCORE.INTRA.SOLV.lig_0>
-4.26631

>  <SCORE.INTRA.VDW>
0

>  <SCORE.INTRA.VDW.0>
0

>  <SCORE.INTRA.norm>
0

>  <SCORE.RESTR>
0

>  <SCORE.RESTR.CAVITY>
0

>  <SCORE.RESTR.norm>
0

>  <SCORE.SYSTEM>
0

>  <SCORE.SYSTEM.CONST>
0

>  <SCORE.SYSTEM.DIHEDRAL>
0

>  <SCORE.SYSTEM.SOLV>
0

>  <SCORE.SYSTEM.norm>
0

>  <SCORE.heavy>
10

>  <SCORE.norm>
-1.74169

>  <RMSD>
0.521

$$$$
ligand
 OpenBabel11021811493D
libRbt.so/2013.1/901 2013/11/27
 10 11  0  0  0  0  0  0  0  0999 V2000
   11.8457   11.3578    8.6210 N   0  0  0  0  0  0  0  0  0  0  0  0
   11.6049   12.7085    8.6157 C   0  0  0  0  0  0  0  0  0  0  0  0
   11.2878   13.3602    7.4853 N   0  0  0  0  0  0  0  0  0  0  0  0
   11.2345   12.5633    6.3980 C   0  0  0  0  0  0  0  0  0  0  0  0
   11.4656   11.2066    6.3387 C   0  0  0  0  0  0  0  0  0  0  0  0
   11.7973   10.5042    7.5144 C   0  0  0  0  0  0  0  0  0  0  0  0
   12.0367    9.3149    7.6730 O   0  0  0  0  0  0  0  0  0  0  0  0
   11.3067   10.7902    5.0495 N   0  0  0  0  0  0  0  0  0  0  0  0
   10.9836   11.8858    4.3306 C   0  0  0  0  0  0  0  0  0  0  0  0
   10.9335   12.9952    5.1353 N   0  0  0  0  0  0  0  0  0  0  0  0
  1  2  1  0  0  0  0
  1  6  1  0  0  0  0
  2  3  2  0  0  0  0
  3  4  1  0  0  0  0
  4  5  2  0  0  0  0
  4 10  1  0  0  0  0
  5  6  1  0  0  0  0
  5  8  1  0  0  0  0
  6  7  2  0  0  0  0
  8  9  1  0  0  0  0
  9 10  2  0  0  0  0
M  END
>  <CHROM.1>
11.46091875,11.62522956,6.73636095,0.34483971,-1.32449933,0.77967104

>  <Name>
ligand

>  <RI>
0

>  <Rbt.Current_Directory>
/home/itssahil/PROJECTS/Mol_Feturizer/New_Systems/rnas/4FEJ

>  <Rbt.Executable>
rbdock ($Id: //depot/dev/client3/rdock/2013.1/src/exe/rbdock.cxx#4 $)

>  <Rbt.Library>
libRbt.so (2013.1, Build901 2013/11/27)

>  <Rbt.Parameter_File>
/export/apps/rDock/src/rDock_2013.1_src/data/scripts/dock_solv.prm

>  <Rbt.Receptor>
prm/pocket_docking_4.prm

>  <SCORE>
-17.4478

>  <SCORE.INTER>
-17.4478

>  <SCORE.INTER.CONST>
1

>  <SCORE.INTER.POLAR>
0

>  <SCORE.INTER.ROT>
0

>  <SCORE.INTER.SOLV>
3.89175

>  <SCORE.INTER.VDW>
-16.5291

>  <SCORE.INTER.norm>
-1.74478

>  <SCORE.INTRA>
0

>  <SCORE.INTRA.DIHEDRAL>
0

>  <SCORE.INTRA.DIHEDRAL.0>
0

>  <SCORE.INTRA.POLAR>
0

>  <SCORE.INTRA.POLAR.0>
0

>  <SCORE.INTRA.REPUL>
0

>  <SCORE.INTRA.REPUL.0>
0

>  <SCORE.INTRA.SOLV>
0

>  <SCORE.INTRA.SOLV.lig_0>
-4.26631

>  <SCORE.INTRA.VDW>
0

>  <SCORE.INTRA.VDW.0>
0

>  <SCORE.INTRA.norm>
0

>  <SCORE.RESTR>
0

>  <SCORE.RESTR.CAVITY>
0

>  <SCORE.RESTR.norm>
0

>  <SCORE.SYSTEM>
0

>  <SCORE.SYSTEM.CONST>
0

>  <SCORE.SYSTEM.DIHEDRAL>
0

>  <SCORE.SYSTEM.SOLV>
0

>  <SCORE.SYSTEM.norm>
0

>  <SCORE.heavy>
10

>  <SCORE.norm>
-1.74478

>  <RMSD>
0.521

$$$$
ligand
 OpenBabel11021811493D
libRbt.so/2013.1/901 2013/11/27
 10 11  0  0  0  0  0  0  0  0999 V2000
   11.8584   11.3461    8.6199 N   0  0  0  0  0  0  0  0  0  0  0  0
   11.6424   12.7010    8.6155 C   0  0  0  0  0  0  0  0  0  0  0  0
   11.3273   13.3576    7.4874 N   0  0  0  0  0  0  0  0  0  0  0  0
   11.2497   12.5609    6.4013 C   0  0  0  0  0  0  0  0  0  0  0  0
   11.4553   11.2002    6.3413 C   0  0  0  0  0  0  0  0  0  0  0  0
   11.7846   10.4926    7.5145 C   0  0  0  0  0  0  0  0  0  0  0  0
   12.0034    9.2993    7.6721 O   0  0  0  0  0  0  0  0  0  0  0  0
   11.2773   10.7858    5.0538 N   0  0  0  0  0  0  0  0  0  0  0  0
   10.9679   11.8866    4.3368 C   0  0  0  0  0  0  0  0  0  0  0  0
   10.9454   12.9973    5.1410 N   0  0  0  0  0  0  0  0  0  0  0  0
  1  2  1  0  0  0  0
  1  6  1  0  0  0  0
  2  3  2  0  0  0  0
  3  4  1  0  0  0  0
  4  5  2  0  0  0  0
  4 10  1  0  0  0  0
  5  6  1  0  0  0  0
  5  8  1  0  0  0  0
  6  7  2  0  0  0  0
  8  9  1  0  0  0  0
  9 10  2  0  0  0  0
M  END
>  <CHROM.1>
11.46184984,11.61909736,6.73853251,0.26360361,-1.33030134,0.69998976

>  <Name>
ligand

>  <RI>
0

>  <Rbt.Current_Directory>
/home/itssahil/PROJECTS/Mol_Feturizer/New_Systems/rnas/4FEJ

>  <Rbt.Executable>
rbdock ($Id: //depot/dev/client3/rdock/2013.1/src/exe/rbdock.cxx#4 $)

>  <Rbt.Library>
libRbt.so (2013.1, Build901 2013/11/27)

>  <Rbt.Parameter_File>
/export/apps/rDock/src/rDock_2013.1_src/data/scripts/dock_solv.prm

>  <Rbt.Receptor>
prm/pocket_docking_7.prm

>  <SCORE>
-17.4338

>  <SCORE.INTER>
-17.4338

>  <SCORE.INTER.CONST>
1

>  <SCORE.INTER.POLAR>
0

>  <SCORE.INTER.ROT>
0

>  <SCORE.INTER.SOLV>
3.92451

>  <SCORE.INTER.VDW>
-16.5307

>  <SCORE.INTER.norm>
-1.74338

>  <SCORE.INTRA>
0

>  <SCORE.INTRA.DIHEDRAL>
0

>  <SCORE.INTRA.DIHEDRAL.0>
0

>  <SCORE.INTRA.POLAR>
0

>  <SCORE.INTRA.POLAR.0>
0

>  <SCORE.INTRA.REPUL>
0

>  <SCORE.INTRA.REPUL.0>
0

>  <SCORE.INTRA.SOLV>
0

>  <SCORE.INTRA.SOLV.lig_0>
-4.26631

>  <SCORE.INTRA.VDW>
0

>  <SCORE.INTRA.VDW.0>
0

>  <SCORE.INTRA.norm>
0

>  <SCORE.RESTR>
0

>  <SCORE.RESTR.CAVITY>
0

>  <SCORE.RESTR.norm>
0

>  <SCORE.SYSTEM>
0

>  <SCORE.SYSTEM.CONST>
0

>  <SCORE.SYSTEM.DIHEDRAL>
0

>  <SCORE.SYSTEM.SOLV>
0

>  <SCORE.SYSTEM.norm>
0

>  <SCORE.heavy>
10

>  <SCORE.norm>
-1.74338

>  <RMSD>
0.521

$$$$
ligand
 OpenBabel11021811493D
libRbt.so/2013.1/901 2013/11/27
 10 11  0  0  0  0  0  0  0  0999 V2000
   11.8366   11.3727    8.6175 N   0  0  0  0  0  0  0  0  0  0  0  0
   11.5742   12.7194    8.6219 C   0  0  0  0  0  0  0  0  0  0  0  0
   11.2541   13.3755    7.4949 N   0  0  0  0  0  0  0  0  0  0  0  0
   11.2206   12.5870    6.4007 C   0  0  0  0  0  0  0  0  0  0  0  0
   11.4737   11.2348    6.3316 C   0  0  0  0  0  0  0  0  0  0  0  0
   11.8091   10.5278    7.5035 C   0  0  0  0  0  0  0  0  0  0  0  0
   12.0664    9.3412    7.6538 O   0  0  0  0  0  0  0  0  0  0  0  0
   11.3298   10.8269    5.0379 N   0  0  0  0  0  0  0  0  0  0  0  0
   10.9938   11.9232    4.3261 C   0  0  0  0  0  0  0  0  0  0  0  0
   10.9208   13.0247    5.1397 N   0  0  0  0  0  0  0  0  0  0  0  0
  1  2  1  0  0  0  0
  1  6  1  0  0  0  0
  2  3  2  0  0  0  0
  3  4  1  0  0  0  0
  4  5  2  0  0  0  0
  4 10  1  0  0  0  0
  5  6  1  0  0  0  0
  5  8  1  0  0  0  0
  6  7  2  0  0  0  0
  8  9  1  0  0  0  0
  9 10  2  0  0  0  0
M  END
>  <CHROM.1>
11.45978572,11.64991040,6.73267451,0.40834006,-1.31734486,0.84960345

>  <Name>
ligand

>  <RI>
0

>  <Rbt.Current_Directory>
/home/itssahil/PROJECTS/Mol_Feturizer/New_Systems/rnas/4FEJ

>  <Rbt.Executable>
rbdock ($Id: //depot/dev/client3/rdock/2013.1/src/exe/rbdock.cxx#4 $)

>  <Rbt.Library>
libRbt.so (2013.1, Build901 2013/11/27)

>  <Rbt.Parameter_File>
/export/apps/rDock/src/rDock_2013.1_src/data/scripts/dock_solv.prm

>  <Rbt.Receptor>
prm/pocket_docking_7.prm

>  <SCORE>
-17.4784

>  <SCORE.INTER>
-17.4784

>  <SCORE.INTER.CONST>
1

>  <SCORE.INTER.POLAR>
0

>  <SCORE.INTER.ROT>
0

>  <SCORE.INTER.SOLV>
3.85454

>  <SCORE.INTER.VDW>
-16.5371

>  <SCORE.INTER.norm>
-1.74784

>  <SCORE.INTRA>
0

>  <SCORE.INTRA.DIHEDRAL>
0

>  <SCORE.INTRA.DIHEDRAL.0>
0

>  <SCORE.INTRA.POLAR>
0

>  <SCORE.INTRA.POLAR.0>
0

>  <SCORE.INTRA.REPUL>
0

>  <SCORE.INTRA.REPUL.0>
0

>  <SCORE.INTRA.SOLV>
0

>  <SCORE.INTRA.SOLV.lig_0>
-4.26631

>  <SCORE.INTRA.VDW>
0

>  <SCORE.INTRA.VDW.0>
0

>  <SCORE.INTRA.norm>
0

>  <SCORE.RESTR>
0

>  <SCORE.RESTR.CAVITY>
0

>  <SCORE.RESTR.norm>
0

>  <SCORE.SYSTEM>
0

>  <SCORE.SYSTEM.CONST>
0

>  <SCORE.SYSTEM.DIHEDRAL>
0

>  <SCORE.SYSTEM.SOLV>
0

>  <SCORE.SYSTEM.norm>
0

>  <SCORE.heavy>
10

>  <SCORE.norm>
-1.74784

>  <RMSD>
0.521

$$$$
ligand
 OpenBabel11021811493D
libRbt.so/2013.1/901 2013/11/27
 10 11  0  0  0  0  0  0  0  0999 V2000
   11.8441   11.3332    8.6201 N   0  0  0  0  0  0  0  0  0  0  0  0
   11.6229   12.6873    8.6135 C   0  0  0  0  0  0  0  0  0  0  0  0
   11.3163   13.3426    7.4823 N   0  0  0  0  0  0  0  0  0  0  0  0
   11.2524   12.5456    6.3956 C   0  0  0  0  0  0  0  0  0  0  0  0
   11.4639   11.1857    6.3377 C   0  0  0  0  0  0  0  0  0  0  0  0
   11.7843   10.4795    7.5142 C   0  0  0  0  0  0  0  0  0  0  0  0
   12.0063    9.2870    7.6740 O   0  0  0  0  0  0  0  0  0  0  0  0
   11.3001   10.7706    5.0486 N   0  0  0  0  0  0  0  0  0  0  0  0
   10.9936   11.8702    4.3285 C   0  0  0  0  0  0  0  0  0  0  0  0
   10.9589   12.9808    5.1323 N   0  0  0  0  0  0  0  0  0  0  0  0
  1  2  1  0  0  0  0
  1  6  1  0  0  0  0
  2  3  2  0  0  0  0
  3  4  1  0  0  0  0
  4  5  2  0  0  0  0
  4 10  1  0  0  0  0
  5  6  1  0  0  0  0
  5  8  1  0  0  0  0
  6  7  2  0  0  0  0
  8  9  1  0  0  0  0
  9 10  2  0  0  0  0
M  END
>  <CHROM.1>
11.46492902,11.60465225,6.73496961,0.30330314,-1.33514377,0.73851720

>  <Name>
ligand

>  <RI>
0

>  <Rbt.Current_Directory>
/home/itssahil/PROJECTS/Mol_Feturizer/New_Systems/rnas/4FEJ

>  <Rbt.Executable>
rbdock ($Id: //depot/dev/client3/rdock/2013.1/src/exe/rbdock.cxx#4 $)

>  <Rbt.Library>
libRbt.so (2013.1, Build901 2013/11/27)

>  <Rbt.Parameter_File>
/export/apps/rDock/src/rDock_2013.1_src/data/scripts/dock_solv.prm

>  <Rbt.Receptor>
prm/pocket_docking_7.prm

>  <SCORE>
-17.4163

>  <SCORE.INTER>
-17.4163

>  <SCORE.INTER.CONST>
1

>  <SCORE.INTER.POLAR>
0

>  <SCORE.INTER.ROT>
0

>  <SCORE.INTER.SOLV>
3.93095

>  <SCORE.INTER.VDW>
-16.5212

>  <SCORE.INTER.norm>
-1.74163

>  <SCORE.INTRA>
0

>  <SCORE.INTRA.DIHEDRAL>
0

>  <SCORE.INTRA.DIHEDRAL.0>
0

>  <SCORE.INTRA.POLAR>
0

>  <SCORE.INTRA.POLAR.0>
0

>  <SCORE.INTRA.REPUL>
0

>  <SCORE.INTRA.REPUL.0>
0

>  <SCORE.INTRA.SOLV>
0

>  <SCORE.INTRA.SOLV.lig_0>
-4.26631

>  <SCORE.INTRA.VDW>
0

>  <SCORE.INTRA.VDW.0>
0

>  <SCORE.INTRA.norm>
0

>  <SCORE.RESTR>
0

>  <SCORE.RESTR.CAVITY>
0

>  <SCORE.RESTR.norm>
0

>  <SCORE.SYSTEM>
0

>  <SCORE.SYSTEM.CONST>
0

>  <SCORE.SYSTEM.DIHEDRAL>
0

>  <SCORE.SYSTEM.SOLV>
0

>  <SCORE.SYSTEM.norm>
0

>  <SCORE.heavy>
10

>  <SCORE.norm>
-1.74163

>  <RMSD>
0.521

$$$$
ligand
 OpenBabel11021811493D
libRbt.so/2013.1/901 2013/11/27
 10 11  0  0  0  0  0  0  0  0999 V2000
   11.8748   11.3675    8.6056 N   0  0  0  0  0  0  0  0  0  0  0  0
   11.6257   12.7167    8.6020 C   0  0  0  0  0  0  0  0  0  0  0  0
   11.2958   13.3663    7.4741 N   0  0  0  0  0  0  0  0  0  0  0  0
   11.2389   12.5688    6.3873 C   0  0  0  0  0  0  0  0  0  0  0  0
   11.4778   11.2136    6.3264 C   0  0  0  0  0  0  0  0  0  0  0  0
   11.8230   10.5133    7.4995 C   0  0  0  0  0  0  0  0  0  0  0  0
   12.0708    9.3256    7.6564 O   0  0  0  0  0  0  0  0  0  0  0  0
   11.3113   10.7960    5.0385 N   0  0  0  0  0  0  0  0  0  0  0  0
   10.9759   11.8895    4.3220 C   0  0  0  0  0  0  0  0  0  0  0  0
   10.9254   12.9986    5.1270 N   0  0  0  0  0  0  0  0  0  0  0  0
  1  2  1  0  0  0  0
  1  6  1  0  0  0  0
  2  3  2  0  0  0  0
  3  4  1  0  0  0  0
  4  5  2  0  0  0  0
  4 10  1  0  0  0  0
  5  6  1  0  0  0  0
  5  8  1  0  0  0  0
  6  7  2  0  0  0  0
  8  9  1  0  0  0  0
  9 10  2  0  0  0  0
M  END
>  <CHROM.1>
11.47367233,11.63220135,6.72402716,0.34020002,-1.31463734,0.77502772

>  <Name>
ligand

>  <RI>
0

>  <Rbt.Current_Directory>
/home/itssahil/PROJECTS/Mol_Feturizer/New_Systems/rnas/4FEJ

>  <Rbt.Executable>
rbdock ($Id: //depot/dev/client3/rdock/2013.1/src/exe/rbdock.cxx#4 $)

>  <Rbt.Library>
libRbt.so (2013.1, Build901 2013/11/27)

>  <Rbt.Parameter_File>
/export/apps/rDock/src/rDock_2013.1_src/data/scripts/dock_solv.prm

>  <Rbt.Receptor>
prm/blind_docking_40.prm

>  <SCORE>
-17.4511

>  <SCORE.INTER>
-17.4511

>  <SCORE.INTER.CONST>
1

>  <SCORE.INTER.POLAR>
0

>  <SCORE.INTER.ROT>
0

>  <SCORE.INTER.SOLV>
3.85715

>  <SCORE.INTER.VDW>
-16.5198

>  <SCORE.INTER.norm>
-1.74511

>  <SCORE.INTRA>
0

>  <SCORE.INTRA.DIHEDRAL>
0

>  <SCORE.INTRA.DIHEDRAL.0>
0

>  <SCORE.INTRA.POLAR>
0

>  <SCORE.INTRA.POLAR.0>
0

>  <SCORE.INTRA.REPUL>
0

>  <SCORE.INTRA.REPUL.0>
0

>  <SCORE.INTRA.SOLV>
0

>  <SCORE.INTRA.SOLV.lig_0>
-4.26631

>  <SCORE.INTRA.VDW>
0

>  <SCORE.INTRA.VDW.0>
0

>  <SCORE.INTRA.norm>
0

>  <SCORE.RESTR>
0

>  <SCORE.RESTR.CAVITY>
0

>  <SCORE.RESTR.norm>
0

>  <SCORE.SYSTEM>
0

>  <SCORE.SYSTEM.CONST>
0

>  <SCORE.SYSTEM.DIHEDRAL>
0

>  <SCORE.SYSTEM.SOLV>
0

>  <SCORE.SYSTEM.norm>
0

>  <SCORE.heavy>
10

>  <SCORE.norm>
-1.74511

>  <RMSD>
0.522

$$$$
ligand
 OpenBabel11021811493D
libRbt.so/2013.1/901 2013/11/27
 10 11  0  0  0  0  0  0  0  0999 V2000
   11.8572   11.3849    8.6174 N   0  0  0  0  0  0  0  0  0  0  0  0
   11.5707   12.7265    8.6019 C   0  0  0  0  0  0  0  0  0  0  0  0
   11.2350   13.3592    7.4661 N   0  0  0  0  0  0  0  0  0  0  0  0
   11.2120   12.5533    6.3843 C   0  0  0  0  0  0  0  0  0  0  0  0
   11.4891   11.2049    6.3353 C   0  0  0  0  0  0  0  0  0  0  0  0
   11.8411   10.5224    7.5168 C   0  0  0  0  0  0  0  0  0  0  0  0
   12.1203    9.3431    7.6845 O   0  0  0  0  0  0  0  0  0  0  0  0
   11.3483   10.7744    5.0486 N   0  0  0  0  0  0  0  0  0  0  0  0
   10.9902   11.8533    4.3211 C   0  0  0  0  0  0  0  0  0  0  0  0
   10.9001   12.9659    5.1178 N   0  0  0  0  0  0  0  0  0  0  0  0
  1  2  1  0  0  0  0
  1  6  1  0  0  0  0
  2  3  2  0  0  0  0
  3  4  1  0  0  0  0
  4  5  2  0  0  0  0
  4 10  1  0  0  0  0
  5  6  1  0  0  0  0
  5  8  1  0  0  0  0
  6  7  2  0  0  0  0
  8  9  1  0  0  0  0
  9 10  2  0  0  0  0
M  END
>  <CHROM.1>
11.46912346,11.62589210,6.72994794,0.44346962,-1.30144417,0.86802042

>  <Name>
ligand

>  <RI>
0

>  <Rbt.Current_Directory>
/home/itssahil/PROJECTS/Mol_Feturizer/New_Systems/rnas/4FEJ

>  <Rbt.Executable>
rbdock ($Id: //depot/dev/client3/rdock/2013.1/src/exe/rbdock.cxx#4 $)

>  <Rbt.Library>
libRbt.so (2013.1, Build901 2013/11/27)

>  <Rbt.Parameter_File>
/export/apps/rDock/src/rDock_2013.1_src/data/scripts/dock_solv.prm

>  <Rbt.Receptor>
prm/pocket_docking_7.prm

>  <SCORE>
-17.451

>  <SCORE.INTER>
-17.451

>  <SCORE.INTER.CONST>
1

>  <SCORE.INTER.POLAR>
0

>  <SCORE.INTER.ROT>
0

>  <SCORE.INTER.SOLV>
3.81328

>  <SCORE.INTER.VDW>
-16.5051

>  <SCORE.INTER.norm>
-1.7451

>  <SCORE.INTRA>
0

>  <SCORE.INTRA.DIHEDRAL>
0

>  <SCORE.INTRA.DIHEDRAL.0>
0

>  <SCORE.INTRA.POLAR>
0

>  <SCORE.INTRA.POLAR.0>
0

>  <SCORE.INTRA.REPUL>
0

>  <SCORE.INTRA.REPUL.0>
0

>  <SCORE.INTRA.SOLV>
0

>  <SCORE.INTRA.SOLV.lig_0>
-4.26631

>  <SCORE.INTRA.VDW>
0

>  <SCORE.INTRA.VDW.0>
0

>  <SCORE.INTRA.norm>
0

>  <SCORE.RESTR>
0

>  <SCORE.RESTR.CAVITY>
0

>  <SCORE.RESTR.norm>
0

>  <SCORE.SYSTEM>
0

>  <SCORE.SYSTEM.CONST>
0

>  <SCORE.SYSTEM.DIHEDRAL>
0

>  <SCORE.SYSTEM.SOLV>
0

>  <SCORE.SYSTEM.norm>
0

>  <SCORE.heavy>
10

>  <SCORE.norm>
-1.7451

>  <RMSD>
0.522

$$$$
ligand
 OpenBabel11021811493D
libRbt.so/2013.1/901 2013/11/27
 10 11  0  0  0  0  0  0  0  0999 V2000
   11.8697   11.3953    8.6159 N   0  0  0  0  0  0  0  0  0  0  0  0
   11.6003   12.7406    8.6071 C   0  0  0  0  0  0  0  0  0  0  0  0
   11.2636   13.3814    7.4761 N   0  0  0  0  0  0  0  0  0  0  0  0
   11.2215   12.5795    6.3919 C   0  0  0  0  0  0  0  0  0  0  0  0
   11.4810   11.2278    6.3362 C   0  0  0  0  0  0  0  0  0  0  0  0
   11.8336   10.5368    7.5126 C   0  0  0  0  0  0  0  0  0  0  0  0
   12.0989    9.3535    7.6741 O   0  0  0  0  0  0  0  0  0  0  0  0
   11.3242   10.8035    5.0493 N   0  0  0  0  0  0  0  0  0  0  0  0
   10.9742   11.8894    4.3283 C   0  0  0  0  0  0  0  0  0  0  0  0
   10.9049   13.0003    5.1293 N   0  0  0  0  0  0  0  0  0  0  0  0
  1  2  1  0  0  0  0
  1  6  1  0  0  0  0
  2  3  2  0  0  0  0
  3  4  1  0  0  0  0
  4  5  2  0  0  0  0
  4 10  1  0  0  0  0
  5  6  1  0  0  0  0
  5  8  1  0  0  0  0
  6  7  2  0  0  0  0
  8  9  1  0  0  0  0
  9 10  2  0  0  0  0
M  END
>  <CHROM.1>
11.46952387,11.64767278,6.73239842,0.38828228,-1.30567554,0.81811699

>  <Name>
ligand

>  <RI>
0

>  <Rbt.Current_Directory>
/home/itssahil/PROJECTS/Mol_Feturizer/New_Systems/rnas/4FEJ

>  <Rbt.Executable>
rbdock ($Id: //depot/dev/client3/rdock/2013.1/src/exe/rbdock.cxx#4 $)

>  <Rbt.Library>
libRbt.so (2013.1, Build901 2013/11/27)

>  <Rbt.Parameter_File>
/export/apps/rDock/src/rDock_2013.1_src/data/scripts/dock_solv.prm

>  <Rbt.Receptor>
prm/pocket_docking_7.prm

>  <SCORE>
-17.4439

>  <SCORE.INTER>
-17.4439

>  <SCORE.INTER.CONST>
1

>  <SCORE.INTER.POLAR>
0

>  <SCORE.INTER.ROT>
0

>  <SCORE.INTER.SOLV>
3.83066

>  <SCORE.INTER.VDW>
-16.5061

>  <SCORE.INTER.norm>
-1.74439

>  <SCORE.INTRA>
0

>  <SCORE.INTRA.DIHEDRAL>
0

>  <SCORE.INTRA.DIHEDRAL.0>
0

>  <SCORE.INTRA.POLAR>
0

>  <SCORE.INTRA.POLAR.0>
0

>  <SCORE.INTRA.REPUL>
0

>  <SCORE.INTRA.REPUL.0>
0

>  <SCORE.INTRA.SOLV>
0

>  <SCORE.INTRA.SOLV.lig_0>
-4.26631

>  <SCORE.INTRA.VDW>
0

>  <SCORE.INTRA.VDW.0>
0

>  <SCORE.INTRA.norm>
0

>  <SCORE.RESTR>
0

>  <SCORE.RESTR.CAVITY>
0

>  <SCORE.RESTR.norm>
0

>  <SCORE.SYSTEM>
0

>  <SCORE.SYSTEM.CONST>
0

>  <SCORE.SYSTEM.DIHEDRAL>
0

>  <SCORE.SYSTEM.SOLV>
0

>  <SCORE.SYSTEM.norm>
0

>  <SCORE.heavy>
10

>  <SCORE.norm>
-1.74439

>  <RMSD>
0.522

$$$$
ligand
 OpenBabel11021811493D
libRbt.so/2013.1/901 2013/11/27
 10 11  0  0  0  0  0  0  0  0999 V2000
   11.8508   11.3438    8.6192 N   0  0  0  0  0  0  0  0  0  0  0  0
   11.6312   12.6981    8.6142 C   0  0  0  0  0  0  0  0  0  0  0  0
   11.3172   13.3538    7.4852 N   0  0  0  0  0  0  0  0  0  0  0  0
   11.2445   12.5568    6.3991 C   0  0  0  0  0  0  0  0  0  0  0  0
   11.4539   11.1967    6.3396 C   0  0  0  0  0  0  0  0  0  0  0  0
   11.7821   10.4901    7.5137 C   0  0  0  0  0  0  0  0  0  0  0  0
   12.0037    9.2973    7.6720 O   0  0  0  0  0  0  0  0  0  0  0  0
   11.2802   10.7818    5.0517 N   0  0  0  0  0  0  0  0  0  0  0  0
   10.9698   11.8817    4.3339 C   0  0  0  0  0  0  0  0  0  0  0  0
   10.9423   12.9923    5.1379 N   0  0  0  0  0  0  0  0  0  0  0  0
  1  2  1  0  0  0  0
  1  6  1  0  0  0  0
  2  3  2  0  0  0  0
  3  4  1  0  0  0  0
  4  5  2  0  0  0  0
  4 10  1  0  0  0  0
  5  6  1  0  0  0  0
  5  8  1  0  0  0  0
  6  7  2  0  0  0  0
  8  9  1  0  0  0  0
  9 10  2  0  0  0  0
M  END
>  <CHROM.1>
11.45832758,11.61562346,6.73685900,0.27904317,-1.33050729,0.71492768

>  <Name>
ligand

>  <RI>
0

>  <Rbt.Current_Directory>
/home/itssahil/PROJECTS/Mol_Feturizer/New_Systems/rnas/4FEJ

>  <Rbt.Executable>
rbdock ($Id: //depot/dev/client3/rdock/2013.1/src/exe/rbdock.cxx#4 $)

>  <Rbt.Library>
libRbt.so (2013.1, Build901 2013/11/27)

>  <Rbt.Parameter_File>
/export/apps/rDock/src/rDock_2013.1_src/data/scripts/dock_solv.prm

>  <Rbt.Receptor>
prm/pocket_docking_8.prm

>  <SCORE>
-17.44

>  <SCORE.INTER>
-17.44

>  <SCORE.INTER.CONST>
1

>  <SCORE.INTER.POLAR>
0

>  <SCORE.INTER.ROT>
0

>  <SCORE.INTER.SOLV>
3.92307

>  <SCORE.INTER.VDW>
-16.5343

>  <SCORE.INTER.norm>
-1.744

>  <SCORE.INTRA>
0

>  <SCORE.INTRA.DIHEDRAL>
0

>  <SCORE.INTRA.DIHEDRAL.0>
0

>  <SCORE.INTRA.POLAR>
0

>  <SCORE.INTRA.POLAR.0>
0

>  <SCORE.INTRA.REPUL>
0

>  <SCORE.INTRA.REPUL.0>
0

>  <SCORE.INTRA.SOLV>
0

>  <SCORE.INTRA.SOLV.lig_0>
-4.26631

>  <SCORE.INTRA.VDW>
0

>  <SCORE.INTRA.VDW.0>
0

>  <SCORE.INTRA.norm>
0

>  <SCORE.RESTR>
0

>  <SCORE.RESTR.CAVITY>
0

>  <SCORE.RESTR.norm>
0

>  <SCORE.SYSTEM>
0

>  <SCORE.SYSTEM.CONST>
0

>  <SCORE.SYSTEM.DIHEDRAL>
0

>  <SCORE.SYSTEM.SOLV>
0

>  <SCORE.SYSTEM.norm>
0

>  <SCORE.heavy>
10

>  <SCORE.norm>
-1.744

>  <RMSD>
0.522

$$$$
ligand
 OpenBabel11021811493D
libRbt.so/2013.1/901 2013/11/27
 10 11  0  0  0  0  0  0  0  0999 V2000
   11.8456   11.3632    8.6066 N   0  0  0  0  0  0  0  0  0  0  0  0
   11.5739   12.7080    8.6042 C   0  0  0  0  0  0  0  0  0  0  0  0
   11.2470   13.3558    7.4743 N   0  0  0  0  0  0  0  0  0  0  0  0
   11.2169   12.5611    6.3844 C   0  0  0  0  0  0  0  0  0  0  0  0
   11.4792   11.2103    6.3222 C   0  0  0  0  0  0  0  0  0  0  0  0
   11.8218   10.5120    7.4973 C   0  0  0  0  0  0  0  0  0  0  0  0
   12.0876    9.3281    7.6535 O   0  0  0  0  0  0  0  0  0  0  0  0
   11.3357   10.7943    5.0310 N   0  0  0  0  0  0  0  0  0  0  0  0
   10.9907   11.8844    4.3139 C   0  0  0  0  0  0  0  0  0  0  0  0
   10.9117   12.9899    5.1217 N   0  0  0  0  0  0  0  0  0  0  0  0
  1  2  1  0  0  0  0
  1  6  1  0  0  0  0
  2  3  2  0  0  0  0
  3  4  1  0  0  0  0
  4  5  2  0  0  0  0
  4 10  1  0  0  0  0
  5  6  1  0  0  0  0
  5  8  1  0  0  0  0
  6  7  2  0  0  0  0
  8  9  1  0  0  0  0
  9 10  2  0  0  0  0
M  END
>  <CHROM.1>
11.46322782,11.62748571,6.72105935,0.42047210,-1.31084532,0.85589400

>  <Name>
ligand

>  <RI>
0

>  <Rbt.Current_Directory>
/home/itssahil/PROJECTS/Mol_Feturizer/New_Systems/rnas/4FEJ

>  <Rbt.Executable>
rbdock ($Id: //depot/dev/client3/rdock/2013.1/src/exe/rbdock.cxx#4 $)

>  <Rbt.Library>
libRbt.so (2013.1, Build901 2013/11/27)

>  <Rbt.Parameter_File>
/export/apps/rDock/src/rDock_2013.1_src/data/scripts/dock_solv.prm

>  <Rbt.Receptor>
prm/blind_docking_100.prm

>  <SCORE>
-17.473

>  <SCORE.INTER>
-17.473

>  <SCORE.INTER.CONST>
1

>  <SCORE.INTER.POLAR>
0

>  <SCORE.INTER.ROT>
0

>  <SCORE.INTER.SOLV>
3.83405

>  <SCORE.INTER.VDW>
-16.5267

>  <SCORE.INTER.norm>
-1.7473

>  <SCORE.INTRA>
0

>  <SCORE.INTRA.DIHEDRAL>
0

>  <SCORE.INTRA.DIHEDRAL.0>
0

>  <SCORE.INTRA.POLAR>
0

>  <SCORE.INTRA.POLAR.0>
0

>  <SCORE.INTRA.REPUL>
0

>  <SCORE.INTRA.REPUL.0>
0

>  <SCORE.INTRA.SOLV>
0

>  <SCORE.INTRA.SOLV.lig_0>
-4.26631

>  <SCORE.INTRA.VDW>
0

>  <SCORE.INTRA.VDW.0>
0

>  <SCORE.INTRA.norm>
0

>  <SCORE.RESTR>
0

>  <SCORE.RESTR.CAVITY>
0

>  <SCORE.RESTR.norm>
0

>  <SCORE.SYSTEM>
0

>  <SCORE.SYSTEM.CONST>
0

>  <SCORE.SYSTEM.DIHEDRAL>
0

>  <SCORE.SYSTEM.SOLV>
0

>  <SCORE.SYSTEM.norm>
0

>  <SCORE.heavy>
10

>  <SCORE.norm>
-1.7473

>  <RMSD>
0.523

$$$$
ligand
 OpenBabel11021811493D
libRbt.so/2013.1/901 2013/11/27
 10 11  0  0  0  0  0  0  0  0999 V2000
   11.8378   11.3658    8.6111 N   0  0  0  0  0  0  0  0  0  0  0  0
   11.5584   12.7090    8.6074 C   0  0  0  0  0  0  0  0  0  0  0  0
   11.2332   13.3549    7.4760 N   0  0  0  0  0  0  0  0  0  0  0  0
   11.2129   12.5602    6.3860 C   0  0  0  0  0  0  0  0  0  0  0  0
   11.4834   11.2109    6.3250 C   0  0  0  0  0  0  0  0  0  0  0  0
   11.8243   10.5146    7.5016 C   0  0  0  0  0  0  0  0  0  0  0  0
   12.0962    9.3322    7.6591 O   0  0  0  0  0  0  0  0  0  0  0  0
   11.3484   10.7942    5.0331 N   0  0  0  0  0  0  0  0  0  0  0  0
   11.0007   11.8824    4.3144 C   0  0  0  0  0  0  0  0  0  0  0  0
   10.9113   12.9872    5.1218 N   0  0  0  0  0  0  0  0  0  0  0  0
  1  2  1  0  0  0  0
  1  6  1  0  0  0  0
  2  3  2  0  0  0  0
  3  4  1  0  0  0  0
  4  5  2  0  0  0  0
  4 10  1  0  0  0  0
  5  6  1  0  0  0  0
  5  8  1  0  0  0  0
  6  7  2  0  0  0  0
  8  9  1  0  0  0  0
  9 10  2  0  0  0  0
M  END
>  <CHROM.1>
11.46301893,11.62796959,6.72376824,0.44927456,-1.30953053,0.88378411

>  <Name>
ligand

>  <RI>
0

>  <Rbt.Current_Directory>
/home/itssahil/PROJECTS/Mol_Feturizer/New_Systems/rnas/4FEJ

>  <Rbt.Executable>
rbdock ($Id: //depot/dev/client3/rdock/2013.1/src/exe/rbdock.cxx#4 $)

>  <Rbt.Library>
libRbt.so (2013.1, Build901 2013/11/27)

>  <Rbt.Parameter_File>
/export/apps/rDock/src/rDock_2013.1_src/data/scripts/dock_solv.prm

>  <Rbt.Receptor>
prm/pocket_docking_5.prm

>  <SCORE>
-17.4564

>  <SCORE.INTER>
-17.4564

>  <SCORE.INTER.CONST>
1

>  <SCORE.INTER.POLAR>
0

>  <SCORE.INTER.ROT>
0

>  <SCORE.INTER.SOLV>
3.82792

>  <SCORE.INTER.VDW>
-16.5136

>  <SCORE.INTER.norm>
-1.74564

>  <SCORE.INTRA>
0

>  <SCORE.INTRA.DIHEDRAL>
0

>  <SCORE.INTRA.DIHEDRAL.0>
0

>  <SCORE.INTRA.POLAR>
0

>  <SCORE.INTRA.POLAR.0>
0

>  <SCORE.INTRA.REPUL>
0

>  <SCORE.INTRA.REPUL.0>
0

>  <SCORE.INTRA.SOLV>
0

>  <SCORE.INTRA.SOLV.lig_0>
-4.26631

>  <SCORE.INTRA.VDW>
0

>  <SCORE.INTRA.VDW.0>
0

>  <SCORE.INTRA.norm>
0

>  <SCORE.RESTR>
0

>  <SCORE.RESTR.CAVITY>
0

>  <SCORE.RESTR.norm>
0

>  <SCORE.SYSTEM>
0

>  <SCORE.SYSTEM.CONST>
0

>  <SCORE.SYSTEM.DIHEDRAL>
0

>  <SCORE.SYSTEM.SOLV>
0

>  <SCORE.SYSTEM.norm>
0

>  <SCORE.heavy>
10

>  <SCORE.norm>
-1.74564

>  <RMSD>
0.523

$$$$
ligand
 OpenBabel11021811493D
libRbt.so/2013.1/901 2013/11/27
 10 11  0  0  0  0  0  0  0  0999 V2000
   11.8462   11.3749    8.6151 N   0  0  0  0  0  0  0  0  0  0  0  0
   11.5918   12.7231    8.6176 C   0  0  0  0  0  0  0  0  0  0  0  0
   11.2709   13.3787    7.4905 N   0  0  0  0  0  0  0  0  0  0  0  0
   11.2283   12.5880    6.3982 C   0  0  0  0  0  0  0  0  0  0  0  0
   11.4731   11.2342    6.3310 C   0  0  0  0  0  0  0  0  0  0  0  0
   11.8091   10.5277    7.5030 C   0  0  0  0  0  0  0  0  0  0  0  0
   12.0600    9.3400    7.6549 O   0  0  0  0  0  0  0  0  0  0  0  0
   11.3216   10.8243    5.0388 N   0  0  0  0  0  0  0  0  0  0  0  0
   10.9892   11.9211    4.3259 C   0  0  0  0  0  0  0  0  0  0  0  0
   10.9260   13.0248    5.1374 N   0  0  0  0  0  0  0  0  0  0  0  0
  1  2  1  0  0  0  0
  1  6  1  0  0  0  0
  2  3  2  0  0  0  0
  3  4  1  0  0  0  0
  4  5  2  0  0  0  0
  4 10  1  0  0  0  0
  5  6  1  0  0  0  0
  5  8  1  0  0  0  0
  6  7  2  0  0  0  0
  8  9  1  0  0  0  0
  9 10  2  0  0  0  0
M  END
>  <CHROM.1>
11.46331593,11.65020673,6.73122754,0.38044803,-1.31899025,0.82043636

>  <Name>
ligand

>  <RI>
0

>  <Rbt.Current_Directory>
/home/itssahil/PROJECTS/Mol_Feturizer/New_Systems/rnas/4FEJ

>  <Rbt.Executable>
rbdock ($Id: //depot/dev/client3/rdock/2013.1/src/exe/rbdock.cxx#4 $)

>  <Rbt.Library>
libRbt.so (2013.1, Build901 2013/11/27)

>  <Rbt.Parameter_File>
/export/apps/rDock/src/rDock_2013.1_src/data/scripts/dock_solv.prm

>  <Rbt.Receptor>
prm/pocket_docking_6.prm

>  <SCORE>
-17.4513

>  <SCORE.INTER>
-17.4513

>  <SCORE.INTER.CONST>
1

>  <SCORE.INTER.POLAR>
0

>  <SCORE.INTER.ROT>
0

>  <SCORE.INTER.SOLV>
3.86308

>  <SCORE.INTER.VDW>
-16.5219

>  <SCORE.INTER.norm>
-1.74513

>  <SCORE.INTRA>
0

>  <SCORE.INTRA.DIHEDRAL>
0

>  <SCORE.INTRA.DIHEDRAL.0>
0

>  <SCORE.INTRA.POLAR>
0

>  <SCORE.INTRA.POLAR.0>
0

>  <SCORE.INTRA.REPUL>
0

>  <SCORE.INTRA.REPUL.0>
0

>  <SCORE.INTRA.SOLV>
0

>  <SCORE.INTRA.SOLV.lig_0>
-4.26631

>  <SCORE.INTRA.VDW>
0

>  <SCORE.INTRA.VDW.0>
0

>  <SCORE.INTRA.norm>
0

>  <SCORE.RESTR>
0

>  <SCORE.RESTR.CAVITY>
0

>  <SCORE.RESTR.norm>
0

>  <SCORE.SYSTEM>
0

>  <SCORE.SYSTEM.CONST>
0

>  <SCORE.SYSTEM.DIHEDRAL>
0

>  <SCORE.SYSTEM.SOLV>
0

>  <SCORE.SYSTEM.norm>
0

>  <SCORE.heavy>
10

>  <SCORE.norm>
-1.74513

>  <RMSD>
0.523

$$$$
ligand
 OpenBabel11021811493D
libRbt.so/2013.1/901 2013/11/27
 10 11  0  0  0  0  0  0  0  0999 V2000
   11.8560   11.3221    8.5878 N   0  0  0  0  0  0  0  0  0  0  0  0
   11.6215   12.6739    8.6031 C   0  0  0  0  0  0  0  0  0  0  0  0
   11.3013   13.3432    7.4840 N   0  0  0  0  0  0  0  0  0  0  0  0
   11.2382   12.5622    6.3857 C   0  0  0  0  0  0  0  0  0  0  0  0
   11.4626   11.2055    6.3058 C   0  0  0  0  0  0  0  0  0  0  0  0
   11.7975   10.4847    7.4693 C   0  0  0  0  0  0  0  0  0  0  0  0
   12.0321    9.2922    7.6096 O   0  0  0  0  0  0  0  0  0  0  0  0
   11.2946   10.8083    5.0116 N   0  0  0  0  0  0  0  0  0  0  0  0
   10.9727   11.9156    4.3103 C   0  0  0  0  0  0  0  0  0  0  0  0
   10.9323   13.0135    5.1310 N   0  0  0  0  0  0  0  0  0  0  0  0
  1  2  1  0  0  0  0
  1  6  1  0  0  0  0
  2  3  2  0  0  0  0
  3  4  1  0  0  0  0
  4  5  2  0  0  0  0
  4 10  1  0  0  0  0
  5  6  1  0  0  0  0
  5  8  1  0  0  0  0
  6  7  2  0  0  0  0
  8  9  1  0  0  0  0
  9 10  2  0  0  0  0
M  END
>  <CHROM.1>
11.46208875,11.61833966,6.70936249,0.31519117,-1.32377786,0.76524114

>  <Name>
ligand

>  <RI>
0

>  <Rbt.Current_Directory>
/home/itssahil/PROJECTS/Mol_Feturizer/New_Systems/rnas/4FEJ

>  <Rbt.Executable>
rbdock ($Id: //depot/dev/client3/rdock/2013.1/src/exe/rbdock.cxx#4 $)

>  <Rbt.Library>
libRbt.so (2013.1, Build901 2013/11/27)

>  <Rbt.Parameter_File>
/export/apps/rDock/src/rDock_2013.1_src/data/scripts/dock_solv.prm

>  <Rbt.Receptor>
prm/pocket_docking_8.prm

>  <SCORE>
-17.4074

>  <SCORE.INTER>
-17.4074

>  <SCORE.INTER.CONST>
1

>  <SCORE.INTER.POLAR>
0

>  <SCORE.INTER.ROT>
0

>  <SCORE.INTER.SOLV>
3.87552

>  <SCORE.INTER.VDW>
-16.4968

>  <SCORE.INTER.norm>
-1.74074

>  <SCORE.INTRA>
0

>  <SCORE.INTRA.DIHEDRAL>
0

>  <SCORE.INTRA.DIHEDRAL.0>
0

>  <SCORE.INTRA.POLAR>
0

>  <SCORE.INTRA.POLAR.0>
0

>  <SCORE.INTRA.REPUL>
0

>  <SCORE.INTRA.REPUL.0>
0

>  <SCORE.INTRA.SOLV>
0

>  <SCORE.INTRA.SOLV.lig_0>
-4.26631

>  <SCORE.INTRA.VDW>
0

>  <SCORE.INTRA.VDW.0>
0

>  <SCORE.INTRA.norm>
0

>  <SCORE.RESTR>
0

>  <SCORE.RESTR.CAVITY>
0

>  <SCORE.RESTR.norm>
0

>  <SCORE.SYSTEM>
0

>  <SCORE.SYSTEM.CONST>
0

>  <SCORE.SYSTEM.DIHEDRAL>
0

>  <SCORE.SYSTEM.SOLV>
0

>  <SCORE.SYSTEM.norm>
0

>  <SCORE.heavy>
10

>  <SCORE.norm>
-1.74074

>  <RMSD>
0.523

$$$$
ligand
 OpenBabel11021811493D
libRbt.so/2013.1/901 2013/11/27
 10 11  0  0  0  0  0  0  0  0999 V2000
   11.8880   11.4447    8.6599 N   0  0  0  0  0  0  0  0  0  0  0  0
   11.6445   12.7944    8.6241 C   0  0  0  0  0  0  0  0  0  0  0  0
   11.3111   13.4171    7.4821 N   0  0  0  0  0  0  0  0  0  0  0  0
   11.2450   12.5931    6.4159 C   0  0  0  0  0  0  0  0  0  0  0  0
   11.4779   11.2358    6.3875 C   0  0  0  0  0  0  0  0  0  0  0  0
   11.8267   10.5635    7.5758 C   0  0  0  0  0  0  0  0  0  0  0  0
   12.0705    9.3790    7.7610 O   0  0  0  0  0  0  0  0  0  0  0  0
   11.3027   10.7870    5.1113 N   0  0  0  0  0  0  0  0  0  0  0  0
   10.9679   11.8637    4.3696 C   0  0  0  0  0  0  0  0  0  0  0  0
   10.9263   12.9927    5.1469 N   0  0  0  0  0  0  0  0  0  0  0  0
  1  2  1  0  0  0  0
  1  6  1  0  0  0  0
  2  3  2  0  0  0  0
  3  4  1  0  0  0  0
  4  5  2  0  0  0  0
  4 10  1  0  0  0  0
  5  6  1  0  0  0  0
  5  8  1  0  0  0  0
  6  7  2  0  0  0  0
  8  9  1  0  0  0  0
  9 10  2  0  0  0  0
M  END
>  <CHROM.1>
11.47773445,11.66418275,6.77455365,0.31359645,-1.31353204,0.72437235

>  <Name>
ligand

>  <RI>
0

>  <Rbt.Current_Directory>
/home/itssahil/PROJECTS/Mol_Feturizer/New_Systems/rnas/4FEJ

>  <Rbt.Executable>
rbdock ($Id: //depot/dev/client3/rdock/2013.1/src/exe/rbdock.cxx#4 $)

>  <Rbt.Library>
libRbt.so (2013.1, Build901 2013/11/27)

>  <Rbt.Parameter_File>
/export/apps/rDock/src/rDock_2013.1_src/data/scripts/dock_solv.prm

>  <Rbt.Receptor>
prm/pocket_docking_5.prm

>  <SCORE>
-17.4651

>  <SCORE.INTER>
-17.4651

>  <SCORE.INTER.CONST>
1

>  <SCORE.INTER.POLAR>
0

>  <SCORE.INTER.ROT>
0

>  <SCORE.INTER.SOLV>
3.896

>  <SCORE.INTER.VDW>
-16.5421

>  <SCORE.INTER.norm>
-1.74651

>  <SCORE.INTRA>
0

>  <SCORE.INTRA.DIHEDRAL>
0

>  <SCORE.INTRA.DIHEDRAL.0>
0

>  <SCORE.INTRA.POLAR>
0

>  <SCORE.INTRA.POLAR.0>
0

>  <SCORE.INTRA.REPUL>
0

>  <SCORE.INTRA.REPUL.0>
0

>  <SCORE.INTRA.SOLV>
0

>  <SCORE.INTRA.SOLV.lig_0>
-4.26631

>  <SCORE.INTRA.VDW>
0

>  <SCORE.INTRA.VDW.0>
0

>  <SCORE.INTRA.norm>
0

>  <SCORE.RESTR>
0

>  <SCORE.RESTR.CAVITY>
0

>  <SCORE.RESTR.norm>
0

>  <SCORE.SYSTEM>
0

>  <SCORE.SYSTEM.CONST>
0

>  <SCORE.SYSTEM.DIHEDRAL>
0

>  <SCORE.SYSTEM.SOLV>
0

>  <SCORE.SYSTEM.norm>
0

>  <SCORE.heavy>
10

>  <SCORE.norm>
-1.74651

>  <RMSD>
0.524

$$$$
ligand
 OpenBabel11021811493D
libRbt.so/2013.1/901 2013/11/27
 10 11  0  0  0  0  0  0  0  0999 V2000
   11.8245   11.3424    8.6020 N   0  0  0  0  0  0  0  0  0  0  0  0
   11.5625   12.6891    8.6148 C   0  0  0  0  0  0  0  0  0  0  0  0
   11.2497   13.3538    7.4908 N   0  0  0  0  0  0  0  0  0  0  0  0
   11.2230   12.5735    6.3905 C   0  0  0  0  0  0  0  0  0  0  0  0
   11.4761   11.2218    6.3129 C   0  0  0  0  0  0  0  0  0  0  0  0
   11.8038   10.5059    7.4815 C   0  0  0  0  0  0  0  0  0  0  0  0
   12.0598    9.3181    7.6246 O   0  0  0  0  0  0  0  0  0  0  0  0
   11.3404   10.8236    5.0153 N   0  0  0  0  0  0  0  0  0  0  0  0
   11.0093   11.9254    4.3095 C   0  0  0  0  0  0  0  0  0  0  0  0
   10.9314   13.0208    5.1309 N   0  0  0  0  0  0  0  0  0  0  0  0
  1  2  1  0  0  0  0
  1  6  1  0  0  0  0
  2  3  2  0  0  0  0
  3  4  1  0  0  0  0
  4  5  2  0  0  0  0
  4 10  1  0  0  0  0
  5  6  1  0  0  0  0
  5  8  1  0  0  0  0
  6  7  2  0  0  0  0
  8  9  1  0  0  0  0
  9 10  2  0  0  0  0
M  END
>  <CHROM.1>
11.45978933,11.63385724,6.71697388,0.42694214,-1.32173885,0.87511986

>  <Name>
ligand

>  <RI>
0

>  <Rbt.Current_Directory>
/home/itssahil/PROJECTS/Mol_Feturizer/New_Systems/rnas/4FEJ

>  <Rbt.Executable>
rbdock ($Id: //depot/dev/client3/rdock/2013.1/src/exe/rbdock.cxx#4 $)

>  <Rbt.Library>
libRbt.so (2013.1, Build901 2013/11/27)

>  <Rbt.Parameter_File>
/export/apps/rDock/src/rDock_2013.1_src/data/scripts/dock_solv.prm

>  <Rbt.Receptor>
prm/pocket_docking_6.prm

>  <SCORE>
-17.4213

>  <SCORE.INTER>
-17.4213

>  <SCORE.INTER.CONST>
1

>  <SCORE.INTER.POLAR>
0

>  <SCORE.INTER.ROT>
0

>  <SCORE.INTER.SOLV>
3.85598

>  <SCORE.INTER.VDW>
-16.4996

>  <SCORE.INTER.norm>
-1.74213

>  <SCORE.INTRA>
0

>  <SCORE.INTRA.DIHEDRAL>
0

>  <SCORE.INTRA.DIHEDRAL.0>
0

>  <SCORE.INTRA.POLAR>
0

>  <SCORE.INTRA.POLAR.0>
0

>  <SCORE.INTRA.REPUL>
0

>  <SCORE.INTRA.REPUL.0>
0

>  <SCORE.INTRA.SOLV>
0

>  <SCORE.INTRA.SOLV.lig_0>
-4.26631

>  <SCORE.INTRA.VDW>
0

>  <SCORE.INTRA.VDW.0>
0

>  <SCORE.INTRA.norm>
0

>  <SCORE.RESTR>
0

>  <SCORE.RESTR.CAVITY>
0

>  <SCORE.RESTR.norm>
0

>  <SCORE.SYSTEM>
0

>  <SCORE.SYSTEM.CONST>
0

>  <SCORE.SYSTEM.DIHEDRAL>
0

>  <SCORE.SYSTEM.SOLV>
0

>  <SCORE.SYSTEM.norm>
0

>  <SCORE.heavy>
10

>  <SCORE.norm>
-1.74213

>  <RMSD>
0.524

$$$$
ligand
 OpenBabel11021811493D
libRbt.so/2013.1/901 2013/11/27
 10 11  0  0  0  0  0  0  0  0999 V2000
   11.8382   11.3606    8.6071 N   0  0  0  0  0  0  0  0  0  0  0  0
   11.5625   12.7047    8.6046 C   0  0  0  0  0  0  0  0  0  0  0  0
   11.2386   13.3523    7.4738 N   0  0  0  0  0  0  0  0  0  0  0  0
   11.2154   12.5584    6.3832 C   0  0  0  0  0  0  0  0  0  0  0  0
   11.4821   11.2085    6.3211 C   0  0  0  0  0  0  0  0  0  0  0  0
   11.8217   10.5103    7.4971 C   0  0  0  0  0  0  0  0  0  0  0  0
   12.0903    9.3271    7.6535 O   0  0  0  0  0  0  0  0  0  0  0  0
   11.3453   10.7931    5.0290 N   0  0  0  0  0  0  0  0  0  0  0  0
   11.0002   11.8827    4.3112 C   0  0  0  0  0  0  0  0  0  0  0  0
   10.9144   12.9873    5.1195 N   0  0  0  0  0  0  0  0  0  0  0  0
  1  2  1  0  0  0  0
  1  6  1  0  0  0  0
  2  3  2  0  0  0  0
  3  4  1  0  0  0  0
  4  5  2  0  0  0  0
  4 10  1  0  0  0  0
  5  6  1  0  0  0  0
  5  8  1  0  0  0  0
  6  7  2  0  0  0  0
  8  9  1  0  0  0  0
  9 10  2  0  0  0  0
M  END
>  <CHROM.1>
11.46311768,11.62528725,6.72019258,0.44069151,-1.31135765,0.87622285

>  <Name>
ligand

>  <RI>
0

>  <Rbt.Current_Directory>
/home/itssahil/PROJECTS/Mol_Feturizer/New_Systems/rnas/4FEJ

>  <Rbt.Executable>
rbdock ($Id: //depot/dev/client3/rdock/2013.1/src/exe/rbdock.cxx#4 $)

>  <Rbt.Library>
libRbt.so (2013.1, Build901 2013/11/27)

>  <Rbt.Parameter_File>
/export/apps/rDock/src/rDock_2013.1_src/data/scripts/dock_solv.prm

>  <Rbt.Receptor>
prm/pocket_docking_8.prm

>  <SCORE>
-17.4663

>  <SCORE.INTER>
-17.4663

>  <SCORE.INTER.CONST>
1

>  <SCORE.INTER.POLAR>
0

>  <SCORE.INTER.ROT>
0

>  <SCORE.INTER.SOLV>
3.83218

>  <SCORE.INTER.VDW>
-16.5216

>  <SCORE.INTER.norm>
-1.74663

>  <SCORE.INTRA>
0

>  <SCORE.INTRA.DIHEDRAL>
0

>  <SCORE.INTRA.DIHEDRAL.0>
0

>  <SCORE.INTRA.POLAR>
0

>  <SCORE.INTRA.POLAR.0>
0

>  <SCORE.INTRA.REPUL>
0

>  <SCORE.INTRA.REPUL.0>
0

>  <SCORE.INTRA.SOLV>
0

>  <SCORE.INTRA.SOLV.lig_0>
-4.26631

>  <SCORE.INTRA.VDW>
0

>  <SCORE.INTRA.VDW.0>
0

>  <SCORE.INTRA.norm>
0

>  <SCORE.RESTR>
0

>  <SCORE.RESTR.CAVITY>
0

>  <SCORE.RESTR.norm>
0

>  <SCORE.SYSTEM>
0

>  <SCORE.SYSTEM.CONST>
0

>  <SCORE.SYSTEM.DIHEDRAL>
0

>  <SCORE.SYSTEM.SOLV>
0

>  <SCORE.SYSTEM.norm>
0

>  <SCORE.heavy>
10

>  <SCORE.norm>
-1.74663

>  <RMSD>
0.524

$$$$
ligand
 OpenBabel11021811493D
libRbt.so/2013.1/901 2013/11/27
 10 11  0  0  0  0  0  0  0  0999 V2000
   11.8754   11.4161    8.6481 N   0  0  0  0  0  0  0  0  0  0  0  0
   11.6324   12.7660    8.6143 C   0  0  0  0  0  0  0  0  0  0  0  0
   11.3181   13.3939    7.4697 N   0  0  0  0  0  0  0  0  0  0  0  0
   11.2699   12.5747    6.3988 C   0  0  0  0  0  0  0  0  0  0  0  0
   11.5034   11.2176    6.3682 C   0  0  0  0  0  0  0  0  0  0  0  0
   11.8323   10.5399    7.5590 C   0  0  0  0  0  0  0  0  0  0  0  0
   12.0731    9.3546    7.7428 O   0  0  0  0  0  0  0  0  0  0  0  0
   11.3497   10.7746    5.0871 N   0  0  0  0  0  0  0  0  0  0  0  0
   11.0272   11.8547    4.3449 C   0  0  0  0  0  0  0  0  0  0  0  0
   10.9725   12.9802    5.1265 N   0  0  0  0  0  0  0  0  0  0  0  0
  1  2  1  0  0  0  0
  1  6  1  0  0  0  0
  2  3  2  0  0  0  0
  3  4  1  0  0  0  0
  4  5  2  0  0  0  0
  4 10  1  0  0  0  0
  5  6  1  0  0  0  0
  5  8  1  0  0  0  0
  6  7  2  0  0  0  0
  8  9  1  0  0  0  0
  9 10  2  0  0  0  0
M  END
>  <CHROM.1>
11.49670194,11.64422705,6.75710245,0.35971528,-1.32573315,0.77362600

>  <Name>
ligand

>  <RI>
0

>  <Rbt.Current_Directory>
/home/itssahil/PROJECTS/Mol_Feturizer/New_Systems/rnas/4FEJ

>  <Rbt.Executable>
rbdock ($Id: //depot/dev/client3/rdock/2013.1/src/exe/rbdock.cxx#4 $)

>  <Rbt.Library>
libRbt.so (2013.1, Build901 2013/11/27)

>  <Rbt.Parameter_File>
/export/apps/rDock/src/rDock_2013.1_src/data/scripts/dock_solv.prm

>  <Rbt.Receptor>
prm/blind_docking_40.prm

>  <SCORE>
-17.4329

>  <SCORE.INTER>
-17.4329

>  <SCORE.INTER.CONST>
1

>  <SCORE.INTER.POLAR>
0

>  <SCORE.INTER.ROT>
0

>  <SCORE.INTER.SOLV>
3.90697

>  <SCORE.INTER.VDW>
-16.5243

>  <SCORE.INTER.norm>
-1.74329

>  <SCORE.INTRA>
0

>  <SCORE.INTRA.DIHEDRAL>
0

>  <SCORE.INTRA.DIHEDRAL.0>
0

>  <SCORE.INTRA.POLAR>
0

>  <SCORE.INTRA.POLAR.0>
0

>  <SCORE.INTRA.REPUL>
0

>  <SCORE.INTRA.REPUL.0>
0

>  <SCORE.INTRA.SOLV>
0

>  <SCORE.INTRA.SOLV.lig_0>
-4.26631

>  <SCORE.INTRA.VDW>
0

>  <SCORE.INTRA.VDW.0>
0

>  <SCORE.INTRA.norm>
0

>  <SCORE.RESTR>
0

>  <SCORE.RESTR.CAVITY>
0

>  <SCORE.RESTR.norm>
0

>  <SCORE.SYSTEM>
0

>  <SCORE.SYSTEM.CONST>
0

>  <SCORE.SYSTEM.DIHEDRAL>
0

>  <SCORE.SYSTEM.SOLV>
0

>  <SCORE.SYSTEM.norm>
0

>  <SCORE.heavy>
10

>  <SCORE.norm>
-1.74329

>  <RMSD>
0.525

$$$$
ligand
 OpenBabel11021811493D
libRbt.so/2013.1/901 2013/11/27
 10 11  0  0  0  0  0  0  0  0999 V2000
   11.8444   11.3963    8.6249 N   0  0  0  0  0  0  0  0  0  0  0  0
   11.5583   12.7380    8.6088 C   0  0  0  0  0  0  0  0  0  0  0  0
   11.2341   13.3728    7.4708 N   0  0  0  0  0  0  0  0  0  0  0  0
   11.2218   12.5687    6.3875 C   0  0  0  0  0  0  0  0  0  0  0  0
   11.4991   11.2204    6.3389 C   0  0  0  0  0  0  0  0  0  0  0  0
   11.8391   10.5357    7.5226 C   0  0  0  0  0  0  0  0  0  0  0  0
   12.1163    9.3561    7.6911 O   0  0  0  0  0  0  0  0  0  0  0  0
   11.3711   10.7921    5.0501 N   0  0  0  0  0  0  0  0  0  0  0  0
   11.0206   11.8724    4.3209 C   0  0  0  0  0  0  0  0  0  0  0  0
   10.9228   12.9836    5.1186 N   0  0  0  0  0  0  0  0  0  0  0  0
  1  2  1  0  0  0  0
  1  6  1  0  0  0  0
  2  3  2  0  0  0  0
  3  4  1  0  0  0  0
  4  5  2  0  0  0  0
  4 10  1  0  0  0  0
  5  6  1  0  0  0  0
  5  8  1  0  0  0  0
  6  7  2  0  0  0  0
  8  9  1  0  0  0  0
  9 10  2  0  0  0  0
M  END
>  <CHROM.1>
11.47525767,11.64067391,6.73403993,0.47237087,-1.30799514,0.89763467

>  <Name>
ligand

>  <RI>
0

>  <Rbt.Current_Directory>
/home/itssahil/PROJECTS/Mol_Feturizer/New_Systems/rnas/4FEJ

>  <Rbt.Executable>
rbdock ($Id: //depot/dev/client3/rdock/2013.1/src/exe/rbdock.cxx#4 $)

>  <Rbt.Library>
libRbt.so (2013.1, Build901 2013/11/27)

>  <Rbt.Parameter_File>
/export/apps/rDock/src/rDock_2013.1_src/data/scripts/dock_solv.prm

>  <Rbt.Receptor>
prm/blind_docking_60.prm

>  <SCORE>
-17.4467

>  <SCORE.INTER>
-17.4467

>  <SCORE.INTER.CONST>
1

>  <SCORE.INTER.POLAR>
0

>  <SCORE.INTER.ROT>
0

>  <SCORE.INTER.SOLV>
3.82767

>  <SCORE.INTER.VDW>
-16.507

>  <SCORE.INTER.norm>
-1.74467

>  <SCORE.INTRA>
0

>  <SCORE.INTRA.DIHEDRAL>
0

>  <SCORE.INTRA.DIHEDRAL.0>
0

>  <SCORE.INTRA.POLAR>
0

>  <SCORE.INTRA.POLAR.0>
0

>  <SCORE.INTRA.REPUL>
0

>  <SCORE.INTRA.REPUL.0>
0

>  <SCORE.INTRA.SOLV>
0

>  <SCORE.INTRA.SOLV.lig_0>
-4.26631

>  <SCORE.INTRA.VDW>
0

>  <SCORE.INTRA.VDW.0>
0

>  <SCORE.INTRA.norm>
0

>  <SCORE.RESTR>
0

>  <SCORE.RESTR.CAVITY>
0

>  <SCORE.RESTR.norm>
0

>  <SCORE.SYSTEM>
0

>  <SCORE.SYSTEM.CONST>
0

>  <SCORE.SYSTEM.DIHEDRAL>
0

>  <SCORE.SYSTEM.SOLV>
0

>  <SCORE.SYSTEM.norm>
0

>  <SCORE.heavy>
10

>  <SCORE.norm>
-1.74467

>  <RMSD>
0.525

$$$$
ligand
 OpenBabel11021811493D
libRbt.so/2013.1/901 2013/11/27
 10 11  0  0  0  0  0  0  0  0999 V2000
   11.8309   11.3242    8.5958 N   0  0  0  0  0  0  0  0  0  0  0  0
   11.6013   12.6767    8.6179 C   0  0  0  0  0  0  0  0  0  0  0  0
   11.2921   13.3542    7.5006 N   0  0  0  0  0  0  0  0  0  0  0  0
   11.2346   12.5803    6.3970 C   0  0  0  0  0  0  0  0  0  0  0  0
   11.4546   11.2234    6.3102 C   0  0  0  0  0  0  0  0  0  0  0  0
   11.7779   10.4940    7.4717 C   0  0  0  0  0  0  0  0  0  0  0  0
   12.0071    9.2998    7.6062 O   0  0  0  0  0  0  0  0  0  0  0  0
   11.2951   10.8350    5.0122 N   0  0  0  0  0  0  0  0  0  0  0  0
   10.9827   11.9479    4.3155 C   0  0  0  0  0  0  0  0  0  0  0  0
   10.9400   13.0407    5.1429 N   0  0  0  0  0  0  0  0  0  0  0  0
  1  2  1  0  0  0  0
  1  6  1  0  0  0  0
  2  3  2  0  0  0  0
  3  4  1  0  0  0  0
  4  5  2  0  0  0  0
  4 10  1  0  0  0  0
  5  6  1  0  0  0  0
  5  8  1  0  0  0  0
  6  7  2  0  0  0  0
  8  9  1  0  0  0  0
  9 10  2  0  0  0  0
M  END
>  <CHROM.1>
11.45253109,11.63367788,6.71634654,0.32651244,-1.33184952,0.78255483

>  <Name>
ligand

>  <RI>
0

>  <Rbt.Current_Directory>
/home/itssahil/PROJECTS/Mol_Feturizer/New_Systems/rnas/4FEJ

>  <Rbt.Executable>
rbdock ($Id: //depot/dev/client3/rdock/2013.1/src/exe/rbdock.cxx#4 $)

>  <Rbt.Library>
libRbt.so (2013.1, Build901 2013/11/27)

>  <Rbt.Parameter_File>
/export/apps/rDock/src/rDock_2013.1_src/data/scripts/dock_solv.prm

>  <Rbt.Receptor>
prm/pocket_docking_6.prm

>  <SCORE>
-17.4147

>  <SCORE.INTER>
-17.4147

>  <SCORE.INTER.CONST>
1

>  <SCORE.INTER.POLAR>
0

>  <SCORE.INTER.ROT>
0

>  <SCORE.INTER.SOLV>
3.89673

>  <SCORE.INTER.VDW>
-16.5087

>  <SCORE.INTER.norm>
-1.74147

>  <SCORE.INTRA>
0

>  <SCORE.INTRA.DIHEDRAL>
0

>  <SCORE.INTRA.DIHEDRAL.0>
0

>  <SCORE.INTRA.POLAR>
0

>  <SCORE.INTRA.POLAR.0>
0

>  <SCORE.INTRA.REPUL>
0

>  <SCORE.INTRA.REPUL.0>
0

>  <SCORE.INTRA.SOLV>
0

>  <SCORE.INTRA.SOLV.lig_0>
-4.26631

>  <SCORE.INTRA.VDW>
0

>  <SCORE.INTRA.VDW.0>
0

>  <SCORE.INTRA.norm>
0

>  <SCORE.RESTR>
0

>  <SCORE.RESTR.CAVITY>
0

>  <SCORE.RESTR.norm>
0

>  <SCORE.SYSTEM>
0

>  <SCORE.SYSTEM.CONST>
0

>  <SCORE.SYSTEM.DIHEDRAL>
0

>  <SCORE.SYSTEM.SOLV>
0

>  <SCORE.SYSTEM.norm>
0

>  <SCORE.heavy>
10

>  <SCORE.norm>
-1.74147

>  <RMSD>
0.525

$$$$
ligand
 OpenBabel11021811493D
libRbt.so/2013.1/901 2013/11/27
 10 11  0  0  0  0  0  0  0  0999 V2000
   11.8461   11.3672    8.6072 N   0  0  0  0  0  0  0  0  0  0  0  0
   11.5774   12.7126    8.6041 C   0  0  0  0  0  0  0  0  0  0  0  0
   11.2495   13.3600    7.4743 N   0  0  0  0  0  0  0  0  0  0  0  0
   11.2152   12.5644    6.3853 C   0  0  0  0  0  0  0  0  0  0  0  0
   11.4745   11.2130    6.3237 C   0  0  0  0  0  0  0  0  0  0  0  0
   11.8180   10.5151    7.4987 C   0  0  0  0  0  0  0  0  0  0  0  0
   12.0815    9.3307    7.6554 O   0  0  0  0  0  0  0  0  0  0  0  0
   11.3273   10.7962    5.0332 N   0  0  0  0  0  0  0  0  0  0  0  0
   10.9832   11.8864    4.3158 C   0  0  0  0  0  0  0  0  0  0  0  0
   10.9083   12.9927    5.1228 N   0  0  0  0  0  0  0  0  0  0  0  0
  1  2  1  0  0  0  0
  1  6  1  0  0  0  0
  2  3  2  0  0  0  0
  3  4  1  0  0  0  0
  4  5  2  0  0  0  0
  4 10  1  0  0  0  0
  5  6  1  0  0  0  0
  5  8  1  0  0  0  0
  6  7  2  0  0  0  0
  8  9  1  0  0  0  0
  9 10  2  0  0  0  0
M  END
>  <CHROM.1>
11.46024944,11.63058867,6.72220825,0.40857991,-1.31110195,0.84349642

>  <Name>
ligand

>  <RI>
0

>  <Rbt.Current_Directory>
/home/itssahil/PROJECTS/Mol_Feturizer/New_Systems/rnas/4FEJ

>  <Rbt.Executable>
rbdock ($Id: //depot/dev/client3/rdock/2013.1/src/exe/rbdock.cxx#4 $)

>  <Rbt.Library>
libRbt.so (2013.1, Build901 2013/11/27)

>  <Rbt.Parameter_File>
/export/apps/rDock/src/rDock_2013.1_src/data/scripts/dock_solv.prm

>  <Rbt.Receptor>
prm/pocket_docking_8.prm

>  <SCORE>
-17.4737

>  <SCORE.INTER>
-17.4737

>  <SCORE.INTER.CONST>
1

>  <SCORE.INTER.POLAR>
0

>  <SCORE.INTER.ROT>
0

>  <SCORE.INTER.SOLV>
3.83839

>  <SCORE.INTER.VDW>
-16.5286

>  <SCORE.INTER.norm>
-1.74737

>  <SCORE.INTRA>
0

>  <SCORE.INTRA.DIHEDRAL>
0

>  <SCORE.INTRA.DIHEDRAL.0>
0

>  <SCORE.INTRA.POLAR>
0

>  <SCORE.INTRA.POLAR.0>
0

>  <SCORE.INTRA.REPUL>
0

>  <SCORE.INTRA.REPUL.0>
0

>  <SCORE.INTRA.SOLV>
0

>  <SCORE.INTRA.SOLV.lig_0>
-4.26631

>  <SCORE.INTRA.VDW>
0

>  <SCORE.INTRA.VDW.0>
0

>  <SCORE.INTRA.norm>
0

>  <SCORE.RESTR>
0

>  <SCORE.RESTR.CAVITY>
0

>  <SCORE.RESTR.norm>
0

>  <SCORE.SYSTEM>
0

>  <SCORE.SYSTEM.CONST>
0

>  <SCORE.SYSTEM.DIHEDRAL>
0

>  <SCORE.SYSTEM.SOLV>
0

>  <SCORE.SYSTEM.norm>
0

>  <SCORE.heavy>
10

>  <SCORE.norm>
-1.74737

>  <RMSD>
0.525

$$$$
ligand
 OpenBabel11021811493D
libRbt.so/2013.1/901 2013/11/27
 10 11  0  0  0  0  0  0  0  0999 V2000
   11.8315   11.3624    8.6072 N   0  0  0  0  0  0  0  0  0  0  0  0
   11.5513   12.7055    8.6044 C   0  0  0  0  0  0  0  0  0  0  0  0
   11.2272   13.3524    7.4732 N   0  0  0  0  0  0  0  0  0  0  0  0
   11.2088   12.5587    6.3824 C   0  0  0  0  0  0  0  0  0  0  0  0
   11.4801   11.2096    6.3205 C   0  0  0  0  0  0  0  0  0  0  0  0
   11.8198   10.5123    7.4969 C   0  0  0  0  0  0  0  0  0  0  0  0
   12.0922    9.3299    7.6535 O   0  0  0  0  0  0  0  0  0  0  0  0
   11.3470   10.7941    5.0280 N   0  0  0  0  0  0  0  0  0  0  0  0
   10.9996   11.8827    4.3099 C   0  0  0  0  0  0  0  0  0  0  0  0
   10.9086   12.9868    5.1182 N   0  0  0  0  0  0  0  0  0  0  0  0
  1  2  1  0  0  0  0
  1  6  1  0  0  0  0
  2  3  2  0  0  0  0
  3  4  1  0  0  0  0
  4  5  2  0  0  0  0
  4 10  1  0  0  0  0
  5  6  1  0  0  0  0
  5  8  1  0  0  0  0
  6  7  2  0  0  0  0
  8  9  1  0  0  0  0
  9 10  2  0  0  0  0
M  END
>  <CHROM.1>
11.45896925,11.62626082,6.71960142,0.45452009,-1.30991986,0.88982538

>  <Name>
ligand

>  <RI>
0

>  <Rbt.Current_Directory>
/home/itssahil/PROJECTS/Mol_Feturizer/New_Systems/rnas/4FEJ

>  <Rbt.Executable>
rbdock ($Id: //depot/dev/client3/rdock/2013.1/src/exe/rbdock.cxx#4 $)

>  <Rbt.Library>
libRbt.so (2013.1, Build901 2013/11/27)

>  <Rbt.Parameter_File>
/export/apps/rDock/src/rDock_2013.1_src/data/scripts/dock_solv.prm

>  <Rbt.Receptor>
prm/blind_docking_40.prm

>  <SCORE>
-17.4533

>  <SCORE.INTER>
-17.4533

>  <SCORE.INTER.CONST>
1

>  <SCORE.INTER.POLAR>
0

>  <SCORE.INTER.ROT>
0

>  <SCORE.INTER.SOLV>
3.82821

>  <SCORE.INTER.VDW>
-16.5116

>  <SCORE.INTER.norm>
-1.74533

>  <SCORE.INTRA>
0

>  <SCORE.INTRA.DIHEDRAL>
0

>  <SCORE.INTRA.DIHEDRAL.0>
0

>  <SCORE.INTRA.POLAR>
0

>  <SCORE.INTRA.POLAR.0>
0

>  <SCORE.INTRA.REPUL>
0

>  <SCORE.INTRA.REPUL.0>
0

>  <SCORE.INTRA.SOLV>
0

>  <SCORE.INTRA.SOLV.lig_0>
-4.26631

>  <SCORE.INTRA.VDW>
0

>  <SCORE.INTRA.VDW.0>
0

>  <SCORE.INTRA.norm>
0

>  <SCORE.RESTR>
0

>  <SCORE.RESTR.CAVITY>
0

>  <SCORE.RESTR.norm>
0

>  <SCORE.SYSTEM>
0

>  <SCORE.SYSTEM.CONST>
0

>  <SCORE.SYSTEM.DIHEDRAL>
0

>  <SCORE.SYSTEM.SOLV>
0

>  <SCORE.SYSTEM.norm>
0

>  <SCORE.heavy>
10

>  <SCORE.norm>
-1.74533

>  <RMSD>
0.526

$$$$
ligand
 OpenBabel11021811493D
libRbt.so/2013.1/901 2013/11/27
 10 11  0  0  0  0  0  0  0  0999 V2000
   11.8325   11.3685    8.6112 N   0  0  0  0  0  0  0  0  0  0  0  0
   11.5512   12.7114    8.6051 C   0  0  0  0  0  0  0  0  0  0  0  0
   11.2293   13.3557    7.4718 N   0  0  0  0  0  0  0  0  0  0  0  0
   11.2141   12.5598    6.3826 C   0  0  0  0  0  0  0  0  0  0  0  0
   11.4866   11.2109    6.3239 C   0  0  0  0  0  0  0  0  0  0  0  0
   11.8241   10.5162    7.5025 C   0  0  0  0  0  0  0  0  0  0  0  0
   12.0971    9.3343    7.6622 O   0  0  0  0  0  0  0  0  0  0  0  0
   11.3570   10.7927    5.0320 N   0  0  0  0  0  0  0  0  0  0  0  0
   11.0105   11.8796    4.3109 C   0  0  0  0  0  0  0  0  0  0  0  0
   10.9166   12.9852    5.1168 N   0  0  0  0  0  0  0  0  0  0  0  0
  1  2  1  0  0  0  0
  1  6  1  0  0  0  0
  2  3  2  0  0  0  0
  3  4  1  0  0  0  0
  4  5  2  0  0  0  0
  4 10  1  0  0  0  0
  5  6  1  0  0  0  0
  5  8  1  0  0  0  0
  6  7  2  0  0  0  0
  8  9  1  0  0  0  0
  9 10  2  0  0  0  0
M  END
>  <CHROM.1>
11.46425992,11.62829020,6.72219311,0.46369920,-1.31079893,0.89669936

>  <Name>
ligand

>  <RI>
0

>  <Rbt.Current_Directory>
/home/itssahil/PROJECTS/Mol_Feturizer/New_Systems/rnas/4FEJ

>  <Rbt.Executable>
rbdock ($Id: //depot/dev/client3/rdock/2013.1/src/exe/rbdock.cxx#4 $)

>  <Rbt.Library>
libRbt.so (2013.1, Build901 2013/11/27)

>  <Rbt.Parameter_File>
/export/apps/rDock/src/rDock_2013.1_src/data/scripts/dock_solv.prm

>  <Rbt.Receptor>
prm/pocket_docking_4.prm

>  <SCORE>
-17.4457

>  <SCORE.INTER>
-17.4457

>  <SCORE.INTER.CONST>
1

>  <SCORE.INTER.POLAR>
0

>  <SCORE.INTER.ROT>
0

>  <SCORE.INTER.SOLV>
3.83044

>  <SCORE.INTER.VDW>
-16.5073

>  <SCORE.INTER.norm>
-1.74457

>  <SCORE.INTRA>
0

>  <SCORE.INTRA.DIHEDRAL>
0

>  <SCORE.INTRA.DIHEDRAL.0>
0

>  <SCORE.INTRA.POLAR>
0

>  <SCORE.INTRA.POLAR.0>
0

>  <SCORE.INTRA.REPUL>
0

>  <SCORE.INTRA.REPUL.0>
0

>  <SCORE.INTRA.SOLV>
0

>  <SCORE.INTRA.SOLV.lig_0>
-4.26631

>  <SCORE.INTRA.VDW>
0

>  <SCORE.INTRA.VDW.0>
0

>  <SCORE.INTRA.norm>
0

>  <SCORE.RESTR>
0

>  <SCORE.RESTR.CAVITY>
0

>  <SCORE.RESTR.norm>
0

>  <SCORE.SYSTEM>
0

>  <SCORE.SYSTEM.CONST>
0

>  <SCORE.SYSTEM.DIHEDRAL>
0

>  <SCORE.SYSTEM.SOLV>
0

>  <SCORE.SYSTEM.norm>
0

>  <SCORE.heavy>
10

>  <SCORE.norm>
-1.74457

>  <RMSD>
0.526

$$$$
ligand
 OpenBabel11021811493D
libRbt.so/2013.1/901 2013/11/27
 10 11  0  0  0  0  0  0  0  0999 V2000
   11.8387   11.3678    8.6075 N   0  0  0  0  0  0  0  0  0  0  0  0
   11.5655   12.7123    8.6044 C   0  0  0  0  0  0  0  0  0  0  0  0
   11.2389   13.3594    7.4740 N   0  0  0  0  0  0  0  0  0  0  0  0
   11.2105   12.5643    6.3844 C   0  0  0  0  0  0  0  0  0  0  0  0
   11.4744   11.2138    6.3228 C   0  0  0  0  0  0  0  0  0  0  0  0
   11.8167   10.5162    7.4984 C   0  0  0  0  0  0  0  0  0  0  0  0
   12.0836    9.3327    7.6552 O   0  0  0  0  0  0  0  0  0  0  0  0
   11.3324   10.7972    5.0316 N   0  0  0  0  0  0  0  0  0  0  0  0
   10.9869   11.8867    4.3139 C   0  0  0  0  0  0  0  0  0  0  0  0
   10.9059   12.9923    5.1212 N   0  0  0  0  0  0  0  0  0  0  0  0
  1  2  1  0  0  0  0
  1  6  1  0  0  0  0
  2  3  2  0  0  0  0
  3  4  1  0  0  0  0
  4  5  2  0  0  0  0
  4 10  1  0  0  0  0
  5  6  1  0  0  0  0
  5  8  1  0  0  0  0
  6  7  2  0  0  0  0
  8  9  1  0  0  0  0
  9 10  2  0  0  0  0
M  END
>  <CHROM.1>
11.45759493,11.63103739,6.72151761,0.42569825,-1.31059159,0.86061319

>  <Name>
ligand

>  <RI>
0

>  <Rbt.Current_Directory>
/home/itssahil/PROJECTS/Mol_Feturizer/New_Systems/rnas/4FEJ

>  <Rbt.Executable>
rbdock ($Id: //depot/dev/client3/rdock/2013.1/src/exe/rbdock.cxx#4 $)

>  <Rbt.Library>
libRbt.so (2013.1, Build901 2013/11/27)

>  <Rbt.Parameter_File>
/export/apps/rDock/src/rDock_2013.1_src/data/scripts/dock_solv.prm

>  <Rbt.Receptor>
prm/pocket_docking_5.prm

>  <SCORE>
-17.465

>  <SCORE.INTER>
-17.465

>  <SCORE.INTER.CONST>
1

>  <SCORE.INTER.POLAR>
0

>  <SCORE.INTER.ROT>
0

>  <SCORE.INTER.SOLV>
3.83484

>  <SCORE.INTER.VDW>
-16.5216

>  <SCORE.INTER.norm>
-1.7465

>  <SCORE.INTRA>
0

>  <SCORE.INTRA.DIHEDRAL>
0

>  <SCORE.INTRA.DIHEDRAL.0>
0

>  <SCORE.INTRA.POLAR>
0

>  <SCORE.INTRA.POLAR.0>
0

>  <SCORE.INTRA.REPUL>
0

>  <SCORE.INTRA.REPUL.0>
0

>  <SCORE.INTRA.SOLV>
0

>  <SCORE.INTRA.SOLV.lig_0>
-4.26631

>  <SCORE.INTRA.VDW>
0

>  <SCORE.INTRA.VDW.0>
0

>  <SCORE.INTRA.norm>
0

>  <SCORE.RESTR>
0

>  <SCORE.RESTR.CAVITY>
0

>  <SCORE.RESTR.norm>
0

>  <SCORE.SYSTEM>
0

>  <SCORE.SYSTEM.CONST>
0

>  <SCORE.SYSTEM.DIHEDRAL>
0

>  <SCORE.SYSTEM.SOLV>
0

>  <SCORE.SYSTEM.norm>
0

>  <SCORE.heavy>
10

>  <SCORE.norm>
-1.7465

>  <RMSD>
0.526

$$$$
ligand
 OpenBabel11021811493D
libRbt.so/2013.1/901 2013/11/27
 10 11  0  0  0  0  0  0  0  0999 V2000
   11.8246   11.3694    8.6305 N   0  0  0  0  0  0  0  0  0  0  0  0
   11.5845   12.7202    8.6195 C   0  0  0  0  0  0  0  0  0  0  0  0
   11.2742   13.3685    7.4852 N   0  0  0  0  0  0  0  0  0  0  0  0
   11.2266   12.5680    6.4003 C   0  0  0  0  0  0  0  0  0  0  0  0
   11.4573   11.2111    6.3467 C   0  0  0  0  0  0  0  0  0  0  0  0
   11.7820   10.5122    7.5264 C   0  0  0  0  0  0  0  0  0  0  0  0
   12.0198    9.3234    7.6902 O   0  0  0  0  0  0  0  0  0  0  0  0
   11.3055   10.7907    5.0579 N   0  0  0  0  0  0  0  0  0  0  0  0
   10.9871   11.8841    4.3336 C   0  0  0  0  0  0  0  0  0  0  0  0
   10.9330   12.9960    5.1345 N   0  0  0  0  0  0  0  0  0  0  0  0
  1  2  1  0  0  0  0
  1  6  1  0  0  0  0
  2  3  2  0  0  0  0
  3  4  1  0  0  0  0
  4  5  2  0  0  0  0
  4 10  1  0  0  0  0
  5  6  1  0  0  0  0
  5  8  1  0  0  0  0
  6  7  2  0  0  0  0
  8  9  1  0  0  0  0
  9 10  2  0  0  0  0
M  END
>  <CHROM.1>
11.45064396,11.63097797,6.74291085,0.35984179,-1.32887784,0.79101414

>  <Name>
ligand

>  <RI>
0

>  <Rbt.Current_Directory>
/home/itssahil/PROJECTS/Mol_Feturizer/New_Systems/rnas/4FEJ

>  <Rbt.Executable>
rbdock ($Id: //depot/dev/client3/rdock/2013.1/src/exe/rbdock.cxx#4 $)

>  <Rbt.Library>
libRbt.so (2013.1, Build901 2013/11/27)

>  <Rbt.Parameter_File>
/export/apps/rDock/src/rDock_2013.1_src/data/scripts/dock_solv.prm

>  <Rbt.Receptor>
prm/pocket_docking_3.prm

>  <SCORE>
-17.4158

>  <SCORE.INTER>
-17.4158

>  <SCORE.INTER.CONST>
1

>  <SCORE.INTER.POLAR>
0

>  <SCORE.INTER.ROT>
0

>  <SCORE.INTER.SOLV>
3.91206

>  <SCORE.INTER.VDW>
-16.5145

>  <SCORE.INTER.norm>
-1.74158

>  <SCORE.INTRA>
0

>  <SCORE.INTRA.DIHEDRAL>
0

>  <SCORE.INTRA.DIHEDRAL.0>
0

>  <SCORE.INTRA.POLAR>
0

>  <SCORE.INTRA.POLAR.0>
0

>  <SCORE.INTRA.REPUL>
0

>  <SCORE.INTRA.REPUL.0>
0

>  <SCORE.INTRA.SOLV>
0

>  <SCORE.INTRA.SOLV.lig_0>
-4.26631

>  <SCORE.INTRA.VDW>
0

>  <SCORE.INTRA.VDW.0>
0

>  <SCORE.INTRA.norm>
0

>  <SCORE.RESTR>
0

>  <SCORE.RESTR.CAVITY>
0

>  <SCORE.RESTR.norm>
0

>  <SCORE.SYSTEM>
0

>  <SCORE.SYSTEM.CONST>
0

>  <SCORE.SYSTEM.DIHEDRAL>
0

>  <SCORE.SYSTEM.SOLV>
0

>  <SCORE.SYSTEM.norm>
0

>  <SCORE.heavy>
10

>  <SCORE.norm>
-1.74158

>  <RMSD>
0.527

$$$$
ligand
 OpenBabel11021811493D
libRbt.so/2013.1/901 2013/11/27
 10 11  0  0  0  0  0  0  0  0999 V2000
   11.8839   11.4458    8.6592 N   0  0  0  0  0  0  0  0  0  0  0  0
   11.6439   12.7961    8.6198 C   0  0  0  0  0  0  0  0  0  0  0  0
   11.3147   13.4172    7.4757 N   0  0  0  0  0  0  0  0  0  0  0  0
   11.2490   12.5910    6.4111 C   0  0  0  0  0  0  0  0  0  0  0  0
   11.4786   11.2331    6.3862 C   0  0  0  0  0  0  0  0  0  0  0  0
   11.8229   10.5625    7.5768 C   0  0  0  0  0  0  0  0  0  0  0  0
   12.0633    9.3778    7.7650 O   0  0  0  0  0  0  0  0  0  0  0  0
   11.3053   10.7820    5.1105 N   0  0  0  0  0  0  0  0  0  0  0  0
   10.9749   11.8579    4.3658 C   0  0  0  0  0  0  0  0  0  0  0  0
   10.9343   12.9887    5.1406 N   0  0  0  0  0  0  0  0  0  0  0  0
  1  2  1  0  0  0  0
  1  6  1  0  0  0  0
  2  3  2  0  0  0  0
  3  4  1  0  0  0  0
  4  5  2  0  0  0  0
  4 10  1  0  0  0  0
  5  6  1  0  0  0  0
  5  8  1  0  0  0  0
  6  7  2  0  0  0  0
  8  9  1  0  0  0  0
  9 10  2  0  0  0  0
M  END
>  <CHROM.1>
11.47859907,11.66231650,6.77235052,0.31236952,-1.31693494,0.72104475

>  <Name>
ligand

>  <RI>
0

>  <Rbt.Current_Directory>
/home/itssahil/PROJECTS/Mol_Feturizer/New_Systems/rnas/4FEJ

>  <Rbt.Executable>
rbdock ($Id: //depot/dev/client3/rdock/2013.1/src/exe/rbdock.cxx#4 $)

>  <Rbt.Library>
libRbt.so (2013.1, Build901 2013/11/27)

>  <Rbt.Parameter_File>
/export/apps/rDock/src/rDock_2013.1_src/data/scripts/dock_solv.prm

>  <Rbt.Receptor>
prm/blind_docking_60.prm

>  <SCORE>
-17.4732

>  <SCORE.INTER>
-17.4732

>  <SCORE.INTER.CONST>
1

>  <SCORE.INTER.POLAR>
0

>  <SCORE.INTER.ROT>
0

>  <SCORE.INTER.SOLV>
3.90663

>  <SCORE.INTER.VDW>
-16.551

>  <SCORE.INTER.norm>
-1.74732

>  <SCORE.INTRA>
0

>  <SCORE.INTRA.DIHEDRAL>
0

>  <SCORE.INTRA.DIHEDRAL.0>
0

>  <SCORE.INTRA.POLAR>
0

>  <SCORE.INTRA.POLAR.0>
0

>  <SCORE.INTRA.REPUL>
0

>  <SCORE.INTRA.REPUL.0>
0

>  <SCORE.INTRA.SOLV>
0

>  <SCORE.INTRA.SOLV.lig_0>
-4.26631

>  <SCORE.INTRA.VDW>
0

>  <SCORE.INTRA.VDW.0>
0

>  <SCORE.INTRA.norm>
0

>  <SCORE.RESTR>
0

>  <SCORE.RESTR.CAVITY>
0

>  <SCORE.RESTR.norm>
0

>  <SCORE.SYSTEM>
0

>  <SCORE.SYSTEM.CONST>
0

>  <SCORE.SYSTEM.DIHEDRAL>
0

>  <SCORE.SYSTEM.SOLV>
0

>  <SCORE.SYSTEM.norm>
0

>  <SCORE.heavy>
10

>  <SCORE.norm>
-1.74732

>  <RMSD>
0.528

$$$$
ligand
 OpenBabel11021811493D
libRbt.so/2013.1/901 2013/11/27
 10 11  0  0  0  0  0  0  0  0999 V2000
   11.8360   11.3660    8.6057 N   0  0  0  0  0  0  0  0  0  0  0  0
   11.5642   12.7108    8.6022 C   0  0  0  0  0  0  0  0  0  0  0  0
   11.2401   13.3581    7.4712 N   0  0  0  0  0  0  0  0  0  0  0  0
   11.2128   12.5631    6.3816 C   0  0  0  0  0  0  0  0  0  0  0  0
   11.4755   11.2123    6.3205 C   0  0  0  0  0  0  0  0  0  0  0  0
   11.8151   10.5145    7.4967 C   0  0  0  0  0  0  0  0  0  0  0  0
   12.0806    9.3306    7.6540 O   0  0  0  0  0  0  0  0  0  0  0  0
   11.3352   10.7959    5.0291 N   0  0  0  0  0  0  0  0  0  0  0  0
   10.9920   11.8857    4.3107 C   0  0  0  0  0  0  0  0  0  0  0  0
   10.9108   12.9914    5.1179 N   0  0  0  0  0  0  0  0  0  0  0  0
  1  2  1  0  0  0  0
  1  6  1  0  0  0  0
  2  3  2  0  0  0  0
  3  4  1  0  0  0  0
  4  5  2  0  0  0  0
  4 10  1  0  0  0  0
  5  6  1  0  0  0  0
  5  8  1  0  0  0  0
  6  7  2  0  0  0  0
  8  9  1  0  0  0  0
  9 10  2  0  0  0  0
M  END
>  <CHROM.1>
11.45840160,11.62960890,6.71917056,0.42825924,-1.31242095,0.86307694

>  <Name>
ligand

>  <RI>
0

>  <Rbt.Current_Directory>
/home/itssahil/PROJECTS/Mol_Feturizer/New_Systems/rnas/4FEJ

>  <Rbt.Executable>
rbdock ($Id: //depot/dev/client3/rdock/2013.1/src/exe/rbdock.cxx#4 $)

>  <Rbt.Library>
libRbt.so (2013.1, Build901 2013/11/27)

>  <Rbt.Parameter_File>
/export/apps/rDock/src/rDock_2013.1_src/data/scripts/dock_solv.prm

>  <Rbt.Receptor>
prm/pocket_docking_5.prm

>  <SCORE>
-17.4681

>  <SCORE.INTER>
-17.4681

>  <SCORE.INTER.CONST>
1

>  <SCORE.INTER.POLAR>
0

>  <SCORE.INTER.ROT>
0

>  <SCORE.INTER.SOLV>
3.83867

>  <SCORE.INTER.VDW>
-16.5249

>  <SCORE.INTER.norm>
-1.74681

>  <SCORE.INTRA>
0

>  <SCORE.INTRA.DIHEDRAL>
0

>  <SCORE.INTRA.DIHEDRAL.0>
0

>  <SCORE.INTRA.POLAR>
0

>  <SCORE.INTRA.POLAR.0>
0

>  <SCORE.INTRA.REPUL>
0

>  <SCORE.INTRA.REPUL.0>
0

>  <SCORE.INTRA.SOLV>
0

>  <SCORE.INTRA.SOLV.lig_0>
-4.26631

>  <SCORE.INTRA.VDW>
0

>  <SCORE.INTRA.VDW.0>
0

>  <SCORE.INTRA.norm>
0

>  <SCORE.RESTR>
0

>  <SCORE.RESTR.CAVITY>
0

>  <SCORE.RESTR.norm>
0

>  <SCORE.SYSTEM>
0

>  <SCORE.SYSTEM.CONST>
0

>  <SCORE.SYSTEM.DIHEDRAL>
0

>  <SCORE.SYSTEM.SOLV>
0

>  <SCORE.SYSTEM.norm>
0

>  <SCORE.heavy>
10

>  <SCORE.norm>
-1.74681

>  <RMSD>
0.528

$$$$
ligand
 OpenBabel11021811493D
libRbt.so/2013.1/901 2013/11/27
 10 11  0  0  0  0  0  0  0  0999 V2000
   11.8741   11.3322    8.5811 N   0  0  0  0  0  0  0  0  0  0  0  0
   11.6430   12.6846    8.5898 C   0  0  0  0  0  0  0  0  0  0  0  0
   11.3135   13.3473    7.4694 N   0  0  0  0  0  0  0  0  0  0  0  0
   11.2380   12.5592    6.3770 C   0  0  0  0  0  0  0  0  0  0  0  0
   11.4583   11.2015    6.3039 C   0  0  0  0  0  0  0  0  0  0  0  0
   11.8028   10.4875    7.4689 C   0  0  0  0  0  0  0  0  0  0  0  0
   12.0359    9.2954    7.6148 O   0  0  0  0  0  0  0  0  0  0  0  0
   11.2769   10.7962    5.0140 N   0  0  0  0  0  0  0  0  0  0  0  0
   10.9509   11.8996    4.3085 C   0  0  0  0  0  0  0  0  0  0  0  0
   10.9211   13.0030    5.1224 N   0  0  0  0  0  0  0  0  0  0  0  0
  1  2  1  0  0  0  0
  1  6  1  0  0  0  0
  2  3  2  0  0  0  0
  3  4  1  0  0  0  0
  4  5  2  0  0  0  0
  4 10  1  0  0  0  0
  5  6  1  0  0  0  0
  5  8  1  0  0  0  0
  6  7  2  0  0  0  0
  8  9  1  0  0  0  0
  9 10  2  0  0  0  0
M  END
>  <CHROM.1>
11.46274477,11.61696567,6.70471426,0.28151631,-1.31833777,0.72600011

>  <Name>
ligand

>  <RI>
0

>  <Rbt.Current_Directory>
/home/itssahil/PROJECTS/Mol_Feturizer/New_Systems/rnas/4FEJ

>  <Rbt.Executable>
rbdock ($Id: //depot/dev/client3/rdock/2013.1/src/exe/rbdock.cxx#4 $)

>  <Rbt.Library>
libRbt.so (2013.1, Build901 2013/11/27)

>  <Rbt.Parameter_File>
/export/apps/rDock/src/rDock_2013.1_src/data/scripts/dock_solv.prm

>  <Rbt.Receptor>
prm/pocket_docking_7.prm

>  <SCORE>
-17.451

>  <SCORE.INTER>
-17.451

>  <SCORE.INTER.CONST>
1

>  <SCORE.INTER.POLAR>
0

>  <SCORE.INTER.ROT>
0

>  <SCORE.INTER.SOLV>
3.86995

>  <SCORE.INTER.VDW>
-16.524

>  <SCORE.INTER.norm>
-1.7451

>  <SCORE.INTRA>
0

>  <SCORE.INTRA.DIHEDRAL>
0

>  <SCORE.INTRA.DIHEDRAL.0>
0

>  <SCORE.INTRA.POLAR>
0

>  <SCORE.INTRA.POLAR.0>
0

>  <SCORE.INTRA.REPUL>
0

>  <SCORE.INTRA.REPUL.0>
0

>  <SCORE.INTRA.SOLV>
0

>  <SCORE.INTRA.SOLV.lig_0>
-4.26631

>  <SCORE.INTRA.VDW>
0

>  <SCORE.INTRA.VDW.0>
0

>  <SCORE.INTRA.norm>
0

>  <SCORE.RESTR>
0

>  <SCORE.RESTR.CAVITY>
0

>  <SCORE.RESTR.norm>
0

>  <SCORE.SYSTEM>
0

>  <SCORE.SYSTEM.CONST>
0

>  <SCORE.SYSTEM.DIHEDRAL>
0

>  <SCORE.SYSTEM.SOLV>
0

>  <SCORE.SYSTEM.norm>
0

>  <SCORE.heavy>
10

>  <SCORE.norm>
-1.7451

>  <RMSD>
0.528

$$$$
ligand
 OpenBabel11021811493D
libRbt.so/2013.1/901 2013/11/27
 10 11  0  0  0  0  0  0  0  0999 V2000
   11.8335   11.3774    8.6132 N   0  0  0  0  0  0  0  0  0  0  0  0
   11.5748   12.7248    8.6142 C   0  0  0  0  0  0  0  0  0  0  0  0
   11.2560   13.3788    7.4856 N   0  0  0  0  0  0  0  0  0  0  0  0
   11.2201   12.5874    6.3934 C   0  0  0  0  0  0  0  0  0  0  0  0
   11.4696   11.2344    6.3279 C   0  0  0  0  0  0  0  0  0  0  0  0
   11.8034   10.5296    7.5015 C   0  0  0  0  0  0  0  0  0  0  0  0
   12.0576    9.3427    7.6549 O   0  0  0  0  0  0  0  0  0  0  0  0
   11.3242   10.8234    5.0353 N   0  0  0  0  0  0  0  0  0  0  0  0
   10.9909   11.9187    4.3206 C   0  0  0  0  0  0  0  0  0  0  0  0
   10.9211   13.0226    5.1314 N   0  0  0  0  0  0  0  0  0  0  0  0
  1  2  1  0  0  0  0
  1  6  1  0  0  0  0
  2  3  2  0  0  0  0
  3  4  1  0  0  0  0
  4  5  2  0  0  0  0
  4 10  1  0  0  0  0
  5  6  1  0  0  0  0
  5  8  1  0  0  0  0
  6  7  2  0  0  0  0
  8  9  1  0  0  0  0
  9 10  2  0  0  0  0
M  END
>  <CHROM.1>
11.45687979,11.65056229,6.72784540,0.40033116,-1.31914187,0.83920295

>  <Name>
ligand

>  <RI>
0

>  <Rbt.Current_Directory>
/home/itssahil/PROJECTS/Mol_Feturizer/New_Systems/rnas/4FEJ

>  <Rbt.Executable>
rbdock ($Id: //depot/dev/client3/rdock/2013.1/src/exe/rbdock.cxx#4 $)

>  <Rbt.Library>
libRbt.so (2013.1, Build901 2013/11/27)

>  <Rbt.Parameter_File>
/export/apps/rDock/src/rDock_2013.1_src/data/scripts/dock_solv.prm

>  <Rbt.Receptor>
prm/blind_docking_80.prm

>  <SCORE>
-17.4771

>  <SCORE.INTER>
-17.4771

>  <SCORE.INTER.CONST>
1

>  <SCORE.INTER.POLAR>
0

>  <SCORE.INTER.ROT>
0

>  <SCORE.INTER.SOLV>
3.86192

>  <SCORE.INTER.VDW>
-16.5387

>  <SCORE.INTER.norm>
-1.74771

>  <SCORE.INTRA>
0

>  <SCORE.INTRA.DIHEDRAL>
0

>  <SCORE.INTRA.DIHEDRAL.0>
0

>  <SCORE.INTRA.POLAR>
0

>  <SCORE.INTRA.POLAR.0>
0

>  <SCORE.INTRA.REPUL>
0

>  <SCORE.INTRA.REPUL.0>
0

>  <SCORE.INTRA.SOLV>
0

>  <SCORE.INTRA.SOLV.lig_0>
-4.26631

>  <SCORE.INTRA.VDW>
0

>  <SCORE.INTRA.VDW.0>
0

>  <SCORE.INTRA.norm>
0

>  <SCORE.RESTR>
0

>  <SCORE.RESTR.CAVITY>
0

>  <SCORE.RESTR.norm>
0

>  <SCORE.SYSTEM>
0

>  <SCORE.SYSTEM.CONST>
0

>  <SCORE.SYSTEM.DIHEDRAL>
0

>  <SCORE.SYSTEM.SOLV>
0

>  <SCORE.SYSTEM.norm>
0

>  <SCORE.heavy>
10

>  <SCORE.norm>
-1.74771

>  <RMSD>
0.529

$$$$
ligand
 OpenBabel11021811493D
libRbt.so/2013.1/901 2013/11/27
 10 11  0  0  0  0  0  0  0  0999 V2000
   11.8524   11.3213    8.5812 N   0  0  0  0  0  0  0  0  0  0  0  0
   11.6231   12.6739    8.5981 C   0  0  0  0  0  0  0  0  0  0  0  0
   11.3028   13.3453    7.4802 N   0  0  0  0  0  0  0  0  0  0  0  0
   11.2343   12.5653    6.3815 C   0  0  0  0  0  0  0  0  0  0  0  0
   11.4533   11.2078    6.3000 C   0  0  0  0  0  0  0  0  0  0  0  0
   11.7882   10.4849    7.4623 C   0  0  0  0  0  0  0  0  0  0  0  0
   12.0185    9.2914    7.6011 O   0  0  0  0  0  0  0  0  0  0  0  0
   11.2808   10.8123    5.0059 N   0  0  0  0  0  0  0  0  0  0  0  0
   10.9615   11.9213    4.3062 C   0  0  0  0  0  0  0  0  0  0  0  0
   10.9272   13.0187    5.1278 N   0  0  0  0  0  0  0  0  0  0  0  0
  1  2  1  0  0  0  0
  1  6  1  0  0  0  0
  2  3  2  0  0  0  0
  3  4  1  0  0  0  0
  4  5  2  0  0  0  0
  4 10  1  0  0  0  0
  5  6  1  0  0  0  0
  5  8  1  0  0  0  0
  6  7  2  0  0  0  0
  8  9  1  0  0  0  0
  9 10  2  0  0  0  0
M  END
>  <CHROM.1>
11.45530243,11.62036703,6.70392187,0.29748661,-1.32472747,0.74881915

>  <Name>
ligand

>  <RI>
0

>  <Rbt.Current_Directory>
/home/itssahil/PROJECTS/Mol_Feturizer/New_Systems/rnas/4FEJ

>  <Rbt.Executable>
rbdock ($Id: //depot/dev/client3/rdock/2013.1/src/exe/rbdock.cxx#4 $)

>  <Rbt.Library>
libRbt.so (2013.1, Build901 2013/11/27)

>  <Rbt.Parameter_File>
/export/apps/rDock/src/rDock_2013.1_src/data/scripts/dock_solv.prm

>  <Rbt.Receptor>
prm/pocket_docking_6.prm

>  <SCORE>
-17.428

>  <SCORE.INTER>
-17.428

>  <SCORE.INTER.CONST>
1

>  <SCORE.INTER.POLAR>
0

>  <SCORE.INTER.ROT>
0

>  <SCORE.INTER.SOLV>
3.88155

>  <SCORE.INTER.VDW>
-16.5125

>  <SCORE.INTER.norm>
-1.7428

>  <SCORE.INTRA>
0

>  <SCORE.INTRA.DIHEDRAL>
0

>  <SCORE.INTRA.DIHEDRAL.0>
0

>  <SCORE.INTRA.POLAR>
0

>  <SCORE.INTRA.POLAR.0>
0

>  <SCORE.INTRA.REPUL>
0

>  <SCORE.INTRA.REPUL.0>
0

>  <SCORE.INTRA.SOLV>
0

>  <SCORE.INTRA.SOLV.lig_0>
-4.26631

>  <SCORE.INTRA.VDW>
0

>  <SCORE.INTRA.VDW.0>
0

>  <SCORE.INTRA.norm>
0

>  <SCORE.RESTR>
0

>  <SCORE.RESTR.CAVITY>
0

>  <SCORE.RESTR.norm>
0

>  <SCORE.SYSTEM>
0

>  <SCORE.SYSTEM.CONST>
0

>  <SCORE.SYSTEM.DIHEDRAL>
0

>  <SCORE.SYSTEM.SOLV>
0

>  <SCORE.SYSTEM.norm>
0

>  <SCORE.heavy>
10

>  <SCORE.norm>
-1.7428

>  <RMSD>
0.529

$$$$
ligand
 OpenBabel11021811493D
libRbt.so/2013.1/901 2013/11/27
 10 11  0  0  0  0  0  0  0  0999 V2000
   11.8315   11.3740    8.6113 N   0  0  0  0  0  0  0  0  0  0  0  0
   11.5653   12.7199    8.6105 C   0  0  0  0  0  0  0  0  0  0  0  0
   11.2489   13.3718    7.4801 N   0  0  0  0  0  0  0  0  0  0  0  0
   11.2232   12.5801    6.3880 C   0  0  0  0  0  0  0  0  0  0  0  0
   11.4805   11.2284    6.3241 C   0  0  0  0  0  0  0  0  0  0  0  0
   11.8120   10.5257    7.4997 C   0  0  0  0  0  0  0  0  0  0  0  0
   12.0720    9.3404    7.6547 O   0  0  0  0  0  0  0  0  0  0  0  0
   11.3444   10.8163    5.0308 N   0  0  0  0  0  0  0  0  0  0  0  0
   11.0089   11.9097    4.3142 C   0  0  0  0  0  0  0  0  0  0  0  0
   10.9286   13.0133    5.1242 N   0  0  0  0  0  0  0  0  0  0  0  0
  1  2  1  0  0  0  0
  1  6  1  0  0  0  0
  2  3  2  0  0  0  0
  3  4  1  0  0  0  0
  4  5  2  0  0  0  0
  4 10  1  0  0  0  0
  5  6  1  0  0  0  0
  5  8  1  0  0  0  0
  6  7  2  0  0  0  0
  8  9  1  0  0  0  0
  9 10  2  0  0  0  0
M  END
>  <CHROM.1>
11.46342364,11.64462076,6.72387756,0.43111359,-1.31846983,0.86876929

>  <Name>
ligand

>  <RI>
0

>  <Rbt.Current_Directory>
/home/itssahil/PROJECTS/Mol_Feturizer/New_Systems/rnas/4FEJ

>  <Rbt.Executable>
rbdock ($Id: //depot/dev/client3/rdock/2013.1/src/exe/rbdock.cxx#4 $)

>  <Rbt.Library>
libRbt.so (2013.1, Build901 2013/11/27)

>  <Rbt.Parameter_File>
/export/apps/rDock/src/rDock_2013.1_src/data/scripts/dock_solv.prm

>  <Rbt.Receptor>
prm/pocket_docking_7.prm

>  <SCORE>
-17.4716

>  <SCORE.INTER>
-17.4716

>  <SCORE.INTER.CONST>
1

>  <SCORE.INTER.POLAR>
0

>  <SCORE.INTER.ROT>
0

>  <SCORE.INTER.SOLV>
3.85324

>  <SCORE.INTER.VDW>
-16.5321

>  <SCORE.INTER.norm>
-1.74716

>  <SCORE.INTRA>
0

>  <SCORE.INTRA.DIHEDRAL>
0

>  <SCORE.INTRA.DIHEDRAL.0>
0

>  <SCORE.INTRA.POLAR>
0

>  <SCORE.INTRA.POLAR.0>
0

>  <SCORE.INTRA.REPUL>
0

>  <SCORE.INTRA.REPUL.0>
0

>  <SCORE.INTRA.SOLV>
0

>  <SCORE.INTRA.SOLV.lig_0>
-4.26631

>  <SCORE.INTRA.VDW>
0

>  <SCORE.INTRA.VDW.0>
0

>  <SCORE.INTRA.norm>
0

>  <SCORE.RESTR>
0

>  <SCORE.RESTR.CAVITY>
0

>  <SCORE.RESTR.norm>
0

>  <SCORE.SYSTEM>
0

>  <SCORE.SYSTEM.CONST>
0

>  <SCORE.SYSTEM.DIHEDRAL>
0

>  <SCORE.SYSTEM.SOLV>
0

>  <SCORE.SYSTEM.norm>
0

>  <SCORE.heavy>
10

>  <SCORE.norm>
-1.74716

>  <RMSD>
0.529

$$$$
ligand
 OpenBabel11021811493D
libRbt.so/2013.1/901 2013/11/27
 10 11  0  0  0  0  0  0  0  0999 V2000
   11.8777   11.3256    8.5765 N   0  0  0  0  0  0  0  0  0  0  0  0
   11.6519   12.6789    8.5861 C   0  0  0  0  0  0  0  0  0  0  0  0
   11.3241   13.3434    7.4662 N   0  0  0  0  0  0  0  0  0  0  0  0
   11.2445   12.5561    6.3735 C   0  0  0  0  0  0  0  0  0  0  0  0
   11.4594   11.1975    6.2996 C   0  0  0  0  0  0  0  0  0  0  0  0
   11.8021   10.4817    7.4640 C   0  0  0  0  0  0  0  0  0  0  0  0
   12.0307    9.2887    7.6091 O   0  0  0  0  0  0  0  0  0  0  0  0
   11.2753   10.7936    5.0097 N   0  0  0  0  0  0  0  0  0  0  0  0
   10.9529   11.8986    4.3050 C   0  0  0  0  0  0  0  0  0  0  0  0
   10.9281   13.0017    5.1194 N   0  0  0  0  0  0  0  0  0  0  0  0
  1  2  1  0  0  0  0
  1  6  1  0  0  0  0
  2  3  2  0  0  0  0
  3  4  1  0  0  0  0
  4  5  2  0  0  0  0
  4 10  1  0  0  0  0
  5  6  1  0  0  0  0
  5  8  1  0  0  0  0
  6  7  2  0  0  0  0
  8  9  1  0  0  0  0
  9 10  2  0  0  0  0
M  END
>  <CHROM.1>
11.46581564,11.61284198,6.70061074,0.26730995,-1.32024279,0.71270054

>  <Name>
ligand

>  <RI>
0

>  <Rbt.Current_Directory>
/home/itssahil/PROJECTS/Mol_Feturizer/New_Systems/rnas/4FEJ

>  <Rbt.Executable>
rbdock ($Id: //depot/dev/client3/rdock/2013.1/src/exe/rbdock.cxx#4 $)

>  <Rbt.Library>
libRbt.so (2013.1, Build901 2013/11/27)

>  <Rbt.Parameter_File>
/export/apps/rDock/src/rDock_2013.1_src/data/scripts/dock_solv.prm

>  <Rbt.Receptor>
prm/pocket_docking_7.prm

>  <SCORE>
-17.4487

>  <SCORE.INTER>
-17.4487

>  <SCORE.INTER.CONST>
1

>  <SCORE.INTER.POLAR>
0

>  <SCORE.INTER.ROT>
0

>  <SCORE.INTER.SOLV>
3.87631

>  <SCORE.INTER.VDW>
-16.5246

>  <SCORE.INTER.norm>
-1.74487

>  <SCORE.INTRA>
0

>  <SCORE.INTRA.DIHEDRAL>
0

>  <SCORE.INTRA.DIHEDRAL.0>
0

>  <SCORE.INTRA.POLAR>
0

>  <SCORE.INTRA.POLAR.0>
0

>  <SCORE.INTRA.REPUL>
0

>  <SCORE.INTRA.REPUL.0>
0

>  <SCORE.INTRA.SOLV>
0

>  <SCORE.INTRA.SOLV.lig_0>
-4.26631

>  <SCORE.INTRA.VDW>
0

>  <SCORE.INTRA.VDW.0>
0

>  <SCORE.INTRA.norm>
0

>  <SCORE.RESTR>
0

>  <SCORE.RESTR.CAVITY>
0

>  <SCORE.RESTR.norm>
0

>  <SCORE.SYSTEM>
0

>  <SCORE.SYSTEM.CONST>
0

>  <SCORE.SYSTEM.DIHEDRAL>
0

>  <SCORE.SYSTEM.SOLV>
0

>  <SCORE.SYSTEM.norm>
0

>  <SCORE.heavy>
10

>  <SCORE.norm>
-1.74487

>  <RMSD>
0.530

$$$$
ligand
 OpenBabel11021811493D
libRbt.so/2013.1/901 2013/11/27
 10 11  0  0  0  0  0  0  0  0999 V2000
   11.8588   11.3268    8.5737 N   0  0  0  0  0  0  0  0  0  0  0  0
   11.6339   12.6800    8.6033 C   0  0  0  0  0  0  0  0  0  0  0  0
   11.3179   13.3632    7.4914 N   0  0  0  0  0  0  0  0  0  0  0  0
   11.2488   12.5941    6.3851 C   0  0  0  0  0  0  0  0  0  0  0  0
   11.4634   11.2368    6.2909 C   0  0  0  0  0  0  0  0  0  0  0  0
   11.7938   10.5015    7.4467 C   0  0  0  0  0  0  0  0  0  0  0  0
   12.0201    9.3060    7.5744 O   0  0  0  0  0  0  0  0  0  0  0  0
   11.2920   10.8543    4.9927 N   0  0  0  0  0  0  0  0  0  0  0  0
   10.9776   11.9711    4.3032 C   0  0  0  0  0  0  0  0  0  0  0  0
   10.9454   13.0606    5.1354 N   0  0  0  0  0  0  0  0  0  0  0  0
  1  2  1  0  0  0  0
  1  6  1  0  0  0  0
  2  3  2  0  0  0  0
  3  4  1  0  0  0  0
  4  5  2  0  0  0  0
  4 10  1  0  0  0  0
  5  6  1  0  0  0  0
  5  8  1  0  0  0  0
  6  7  2  0  0  0  0
  8  9  1  0  0  0  0
  9 10  2  0  0  0  0
M  END
>  <CHROM.1>
11.46608441,11.64537005,6.69876565,0.29247695,-1.32826766,0.75362898

>  <Name>
ligand

>  <RI>
0

>  <Rbt.Current_Directory>
/home/itssahil/PROJECTS/Mol_Feturizer/New_Systems/rnas/4FEJ

>  <Rbt.Executable>
rbdock ($Id: //depot/dev/client3/rdock/2013.1/src/exe/rbdock.cxx#4 $)

>  <Rbt.Library>
libRbt.so (2013.1, Build901 2013/11/27)

>  <Rbt.Parameter_File>
/export/apps/rDock/src/rDock_2013.1_src/data/scripts/dock_solv.prm

>  <Rbt.Receptor>
prm/pocket_docking_4.prm

>  <SCORE>
-17.4253

>  <SCORE.INTER>
-17.4253

>  <SCORE.INTER.CONST>
1

>  <SCORE.INTER.POLAR>
0

>  <SCORE.INTER.ROT>
0

>  <SCORE.INTER.SOLV>
3.87712

>  <SCORE.INTER.VDW>
-16.5092

>  <SCORE.INTER.norm>
-1.74253

>  <SCORE.INTRA>
0

>  <SCORE.INTRA.DIHEDRAL>
0

>  <SCORE.INTRA.DIHEDRAL.0>
0

>  <SCORE.INTRA.POLAR>
0

>  <SCORE.INTRA.POLAR.0>
0

>  <SCORE.INTRA.REPUL>
0

>  <SCORE.INTRA.REPUL.0>
0

>  <SCORE.INTRA.SOLV>
0

>  <SCORE.INTRA.SOLV.lig_0>
-4.26631

>  <SCORE.INTRA.VDW>
0

>  <SCORE.INTRA.VDW.0>
0

>  <SCORE.INTRA.norm>
0

>  <SCORE.RESTR>
0

>  <SCORE.RESTR.CAVITY>
0

>  <SCORE.RESTR.norm>
0

>  <SCORE.SYSTEM>
0

>  <SCORE.SYSTEM.CONST>
0

>  <SCORE.SYSTEM.DIHEDRAL>
0

>  <SCORE.SYSTEM.SOLV>
0

>  <SCORE.SYSTEM.norm>
0

>  <SCORE.heavy>
10

>  <SCORE.norm>
-1.74253

>  <RMSD>
0.531

$$$$
ligand
 OpenBabel11021811493D
libRbt.so/2013.1/901 2013/11/27
 10 11  0  0  0  0  0  0  0  0999 V2000
   11.8381   11.3234    8.5855 N   0  0  0  0  0  0  0  0  0  0  0  0
   11.6119   12.6766    8.6033 C   0  0  0  0  0  0  0  0  0  0  0  0
   11.3103   13.3524    7.4829 N   0  0  0  0  0  0  0  0  0  0  0  0
   11.2565   12.5761    6.3807 C   0  0  0  0  0  0  0  0  0  0  0  0
   11.4734   11.2184    6.2981 C   0  0  0  0  0  0  0  0  0  0  0  0
   11.7888   10.4908    7.4630 C   0  0  0  0  0  0  0  0  0  0  0  0
   12.0141    9.2964    7.6014 O   0  0  0  0  0  0  0  0  0  0  0  0
   11.3196   10.8275    5.0003 N   0  0  0  0  0  0  0  0  0  0  0  0
   11.0137   11.9396    4.2994 C   0  0  0  0  0  0  0  0  0  0  0  0
   10.9696   13.0344    5.1241 N   0  0  0  0  0  0  0  0  0  0  0  0
  1  2  1  0  0  0  0
  1  6  1  0  0  0  0
  2  3  2  0  0  0  0
  3  4  1  0  0  0  0
  4  5  2  0  0  0  0
  4 10  1  0  0  0  0
  5  6  1  0  0  0  0
  5  8  1  0  0  0  0
  6  7  2  0  0  0  0
  8  9  1  0  0  0  0
  9 10  2  0  0  0  0
M  END
>  <CHROM.1>
11.47025922,11.62961474,6.70337649,0.33433450,-1.33736744,0.78787375

>  <Name>
ligand

>  <RI>
0

>  <Rbt.Current_Directory>
/home/itssahil/PROJECTS/Mol_Feturizer/New_Systems/rnas/4FEJ

>  <Rbt.Executable>
rbdock ($Id: //depot/dev/client3/rdock/2013.1/src/exe/rbdock.cxx#4 $)

>  <Rbt.Library>
libRbt.so (2013.1, Build901 2013/11/27)

>  <Rbt.Parameter_File>
/export/apps/rDock/src/rDock_2013.1_src/data/scripts/dock_solv.prm

>  <Rbt.Receptor>
prm/blind_docking_60.prm

>  <SCORE>
-17.4045

>  <SCORE.INTER>
-17.4045

>  <SCORE.INTER.CONST>
1

>  <SCORE.INTER.POLAR>
0

>  <SCORE.INTER.ROT>
0

>  <SCORE.INTER.SOLV>
3.90374

>  <SCORE.INTER.VDW>
-16.5042

>  <SCORE.INTER.norm>
-1.74045

>  <SCORE.INTRA>
0

>  <SCORE.INTRA.DIHEDRAL>
0

>  <SCORE.INTRA.DIHEDRAL.0>
0

>  <SCORE.INTRA.POLAR>
0

>  <SCORE.INTRA.POLAR.0>
0

>  <SCORE.INTRA.REPUL>
0

>  <SCORE.INTRA.REPUL.0>
0

>  <SCORE.INTRA.SOLV>
0

>  <SCORE.INTRA.SOLV.lig_0>
-4.26631

>  <SCORE.INTRA.VDW>
0

>  <SCORE.INTRA.VDW.0>
0

>  <SCORE.INTRA.norm>
0

>  <SCORE.RESTR>
0

>  <SCORE.RESTR.CAVITY>
0

>  <SCORE.RESTR.norm>
0

>  <SCORE.SYSTEM>
0

>  <SCORE.SYSTEM.CONST>
0

>  <SCORE.SYSTEM.DIHEDRAL>
0

>  <SCORE.SYSTEM.SOLV>
0

>  <SCORE.SYSTEM.norm>
0

>  <SCORE.heavy>
10

>  <SCORE.norm>
-1.74045

>  <RMSD>
0.533

$$$$
ligand
 OpenBabel11021811493D
libRbt.so/2013.1/901 2013/11/27
 10 11  0  0  0  0  0  0  0  0999 V2000
   11.8410   11.4013    8.6149 N   0  0  0  0  0  0  0  0  0  0  0  0
   11.5658   12.7454    8.5996 C   0  0  0  0  0  0  0  0  0  0  0  0
   11.2413   13.3821    7.4628 N   0  0  0  0  0  0  0  0  0  0  0  0
   11.2171   12.5777    6.3800 C   0  0  0  0  0  0  0  0  0  0  0  0
   11.4832   11.2271    6.3308 C   0  0  0  0  0  0  0  0  0  0  0  0
   11.8233   10.5402    7.5132 C   0  0  0  0  0  0  0  0  0  0  0  0
   12.0916    9.3585    7.6810 O   0  0  0  0  0  0  0  0  0  0  0  0
   11.3453   10.7992    5.0428 N   0  0  0  0  0  0  0  0  0  0  0  0
   11.0002   11.8820    4.3148 C   0  0  0  0  0  0  0  0  0  0  0  0
   10.9153   12.9943    5.1123 N   0  0  0  0  0  0  0  0  0  0  0  0
  1  2  1  0  0  0  0
  1  6  1  0  0  0  0
  2  3  2  0  0  0  0
  3  4  1  0  0  0  0
  4  5  2  0  0  0  0
  4 10  1  0  0  0  0
  5  6  1  0  0  0  0
  5  8  1  0  0  0  0
  6  7  2  0  0  0  0
  8  9  1  0  0  0  0
  9 10  2  0  0  0  0
M  END
>  <CHROM.1>
11.46467027,11.64775961,6.72578917,0.43764126,-1.31120890,0.86355413

>  <Name>
ligand

>  <RI>
0

>  <Rbt.Current_Directory>
/home/itssahil/PROJECTS/Mol_Feturizer/New_Systems/rnas/4FEJ

>  <Rbt.Executable>
rbdock ($Id: //depot/dev/client3/rdock/2013.1/src/exe/rbdock.cxx#4 $)

>  <Rbt.Library>
libRbt.so (2013.1, Build901 2013/11/27)

>  <Rbt.Parameter_File>
/export/apps/rDock/src/rDock_2013.1_src/data/scripts/dock_solv.prm

>  <Rbt.Receptor>
prm/blind_docking_100.prm

>  <SCORE>
-17.4697

>  <SCORE.INTER>
-17.4697

>  <SCORE.INTER.CONST>
1

>  <SCORE.INTER.POLAR>
0

>  <SCORE.INTER.ROT>
0

>  <SCORE.INTER.SOLV>
3.84081

>  <SCORE.INTER.VDW>
-16.5267

>  <SCORE.INTER.norm>
-1.74697

>  <SCORE.INTRA>
0

>  <SCORE.INTRA.DIHEDRAL>
0

>  <SCORE.INTRA.DIHEDRAL.0>
0

>  <SCORE.INTRA.POLAR>
0

>  <SCORE.INTRA.POLAR.0>
0

>  <SCORE.INTRA.REPUL>
0

>  <SCORE.INTRA.REPUL.0>
0

>  <SCORE.INTRA.SOLV>
0

>  <SCORE.INTRA.SOLV.lig_0>
-4.26631

>  <SCORE.INTRA.VDW>
0

>  <SCORE.INTRA.VDW.0>
0

>  <SCORE.INTRA.norm>
0

>  <SCORE.RESTR>
0

>  <SCORE.RESTR.CAVITY>
0

>  <SCORE.RESTR.norm>
0

>  <SCORE.SYSTEM>
0

>  <SCORE.SYSTEM.CONST>
0

>  <SCORE.SYSTEM.DIHEDRAL>
0

>  <SCORE.SYSTEM.SOLV>
0

>  <SCORE.SYSTEM.norm>
0

>  <SCORE.heavy>
10

>  <SCORE.norm>
-1.74697

>  <RMSD>
0.535

$$$$
ligand
 OpenBabel11021811493D
libRbt.so/2013.1/901 2013/11/27
 10 11  0  0  0  0  0  0  0  0999 V2000
   11.8481   11.4023    8.6118 N   0  0  0  0  0  0  0  0  0  0  0  0
   11.5762   12.7470    8.5994 C   0  0  0  0  0  0  0  0  0  0  0  0
   11.2459   13.3857    7.4654 N   0  0  0  0  0  0  0  0  0  0  0  0
   11.2125   12.5823    6.3820 C   0  0  0  0  0  0  0  0  0  0  0  0
   11.4748   11.2310    6.3299 C   0  0  0  0  0  0  0  0  0  0  0  0
   11.8210   10.5422    7.5094 C   0  0  0  0  0  0  0  0  0  0  0  0
   12.0874    9.3596    7.6744 O   0  0  0  0  0  0  0  0  0  0  0  0
   11.3274   10.8047    5.0425 N   0  0  0  0  0  0  0  0  0  0  0  0
   10.9802   11.8890    4.3177 C   0  0  0  0  0  0  0  0  0  0  0  0
   10.9034   13.0008    5.1168 N   0  0  0  0  0  0  0  0  0  0  0  0
  1  2  1  0  0  0  0
  1  6  1  0  0  0  0
  2  3  2  0  0  0  0
  3  4  1  0  0  0  0
  4  5  2  0  0  0  0
  4 10  1  0  0  0  0
  5  6  1  0  0  0  0
  5  8  1  0  0  0  0
  6  7  2  0  0  0  0
  8  9  1  0  0  0  0
  9 10  2  0  0  0  0
M  END
>  <CHROM.1>
11.45996517,11.65138469,6.72539614,0.41197290,-1.30876608,0.83965759

>  <Name>
ligand

>  <RI>
0

>  <Rbt.Current_Directory>
/home/itssahil/PROJECTS/Mol_Feturizer/New_Systems/rnas/4FEJ

>  <Rbt.Executable>
rbdock ($Id: //depot/dev/client3/rdock/2013.1/src/exe/rbdock.cxx#4 $)

>  <Rbt.Library>
libRbt.so (2013.1, Build901 2013/11/27)

>  <Rbt.Parameter_File>
/export/apps/rDock/src/rDock_2013.1_src/data/scripts/dock_solv.prm

>  <Rbt.Receptor>
prm/pocket_docking_5.prm

>  <SCORE>
-17.4687

>  <SCORE.INTER>
-17.4687

>  <SCORE.INTER.CONST>
1

>  <SCORE.INTER.POLAR>
0

>  <SCORE.INTER.ROT>
0

>  <SCORE.INTER.SOLV>
3.83752

>  <SCORE.INTER.VDW>
-16.525

>  <SCORE.INTER.norm>
-1.74687

>  <SCORE.INTRA>
0

>  <SCORE.INTRA.DIHEDRAL>
0

>  <SCORE.INTRA.DIHEDRAL.0>
0

>  <SCORE.INTRA.POLAR>
0

>  <SCORE.INTRA.POLAR.0>
0

>  <SCORE.INTRA.REPUL>
0

>  <SCORE.INTRA.REPUL.0>
0

>  <SCORE.INTRA.SOLV>
0

>  <SCORE.INTRA.SOLV.lig_0>
-4.26631

>  <SCORE.INTRA.VDW>
0

>  <SCORE.INTRA.VDW.0>
0

>  <SCORE.INTRA.norm>
0

>  <SCORE.RESTR>
0

>  <SCORE.RESTR.CAVITY>
0

>  <SCORE.RESTR.norm>
0

>  <SCORE.SYSTEM>
0

>  <SCORE.SYSTEM.CONST>
0

>  <SCORE.SYSTEM.DIHEDRAL>
0

>  <SCORE.SYSTEM.SOLV>
0

>  <SCORE.SYSTEM.norm>
0

>  <SCORE.heavy>
10

>  <SCORE.norm>
-1.74687

>  <RMSD>
0.535

$$$$
ligand
 OpenBabel11021811493D
libRbt.so/2013.1/901 2013/11/27
 10 11  0  0  0  0  0  0  0  0999 V2000
   11.8511   11.4078    8.6161 N   0  0  0  0  0  0  0  0  0  0  0  0
   11.5926   12.7551    8.6029 C   0  0  0  0  0  0  0  0  0  0  0  0
   11.2607   13.3948    7.4699 N   0  0  0  0  0  0  0  0  0  0  0  0
   11.2117   12.5897    6.3885 C   0  0  0  0  0  0  0  0  0  0  0  0
   11.4602   11.2359    6.3372 C   0  0  0  0  0  0  0  0  0  0  0  0
   11.8078   10.5459    7.5157 C   0  0  0  0  0  0  0  0  0  0  0  0
   12.0636    9.3611    7.6811 O   0  0  0  0  0  0  0  0  0  0  0  0
   11.2996   10.8085    5.0517 N   0  0  0  0  0  0  0  0  0  0  0  0
   10.9581   11.8948    4.3272 C   0  0  0  0  0  0  0  0  0  0  0  0
   10.8980   13.0089    5.1246 N   0  0  0  0  0  0  0  0  0  0  0  0
  1  2  1  0  0  0  0
  1  6  1  0  0  0  0
  2  3  2  0  0  0  0
  3  4  1  0  0  0  0
  4  5  2  0  0  0  0
  4 10  1  0  0  0  0
  5  6  1  0  0  0  0
  5  8  1  0  0  0  0
  6  7  2  0  0  0  0
  8  9  1  0  0  0  0
  9 10  2  0  0  0  0
M  END
>  <CHROM.1>
11.45233194,11.65711324,6.73194572,0.36576306,-1.31124510,0.79305234

>  <Name>
ligand

>  <RI>
0

>  <Rbt.Current_Directory>
/home/itssahil/PROJECTS/Mol_Feturizer/New_Systems/rnas/4FEJ

>  <Rbt.Executable>
rbdock ($Id: //depot/dev/client3/rdock/2013.1/src/exe/rbdock.cxx#4 $)

>  <Rbt.Library>
libRbt.so (2013.1, Build901 2013/11/27)

>  <Rbt.Parameter_File>
/export/apps/rDock/src/rDock_2013.1_src/data/scripts/dock_solv.prm

>  <Rbt.Receptor>
prm/pocket_docking_5.prm

>  <SCORE>
-17.4666

>  <SCORE.INTER>
-17.4666

>  <SCORE.INTER.CONST>
1

>  <SCORE.INTER.POLAR>
0

>  <SCORE.INTER.ROT>
0

>  <SCORE.INTER.SOLV>
3.85733

>  <SCORE.INTER.VDW>
-16.5302

>  <SCORE.INTER.norm>
-1.74666

>  <SCORE.INTRA>
0

>  <SCORE.INTRA.DIHEDRAL>
0

>  <SCORE.INTRA.DIHEDRAL.0>
0

>  <SCORE.INTRA.POLAR>
0

>  <SCORE.INTRA.POLAR.0>
0

>  <SCORE.INTRA.REPUL>
0

>  <SCORE.INTRA.REPUL.0>
0

>  <SCORE.INTRA.SOLV>
0

>  <SCORE.INTRA.SOLV.lig_0>
-4.26631

>  <SCORE.INTRA.VDW>
0

>  <SCORE.INTRA.VDW.0>
0

>  <SCORE.INTRA.norm>
0

>  <SCORE.RESTR>
0

>  <SCORE.RESTR.CAVITY>
0

>  <SCORE.RESTR.norm>
0

>  <SCORE.SYSTEM>
0

>  <SCORE.SYSTEM.CONST>
0

>  <SCORE.SYSTEM.DIHEDRAL>
0

>  <SCORE.SYSTEM.SOLV>
0

>  <SCORE.SYSTEM.norm>
0

>  <SCORE.heavy>
10

>  <SCORE.norm>
-1.74666

>  <RMSD>
0.536

$$$$
ligand
 OpenBabel11021811493D
libRbt.so/2013.1/901 2013/11/27
 10 11  0  0  0  0  0  0  0  0999 V2000
   11.8611   11.3598    8.6184 N   0  0  0  0  0  0  0  0  0  0  0  0
   11.6673   12.7179    8.5989 C   0  0  0  0  0  0  0  0  0  0  0  0
   11.3489   13.3651    7.4663 N   0  0  0  0  0  0  0  0  0  0  0  0
   11.2446   12.5559    6.3918 C   0  0  0  0  0  0  0  0  0  0  0  0
   11.4270   11.1914    6.3470 C   0  0  0  0  0  0  0  0  0  0  0  0
   11.7593   10.4936    7.5252 C   0  0  0  0  0  0  0  0  0  0  0  0
   11.9605    9.2989    7.6957 O   0  0  0  0  0  0  0  0  0  0  0  0
   11.2261   10.7635    5.0674 N   0  0  0  0  0  0  0  0  0  0  0  0
   10.9260   11.8600    4.3399 C   0  0  0  0  0  0  0  0  0  0  0  0
   10.9318   12.9811    5.1297 N   0  0  0  0  0  0  0  0  0  0  0  0
  1  2  1  0  0  0  0
  1  6  1  0  0  0  0
  2  3  2  0  0  0  0
  3  4  1  0  0  0  0
  4  5  2  0  0  0  0
  4 10  1  0  0  0  0
  5  6  1  0  0  0  0
  5  8  1  0  0  0  0
  6  7  2  0  0  0  0
  8  9  1  0  0  0  0
  9 10  2  0  0  0  0
M  END
>  <CHROM.1>
11.44548247,11.61517719,6.73864010,0.17675229,-1.33043753,0.60268005

>  <Name>
ligand

>  <RI>
0

>  <Rbt.Current_Directory>
/home/itssahil/PROJECTS/Mol_Feturizer/New_Systems/rnas/4FEJ

>  <Rbt.Executable>
rbdock ($Id: //depot/dev/client3/rdock/2013.1/src/exe/rbdock.cxx#4 $)

>  <Rbt.Library>
libRbt.so (2013.1, Build901 2013/11/27)

>  <Rbt.Parameter_File>
/export/apps/rDock/src/rDock_2013.1_src/data/scripts/dock_solv.prm

>  <Rbt.Receptor>
prm/pocket_docking_4.prm

>  <SCORE>
-17.3754

>  <SCORE.INTER>
-17.3754

>  <SCORE.INTER.CONST>
1

>  <SCORE.INTER.POLAR>
0

>  <SCORE.INTER.ROT>
0

>  <SCORE.INTER.SOLV>
3.9654

>  <SCORE.INTER.VDW>
-16.5054

>  <SCORE.INTER.norm>
-1.73754

>  <SCORE.INTRA>
0

>  <SCORE.INTRA.DIHEDRAL>
0

>  <SCORE.INTRA.DIHEDRAL.0>
0

>  <SCORE.INTRA.POLAR>
0

>  <SCORE.INTRA.POLAR.0>
0

>  <SCORE.INTRA.REPUL>
0

>  <SCORE.INTRA.REPUL.0>
0

>  <SCORE.INTRA.SOLV>
0

>  <SCORE.INTRA.SOLV.lig_0>
-4.26631

>  <SCORE.INTRA.VDW>
0

>  <SCORE.INTRA.VDW.0>
0

>  <SCORE.INTRA.norm>
0

>  <SCORE.RESTR>
0

>  <SCORE.RESTR.CAVITY>
0

>  <SCORE.RESTR.norm>
0

>  <SCORE.SYSTEM>
0

>  <SCORE.SYSTEM.CONST>
0

>  <SCORE.SYSTEM.DIHEDRAL>
0

>  <SCORE.SYSTEM.SOLV>
0

>  <SCORE.SYSTEM.norm>
0

>  <SCORE.heavy>
10

>  <SCORE.norm>
-1.73754

>  <RMSD>
0.538

$$$$
ligand
 OpenBabel11021811493D
libRbt.so/2013.1/901 2013/11/27
 10 11  0  0  0  0  0  0  0  0999 V2000
   11.8456   11.4042    8.6142 N   0  0  0  0  0  0  0  0  0  0  0  0
   11.5872   12.7515    8.5940 C   0  0  0  0  0  0  0  0  0  0  0  0
   11.2703   13.3881    7.4549 N   0  0  0  0  0  0  0  0  0  0  0  0
   11.2358   12.5801    6.3751 C   0  0  0  0  0  0  0  0  0  0  0  0
   11.4851   11.2261    6.3307 C   0  0  0  0  0  0  0  0  0  0  0  0
   11.8170   10.5394    7.5156 C   0  0  0  0  0  0  0  0  0  0  0  0
   12.0707    9.3550    7.6876 O   0  0  0  0  0  0  0  0  0  0  0  0
   11.3416   10.7953    5.0444 N   0  0  0  0  0  0  0  0  0  0  0  0
   11.0097   11.8796    4.3125 C   0  0  0  0  0  0  0  0  0  0  0  0
   10.9388   12.9959    5.1060 N   0  0  0  0  0  0  0  0  0  0  0  0
  1  2  1  0  0  0  0
  1  6  1  0  0  0  0
  2  3  2  0  0  0  0
  3  4  1  0  0  0  0
  4  5  2  0  0  0  0
  4 10  1  0  0  0  0
  5  6  1  0  0  0  0
  5  8  1  0  0  0  0
  6  7  2  0  0  0  0
  8  9  1  0  0  0  0
  9 10  2  0  0  0  0
M  END
>  <CHROM.1>
11.47190505,11.64842957,6.72422522,0.40431532,-1.32031097,0.82767362

>  <Name>
ligand

>  <RI>
0

>  <Rbt.Current_Directory>
/home/itssahil/PROJECTS/Mol_Feturizer/New_Systems/rnas/4FEJ

>  <Rbt.Executable>
rbdock ($Id: //depot/dev/client3/rdock/2013.1/src/exe/rbdock.cxx#4 $)

>  <Rbt.Library>
libRbt.so (2013.1, Build901 2013/11/27)

>  <Rbt.Parameter_File>
/export/apps/rDock/src/rDock_2013.1_src/data/scripts/dock_solv.prm

>  <Rbt.Receptor>
prm/pocket_docking_7.prm

>  <SCORE>
-17.4235

>  <SCORE.INTER>
-17.4235

>  <SCORE.INTER.CONST>
1

>  <SCORE.INTER.POLAR>
0

>  <SCORE.INTER.ROT>
0

>  <SCORE.INTER.SOLV>
3.87077

>  <SCORE.INTER.VDW>
-16.5059

>  <SCORE.INTER.norm>
-1.74235

>  <SCORE.INTRA>
0

>  <SCORE.INTRA.DIHEDRAL>
0

>  <SCORE.INTRA.DIHEDRAL.0>
0

>  <SCORE.INTRA.POLAR>
0

>  <SCORE.INTRA.POLAR.0>
0

>  <SCORE.INTRA.REPUL>
0

>  <SCORE.INTRA.REPUL.0>
0

>  <SCORE.INTRA.SOLV>
0

>  <SCORE.INTRA.SOLV.lig_0>
-4.26631

>  <SCORE.INTRA.VDW>
0

>  <SCORE.INTRA.VDW.0>
0

>  <SCORE.INTRA.norm>
0

>  <SCORE.RESTR>
0

>  <SCORE.RESTR.CAVITY>
0

>  <SCORE.RESTR.norm>
0

>  <SCORE.SYSTEM>
0

>  <SCORE.SYSTEM.CONST>
0

>  <SCORE.SYSTEM.DIHEDRAL>
0

>  <SCORE.SYSTEM.SOLV>
0

>  <SCORE.SYSTEM.norm>
0

>  <SCORE.heavy>
10

>  <SCORE.norm>
-1.74235

>  <RMSD>
0.541

$$$$
ligand
 OpenBabel11021811493D
libRbt.so/2013.1/901 2013/11/27
 10 11  0  0  0  0  0  0  0  0999 V2000
   11.8601   11.4215    8.6397 N   0  0  0  0  0  0  0  0  0  0  0  0
   11.6445   12.7761    8.6096 C   0  0  0  0  0  0  0  0  0  0  0  0
   11.3327   13.4118    7.4687 N   0  0  0  0  0  0  0  0  0  0  0  0
   11.2579   12.5952    6.3974 C   0  0  0  0  0  0  0  0  0  0  0  0
   11.4632   11.2336    6.3631 C   0  0  0  0  0  0  0  0  0  0  0  0
   11.7890   10.5477    7.5501 C   0  0  0  0  0  0  0  0  0  0  0  0
   12.0071    9.3575    7.7304 O   0  0  0  0  0  0  0  0  0  0  0  0
   11.2886   10.7955    5.0830 N   0  0  0  0  0  0  0  0  0  0  0  0
   10.9816   11.8829    4.3449 C   0  0  0  0  0  0  0  0  0  0  0  0
   10.9572   13.0083    5.1283 N   0  0  0  0  0  0  0  0  0  0  0  0
  1  2  1  0  0  0  0
  1  6  1  0  0  0  0
  2  3  2  0  0  0  0
  3  4  1  0  0  0  0
  4  5  2  0  0  0  0
  4 10  1  0  0  0  0
  5  6  1  0  0  0  0
  5  8  1  0  0  0  0
  6  7  2  0  0  0  0
  8  9  1  0  0  0  0
  9 10  2  0  0  0  0
M  END
>  <CHROM.1>
11.46881928,11.65975117,6.75251196,0.27012046,-1.33261977,0.68782100

>  <Name>
ligand

>  <RI>
0

>  <Rbt.Current_Directory>
/home/itssahil/PROJECTS/Mol_Feturizer/New_Systems/rnas/4FEJ

>  <Rbt.Executable>
rbdock ($Id: //depot/dev/client3/rdock/2013.1/src/exe/rbdock.cxx#4 $)

>  <Rbt.Library>
libRbt.so (2013.1, Build901 2013/11/27)

>  <Rbt.Parameter_File>
/export/apps/rDock/src/rDock_2013.1_src/data/scripts/dock_solv.prm

>  <Rbt.Receptor>
prm/pocket_docking_8.prm

>  <SCORE>
-17.4083

>  <SCORE.INTER>
-17.4083

>  <SCORE.INTER.CONST>
1

>  <SCORE.INTER.POLAR>
0

>  <SCORE.INTER.ROT>
0

>  <SCORE.INTER.SOLV>
3.94751

>  <SCORE.INTER.VDW>
-16.5213

>  <SCORE.INTER.norm>
-1.74083

>  <SCORE.INTRA>
0

>  <SCORE.INTRA.DIHEDRAL>
0

>  <SCORE.INTRA.DIHEDRAL.0>
0

>  <SCORE.INTRA.POLAR>
0

>  <SCORE.INTRA.POLAR.0>
0

>  <SCORE.INTRA.REPUL>
0

>  <SCORE.INTRA.REPUL.0>
0

>  <SCORE.INTRA.SOLV>
0

>  <SCORE.INTRA.SOLV.lig_0>
-4.26631

>  <SCORE.INTRA.VDW>
0

>  <SCORE.INTRA.VDW.0>
0

>  <SCORE.INTRA.norm>
0

>  <SCORE.RESTR>
0

>  <SCORE.RESTR.CAVITY>
0

>  <SCORE.RESTR.norm>
0

>  <SCORE.SYSTEM>
0

>  <SCORE.SYSTEM.CONST>
0

>  <SCORE.SYSTEM.DIHEDRAL>
0

>  <SCORE.SYSTEM.SOLV>
0

>  <SCORE.SYSTEM.norm>
0

>  <SCORE.heavy>
10

>  <SCORE.norm>
-1.74083

>  <RMSD>
0.541

$$$$
ligand
 OpenBabel11021811493D
libRbt.so/2013.1/901 2013/11/27
 10 11  0  0  0  0  0  0  0  0999 V2000
   11.8659   11.4238    8.6430 N   0  0  0  0  0  0  0  0  0  0  0  0
   11.6478   12.7779    8.6058 C   0  0  0  0  0  0  0  0  0  0  0  0
   11.3467   13.4088    7.4593 N   0  0  0  0  0  0  0  0  0  0  0  0
   11.2851   12.5881    6.3902 C   0  0  0  0  0  0  0  0  0  0  0  0
   11.4937   11.2269    6.3630 C   0  0  0  0  0  0  0  0  0  0  0  0
   11.8084   10.5460    7.5559 C   0  0  0  0  0  0  0  0  0  0  0  0
   12.0271    9.3569    7.7428 O   0  0  0  0  0  0  0  0  0  0  0  0
   11.3337   10.7838    5.0828 N   0  0  0  0  0  0  0  0  0  0  0  0
   11.0322   11.8679    4.3375 C   0  0  0  0  0  0  0  0  0  0  0  0
   10.9970   12.9960    5.1165 N   0  0  0  0  0  0  0  0  0  0  0  0
  1  2  1  0  0  0  0
  1  6  1  0  0  0  0
  2  3  2  0  0  0  0
  3  4  1  0  0  0  0
  4  5  2  0  0  0  0
  4 10  1  0  0  0  0
  5  6  1  0  0  0  0
  5  8  1  0  0  0  0
  6  7  2  0  0  0  0
  8  9  1  0  0  0  0
  9 10  2  0  0  0  0
M  END
>  <CHROM.1>
11.49426407,11.65446797,6.75094443,0.30694630,-1.33930659,0.72003625

>  <Name>
ligand

>  <RI>
0

>  <Rbt.Current_Directory>
/home/itssahil/PROJECTS/Mol_Feturizer/New_Systems/rnas/4FEJ

>  <Rbt.Executable>
rbdock ($Id: //depot/dev/client3/rdock/2013.1/src/exe/rbdock.cxx#4 $)

>  <Rbt.Library>
libRbt.so (2013.1, Build901 2013/11/27)

>  <Rbt.Parameter_File>
/export/apps/rDock/src/rDock_2013.1_src/data/scripts/dock_solv.prm

>  <Rbt.Receptor>
prm/blind_docking_100.prm

>  <SCORE>
-17.4309

>  <SCORE.INTER>
-17.4309

>  <SCORE.INTER.CONST>
1

>  <SCORE.INTER.POLAR>
0

>  <SCORE.INTER.ROT>
0

>  <SCORE.INTER.SOLV>
3.95426

>  <SCORE.INTER.VDW>
-16.5387

>  <SCORE.INTER.norm>
-1.74309

>  <SCORE.INTRA>
0

>  <SCORE.INTRA.DIHEDRAL>
0

>  <SCORE.INTRA.DIHEDRAL.0>
0

>  <SCORE.INTRA.POLAR>
0

>  <SCORE.INTRA.POLAR.0>
0

>  <SCORE.INTRA.REPUL>
0

>  <SCORE.INTRA.REPUL.0>
0

>  <SCORE.INTRA.SOLV>
0

>  <SCORE.INTRA.SOLV.lig_0>
-4.26631

>  <SCORE.INTRA.VDW>
0

>  <SCORE.INTRA.VDW.0>
0

>  <SCORE.INTRA.norm>
0

>  <SCORE.RESTR>
0

>  <SCORE.RESTR.CAVITY>
0

>  <SCORE.RESTR.norm>
0

>  <SCORE.SYSTEM>
0

>  <SCORE.SYSTEM.CONST>
0

>  <SCORE.SYSTEM.DIHEDRAL>
0

>  <SCORE.SYSTEM.SOLV>
0

>  <SCORE.SYSTEM.norm>
0

>  <SCORE.heavy>
10

>  <SCORE.norm>
-1.74309

>  <RMSD>
0.542

$$$$
ligand
 OpenBabel11021811493D
libRbt.so/2013.1/901 2013/11/27
 10 11  0  0  0  0  0  0  0  0999 V2000
   11.9101   10.7141    8.3795 N   0  0  0  0  0  0  0  0  0  0  0  0
   11.6100   12.0238    8.6570 C   0  0  0  0  0  0  0  0  0  0  0  0
   11.2421   12.8794    7.6898 N   0  0  0  0  0  0  0  0  0  0  0  0
   11.2022   12.3229    6.4614 C   0  0  0  0  0  0  0  0  0  0  0  0
   11.4915   11.0203    6.1196 C   0  0  0  0  0  0  0  0  0  0  0  0
   11.8773   10.1064    7.1204 C   0  0  0  0  0  0  0  0  0  0  0  0
   12.1718    8.9227    7.0264 O   0  0  0  0  0  0  0  0  0  0  0  0
   11.3255   10.8725    4.7737 N   0  0  0  0  0  0  0  0  0  0  0  0
   10.9402   12.0765    4.3012 C   0  0  0  0  0  0  0  0  0  0  0  0
   10.8574   12.9919    5.3190 N   0  0  0  0  0  0  0  0  0  0  0  0
  1  2  1  0  0  0  0
  1  6  1  0  0  0  0
  2  3  2  0  0  0  0
  3  4  1  0  0  0  0
  4  5  2  0  0  0  0
  4 10  1  0  0  0  0
  5  6  1  0  0  0  0
  5  8  1  0  0  0  0
  6  7  2  0  0  0  0
  8  9  1  0  0  0  0
  9 10  2  0  0  0  0
M  END
>  <CHROM.1>
11.47641656,11.34692667,6.59544230,0.40489414,-1.27887143,1.04633286

>  <Name>
ligand

>  <RI>
0

>  <Rbt.Current_Directory>
/home/itssahil/PROJECTS/Mol_Feturizer/New_Systems/rnas/4FEJ

>  <Rbt.Executable>
rbdock ($Id: //depot/dev/client3/rdock/2013.1/src/exe/rbdock.cxx#4 $)

>  <Rbt.Library>
libRbt.so (2013.1, Build901 2013/11/27)

>  <Rbt.Parameter_File>
/export/apps/rDock/src/rDock_2013.1_src/data/scripts/dock_solv.prm

>  <Rbt.Receptor>
prm/blind_docking_20.prm

>  <SCORE>
-17.1484

>  <SCORE.INTER>
-17.1484

>  <SCORE.INTER.CONST>
1

>  <SCORE.INTER.POLAR>
0

>  <SCORE.INTER.ROT>
0

>  <SCORE.INTER.SOLV>
3.62496

>  <SCORE.INTER.VDW>
-16.2406

>  <SCORE.INTER.norm>
-1.71484

>  <SCORE.INTRA>
0

>  <SCORE.INTRA.DIHEDRAL>
0

>  <SCORE.INTRA.DIHEDRAL.0>
0

>  <SCORE.INTRA.POLAR>
0

>  <SCORE.INTRA.POLAR.0>
0

>  <SCORE.INTRA.REPUL>
0

>  <SCORE.INTRA.REPUL.0>
0

>  <SCORE.INTRA.SOLV>
0

>  <SCORE.INTRA.SOLV.lig_0>
-4.26631

>  <SCORE.INTRA.VDW>
0

>  <SCORE.INTRA.VDW.0>
0

>  <SCORE.INTRA.norm>
0

>  <SCORE.RESTR>
0

>  <SCORE.RESTR.CAVITY>
0

>  <SCORE.RESTR.norm>
0

>  <SCORE.SYSTEM>
0

>  <SCORE.SYSTEM.CONST>
0

>  <SCORE.SYSTEM.DIHEDRAL>
0

>  <SCORE.SYSTEM.SOLV>
0

>  <SCORE.SYSTEM.norm>
0

>  <SCORE.heavy>
10

>  <SCORE.norm>
-1.71484

>  <RMSD>
0.542

$$$$
ligand
 OpenBabel11021811493D
libRbt.so/2013.1/901 2013/11/27
 10 11  0  0  0  0  0  0  0  0999 V2000
   11.8446   11.3826    8.6217 N   0  0  0  0  0  0  0  0  0  0  0  0
   11.6500   12.7407    8.6133 C   0  0  0  0  0  0  0  0  0  0  0  0
   11.3572   13.4006    7.4811 N   0  0  0  0  0  0  0  0  0  0  0  0
   11.2787   12.6037    6.3953 C   0  0  0  0  0  0  0  0  0  0  0  0
   11.4634   11.2399    6.3391 C   0  0  0  0  0  0  0  0  0  0  0  0
   11.7690   10.5289    7.5166 C   0  0  0  0  0  0  0  0  0  0  0  0
   11.9674    9.3325    7.6780 O   0  0  0  0  0  0  0  0  0  0  0  0
   11.2926   10.8266    5.0503 N   0  0  0  0  0  0  0  0  0  0  0  0
   11.0083   11.9311    4.3287 C   0  0  0  0  0  0  0  0  0  0  0  0
   10.9947   13.0431    5.1312 N   0  0  0  0  0  0  0  0  0  0  0  0
  1  2  1  0  0  0  0
  1  6  1  0  0  0  0
  2  3  2  0  0  0  0
  3  4  1  0  0  0  0
  4  5  2  0  0  0  0
  4 10  1  0  0  0  0
  5  6  1  0  0  0  0
  5  8  1  0  0  0  0
  6  7  2  0  0  0  0
  8  9  1  0  0  0  0
  9 10  2  0  0  0  0
M  END
>  <CHROM.1>
11.47238266,11.65918309,6.73586265,0.24011960,-1.34852078,0.67582210

>  <Name>
ligand

>  <RI>
0

>  <Rbt.Current_Directory>
/home/itssahil/PROJECTS/Mol_Feturizer/New_Systems/rnas/4FEJ

>  <Rbt.Executable>
rbdock ($Id: //depot/dev/client3/rdock/2013.1/src/exe/rbdock.cxx#4 $)

>  <Rbt.Library>
libRbt.so (2013.1, Build901 2013/11/27)

>  <Rbt.Parameter_File>
/export/apps/rDock/src/rDock_2013.1_src/data/scripts/dock_solv.prm

>  <Rbt.Receptor>
prm/blind_docking_60.prm

>  <SCORE>
-17.395

>  <SCORE.INTER>
-17.395

>  <SCORE.INTER.CONST>
1

>  <SCORE.INTER.POLAR>
0

>  <SCORE.INTER.ROT>
0

>  <SCORE.INTER.SOLV>
3.97485

>  <SCORE.INTER.VDW>
-16.5216

>  <SCORE.INTER.norm>
-1.7395

>  <SCORE.INTRA>
0

>  <SCORE.INTRA.DIHEDRAL>
0

>  <SCORE.INTRA.DIHEDRAL.0>
0

>  <SCORE.INTRA.POLAR>
0

>  <SCORE.INTRA.POLAR.0>
0

>  <SCORE.INTRA.REPUL>
0

>  <SCORE.INTRA.REPUL.0>
0

>  <SCORE.INTRA.SOLV>
0

>  <SCORE.INTRA.SOLV.lig_0>
-4.26631

>  <SCORE.INTRA.VDW>
0

>  <SCORE.INTRA.VDW.0>
0

>  <SCORE.INTRA.norm>
0

>  <SCORE.RESTR>
0

>  <SCORE.RESTR.CAVITY>
0

>  <SCORE.RESTR.norm>
0

>  <SCORE.SYSTEM>
0

>  <SCORE.SYSTEM.CONST>
0

>  <SCORE.SYSTEM.DIHEDRAL>
0

>  <SCORE.SYSTEM.SOLV>
0

>  <SCORE.SYSTEM.norm>
0

>  <SCORE.heavy>
10

>  <SCORE.norm>
-1.7395

>  <RMSD>
0.543

$$$$
ligand
 OpenBabel11021811493D
libRbt.so/2013.1/901 2013/11/27
 10 11  0  0  0  0  0  0  0  0999 V2000
   11.8306   11.4050    8.6078 N   0  0  0  0  0  0  0  0  0  0  0  0
   11.5549   12.7490    8.5928 C   0  0  0  0  0  0  0  0  0  0  0  0
   11.2303   13.3861    7.4562 N   0  0  0  0  0  0  0  0  0  0  0  0
   11.2066   12.5820    6.3731 C   0  0  0  0  0  0  0  0  0  0  0  0
   11.4732   11.2315    6.3235 C   0  0  0  0  0  0  0  0  0  0  0  0
   11.8134   10.5444    7.5057 C   0  0  0  0  0  0  0  0  0  0  0  0
   12.0822    9.3626    7.6730 O   0  0  0  0  0  0  0  0  0  0  0  0
   11.3357   10.8041    5.0353 N   0  0  0  0  0  0  0  0  0  0  0  0
   10.9902   11.8870    4.3077 C   0  0  0  0  0  0  0  0  0  0  0  0
   10.9048   12.9990    5.1056 N   0  0  0  0  0  0  0  0  0  0  0  0
  1  2  1  0  0  0  0
  1  6  1  0  0  0  0
  2  3  2  0  0  0  0
  3  4  1  0  0  0  0
  4  5  2  0  0  0  0
  4 10  1  0  0  0  0
  5  6  1  0  0  0  0
  5  8  1  0  0  0  0
  6  7  2  0  0  0  0
  8  9  1  0  0  0  0
  9 10  2  0  0  0  0
M  END
>  <CHROM.1>
11.45445294,11.65203721,6.71865001,0.43906954,-1.31099828,0.86531482

>  <Name>
ligand

>  <RI>
0

>  <Rbt.Current_Directory>
/home/itssahil/PROJECTS/Mol_Feturizer/New_Systems/rnas/4FEJ

>  <Rbt.Executable>
rbdock ($Id: //depot/dev/client3/rdock/2013.1/src/exe/rbdock.cxx#4 $)

>  <Rbt.Library>
libRbt.so (2013.1, Build901 2013/11/27)

>  <Rbt.Parameter_File>
/export/apps/rDock/src/rDock_2013.1_src/data/scripts/dock_solv.prm

>  <Rbt.Receptor>
prm/pocket_docking_5.prm

>  <SCORE>
-17.4547

>  <SCORE.INTER>
-17.4547

>  <SCORE.INTER.CONST>
1

>  <SCORE.INTER.POLAR>
0

>  <SCORE.INTER.ROT>
0

>  <SCORE.INTER.SOLV>
3.8405

>  <SCORE.INTER.VDW>
-16.5166

>  <SCORE.INTER.norm>
-1.74547

>  <SCORE.INTRA>
0

>  <SCORE.INTRA.DIHEDRAL>
0

>  <SCORE.INTRA.DIHEDRAL.0>
0

>  <SCORE.INTRA.POLAR>
0

>  <SCORE.INTRA.POLAR.0>
0

>  <SCORE.INTRA.REPUL>
0

>  <SCORE.INTRA.REPUL.0>
0

>  <SCORE.INTRA.SOLV>
0

>  <SCORE.INTRA.SOLV.lig_0>
-4.26631

>  <SCORE.INTRA.VDW>
0

>  <SCORE.INTRA.VDW.0>
0

>  <SCORE.INTRA.norm>
0

>  <SCORE.RESTR>
0

>  <SCORE.RESTR.CAVITY>
0

>  <SCORE.RESTR.norm>
0

>  <SCORE.SYSTEM>
0

>  <SCORE.SYSTEM.CONST>
0

>  <SCORE.SYSTEM.DIHEDRAL>
0

>  <SCORE.SYSTEM.SOLV>
0

>  <SCORE.SYSTEM.norm>
0

>  <SCORE.heavy>
10

>  <SCORE.norm>
-1.74547

>  <RMSD>
0.544

$$$$
ligand
 OpenBabel11021811493D
libRbt.so/2013.1/901 2013/11/27
 10 11  0  0  0  0  0  0  0  0999 V2000
   11.9024   10.7174    8.3791 N   0  0  0  0  0  0  0  0  0  0  0  0
   11.6160   12.0300    8.6571 C   0  0  0  0  0  0  0  0  0  0  0  0
   11.2463   12.8871    7.6918 N   0  0  0  0  0  0  0  0  0  0  0  0
   11.1903   12.3288    6.4648 C   0  0  0  0  0  0  0  0  0  0  0  0
   11.4655   11.0232    6.1227 C   0  0  0  0  0  0  0  0  0  0  0  0
   11.8528   10.1078    7.1215 C   0  0  0  0  0  0  0  0  0  0  0  0
   12.1364    8.9215    7.0269 O   0  0  0  0  0  0  0  0  0  0  0  0
   11.2856   10.8745    4.7787 N   0  0  0  0  0  0  0  0  0  0  0  0
   10.9061   12.0809    4.3076 C   0  0  0  0  0  0  0  0  0  0  0  0
   10.8405   12.9987    5.3245 N   0  0  0  0  0  0  0  0  0  0  0  0
  1  2  1  0  0  0  0
  1  6  1  0  0  0  0
  2  3  2  0  0  0  0
  3  4  1  0  0  0  0
  4  5  2  0  0  0  0
  4 10  1  0  0  0  0
  5  6  1  0  0  0  0
  5  8  1  0  0  0  0
  6  7  2  0  0  0  0
  8  9  1  0  0  0  0
  9 10  2  0  0  0  0
M  END
>  <CHROM.1>
11.45750316,11.35079380,6.59807080,0.36187081,-1.28124666,1.00334720

>  <Name>
ligand

>  <RI>
0

>  <Rbt.Current_Directory>
/home/itssahil/PROJECTS/Mol_Feturizer/New_Systems/rnas/4FEJ

>  <Rbt.Executable>
rbdock ($Id: //depot/dev/client3/rdock/2013.1/src/exe/rbdock.cxx#4 $)

>  <Rbt.Library>
libRbt.so (2013.1, Build901 2013/11/27)

>  <Rbt.Parameter_File>
/export/apps/rDock/src/rDock_2013.1_src/data/scripts/dock_solv.prm

>  <Rbt.Receptor>
prm/blind_docking_20.prm

>  <SCORE>
-17.1671

>  <SCORE.INTER>
-17.1671

>  <SCORE.INTER.CONST>
1

>  <SCORE.INTER.POLAR>
0

>  <SCORE.INTER.ROT>
0

>  <SCORE.INTER.SOLV>
3.65187

>  <SCORE.INTER.VDW>
-16.262

>  <SCORE.INTER.norm>
-1.71671

>  <SCORE.INTRA>
0

>  <SCORE.INTRA.DIHEDRAL>
0

>  <SCORE.INTRA.DIHEDRAL.0>
0

>  <SCORE.INTRA.POLAR>
0

>  <SCORE.INTRA.POLAR.0>
0

>  <SCORE.INTRA.REPUL>
0

>  <SCORE.INTRA.REPUL.0>
0

>  <SCORE.INTRA.SOLV>
0

>  <SCORE.INTRA.SOLV.lig_0>
-4.26631

>  <SCORE.INTRA.VDW>
0

>  <SCORE.INTRA.VDW.0>
0

>  <SCORE.INTRA.norm>
0

>  <SCORE.RESTR>
0

>  <SCORE.RESTR.CAVITY>
0

>  <SCORE.RESTR.norm>
0

>  <SCORE.SYSTEM>
0

>  <SCORE.SYSTEM.CONST>
0

>  <SCORE.SYSTEM.DIHEDRAL>
0

>  <SCORE.SYSTEM.SOLV>
0

>  <SCORE.SYSTEM.norm>
0

>  <SCORE.heavy>
10

>  <SCORE.norm>
-1.71671

>  <RMSD>
0.545

$$$$
ligand
 OpenBabel11021811493D
libRbt.so/2013.1/901 2013/11/27
 10 11  0  0  0  0  0  0  0  0999 V2000
   11.9010   10.7164    8.3773 N   0  0  0  0  0  0  0  0  0  0  0  0
   11.6251   12.0309    8.6574 C   0  0  0  0  0  0  0  0  0  0  0  0
   11.2595   12.8918    7.6939 N   0  0  0  0  0  0  0  0  0  0  0  0
   11.1964   12.3353    6.4665 C   0  0  0  0  0  0  0  0  0  0  0  0
   11.4609   11.0281    6.1223 C   0  0  0  0  0  0  0  0  0  0  0  0
   11.8437   10.1086    7.1191 C   0  0  0  0  0  0  0  0  0  0  0  0
   12.1182    8.9203    7.0225 O   0  0  0  0  0  0  0  0  0  0  0  0
   11.2767   10.8822    4.7785 N   0  0  0  0  0  0  0  0  0  0  0  0
   10.9051   12.0920    4.3097 C   0  0  0  0  0  0  0  0  0  0  0  0
   10.8489   13.0091    5.3277 N   0  0  0  0  0  0  0  0  0  0  0  0
  1  2  1  0  0  0  0
  1  6  1  0  0  0  0
  2  3  2  0  0  0  0
  3  4  1  0  0  0  0
  4  5  2  0  0  0  0
  4 10  1  0  0  0  0
  5  6  1  0  0  0  0
  5  8  1  0  0  0  0
  6  7  2  0  0  0  0
  8  9  1  0  0  0  0
  9 10  2  0  0  0  0
M  END
>  <CHROM.1>
11.45656068,11.35516389,6.59802644,0.34019953,-1.28623520,0.98367831

>  <Name>
ligand

>  <RI>
0

>  <Rbt.Current_Directory>
/home/itssahil/PROJECTS/Mol_Feturizer/New_Systems/rnas/4FEJ

>  <Rbt.Executable>
rbdock ($Id: //depot/dev/client3/rdock/2013.1/src/exe/rbdock.cxx#4 $)

>  <Rbt.Library>
libRbt.so (2013.1, Build901 2013/11/27)

>  <Rbt.Parameter_File>
/export/apps/rDock/src/rDock_2013.1_src/data/scripts/dock_solv.prm

>  <Rbt.Receptor>
prm/blind_docking_20.prm

>  <SCORE>
-17.168

>  <SCORE.INTER>
-17.1687

>  <SCORE.INTER.CONST>
1

>  <SCORE.INTER.POLAR>
0

>  <SCORE.INTER.ROT>
0

>  <SCORE.INTER.SOLV>
3.67225

>  <SCORE.INTER.VDW>
-16.2699

>  <SCORE.INTER.norm>
-1.71687

>  <SCORE.INTRA>
0

>  <SCORE.INTRA.DIHEDRAL>
0

>  <SCORE.INTRA.DIHEDRAL.0>
0

>  <SCORE.INTRA.POLAR>
0

>  <SCORE.INTRA.POLAR.0>
0

>  <SCORE.INTRA.REPUL>
0

>  <SCORE.INTRA.REPUL.0>
0

>  <SCORE.INTRA.SOLV>
0

>  <SCORE.INTRA.SOLV.lig_0>
-4.26631

>  <SCORE.INTRA.VDW>
0

>  <SCORE.INTRA.VDW.0>
0

>  <SCORE.INTRA.norm>
0

>  <SCORE.RESTR>
0.000665029

>  <SCORE.RESTR.CAVITY>
0.000665029

>  <SCORE.RESTR.norm>
6.65029e-05

>  <SCORE.SYSTEM>
0

>  <SCORE.SYSTEM.CONST>
0

>  <SCORE.SYSTEM.DIHEDRAL>
0

>  <SCORE.SYSTEM.SOLV>
0

>  <SCORE.SYSTEM.norm>
0

>  <SCORE.heavy>
10

>  <SCORE.norm>
-1.7168

>  <RMSD>
0.547

$$$$
ligand
 OpenBabel11021811493D
libRbt.so/2013.1/901 2013/11/27
 10 11  0  0  0  0  0  0  0  0999 V2000
   11.9611   10.7413    8.3553 N   0  0  0  0  0  0  0  0  0  0  0  0
   11.6812   12.0572    8.6249 C   0  0  0  0  0  0  0  0  0  0  0  0
   11.3018   12.9065    7.6565 N   0  0  0  0  0  0  0  0  0  0  0  0
   11.2294   12.3373    6.4354 C   0  0  0  0  0  0  0  0  0  0  0  0
   11.4972   11.0280    6.1017 C   0  0  0  0  0  0  0  0  0  0  0  0
   11.8946   10.1206    7.1039 C   0  0  0  0  0  0  0  0  0  0  0  0
   12.1742    8.9328    7.0165 O   0  0  0  0  0  0  0  0  0  0  0  0
   11.3005   10.8677    4.7614 N   0  0  0  0  0  0  0  0  0  0  0  0
   10.9182   12.0708    4.2841 C   0  0  0  0  0  0  0  0  0  0  0  0
   10.8673   12.9978    5.2934 N   0  0  0  0  0  0  0  0  0  0  0  0
  1  2  1  0  0  0  0
  1  6  1  0  0  0  0
  2  3  2  0  0  0  0
  3  4  1  0  0  0  0
  4  5  2  0  0  0  0
  4 10  1  0  0  0  0
  5  6  1  0  0  0  0
  5  8  1  0  0  0  0
  6  7  2  0  0  0  0
  8  9  1  0  0  0  0
  9 10  2  0  0  0  0
M  END
>  <CHROM.1>
11.49589711,11.35986198,6.57416716,0.32175760,-1.27644601,0.95594619

>  <Name>
ligand

>  <RI>
0

>  <Rbt.Current_Directory>
/home/itssahil/PROJECTS/Mol_Feturizer/New_Systems/rnas/4FEJ

>  <Rbt.Executable>
rbdock ($Id: //depot/dev/client3/rdock/2013.1/src/exe/rbdock.cxx#4 $)

>  <Rbt.Library>
libRbt.so (2013.1, Build901 2013/11/27)

>  <Rbt.Parameter_File>
/export/apps/rDock/src/rDock_2013.1_src/data/scripts/dock_solv.prm

>  <Rbt.Receptor>
prm/blind_docking_20.prm

>  <SCORE>
-17.1204

>  <SCORE.INTER>
-17.1204

>  <SCORE.INTER.CONST>
1

>  <SCORE.INTER.POLAR>
0

>  <SCORE.INTER.ROT>
0

>  <SCORE.INTER.SOLV>
3.61817

>  <SCORE.INTER.VDW>
-16.2196

>  <SCORE.INTER.norm>
-1.71204

>  <SCORE.INTRA>
0

>  <SCORE.INTRA.DIHEDRAL>
0

>  <SCORE.INTRA.DIHEDRAL.0>
0

>  <SCORE.INTRA.POLAR>
0

>  <SCORE.INTRA.POLAR.0>
0

>  <SCORE.INTRA.REPUL>
0

>  <SCORE.INTRA.REPUL.0>
0

>  <SCORE.INTRA.SOLV>
0

>  <SCORE.INTRA.SOLV.lig_0>
-4.26631

>  <SCORE.INTRA.VDW>
0

>  <SCORE.INTRA.VDW.0>
0

>  <SCORE.INTRA.norm>
0

>  <SCORE.RESTR>
0

>  <SCORE.RESTR.CAVITY>
0

>  <SCORE.RESTR.norm>
0

>  <SCORE.SYSTEM>
0

>  <SCORE.SYSTEM.CONST>
0

>  <SCORE.SYSTEM.DIHEDRAL>
0

>  <SCORE.SYSTEM.SOLV>
0

>  <SCORE.SYSTEM.norm>
0

>  <SCORE.heavy>
10

>  <SCORE.norm>
-1.71204

>  <RMSD>
0.550

$$$$
ligand
 OpenBabel11021811493D
libRbt.so/2013.1/901 2013/11/27
 10 11  0  0  0  0  0  0  0  0999 V2000
   11.8347   11.4161    8.6472 N   0  0  0  0  0  0  0  0  0  0  0  0
   11.6386   12.7734    8.6071 C   0  0  0  0  0  0  0  0  0  0  0  0
   11.3518   13.4073    7.4586 N   0  0  0  0  0  0  0  0  0  0  0  0
   11.2807   12.5860    6.3906 C   0  0  0  0  0  0  0  0  0  0  0  0
   11.4674   11.2215    6.3662 C   0  0  0  0  0  0  0  0  0  0  0  0
   11.7667   10.5376    7.5613 C   0  0  0  0  0  0  0  0  0  0  0  0
   11.9655    9.3454    7.7508 O   0  0  0  0  0  0  0  0  0  0  0  0
   11.3047   10.7791    5.0861 N   0  0  0  0  0  0  0  0  0  0  0  0
   11.0234   11.8667    4.3381 C   0  0  0  0  0  0  0  0  0  0  0  0
   11.0038   12.9965    5.1153 N   0  0  0  0  0  0  0  0  0  0  0  0
  1  2  1  0  0  0  0
  1  6  1  0  0  0  0
  2  3  2  0  0  0  0
  3  4  1  0  0  0  0
  4  5  2  0  0  0  0
  4 10  1  0  0  0  0
  5  6  1  0  0  0  0
  5  8  1  0  0  0  0
  6  7  2  0  0  0  0
  8  9  1  0  0  0  0
  9 10  2  0  0  0  0
M  END
>  <CHROM.1>
11.47345134,11.64966401,6.75351379,0.26147988,-1.35241352,0.67414122

>  <Name>
ligand

>  <RI>
0

>  <Rbt.Current_Directory>
/home/itssahil/PROJECTS/Mol_Feturizer/New_Systems/rnas/4FEJ

>  <Rbt.Executable>
rbdock ($Id: //depot/dev/client3/rdock/2013.1/src/exe/rbdock.cxx#4 $)

>  <Rbt.Library>
libRbt.so (2013.1, Build901 2013/11/27)

>  <Rbt.Parameter_File>
/export/apps/rDock/src/rDock_2013.1_src/data/scripts/dock_solv.prm

>  <Rbt.Receptor>
prm/blind_docking_80.prm

>  <SCORE>
-17.3576

>  <SCORE.INTER>
-17.3576

>  <SCORE.INTER.CONST>
1

>  <SCORE.INTER.POLAR>
0

>  <SCORE.INTER.ROT>
0

>  <SCORE.INTER.SOLV>
4.00957

>  <SCORE.INTER.VDW>
-16.5083

>  <SCORE.INTER.norm>
-1.73576

>  <SCORE.INTRA>
0

>  <SCORE.INTRA.DIHEDRAL>
0

>  <SCORE.INTRA.DIHEDRAL.0>
0

>  <SCORE.INTRA.POLAR>
0

>  <SCORE.INTRA.POLAR.0>
0

>  <SCORE.INTRA.REPUL>
0

>  <SCORE.INTRA.REPUL.0>
0

>  <SCORE.INTRA.SOLV>
0

>  <SCORE.INTRA.SOLV.lig_0>
-4.26631

>  <SCORE.INTRA.VDW>
0

>  <SCORE.INTRA.VDW.0>
0

>  <SCORE.INTRA.norm>
0

>  <SCORE.RESTR>
0

>  <SCORE.RESTR.CAVITY>
0

>  <SCORE.RESTR.norm>
0

>  <SCORE.SYSTEM>
0

>  <SCORE.SYSTEM.CONST>
0

>  <SCORE.SYSTEM.DIHEDRAL>
0

>  <SCORE.SYSTEM.SOLV>
0

>  <SCORE.SYSTEM.norm>
0

>  <SCORE.heavy>
10

>  <SCORE.norm>
-1.73576

>  <RMSD>
0.553

$$$$
ligand
 OpenBabel11021811493D
libRbt.so/2013.1/901 2013/11/27
 10 11  0  0  0  0  0  0  0  0999 V2000
   11.8955   10.6998    8.3692 N   0  0  0  0  0  0  0  0  0  0  0  0
   11.6104   12.0111    8.6550 C   0  0  0  0  0  0  0  0  0  0  0  0
   11.2485   12.8760    7.6938 N   0  0  0  0  0  0  0  0  0  0  0  0
   11.1986   12.3268    6.4625 C   0  0  0  0  0  0  0  0  0  0  0  0
   11.4728   11.0231    6.1125 C   0  0  0  0  0  0  0  0  0  0  0  0
   11.8520   10.0995    7.1069 C   0  0  0  0  0  0  0  0  0  0  0  0
   12.1335    8.9133    7.0054 O   0  0  0  0  0  0  0  0  0  0  0  0
   11.3007   10.8846    4.7664 N   0  0  0  0  0  0  0  0  0  0  0  0
   10.9268   12.0953    4.3018 C   0  0  0  0  0  0  0  0  0  0  0  0
   10.8572   13.0058    5.3250 N   0  0  0  0  0  0  0  0  0  0  0  0
  1  2  1  0  0  0  0
  1  6  1  0  0  0  0
  2  3  2  0  0  0  0
  3  4  1  0  0  0  0
  4  5  2  0  0  0  0
  4 10  1  0  0  0  0
  5  6  1  0  0  0  0
  5  8  1  0  0  0  0
  6  7  2  0  0  0  0
  8  9  1  0  0  0  0
  9 10  2  0  0  0  0
M  END
>  <CHROM.1>
11.46275586,11.34720198,6.59022373,0.37558963,-1.28639237,1.02380039

>  <Name>
ligand

>  <RI>
0

>  <Rbt.Current_Directory>
/home/itssahil/PROJECTS/Mol_Feturizer/New_Systems/rnas/4FEJ

>  <Rbt.Executable>
rbdock ($Id: //depot/dev/client3/rdock/2013.1/src/exe/rbdock.cxx#4 $)

>  <Rbt.Library>
libRbt.so (2013.1, Build901 2013/11/27)

>  <Rbt.Parameter_File>
/export/apps/rDock/src/rDock_2013.1_src/data/scripts/dock_solv.prm

>  <Rbt.Receptor>
prm/blind_docking_20.prm

>  <SCORE>
-17.162

>  <SCORE.INTER>
-17.162

>  <SCORE.INTER.CONST>
1

>  <SCORE.INTER.POLAR>
0

>  <SCORE.INTER.ROT>
0

>  <SCORE.INTER.SOLV>
3.66981

>  <SCORE.INTER.VDW>
-16.2646

>  <SCORE.INTER.norm>
-1.7162

>  <SCORE.INTRA>
0

>  <SCORE.INTRA.DIHEDRAL>
0

>  <SCORE.INTRA.DIHEDRAL.0>
0

>  <SCORE.INTRA.POLAR>
0

>  <SCORE.INTRA.POLAR.0>
0

>  <SCORE.INTRA.REPUL>
0

>  <SCORE.INTRA.REPUL.0>
0

>  <SCORE.INTRA.SOLV>
0

>  <SCORE.INTRA.SOLV.lig_0>
-4.26631

>  <SCORE.INTRA.VDW>
0

>  <SCORE.INTRA.VDW.0>
0

>  <SCORE.INTRA.norm>
0

>  <SCORE.RESTR>
0

>  <SCORE.RESTR.CAVITY>
0

>  <SCORE.RESTR.norm>
0

>  <SCORE.SYSTEM>
0

>  <SCORE.SYSTEM.CONST>
0

>  <SCORE.SYSTEM.DIHEDRAL>
0

>  <SCORE.SYSTEM.SOLV>
0

>  <SCORE.SYSTEM.norm>
0

>  <SCORE.heavy>
10

>  <SCORE.norm>
-1.7162

>  <RMSD>
0.556

$$$$
ligand
 OpenBabel11021811493D
libRbt.so/2013.1/901 2013/11/27
 10 11  0  0  0  0  0  0  0  0999 V2000
   11.8955   10.7010    8.3681 N   0  0  0  0  0  0  0  0  0  0  0  0
   11.6080   12.0123    8.6513 C   0  0  0  0  0  0  0  0  0  0  0  0
   11.2450   12.8748    7.6883 N   0  0  0  0  0  0  0  0  0  0  0  0
   11.1968   12.3232    6.4581 C   0  0  0  0  0  0  0  0  0  0  0  0
   11.4734   11.0194    6.1106 C   0  0  0  0  0  0  0  0  0  0  0  0
   11.8537   10.0983    7.1069 C   0  0  0  0  0  0  0  0  0  0  0  0
   12.1373    8.9123    7.0077 O   0  0  0  0  0  0  0  0  0  0  0  0
   11.3022   10.8780    4.7646 N   0  0  0  0  0  0  0  0  0  0  0  0
   10.9265   12.0873    4.2976 C   0  0  0  0  0  0  0  0  0  0  0  0
   10.8548   12.9995    5.3191 N   0  0  0  0  0  0  0  0  0  0  0  0
  1  2  1  0  0  0  0
  1  6  1  0  0  0  0
  2  3  2  0  0  0  0
  3  4  1  0  0  0  0
  4  5  2  0  0  0  0
  4 10  1  0  0  0  0
  5  6  1  0  0  0  0
  5  8  1  0  0  0  0
  6  7  2  0  0  0  0
  8  9  1  0  0  0  0
  9 10  2  0  0  0  0
M  END
>  <CHROM.1>
11.46252809,11.34434095,6.58768675,0.38031289,-1.28516732,1.02648274

>  <Name>
ligand

>  <RI>
0

>  <Rbt.Current_Directory>
/home/itssahil/PROJECTS/Mol_Feturizer/New_Systems/rnas/4FEJ

>  <Rbt.Executable>
rbdock ($Id: //depot/dev/client3/rdock/2013.1/src/exe/rbdock.cxx#4 $)

>  <Rbt.Library>
libRbt.so (2013.1, Build901 2013/11/27)

>  <Rbt.Parameter_File>
/export/apps/rDock/src/rDock_2013.1_src/data/scripts/dock_solv.prm

>  <Rbt.Receptor>
prm/blind_docking_20.prm

>  <SCORE>
-17.1567

>  <SCORE.INTER>
-17.1567

>  <SCORE.INTER.CONST>
1

>  <SCORE.INTER.POLAR>
0

>  <SCORE.INTER.ROT>
0

>  <SCORE.INTER.SOLV>
3.666

>  <SCORE.INTER.VDW>
-16.2598

>  <SCORE.INTER.norm>
-1.71567

>  <SCORE.INTRA>
0

>  <SCORE.INTRA.DIHEDRAL>
0

>  <SCORE.INTRA.DIHEDRAL.0>
0

>  <SCORE.INTRA.POLAR>
0

>  <SCORE.INTRA.POLAR.0>
0

>  <SCORE.INTRA.REPUL>
0

>  <SCORE.INTRA.REPUL.0>
0

>  <SCORE.INTRA.SOLV>
0

>  <SCORE.INTRA.SOLV.lig_0>
-4.26631

>  <SCORE.INTRA.VDW>
0

>  <SCORE.INTRA.VDW.0>
0

>  <SCORE.INTRA.norm>
0

>  <SCORE.RESTR>
0

>  <SCORE.RESTR.CAVITY>
0

>  <SCORE.RESTR.norm>
0

>  <SCORE.SYSTEM>
0

>  <SCORE.SYSTEM.CONST>
0

>  <SCORE.SYSTEM.DIHEDRAL>
0

>  <SCORE.SYSTEM.SOLV>
0

>  <SCORE.SYSTEM.norm>
0

>  <SCORE.heavy>
10

>  <SCORE.norm>
-1.71567

>  <RMSD>
0.557

$$$$
ligand
 OpenBabel11021811493D
libRbt.so/2013.1/901 2013/11/27
 10 11  0  0  0  0  0  0  0  0999 V2000
   11.9225   10.6894    8.3556 N   0  0  0  0  0  0  0  0  0  0  0  0
   11.6263   11.9964    8.6494 C   0  0  0  0  0  0  0  0  0  0  0  0
   11.2517   12.8627    7.6943 N   0  0  0  0  0  0  0  0  0  0  0  0
   11.2014   12.3193    6.4604 C   0  0  0  0  0  0  0  0  0  0  0  0
   11.4863   11.0200    6.1026 C   0  0  0  0  0  0  0  0  0  0  0  0
   11.8789   10.0951    7.0905 C   0  0  0  0  0  0  0  0  0  0  0  0
   12.1711    8.9121    6.9816 O   0  0  0  0  0  0  0  0  0  0  0  0
   11.3092   10.8866    4.7566 N   0  0  0  0  0  0  0  0  0  0  0  0
   10.9217   12.0961    4.2999 C   0  0  0  0  0  0  0  0  0  0  0  0
   10.8482   13.0007    5.3280 N   0  0  0  0  0  0  0  0  0  0  0  0
  1  2  1  0  0  0  0
  1  6  1  0  0  0  0
  2  3  2  0  0  0  0
  3  4  1  0  0  0  0
  4  5  2  0  0  0  0
  4 10  1  0  0  0  0
  5  6  1  0  0  0  0
  5  8  1  0  0  0  0
  6  7  2  0  0  0  0
  8  9  1  0  0  0  0
  9 10  2  0  0  0  0
M  END
>  <CHROM.1>
11.47537060,11.34159593,6.58194777,0.37882695,-1.27585934,1.03194812

>  <Name>
ligand

>  <RI>
0

>  <Rbt.Current_Directory>
/home/itssahil/PROJECTS/Mol_Feturizer/New_Systems/rnas/4FEJ

>  <Rbt.Executable>
rbdock ($Id: //depot/dev/client3/rdock/2013.1/src/exe/rbdock.cxx#4 $)

>  <Rbt.Library>
libRbt.so (2013.1, Build901 2013/11/27)

>  <Rbt.Parameter_File>
/export/apps/rDock/src/rDock_2013.1_src/data/scripts/dock_solv.prm

>  <Rbt.Receptor>
prm/blind_docking_20.prm

>  <SCORE>
-17.1478

>  <SCORE.INTER>
-17.1478

>  <SCORE.INTER.CONST>
1

>  <SCORE.INTER.POLAR>
0

>  <SCORE.INTER.ROT>
0

>  <SCORE.INTER.SOLV>
3.63268

>  <SCORE.INTER.VDW>
-16.2427

>  <SCORE.INTER.norm>
-1.71478

>  <SCORE.INTRA>
0

>  <SCORE.INTRA.DIHEDRAL>
0

>  <SCORE.INTRA.DIHEDRAL.0>
0

>  <SCORE.INTRA.POLAR>
0

>  <SCORE.INTRA.POLAR.0>
0

>  <SCORE.INTRA.REPUL>
0

>  <SCORE.INTRA.REPUL.0>
0

>  <SCORE.INTRA.SOLV>
0

>  <SCORE.INTRA.SOLV.lig_0>
-4.26631

>  <SCORE.INTRA.VDW>
0

>  <SCORE.INTRA.VDW.0>
0

>  <SCORE.INTRA.norm>
0

>  <SCORE.RESTR>
0

>  <SCORE.RESTR.CAVITY>
0

>  <SCORE.RESTR.norm>
0

>  <SCORE.SYSTEM>
0

>  <SCORE.SYSTEM.CONST>
0

>  <SCORE.SYSTEM.DIHEDRAL>
0

>  <SCORE.SYSTEM.SOLV>
0

>  <SCORE.SYSTEM.norm>
0

>  <SCORE.heavy>
10

>  <SCORE.norm>
-1.71478

>  <RMSD>
0.559

$$$$
ligand
 OpenBabel11021811493D
libRbt.so/2013.1/901 2013/11/27
 10 11  0  0  0  0  0  0  0  0999 V2000
   11.9231   10.6955    8.3487 N   0  0  0  0  0  0  0  0  0  0  0  0
   11.6161   11.9995    8.6448 C   0  0  0  0  0  0  0  0  0  0  0  0
   11.2334   12.8641    7.6913 N   0  0  0  0  0  0  0  0  0  0  0  0
   11.1866   12.3221    6.4567 C   0  0  0  0  0  0  0  0  0  0  0  0
   11.4822   11.0259    6.0965 C   0  0  0  0  0  0  0  0  0  0  0  0
   11.8834   10.1028    7.0827 C   0  0  0  0  0  0  0  0  0  0  0  0
   12.1856    8.9225    6.9718 O   0  0  0  0  0  0  0  0  0  0  0  0
   11.3052   10.8930    4.7505 N   0  0  0  0  0  0  0  0  0  0  0  0
   10.9070   12.0999    4.2960 C   0  0  0  0  0  0  0  0  0  0  0  0
   10.8267   13.0022    5.3255 N   0  0  0  0  0  0  0  0  0  0  0  0
  1  2  1  0  0  0  0
  1  6  1  0  0  0  0
  2  3  2  0  0  0  0
  3  4  1  0  0  0  0
  4  5  2  0  0  0  0
  4 10  1  0  0  0  0
  5  6  1  0  0  0  0
  5  8  1  0  0  0  0
  6  7  2  0  0  0  0
  8  9  1  0  0  0  0
  9 10  2  0  0  0  0
M  END
>  <CHROM.1>
11.46895624,11.34660770,6.57641166,0.39105888,-1.26813758,1.04519185

>  <Name>
ligand

>  <RI>
0

>  <Rbt.Current_Directory>
/home/itssahil/PROJECTS/Mol_Feturizer/New_Systems/rnas/4FEJ

>  <Rbt.Executable>
rbdock ($Id: //depot/dev/client3/rdock/2013.1/src/exe/rbdock.cxx#4 $)

>  <Rbt.Library>
libRbt.so (2013.1, Build901 2013/11/27)

>  <Rbt.Parameter_File>
/export/apps/rDock/src/rDock_2013.1_src/data/scripts/dock_solv.prm

>  <Rbt.Receptor>
prm/blind_docking_20.prm

>  <SCORE>
-17.1395

>  <SCORE.INTER>
-17.1395

>  <SCORE.INTER.CONST>
1

>  <SCORE.INTER.POLAR>
0

>  <SCORE.INTER.ROT>
0

>  <SCORE.INTER.SOLV>
3.61075

>  <SCORE.INTER.VDW>
-16.2299

>  <SCORE.INTER.norm>
-1.71395

>  <SCORE.INTRA>
0

>  <SCORE.INTRA.DIHEDRAL>
0

>  <SCORE.INTRA.DIHEDRAL.0>
0

>  <SCORE.INTRA.POLAR>
0

>  <SCORE.INTRA.POLAR.0>
0

>  <SCORE.INTRA.REPUL>
0

>  <SCORE.INTRA.REPUL.0>
0

>  <SCORE.INTRA.SOLV>
0

>  <SCORE.INTRA.SOLV.lig_0>
-4.26631

>  <SCORE.INTRA.VDW>
0

>  <SCORE.INTRA.VDW.0>
0

>  <SCORE.INTRA.norm>
0

>  <SCORE.RESTR>
0

>  <SCORE.RESTR.CAVITY>
0

>  <SCORE.RESTR.norm>
0

>  <SCORE.SYSTEM>
0

>  <SCORE.SYSTEM.CONST>
0

>  <SCORE.SYSTEM.DIHEDRAL>
0

>  <SCORE.SYSTEM.SOLV>
0

>  <SCORE.SYSTEM.norm>
0

>  <SCORE.heavy>
10

>  <SCORE.norm>
-1.71395

>  <RMSD>
0.561

$$$$
ligand
 OpenBabel11021811493D
libRbt.so/2013.1/901 2013/11/27
 10 11  0  0  0  0  0  0  0  0999 V2000
   11.9262   10.6932    8.3473 N   0  0  0  0  0  0  0  0  0  0  0  0
   11.6233   11.9974    8.6472 C   0  0  0  0  0  0  0  0  0  0  0  0
   11.2460   12.8667    7.6958 N   0  0  0  0  0  0  0  0  0  0  0  0
   11.2001   12.3292    6.4592 C   0  0  0  0  0  0  0  0  0  0  0  0
   11.4917   11.0331    6.0953 C   0  0  0  0  0  0  0  0  0  0  0  0
   11.8872   10.1051    7.0791 C   0  0  0  0  0  0  0  0  0  0  0  0
   12.1853    8.9241    6.9647 O   0  0  0  0  0  0  0  0  0  0  0  0
   11.3173   10.9057    4.7483 N   0  0  0  0  0  0  0  0  0  0  0  0
   10.9247   12.1155    4.2971 C   0  0  0  0  0  0  0  0  0  0  0  0
   10.8454   13.0146    5.3297 N   0  0  0  0  0  0  0  0  0  0  0  0
  1  2  1  0  0  0  0
  1  6  1  0  0  0  0
  2  3  2  0  0  0  0
  3  4  1  0  0  0  0
  4  5  2  0  0  0  0
  4 10  1  0  0  0  0
  5  6  1  0  0  0  0
  5  8  1  0  0  0  0
  6  7  2  0  0  0  0
  8  9  1  0  0  0  0
  9 10  2  0  0  0  0
M  END
>  <CHROM.1>
11.47855917,11.35222924,6.57622931,0.39154307,-1.27249559,1.04914966

>  <Name>
ligand

>  <RI>
0

>  <Rbt.Current_Directory>
/home/itssahil/PROJECTS/Mol_Feturizer/New_Systems/rnas/4FEJ

>  <Rbt.Executable>
rbdock ($Id: //depot/dev/client3/rdock/2013.1/src/exe/rbdock.cxx#4 $)

>  <Rbt.Library>
libRbt.so (2013.1, Build901 2013/11/27)

>  <Rbt.Parameter_File>
/export/apps/rDock/src/rDock_2013.1_src/data/scripts/dock_solv.prm

>  <Rbt.Receptor>
prm/blind_docking_20.prm

>  <SCORE>
-17.1211

>  <SCORE.INTER>
-17.1211

>  <SCORE.INTER.CONST>
1

>  <SCORE.INTER.POLAR>
0

>  <SCORE.INTER.ROT>
0

>  <SCORE.INTER.SOLV>
3.61771

>  <SCORE.INTER.VDW>
-16.22

>  <SCORE.INTER.norm>
-1.71211

>  <SCORE.INTRA>
0

>  <SCORE.INTRA.DIHEDRAL>
0

>  <SCORE.INTRA.DIHEDRAL.0>
0

>  <SCORE.INTRA.POLAR>
0

>  <SCORE.INTRA.POLAR.0>
0

>  <SCORE.INTRA.REPUL>
0

>  <SCORE.INTRA.REPUL.0>
0

>  <SCORE.INTRA.SOLV>
0

>  <SCORE.INTRA.SOLV.lig_0>
-4.26631

>  <SCORE.INTRA.VDW>
0

>  <SCORE.INTRA.VDW.0>
0

>  <SCORE.INTRA.norm>
0

>  <SCORE.RESTR>
0

>  <SCORE.RESTR.CAVITY>
0

>  <SCORE.RESTR.norm>
0

>  <SCORE.SYSTEM>
0

>  <SCORE.SYSTEM.CONST>
0

>  <SCORE.SYSTEM.DIHEDRAL>
0

>  <SCORE.SYSTEM.SOLV>
0

>  <SCORE.SYSTEM.norm>
0

>  <SCORE.heavy>
10

>  <SCORE.norm>
-1.71211

>  <RMSD>
0.561

$$$$
ligand
 OpenBabel11021811493D
libRbt.so/2013.1/901 2013/11/27
 10 11  0  0  0  0  0  0  0  0999 V2000
   11.8651   10.7314    8.3401 N   0  0  0  0  0  0  0  0  0  0  0  0
   11.5837   12.0404    8.6398 C   0  0  0  0  0  0  0  0  0  0  0  0
   11.2475   12.9222    7.6845 N   0  0  0  0  0  0  0  0  0  0  0  0
   11.2187   12.3917    6.4444 C   0  0  0  0  0  0  0  0  0  0  0  0
   11.4906   11.0914    6.0804 C   0  0  0  0  0  0  0  0  0  0  0  0
   11.8430   10.1503    7.0683 C   0  0  0  0  0  0  0  0  0  0  0  0
   12.1180    8.9637    6.9546 O   0  0  0  0  0  0  0  0  0  0  0  0
   11.3448   10.9742    4.7292 N   0  0  0  0  0  0  0  0  0  0  0  0
   10.9891   12.1945    4.2754 C   0  0  0  0  0  0  0  0  0  0  0  0
   10.9053   13.0901    5.3105 N   0  0  0  0  0  0  0  0  0  0  0  0
  1  2  1  0  0  0  0
  1  6  1  0  0  0  0
  2  3  2  0  0  0  0
  3  4  1  0  0  0  0
  4  5  2  0  0  0  0
  4 10  1  0  0  0  0
  5  6  1  0  0  0  0
  5  8  1  0  0  0  0
  6  7  2  0  0  0  0
  8  9  1  0  0  0  0
  9 10  2  0  0  0  0
M  END
>  <CHROM.1>
11.47319219,11.40842535,6.56263776,0.42689697,-1.30270856,1.08811667

>  <Name>
ligand

>  <RI>
0

>  <Rbt.Current_Directory>
/home/itssahil/PROJECTS/Mol_Feturizer/New_Systems/rnas/4FEJ

>  <Rbt.Executable>
rbdock ($Id: //depot/dev/client3/rdock/2013.1/src/exe/rbdock.cxx#4 $)

>  <Rbt.Library>
libRbt.so (2013.1, Build901 2013/11/27)

>  <Rbt.Parameter_File>
/export/apps/rDock/src/rDock_2013.1_src/data/scripts/dock_solv.prm

>  <Rbt.Receptor>
prm/blind_docking_20.prm

>  <SCORE>
-17.1462

>  <SCORE.INTER>
-17.1462

>  <SCORE.INTER.CONST>
1

>  <SCORE.INTER.POLAR>
0

>  <SCORE.INTER.ROT>
0

>  <SCORE.INTER.SOLV>
3.71718

>  <SCORE.INTER.VDW>
-16.2699

>  <SCORE.INTER.norm>
-1.71462

>  <SCORE.INTRA>
0

>  <SCORE.INTRA.DIHEDRAL>
0

>  <SCORE.INTRA.DIHEDRAL.0>
0

>  <SCORE.INTRA.POLAR>
0

>  <SCORE.INTRA.POLAR.0>
0

>  <SCORE.INTRA.REPUL>
0

>  <SCORE.INTRA.REPUL.0>
0

>  <SCORE.INTRA.SOLV>
0

>  <SCORE.INTRA.SOLV.lig_0>
-4.26631

>  <SCORE.INTRA.VDW>
0

>  <SCORE.INTRA.VDW.0>
0

>  <SCORE.INTRA.norm>
0

>  <SCORE.RESTR>
0

>  <SCORE.RESTR.CAVITY>
0

>  <SCORE.RESTR.norm>
0

>  <SCORE.SYSTEM>
0

>  <SCORE.SYSTEM.CONST>
0

>  <SCORE.SYSTEM.DIHEDRAL>
0

>  <SCORE.SYSTEM.SOLV>
0

>  <SCORE.SYSTEM.norm>
0

>  <SCORE.heavy>
10

>  <SCORE.norm>
-1.71462

>  <RMSD>
0.579

$$$$
ligand
 OpenBabel11021811493D
libRbt.so/2013.1/901 2013/11/27
 10 11  0  0  0  0  0  0  0  0999 V2000
   11.9679   10.7043    8.2943 N   0  0  0  0  0  0  0  0  0  0  0  0
   11.6953   12.0139    8.5995 C   0  0  0  0  0  0  0  0  0  0  0  0
   11.3166   12.8902    7.6552 N   0  0  0  0  0  0  0  0  0  0  0  0
   11.2373   12.3538    6.4198 C   0  0  0  0  0  0  0  0  0  0  0  0
   11.4977   11.0526    6.0507 C   0  0  0  0  0  0  0  0  0  0  0  0
   11.8942   10.1172    7.0272 C   0  0  0  0  0  0  0  0  0  0  0  0
   12.1678    8.9308    6.9075 O   0  0  0  0  0  0  0  0  0  0  0  0
   11.2957   10.9285    4.7073 N   0  0  0  0  0  0  0  0  0  0  0  0
   10.9174   12.1456    4.2633 C   0  0  0  0  0  0  0  0  0  0  0  0
   10.8744   13.0459    5.2969 N   0  0  0  0  0  0  0  0  0  0  0  0
  1  2  1  0  0  0  0
  1  6  1  0  0  0  0
  2  3  2  0  0  0  0
  3  4  1  0  0  0  0
  4  5  2  0  0  0  0
  4 10  1  0  0  0  0
  5  6  1  0  0  0  0
  5  8  1  0  0  0  0
  6  7  2  0  0  0  0
  8  9  1  0  0  0  0
  9 10  2  0  0  0  0
M  END
>  <CHROM.1>
11.49958915,11.37182007,6.53177484,0.30246478,-1.27831540,0.96385520

>  <Name>
ligand

>  <RI>
0

>  <Rbt.Current_Directory>
/home/itssahil/PROJECTS/Mol_Feturizer/New_Systems/rnas/4FEJ

>  <Rbt.Executable>
rbdock ($Id: //depot/dev/client3/rdock/2013.1/src/exe/rbdock.cxx#4 $)

>  <Rbt.Library>
libRbt.so (2013.1, Build901 2013/11/27)

>  <Rbt.Parameter_File>
/export/apps/rDock/src/rDock_2013.1_src/data/scripts/dock_solv.prm

>  <Rbt.Receptor>
prm/blind_docking_20.prm

>  <SCORE>
-17.1168

>  <SCORE.INTER>
-17.1168

>  <SCORE.INTER.CONST>
1

>  <SCORE.INTER.POLAR>
0

>  <SCORE.INTER.ROT>
0

>  <SCORE.INTER.SOLV>
3.66084

>  <SCORE.INTER.VDW>
-16.2315

>  <SCORE.INTER.norm>
-1.71168

>  <SCORE.INTRA>
0

>  <SCORE.INTRA.DIHEDRAL>
0

>  <SCORE.INTRA.DIHEDRAL.0>
0

>  <SCORE.INTRA.POLAR>
0

>  <SCORE.INTRA.POLAR.0>
0

>  <SCORE.INTRA.REPUL>
0

>  <SCORE.INTRA.REPUL.0>
0

>  <SCORE.INTRA.SOLV>
0

>  <SCORE.INTRA.SOLV.lig_0>
-4.26631

>  <SCORE.INTRA.VDW>
0

>  <SCORE.INTRA.VDW.0>
0

>  <SCORE.INTRA.norm>
0

>  <SCORE.RESTR>
0

>  <SCORE.RESTR.CAVITY>
0

>  <SCORE.RESTR.norm>
0

>  <SCORE.SYSTEM>
0

>  <SCORE.SYSTEM.CONST>
0

>  <SCORE.SYSTEM.DIHEDRAL>
0

>  <SCORE.SYSTEM.SOLV>
0

>  <SCORE.SYSTEM.norm>
0

>  <SCORE.heavy>
10

>  <SCORE.norm>
-1.71168

>  <RMSD>
0.597

$$$$
ligand
 OpenBabel11021811493D
libRbt.so/2013.1/901 2013/11/27
 10 11  0  0  0  0  0  0  0  0999 V2000
   11.9059   10.7041    8.2983 N   0  0  0  0  0  0  0  0  0  0  0  0
   11.6287   12.0137    8.5992 C   0  0  0  0  0  0  0  0  0  0  0  0
   11.2685   12.8909    7.6485 N   0  0  0  0  0  0  0  0  0  0  0  0
   11.2119   12.3553    6.4115 C   0  0  0  0  0  0  0  0  0  0  0  0
   11.4780   11.0541    6.0466 C   0  0  0  0  0  0  0  0  0  0  0  0
   11.8554   10.1178    7.0297 C   0  0  0  0  0  0  0  0  0  0  0  0
   12.1302    8.9312    6.9144 O   0  0  0  0  0  0  0  0  0  0  0  0
   11.3010   10.9310    4.6996 N   0  0  0  0  0  0  0  0  0  0  0  0
   10.9322   12.1487    4.2493 C   0  0  0  0  0  0  0  0  0  0  0  0
   10.8706   13.0484    5.2825 N   0  0  0  0  0  0  0  0  0  0  0  0
  1  2  1  0  0  0  0
  1  6  1  0  0  0  0
  2  3  2  0  0  0  0
  3  4  1  0  0  0  0
  4  5  2  0  0  0  0
  4 10  1  0  0  0  0
  5  6  1  0  0  0  0
  5  8  1  0  0  0  0
  6  7  2  0  0  0  0
  8  9  1  0  0  0  0
  9 10  2  0  0  0  0
M  END
>  <CHROM.1>
11.47118257,11.37304581,6.52776390,0.35606084,-1.28929665,1.01586962

>  <Name>
ligand

>  <RI>
0

>  <Rbt.Current_Directory>
/home/itssahil/PROJECTS/Mol_Feturizer/New_Systems/rnas/4FEJ

>  <Rbt.Executable>
rbdock ($Id: //depot/dev/client3/rdock/2013.1/src/exe/rbdock.cxx#4 $)

>  <Rbt.Library>
libRbt.so (2013.1, Build901 2013/11/27)

>  <Rbt.Parameter_File>
/export/apps/rDock/src/rDock_2013.1_src/data/scripts/dock_solv.prm

>  <Rbt.Receptor>
prm/blind_docking_20.prm

>  <SCORE>
-17.1308

>  <SCORE.INTER>
-17.1308

>  <SCORE.INTER.CONST>
1

>  <SCORE.INTER.POLAR>
0

>  <SCORE.INTER.ROT>
0

>  <SCORE.INTER.SOLV>
3.71497

>  <SCORE.INTER.VDW>
-16.2588

>  <SCORE.INTER.norm>
-1.71308

>  <SCORE.INTRA>
0

>  <SCORE.INTRA.DIHEDRAL>
0

>  <SCORE.INTRA.DIHEDRAL.0>
0

>  <SCORE.INTRA.POLAR>
0

>  <SCORE.INTRA.POLAR.0>
0

>  <SCORE.INTRA.REPUL>
0

>  <SCORE.INTRA.REPUL.0>
0

>  <SCORE.INTRA.SOLV>
0

>  <SCORE.INTRA.SOLV.lig_0>
-4.26631

>  <SCORE.INTRA.VDW>
0

>  <SCORE.INTRA.VDW.0>
0

>  <SCORE.INTRA.norm>
0

>  <SCORE.RESTR>
0

>  <SCORE.RESTR.CAVITY>
0

>  <SCORE.RESTR.norm>
0

>  <SCORE.SYSTEM>
0

>  <SCORE.SYSTEM.CONST>
0

>  <SCORE.SYSTEM.DIHEDRAL>
0

>  <SCORE.SYSTEM.SOLV>
0

>  <SCORE.SYSTEM.norm>
0

>  <SCORE.heavy>
10

>  <SCORE.norm>
-1.71308

>  <RMSD>
0.608

$$$$
ligand
 OpenBabel11021811493D
libRbt.so/2013.1/901 2013/11/27
 10 11  0  0  0  0  0  0  0  0999 V2000
   11.9585   10.7067    8.2703 N   0  0  0  0  0  0  0  0  0  0  0  0
   11.6754   12.0127    8.5811 C   0  0  0  0  0  0  0  0  0  0  0  0
   11.2929   12.8909    7.6401 N   0  0  0  0  0  0  0  0  0  0  0  0
   11.2211   12.3600    6.4018 C   0  0  0  0  0  0  0  0  0  0  0  0
   11.4920   11.0625    6.0272 C   0  0  0  0  0  0  0  0  0  0  0  0
   11.8926   10.1252    7.0002 C   0  0  0  0  0  0  0  0  0  0  0  0
   12.1754    8.9415    6.8755 O   0  0  0  0  0  0  0  0  0  0  0  0
   11.2947   10.9435    4.6826 N   0  0  0  0  0  0  0  0  0  0  0  0
   10.9087   12.1600    4.2435 C   0  0  0  0  0  0  0  0  0  0  0  0
   10.8562   13.0548    5.2813 N   0  0  0  0  0  0  0  0  0  0  0  0
  1  2  1  0  0  0  0
  1  6  1  0  0  0  0
  2  3  2  0  0  0  0
  3  4  1  0  0  0  0
  4  5  2  0  0  0  0
  4 10  1  0  0  0  0
  5  6  1  0  0  0  0
  5  8  1  0  0  0  0
  6  7  2  0  0  0  0
  8  9  1  0  0  0  0
  9 10  2  0  0  0  0
M  END
>  <CHROM.1>
11.49021946,11.37936208,6.50978125,0.32467429,-1.27379847,0.98999337

>  <Name>
ligand

>  <RI>
0

>  <Rbt.Current_Directory>
/home/itssahil/PROJECTS/Mol_Feturizer/New_Systems/rnas/4FEJ

>  <Rbt.Executable>
rbdock ($Id: //depot/dev/client3/rdock/2013.1/src/exe/rbdock.cxx#4 $)

>  <Rbt.Library>
libRbt.so (2013.1, Build901 2013/11/27)

>  <Rbt.Parameter_File>
/export/apps/rDock/src/rDock_2013.1_src/data/scripts/dock_solv.prm

>  <Rbt.Receptor>
prm/blind_docking_20.prm

>  <SCORE>
-17.1336

>  <SCORE.INTER>
-17.1336

>  <SCORE.INTER.CONST>
1

>  <SCORE.INTER.POLAR>
0

>  <SCORE.INTER.ROT>
0

>  <SCORE.INTER.SOLV>
3.66066

>  <SCORE.INTER.VDW>
-16.2426

>  <SCORE.INTER.norm>
-1.71336

>  <SCORE.INTRA>
0

>  <SCORE.INTRA.DIHEDRAL>
0

>  <SCORE.INTRA.DIHEDRAL.0>
0

>  <SCORE.INTRA.POLAR>
0

>  <SCORE.INTRA.POLAR.0>
0

>  <SCORE.INTRA.REPUL>
0

>  <SCORE.INTRA.REPUL.0>
0

>  <SCORE.INTRA.SOLV>
0

>  <SCORE.INTRA.SOLV.lig_0>
-4.26631

>  <SCORE.INTRA.VDW>
0

>  <SCORE.INTRA.VDW.0>
0

>  <SCORE.INTRA.norm>
0

>  <SCORE.RESTR>
0

>  <SCORE.RESTR.CAVITY>
0

>  <SCORE.RESTR.norm>
0

>  <SCORE.SYSTEM>
0

>  <SCORE.SYSTEM.CONST>
0

>  <SCORE.SYSTEM.DIHEDRAL>
0

>  <SCORE.SYSTEM.SOLV>
0

>  <SCORE.SYSTEM.norm>
0

>  <SCORE.heavy>
10

>  <SCORE.norm>
-1.71336

>  <RMSD>
0.616

$$$$
ligand
 OpenBabel11021811493D
libRbt.so/2013.1/901 2013/11/27
 10 11  0  0  0  0  0  0  0  0999 V2000
   12.0664   10.6778    8.2190 N   0  0  0  0  0  0  0  0  0  0  0  0
   11.8105   11.9873    8.5388 C   0  0  0  0  0  0  0  0  0  0  0  0
   11.4078   12.8704    7.6109 N   0  0  0  0  0  0  0  0  0  0  0  0
   11.2877   12.3407    6.3759 C   0  0  0  0  0  0  0  0  0  0  0  0
   11.5295   11.0399    5.9926 C   0  0  0  0  0  0  0  0  0  0  0  0
   11.9505   10.0975    6.9519 C   0  0  0  0  0  0  0  0  0  0  0  0
   12.2139    8.9103    6.8181 O   0  0  0  0  0  0  0  0  0  0  0  0
   11.2856   10.9238    4.6555 N   0  0  0  0  0  0  0  0  0  0  0  0
   10.9006   12.1451    4.2293 C   0  0  0  0  0  0  0  0  0  0  0  0
   10.8943   13.0404    5.2681 N   0  0  0  0  0  0  0  0  0  0  0  0
  1  2  1  0  0  0  0
  1  6  1  0  0  0  0
  2  3  2  0  0  0  0
  3  4  1  0  0  0  0
  4  5  2  0  0  0  0
  4 10  1  0  0  0  0
  5  6  1  0  0  0  0
  5  8  1  0  0  0  0
  6  7  2  0  0  0  0
  8  9  1  0  0  0  0
  9 10  2  0  0  0  0
M  END
>  <CHROM.1>
11.54786325,11.35671788,6.47496346,0.20841255,-1.26406299,0.87895671

>  <Name>
ligand

>  <RI>
0

>  <Rbt.Current_Directory>
/home/itssahil/PROJECTS/Mol_Feturizer/New_Systems/rnas/4FEJ

>  <Rbt.Executable>
rbdock ($Id: //depot/dev/client3/rdock/2013.1/src/exe/rbdock.cxx#4 $)

>  <Rbt.Library>
libRbt.so (2013.1, Build901 2013/11/27)

>  <Rbt.Parameter_File>
/export/apps/rDock/src/rDock_2013.1_src/data/scripts/dock_solv.prm

>  <Rbt.Receptor>
prm/blind_docking_20.prm

>  <SCORE>
-17.1306

>  <SCORE.INTER>
-17.1306

>  <SCORE.INTER.CONST>
1

>  <SCORE.INTER.POLAR>
0

>  <SCORE.INTER.ROT>
0

>  <SCORE.INTER.SOLV>
3.64754

>  <SCORE.INTER.VDW>
-16.2362

>  <SCORE.INTER.norm>
-1.71306

>  <SCORE.INTRA>
0

>  <SCORE.INTRA.DIHEDRAL>
0

>  <SCORE.INTRA.DIHEDRAL.0>
0

>  <SCORE.INTRA.POLAR>
0

>  <SCORE.INTRA.POLAR.0>
0

>  <SCORE.INTRA.REPUL>
0

>  <SCORE.INTRA.REPUL.0>
0

>  <SCORE.INTRA.SOLV>
0

>  <SCORE.INTRA.SOLV.lig_0>
-4.26631

>  <SCORE.INTRA.VDW>
0

>  <SCORE.INTRA.VDW.0>
0

>  <SCORE.INTRA.norm>
0

>  <SCORE.RESTR>
0

>  <SCORE.RESTR.CAVITY>
0

>  <SCORE.RESTR.norm>
0

>  <SCORE.SYSTEM>
0

>  <SCORE.SYSTEM.CONST>
0

>  <SCORE.SYSTEM.DIHEDRAL>
0

>  <SCORE.SYSTEM.SOLV>
0

>  <SCORE.SYSTEM.norm>
0

>  <SCORE.heavy>
10

>  <SCORE.norm>
-1.71306

>  <RMSD>
0.647

$$$$
ligand
 OpenBabel11021811493D
libRbt.so/2013.1/901 2013/11/27
 10 11  0  0  0  0  0  0  0  0999 V2000
   12.0688   10.6847    8.2139 N   0  0  0  0  0  0  0  0  0  0  0  0
   11.8005   11.9918    8.5329 C   0  0  0  0  0  0  0  0  0  0  0  0
   11.3958   12.8721    7.6032 N   0  0  0  0  0  0  0  0  0  0  0  0
   11.2870   12.3421    6.3673 C   0  0  0  0  0  0  0  0  0  0  0  0
   11.5414   11.0436    5.9848 C   0  0  0  0  0  0  0  0  0  0  0  0
   11.9648   10.1041    6.9459 C   0  0  0  0  0  0  0  0  0  0  0  0
   12.2385    8.9192    6.8130 O   0  0  0  0  0  0  0  0  0  0  0  0
   11.3060   10.9262    4.6462 N   0  0  0  0  0  0  0  0  0  0  0  0
   10.9135   12.1446    4.2185 C   0  0  0  0  0  0  0  0  0  0  0  0
   10.8941   13.0392    5.2577 N   0  0  0  0  0  0  0  0  0  0  0  0
  1  2  1  0  0  0  0
  1  6  1  0  0  0  0
  2  3  2  0  0  0  0
  3  4  1  0  0  0  0
  4  5  2  0  0  0  0
  4 10  1  0  0  0  0
  5  6  1  0  0  0  0
  5  8  1  0  0  0  0
  6  7  2  0  0  0  0
  8  9  1  0  0  0  0
  9 10  2  0  0  0  0
M  END
>  <CHROM.1>
11.55456077,11.36027402,6.46735994,0.23964262,-1.26121845,0.90924161

>  <Name>
ligand

>  <RI>
0

>  <Rbt.Current_Directory>
/home/itssahil/PROJECTS/Mol_Feturizer/New_Systems/rnas/4FEJ

>  <Rbt.Executable>
rbdock ($Id: //depot/dev/client3/rdock/2013.1/src/exe/rbdock.cxx#4 $)

>  <Rbt.Library>
libRbt.so (2013.1, Build901 2013/11/27)

>  <Rbt.Parameter_File>
/export/apps/rDock/src/rDock_2013.1_src/data/scripts/dock_solv.prm

>  <Rbt.Receptor>
prm/blind_docking_20.prm

>  <SCORE>
-17.1228

>  <SCORE.INTER>
-17.1228

>  <SCORE.INTER.CONST>
1

>  <SCORE.INTER.POLAR>
0

>  <SCORE.INTER.ROT>
0

>  <SCORE.INTER.SOLV>
3.61842

>  <SCORE.INTER.VDW>
-16.2213

>  <SCORE.INTER.norm>
-1.71228

>  <SCORE.INTRA>
0

>  <SCORE.INTRA.DIHEDRAL>
0

>  <SCORE.INTRA.DIHEDRAL.0>
0

>  <SCORE.INTRA.POLAR>
0

>  <SCORE.INTRA.POLAR.0>
0

>  <SCORE.INTRA.REPUL>
0

>  <SCORE.INTRA.REPUL.0>
0

>  <SCORE.INTRA.SOLV>
0

>  <SCORE.INTRA.SOLV.lig_0>
-4.26631

>  <SCORE.INTRA.VDW>
0

>  <SCORE.INTRA.VDW.0>
0

>  <SCORE.INTRA.norm>
0

>  <SCORE.RESTR>
0

>  <SCORE.RESTR.CAVITY>
0

>  <SCORE.RESTR.norm>
0

>  <SCORE.SYSTEM>
0

>  <SCORE.SYSTEM.CONST>
0

>  <SCORE.SYSTEM.DIHEDRAL>
0

>  <SCORE.SYSTEM.SOLV>
0

>  <SCORE.SYSTEM.norm>
0

>  <SCORE.heavy>
10

>  <SCORE.norm>
-1.71228

>  <RMSD>
0.650

$$$$
ligand
 OpenBabel11021811493D
libRbt.so/2013.1/901 2013/11/27
 10 11  0  0  0  0  0  0  0  0999 V2000
   12.0232   10.6393    8.1695 N   0  0  0  0  0  0  0  0  0  0  0  0
   11.7853   11.9545    8.4793 C   0  0  0  0  0  0  0  0  0  0  0  0
   11.4036   12.8380    7.5429 N   0  0  0  0  0  0  0  0  0  0  0  0
   11.2847   12.3025    6.3103 C   0  0  0  0  0  0  0  0  0  0  0  0
   11.5091   10.9958    5.9369 C   0  0  0  0  0  0  0  0  0  0  0  0
   11.9080   10.0529    6.9051 C   0  0  0  0  0  0  0  0  0  0  0  0
   12.1538    8.8609    6.7806 O   0  0  0  0  0  0  0  0  0  0  0  0
   11.2737   10.8751    4.5986 N   0  0  0  0  0  0  0  0  0  0  0  0
   10.9111   12.0996    4.1620 C   0  0  0  0  0  0  0  0  0  0  0  0
   10.9108   13.0013    5.1952 N   0  0  0  0  0  0  0  0  0  0  0  0
  1  2  1  0  0  0  0
  1  6  1  0  0  0  0
  2  3  2  0  0  0  0
  3  4  1  0  0  0  0
  4  5  2  0  0  0  0
  4 10  1  0  0  0  0
  5  6  1  0  0  0  0
  5  8  1  0  0  0  0
  6  7  2  0  0  0  0
  8  9  1  0  0  0  0
  9 10  2  0  0  0  0
M  END
>  <CHROM.1>
11.52870038,11.31525450,6.41738245,0.19425769,-1.28093860,0.85925203

>  <Name>
ligand

>  <RI>
0

>  <Rbt.Current_Directory>
/home/itssahil/PROJECTS/Mol_Feturizer/New_Systems/rnas/4FEJ

>  <Rbt.Executable>
rbdock ($Id: //depot/dev/client3/rdock/2013.1/src/exe/rbdock.cxx#4 $)

>  <Rbt.Library>
libRbt.so (2013.1, Build901 2013/11/27)

>  <Rbt.Parameter_File>
/export/apps/rDock/src/rDock_2013.1_src/data/scripts/dock_solv.prm

>  <Rbt.Receptor>
prm/blind_docking_20.prm

>  <SCORE>
-17.1666

>  <SCORE.INTER>
-17.1666

>  <SCORE.INTER.CONST>
1

>  <SCORE.INTER.POLAR>
0

>  <SCORE.INTER.ROT>
0

>  <SCORE.INTER.SOLV>
3.76974

>  <SCORE.INTER.VDW>
-16.301

>  <SCORE.INTER.norm>
-1.71666

>  <SCORE.INTRA>
0

>  <SCORE.INTRA.DIHEDRAL>
0

>  <SCORE.INTRA.DIHEDRAL.0>
0

>  <SCORE.INTRA.POLAR>
0

>  <SCORE.INTRA.POLAR.0>
0

>  <SCORE.INTRA.REPUL>
0

>  <SCORE.INTRA.REPUL.0>
0

>  <SCORE.INTRA.SOLV>
0

>  <SCORE.INTRA.SOLV.lig_0>
-4.26631

>  <SCORE.INTRA.VDW>
0

>  <SCORE.INTRA.VDW.0>
0

>  <SCORE.INTRA.norm>
0

>  <SCORE.RESTR>
0

>  <SCORE.RESTR.CAVITY>
0

>  <SCORE.RESTR.norm>
0

>  <SCORE.SYSTEM>
0

>  <SCORE.SYSTEM.CONST>
0

>  <SCORE.SYSTEM.DIHEDRAL>
0

>  <SCORE.SYSTEM.SOLV>
0

>  <SCORE.SYSTEM.norm>
0

>  <SCORE.heavy>
10

>  <SCORE.norm>
-1.71666

>  <RMSD>
0.713

$$$$
ligand
 OpenBabel11021811493D
libRbt.so/2013.1/901 2013/11/27
 10 11  0  0  0  0  0  0  0  0999 V2000
   12.0163   10.6180    8.1620 N   0  0  0  0  0  0  0  0  0  0  0  0
   11.7513   11.9234    8.4907 C   0  0  0  0  0  0  0  0  0  0  0  0
   11.3623   12.8149    7.5649 N   0  0  0  0  0  0  0  0  0  0  0  0
   11.2652   12.2976    6.3227 C   0  0  0  0  0  0  0  0  0  0  0  0
   11.5172   11.0015    5.9305 C   0  0  0  0  0  0  0  0  0  0  0  0
   11.9241   10.0503    6.8872 C   0  0  0  0  0  0  0  0  0  0  0  0
   12.1930    8.8653    6.7459 O   0  0  0  0  0  0  0  0  0  0  0  0
   11.2969   10.8984    4.5882 N   0  0  0  0  0  0  0  0  0  0  0  0
   10.9161   12.1231    4.1678 C   0  0  0  0  0  0  0  0  0  0  0  0
   10.8892   13.0076    5.2154 N   0  0  0  0  0  0  0  0  0  0  0  0
  1  2  1  0  0  0  0
  1  6  1  0  0  0  0
  2  3  2  0  0  0  0
  3  4  1  0  0  0  0
  4  5  2  0  0  0  0
  4 10  1  0  0  0  0
  5  6  1  0  0  0  0
  5  8  1  0  0  0  0
  6  7  2  0  0  0  0
  8  9  1  0  0  0  0
  9 10  2  0  0  0  0
M  END
>  <CHROM.1>
11.52632320,11.31334817,6.41624202,0.26004340,-1.27265832,0.93848241

>  <Name>
ligand

>  <RI>
0

>  <Rbt.Current_Directory>
/home/itssahil/PROJECTS/Mol_Feturizer/New_Systems/rnas/4FEJ

>  <Rbt.Executable>
rbdock ($Id: //depot/dev/client3/rdock/2013.1/src/exe/rbdock.cxx#4 $)

>  <Rbt.Library>
libRbt.so (2013.1, Build901 2013/11/27)

>  <Rbt.Parameter_File>
/export/apps/rDock/src/rDock_2013.1_src/data/scripts/dock_solv.prm

>  <Rbt.Receptor>
prm/blind_docking_20.prm

>  <SCORE>
-17.109

>  <SCORE.INTER>
-17.109

>  <SCORE.INTER.CONST>
1

>  <SCORE.INTER.POLAR>
0

>  <SCORE.INTER.ROT>
0

>  <SCORE.INTER.SOLV>
3.72485

>  <SCORE.INTER.VDW>
-16.2476

>  <SCORE.INTER.norm>
-1.7109

>  <SCORE.INTRA>
0

>  <SCORE.INTRA.DIHEDRAL>
0

>  <SCORE.INTRA.DIHEDRAL.0>
0

>  <SCORE.INTRA.POLAR>
0

>  <SCORE.INTRA.POLAR.0>
0

>  <SCORE.INTRA.REPUL>
0

>  <SCORE.INTRA.REPUL.0>
0

>  <SCORE.INTRA.SOLV>
0

>  <SCORE.INTRA.SOLV.lig_0>
-4.26631

>  <SCORE.INTRA.VDW>
0

>  <SCORE.INTRA.VDW.0>
0

>  <SCORE.INTRA.norm>
0

>  <SCORE.RESTR>
0

>  <SCORE.RESTR.CAVITY>
0

>  <SCORE.RESTR.norm>
0

>  <SCORE.SYSTEM>
0

>  <SCORE.SYSTEM.CONST>
0

>  <SCORE.SYSTEM.DIHEDRAL>
0

>  <SCORE.SYSTEM.SOLV>
0

>  <SCORE.SYSTEM.norm>
0

>  <SCORE.heavy>
10

>  <SCORE.norm>
-1.7109

>  <RMSD>
0.715

$$$$
ligand
 OpenBabel11021811493D
libRbt.so/2013.1/901 2013/11/27
 10 11  0  0  0  0  0  0  0  0999 V2000
   12.0207   10.6174    8.1627 N   0  0  0  0  0  0  0  0  0  0  0  0
   11.7596   11.9235    8.4919 C   0  0  0  0  0  0  0  0  0  0  0  0
   11.3850   12.8194    7.5646 N   0  0  0  0  0  0  0  0  0  0  0  0
   11.2976   12.3057    6.3201 C   0  0  0  0  0  0  0  0  0  0  0  0
   11.5463   11.0091    5.9272 C   0  0  0  0  0  0  0  0  0  0  0  0
   11.9383   10.0534    6.8856 C   0  0  0  0  0  0  0  0  0  0  0  0
   12.2020    8.8672    6.7440 O   0  0  0  0  0  0  0  0  0  0  0  0
   11.3391   10.9106    4.5825 N   0  0  0  0  0  0  0  0  0  0  0  0
   10.9693   12.1384    4.1613 C   0  0  0  0  0  0  0  0  0  0  0  0
   10.9367   13.0205    5.2109 N   0  0  0  0  0  0  0  0  0  0  0  0
  1  2  1  0  0  0  0
  1  6  1  0  0  0  0
  2  3  2  0  0  0  0
  3  4  1  0  0  0  0
  4  5  2  0  0  0  0
  4 10  1  0  0  0  0
  5  6  1  0  0  0  0
  5  8  1  0  0  0  0
  6  7  2  0  0  0  0
  8  9  1  0  0  0  0
  9 10  2  0  0  0  0
M  END
>  <CHROM.1>
11.55228781,11.31978631,6.41381170,0.27724292,-1.28306333,0.95742736

>  <Name>
ligand

>  <RI>
0

>  <Rbt.Current_Directory>
/home/itssahil/PROJECTS/Mol_Feturizer/New_Systems/rnas/4FEJ

>  <Rbt.Executable>
rbdock ($Id: //depot/dev/client3/rdock/2013.1/src/exe/rbdock.cxx#4 $)

>  <Rbt.Library>
libRbt.so (2013.1, Build901 2013/11/27)

>  <Rbt.Parameter_File>
/export/apps/rDock/src/rDock_2013.1_src/data/scripts/dock_solv.prm

>  <Rbt.Receptor>
prm/blind_docking_20.prm

>  <SCORE>
-17.1379

>  <SCORE.INTER>
-17.1379

>  <SCORE.INTER.CONST>
1

>  <SCORE.INTER.POLAR>
0

>  <SCORE.INTER.ROT>
0

>  <SCORE.INTER.SOLV>
3.73233

>  <SCORE.INTER.VDW>
-16.2694

>  <SCORE.INTER.norm>
-1.71379

>  <SCORE.INTRA>
0

>  <SCORE.INTRA.DIHEDRAL>
0

>  <SCORE.INTRA.DIHEDRAL.0>
0

>  <SCORE.INTRA.POLAR>
0

>  <SCORE.INTRA.POLAR.0>
0

>  <SCORE.INTRA.REPUL>
0

>  <SCORE.INTRA.REPUL.0>
0

>  <SCORE.INTRA.SOLV>
0

>  <SCORE.INTRA.SOLV.lig_0>
-4.26631

>  <SCORE.INTRA.VDW>
0

>  <SCORE.INTRA.VDW.0>
0

>  <SCORE.INTRA.norm>
0

>  <SCORE.RESTR>
0

>  <SCORE.RESTR.CAVITY>
0

>  <SCORE.RESTR.norm>
0

>  <SCORE.SYSTEM>
0

>  <SCORE.SYSTEM.CONST>
0

>  <SCORE.SYSTEM.DIHEDRAL>
0

>  <SCORE.SYSTEM.SOLV>
0

>  <SCORE.SYSTEM.norm>
0

>  <SCORE.heavy>
10

>  <SCORE.norm>
-1.71379

>  <RMSD>
0.716

$$$$
ligand
 OpenBabel11021811493D
libRbt.so/2013.1/901 2013/11/27
 10 11  0  0  0  0  0  0  0  0999 V2000
   12.0138   10.6132    8.1716 N   0  0  0  0  0  0  0  0  0  0  0  0
   11.8003   11.9308    8.4889 C   0  0  0  0  0  0  0  0  0  0  0  0
   11.4313   12.8257    7.5583 N   0  0  0  0  0  0  0  0  0  0  0  0
   11.2989   12.2987    6.3234 C   0  0  0  0  0  0  0  0  0  0  0  0
   11.4988   10.9902    5.9426 C   0  0  0  0  0  0  0  0  0  0  0  0
   11.8841   10.0354    6.9047 C   0  0  0  0  0  0  0  0  0  0  0  0
   12.1083    8.8399    6.7733 O   0  0  0  0  0  0  0  0  0  0  0  0
   11.2569   10.8806    4.6045 N   0  0  0  0  0  0  0  0  0  0  0  0
   10.9147   12.1135    4.1753 C   0  0  0  0  0  0  0  0  0  0  0  0
   10.9338   13.0098    5.2131 N   0  0  0  0  0  0  0  0  0  0  0  0
  1  2  1  0  0  0  0
  1  6  1  0  0  0  0
  2  3  2  0  0  0  0
  3  4  1  0  0  0  0
  4  5  2  0  0  0  0
  4 10  1  0  0  0  0
  5  6  1  0  0  0  0
  5  8  1  0  0  0  0
  6  7  2  0  0  0  0
  8  9  1  0  0  0  0
  9 10  2  0  0  0  0
M  END
>  <CHROM.1>
11.52566709,11.30677638,6.42463904,0.14307513,-1.29190849,0.81522392

>  <Name>
ligand

>  <RI>
0

>  <Rbt.Current_Directory>
/home/itssahil/PROJECTS/Mol_Feturizer/New_Systems/rnas/4FEJ

>  <Rbt.Executable>
rbdock ($Id: //depot/dev/client3/rdock/2013.1/src/exe/rbdock.cxx#4 $)

>  <Rbt.Library>
libRbt.so (2013.1, Build901 2013/11/27)

>  <Rbt.Parameter_File>
/export/apps/rDock/src/rDock_2013.1_src/data/scripts/dock_solv.prm

>  <Rbt.Receptor>
prm/blind_docking_20.prm

>  <SCORE>
-17.1641

>  <SCORE.INTER>
-17.1641

>  <SCORE.INTER.CONST>
1

>  <SCORE.INTER.POLAR>
0

>  <SCORE.INTER.ROT>
0

>  <SCORE.INTER.SOLV>
3.83652

>  <SCORE.INTER.VDW>
-16.3216

>  <SCORE.INTER.norm>
-1.71641

>  <SCORE.INTRA>
0

>  <SCORE.INTRA.DIHEDRAL>
0

>  <SCORE.INTRA.DIHEDRAL.0>
0

>  <SCORE.INTRA.POLAR>
0

>  <SCORE.INTRA.POLAR.0>
0

>  <SCORE.INTRA.REPUL>
0

>  <SCORE.INTRA.REPUL.0>
0

>  <SCORE.INTRA.SOLV>
0

>  <SCORE.INTRA.SOLV.lig_0>
-4.26631

>  <SCORE.INTRA.VDW>
0

>  <SCORE.INTRA.VDW.0>
0

>  <SCORE.INTRA.norm>
0

>  <SCORE.RESTR>
0

>  <SCORE.RESTR.CAVITY>
0

>  <SCORE.RESTR.norm>
0

>  <SCORE.SYSTEM>
0

>  <SCORE.SYSTEM.CONST>
0

>  <SCORE.SYSTEM.DIHEDRAL>
0

>  <SCORE.SYSTEM.SOLV>
0

>  <SCORE.SYSTEM.norm>
0

>  <SCORE.heavy>
10

>  <SCORE.norm>
-1.71641

>  <RMSD>
0.718

$$$$
ligand
 OpenBabel11021811493D
libRbt.so/2013.1/901 2013/11/27
 10 11  0  0  0  0  0  0  0  0999 V2000
   12.0201   10.6163    8.1651 N   0  0  0  0  0  0  0  0  0  0  0  0
   11.8046   11.9335    8.4830 C   0  0  0  0  0  0  0  0  0  0  0  0
   11.4308   12.8276    7.5535 N   0  0  0  0  0  0  0  0  0  0  0  0
   11.2958   12.3003    6.3190 C   0  0  0  0  0  0  0  0  0  0  0  0
   11.4975   10.9921    5.9377 C   0  0  0  0  0  0  0  0  0  0  0  0
   11.8878   10.0383    6.8986 C   0  0  0  0  0  0  0  0  0  0  0  0
   12.1142    8.8433    6.7666 O   0  0  0  0  0  0  0  0  0  0  0  0
   11.2518   10.8819    4.6004 N   0  0  0  0  0  0  0  0  0  0  0  0
   10.9055   12.1141    4.1721 C   0  0  0  0  0  0  0  0  0  0  0  0
   10.9258   13.0105    5.2099 N   0  0  0  0  0  0  0  0  0  0  0  0
  1  2  1  0  0  0  0
  1  6  1  0  0  0  0
  2  3  2  0  0  0  0
  3  4  1  0  0  0  0
  4  5  2  0  0  0  0
  4 10  1  0  0  0  0
  5  6  1  0  0  0  0
  5  8  1  0  0  0  0
  6  7  2  0  0  0  0
  8  9  1  0  0  0  0
  9 10  2  0  0  0  0
M  END
>  <CHROM.1>
11.52510425,11.30882092,6.41963892,0.14064831,-1.28821829,0.81285863

>  <Name>
ligand

>  <RI>
0

>  <Rbt.Current_Directory>
/home/itssahil/PROJECTS/Mol_Feturizer/New_Systems/rnas/4FEJ

>  <Rbt.Executable>
rbdock ($Id: //depot/dev/client3/rdock/2013.1/src/exe/rbdock.cxx#4 $)

>  <Rbt.Library>
libRbt.so (2013.1, Build901 2013/11/27)

>  <Rbt.Parameter_File>
/export/apps/rDock/src/rDock_2013.1_src/data/scripts/dock_solv.prm

>  <Rbt.Receptor>
prm/blind_docking_20.prm

>  <SCORE>
-17.1618

>  <SCORE.INTER>
-17.1618

>  <SCORE.INTER.CONST>
1

>  <SCORE.INTER.POLAR>
0

>  <SCORE.INTER.ROT>
0

>  <SCORE.INTER.SOLV>
3.82795

>  <SCORE.INTER.VDW>
-16.3172

>  <SCORE.INTER.norm>
-1.71618

>  <SCORE.INTRA>
0

>  <SCORE.INTRA.DIHEDRAL>
0

>  <SCORE.INTRA.DIHEDRAL.0>
0

>  <SCORE.INTRA.POLAR>
0

>  <SCORE.INTRA.POLAR.0>
0

>  <SCORE.INTRA.REPUL>
0

>  <SCORE.INTRA.REPUL.0>
0

>  <SCORE.INTRA.SOLV>
0

>  <SCORE.INTRA.SOLV.lig_0>
-4.26631

>  <SCORE.INTRA.VDW>
0

>  <SCORE.INTRA.VDW.0>
0

>  <SCORE.INTRA.norm>
0

>  <SCORE.RESTR>
0

>  <SCORE.RESTR.CAVITY>
0

>  <SCORE.RESTR.norm>
0

>  <SCORE.SYSTEM>
0

>  <SCORE.SYSTEM.CONST>
0

>  <SCORE.SYSTEM.DIHEDRAL>
0

>  <SCORE.SYSTEM.SOLV>
0

>  <SCORE.SYSTEM.norm>
0

>  <SCORE.heavy>
10

>  <SCORE.norm>
-1.71618

>  <RMSD>
0.721

$$$$
ligand
 OpenBabel11021811493D
libRbt.so/2013.1/901 2013/11/27
 10 11  0  0  0  0  0  0  0  0999 V2000
   12.0215   10.6677    8.1557 N   0  0  0  0  0  0  0  0  0  0  0  0
   11.7741   11.9832    8.4567 C   0  0  0  0  0  0  0  0  0  0  0  0
   11.3839   12.8570    7.5147 N   0  0  0  0  0  0  0  0  0  0  0  0
   11.2670   12.3120    6.2861 C   0  0  0  0  0  0  0  0  0  0  0  0
   11.5008   11.0044    5.9216 C   0  0  0  0  0  0  0  0  0  0  0  0
   11.9086   10.0715    6.8957 C   0  0  0  0  0  0  0  0  0  0  0  0
   12.1634    8.8806    6.7792 O   0  0  0  0  0  0  0  0  0  0  0  0
   11.2640   10.8724    4.5846 N   0  0  0  0  0  0  0  0  0  0  0  0
   10.8913   12.0910    4.1400 C   0  0  0  0  0  0  0  0  0  0  0  0
   10.8858   13.0000    5.1668 N   0  0  0  0  0  0  0  0  0  0  0  0
  1  2  1  0  0  0  0
  1  6  1  0  0  0  0
  2  3  2  0  0  0  0
  3  4  1  0  0  0  0
  4  5  2  0  0  0  0
  4 10  1  0  0  0  0
  5  6  1  0  0  0  0
  5  8  1  0  0  0  0
  6  7  2  0  0  0  0
  8  9  1  0  0  0  0
  9 10  2  0  0  0  0
M  END
>  <CHROM.1>
11.51880595,11.32740627,6.39976840,0.20692884,-1.27396814,0.86430830

>  <Name>
ligand

>  <RI>
0

>  <Rbt.Current_Directory>
/home/itssahil/PROJECTS/Mol_Feturizer/New_Systems/rnas/4FEJ

>  <Rbt.Executable>
rbdock ($Id: //depot/dev/client3/rdock/2013.1/src/exe/rbdock.cxx#4 $)

>  <Rbt.Library>
libRbt.so (2013.1, Build901 2013/11/27)

>  <Rbt.Parameter_File>
/export/apps/rDock/src/rDock_2013.1_src/data/scripts/dock_solv.prm

>  <Rbt.Receptor>
prm/blind_docking_20.prm

>  <SCORE>
-17.1779

>  <SCORE.INTER>
-17.1779

>  <SCORE.INTER.CONST>
1

>  <SCORE.INTER.POLAR>
0

>  <SCORE.INTER.ROT>
0

>  <SCORE.INTER.SOLV>
3.74793

>  <SCORE.INTER.VDW>
-16.3012

>  <SCORE.INTER.norm>
-1.71779

>  <SCORE.INTRA>
0

>  <SCORE.INTRA.DIHEDRAL>
0

>  <SCORE.INTRA.DIHEDRAL.0>
0

>  <SCORE.INTRA.POLAR>
0

>  <SCORE.INTRA.POLAR.0>
0

>  <SCORE.INTRA.REPUL>
0

>  <SCORE.INTRA.REPUL.0>
0

>  <SCORE.INTRA.SOLV>
0

>  <SCORE.INTRA.SOLV.lig_0>
-4.26631

>  <SCORE.INTRA.VDW>
0

>  <SCORE.INTRA.VDW.0>
0

>  <SCORE.INTRA.norm>
0

>  <SCORE.RESTR>
0

>  <SCORE.RESTR.CAVITY>
0

>  <SCORE.RESTR.norm>
0

>  <SCORE.SYSTEM>
0

>  <SCORE.SYSTEM.CONST>
0

>  <SCORE.SYSTEM.DIHEDRAL>
0

>  <SCORE.SYSTEM.SOLV>
0

>  <SCORE.SYSTEM.norm>
0

>  <SCORE.heavy>
10

>  <SCORE.norm>
-1.71779

>  <RMSD>
0.722

$$$$
ligand
 OpenBabel11021811493D
libRbt.so/2013.1/901 2013/11/27
 10 11  0  0  0  0  0  0  0  0999 V2000
   12.0112   10.6311    8.1646 N   0  0  0  0  0  0  0  0  0  0  0  0
   11.7961   11.9496    8.4772 C   0  0  0  0  0  0  0  0  0  0  0  0
   11.4239   12.8403    7.5437 N   0  0  0  0  0  0  0  0  0  0  0  0
   11.2902   12.3083    6.3111 C   0  0  0  0  0  0  0  0  0  0  0  0
   11.4916   10.9986    5.9351 C   0  0  0  0  0  0  0  0  0  0  0  0
   11.8802   10.0483    6.9002 C   0  0  0  0  0  0  0  0  0  0  0  0
   12.1062    8.8527    6.7730 O   0  0  0  0  0  0  0  0  0  0  0  0
   11.2475   10.8834    4.5979 N   0  0  0  0  0  0  0  0  0  0  0  0
   10.9025   12.1141    4.1645 C   0  0  0  0  0  0  0  0  0  0  0  0
   10.9219   13.0145    5.1988 N   0  0  0  0  0  0  0  0  0  0  0  0
  1  2  1  0  0  0  0
  1  6  1  0  0  0  0
  2  3  2  0  0  0  0
  3  4  1  0  0  0  0
  4  5  2  0  0  0  0
  4 10  1  0  0  0  0
  5  6  1  0  0  0  0
  5  8  1  0  0  0  0
  6  7  2  0  0  0  0
  8  9  1  0  0  0  0
  9 10  2  0  0  0  0
M  END
>  <CHROM.1>
11.51881149,11.31716816,6.41583263,0.14262802,-1.28947584,0.81091658

>  <Name>
ligand

>  <RI>
0

>  <Rbt.Current_Directory>
/home/itssahil/PROJECTS/Mol_Feturizer/New_Systems/rnas/4FEJ

>  <Rbt.Executable>
rbdock ($Id: //depot/dev/client3/rdock/2013.1/src/exe/rbdock.cxx#4 $)

>  <Rbt.Library>
libRbt.so (2013.1, Build901 2013/11/27)

>  <Rbt.Parameter_File>
/export/apps/rDock/src/rDock_2013.1_src/data/scripts/dock_solv.prm

>  <Rbt.Receptor>
prm/blind_docking_20.prm

>  <SCORE>
-17.1608

>  <SCORE.INTER>
-17.1608

>  <SCORE.INTER.CONST>
1

>  <SCORE.INTER.POLAR>
0

>  <SCORE.INTER.ROT>
0

>  <SCORE.INTER.SOLV>
3.83367

>  <SCORE.INTER.VDW>
-16.3184

>  <SCORE.INTER.norm>
-1.71608

>  <SCORE.INTRA>
0

>  <SCORE.INTRA.DIHEDRAL>
0

>  <SCORE.INTRA.DIHEDRAL.0>
0

>  <SCORE.INTRA.POLAR>
0

>  <SCORE.INTRA.POLAR.0>
0

>  <SCORE.INTRA.REPUL>
0

>  <SCORE.INTRA.REPUL.0>
0

>  <SCORE.INTRA.SOLV>
0

>  <SCORE.INTRA.SOLV.lig_0>
-4.26631

>  <SCORE.INTRA.VDW>
0

>  <SCORE.INTRA.VDW.0>
0

>  <SCORE.INTRA.norm>
0

>  <SCORE.RESTR>
0

>  <SCORE.RESTR.CAVITY>
0

>  <SCORE.RESTR.norm>
0

>  <SCORE.SYSTEM>
0

>  <SCORE.SYSTEM.CONST>
0

>  <SCORE.SYSTEM.DIHEDRAL>
0

>  <SCORE.SYSTEM.SOLV>
0

>  <SCORE.SYSTEM.norm>
0

>  <SCORE.heavy>
10

>  <SCORE.norm>
-1.71608

>  <RMSD>
0.722

$$$$
ligand
 OpenBabel11021811493D
libRbt.so/2013.1/901 2013/11/27
 10 11  0  0  0  0  0  0  0  0999 V2000
   12.0290   10.6706    8.1513 N   0  0  0  0  0  0  0  0  0  0  0  0
   11.7851   11.9864    8.4541 C   0  0  0  0  0  0  0  0  0  0  0  0
   11.3924   12.8615    7.5143 N   0  0  0  0  0  0  0  0  0  0  0  0
   11.2693   12.3173    6.2859 C   0  0  0  0  0  0  0  0  0  0  0  0
   11.4993   11.0096    5.9196 C   0  0  0  0  0  0  0  0  0  0  0  0
   11.9098   10.0754    6.8915 C   0  0  0  0  0  0  0  0  0  0  0  0
   12.1620    8.8842    6.7732 O   0  0  0  0  0  0  0  0  0  0  0  0
   11.2566   10.8788    4.5836 N   0  0  0  0  0  0  0  0  0  0  0  0
   10.8840   12.0982    4.1413 C   0  0  0  0  0  0  0  0  0  0  0  0
   10.8844   13.0066    5.1687 N   0  0  0  0  0  0  0  0  0  0  0  0
  1  2  1  0  0  0  0
  1  6  1  0  0  0  0
  2  3  2  0  0  0  0
  3  4  1  0  0  0  0
  4  5  2  0  0  0  0
  4 10  1  0  0  0  0
  5  6  1  0  0  0  0
  5  8  1  0  0  0  0
  6  7  2  0  0  0  0
  8  9  1  0  0  0  0
  9 10  2  0  0  0  0
M  END
>  <CHROM.1>
11.51991643,11.33226945,6.39791911,0.19216550,-1.27242396,0.85078517

>  <Name>
ligand

>  <RI>
0

>  <Rbt.Current_Directory>
/home/itssahil/PROJECTS/Mol_Feturizer/New_Systems/rnas/4FEJ

>  <Rbt.Executable>
rbdock ($Id: //depot/dev/client3/rdock/2013.1/src/exe/rbdock.cxx#4 $)

>  <Rbt.Library>
libRbt.so (2013.1, Build901 2013/11/27)

>  <Rbt.Parameter_File>
/export/apps/rDock/src/rDock_2013.1_src/data/scripts/dock_solv.prm

>  <Rbt.Receptor>
prm/blind_docking_20.prm

>  <SCORE>
-17.1753

>  <SCORE.INTER>
-17.1753

>  <SCORE.INTER.CONST>
1

>  <SCORE.INTER.POLAR>
0

>  <SCORE.INTER.ROT>
0

>  <SCORE.INTER.SOLV>
3.74896

>  <SCORE.INTER.VDW>
-16.2998

>  <SCORE.INTER.norm>
-1.71753

>  <SCORE.INTRA>
0

>  <SCORE.INTRA.DIHEDRAL>
0

>  <SCORE.INTRA.DIHEDRAL.0>
0

>  <SCORE.INTRA.POLAR>
0

>  <SCORE.INTRA.POLAR.0>
0

>  <SCORE.INTRA.REPUL>
0

>  <SCORE.INTRA.REPUL.0>
0

>  <SCORE.INTRA.SOLV>
0

>  <SCORE.INTRA.SOLV.lig_0>
-4.26631

>  <SCORE.INTRA.VDW>
0

>  <SCORE.INTRA.VDW.0>
0

>  <SCORE.INTRA.norm>
0

>  <SCORE.RESTR>
0

>  <SCORE.RESTR.CAVITY>
0

>  <SCORE.RESTR.norm>
0

>  <SCORE.SYSTEM>
0

>  <SCORE.SYSTEM.CONST>
0

>  <SCORE.SYSTEM.DIHEDRAL>
0

>  <SCORE.SYSTEM.SOLV>
0

>  <SCORE.SYSTEM.norm>
0

>  <SCORE.heavy>
10

>  <SCORE.norm>
-1.71753

>  <RMSD>
0.724

$$$$
ligand
 OpenBabel11021811493D
libRbt.so/2013.1/901 2013/11/27
 10 11  0  0  0  0  0  0  0  0999 V2000
   12.0144   10.6345    8.1617 N   0  0  0  0  0  0  0  0  0  0  0  0
   11.8004   11.9535    8.4732 C   0  0  0  0  0  0  0  0  0  0  0  0
   11.4280   12.8435    7.5392 N   0  0  0  0  0  0  0  0  0  0  0  0
   11.2929   12.3104    6.3072 C   0  0  0  0  0  0  0  0  0  0  0  0
   11.4931   11.0002    5.9323 C   0  0  0  0  0  0  0  0  0  0  0  0
   11.8819   10.0505    6.8980 C   0  0  0  0  0  0  0  0  0  0  0  0
   12.1069    8.8546    6.7718 O   0  0  0  0  0  0  0  0  0  0  0  0
   11.2477   10.8838    4.5954 N   0  0  0  0  0  0  0  0  0  0  0  0
   10.9031   12.1143    4.1611 C   0  0  0  0  0  0  0  0  0  0  0  0
   10.9241   13.0156    5.1945 N   0  0  0  0  0  0  0  0  0  0  0  0
  1  2  1  0  0  0  0
  1  6  1  0  0  0  0
  2  3  2  0  0  0  0
  3  4  1  0  0  0  0
  4  5  2  0  0  0  0
  4 10  1  0  0  0  0
  5  6  1  0  0  0  0
  5  8  1  0  0  0  0
  6  7  2  0  0  0  0
  8  9  1  0  0  0  0
  9 10  2  0  0  0  0
M  END
>  <CHROM.1>
11.52091033,11.31915948,6.41269737,0.13863583,-1.28934177,0.80608691

>  <Name>
ligand

>  <RI>
0

>  <Rbt.Current_Directory>
/home/itssahil/PROJECTS/Mol_Feturizer/New_Systems/rnas/4FEJ

>  <Rbt.Executable>
rbdock ($Id: //depot/dev/client3/rdock/2013.1/src/exe/rbdock.cxx#4 $)

>  <Rbt.Library>
libRbt.so (2013.1, Build901 2013/11/27)

>  <Rbt.Parameter_File>
/export/apps/rDock/src/rDock_2013.1_src/data/scripts/dock_solv.prm

>  <Rbt.Receptor>
prm/blind_docking_20.prm

>  <SCORE>
-17.1575

>  <SCORE.INTER>
-17.1575

>  <SCORE.INTER.CONST>
1

>  <SCORE.INTER.POLAR>
0

>  <SCORE.INTER.ROT>
0

>  <SCORE.INTER.SOLV>
3.83373

>  <SCORE.INTER.VDW>
-16.3163

>  <SCORE.INTER.norm>
-1.71575

>  <SCORE.INTRA>
0

>  <SCORE.INTRA.DIHEDRAL>
0

>  <SCORE.INTRA.DIHEDRAL.0>
0

>  <SCORE.INTRA.POLAR>
0

>  <SCORE.INTRA.POLAR.0>
0

>  <SCORE.INTRA.REPUL>
0

>  <SCORE.INTRA.REPUL.0>
0

>  <SCORE.INTRA.SOLV>
0

>  <SCORE.INTRA.SOLV.lig_0>
-4.26631

>  <SCORE.INTRA.VDW>
0

>  <SCORE.INTRA.VDW.0>
0

>  <SCORE.INTRA.norm>
0

>  <SCORE.RESTR>
0

>  <SCORE.RESTR.CAVITY>
0

>  <SCORE.RESTR.norm>
0

>  <SCORE.SYSTEM>
0

>  <SCORE.SYSTEM.CONST>
0

>  <SCORE.SYSTEM.DIHEDRAL>
0

>  <SCORE.SYSTEM.SOLV>
0

>  <SCORE.SYSTEM.norm>
0

>  <SCORE.heavy>
10

>  <SCORE.norm>
-1.71575

>  <RMSD>
0.724

$$$$
ligand
 OpenBabel11021811493D
libRbt.so/2013.1/901 2013/11/27
 10 11  0  0  0  0  0  0  0  0999 V2000
   11.9856   10.6579    8.1562 N   0  0  0  0  0  0  0  0  0  0  0  0
   11.7630   11.9783    8.4555 C   0  0  0  0  0  0  0  0  0  0  0  0
   11.3906   12.8584    7.5122 N   0  0  0  0  0  0  0  0  0  0  0  0
   11.2646   12.3143    6.2841 C   0  0  0  0  0  0  0  0  0  0  0  0
   11.4737   11.0021    5.9212 C   0  0  0  0  0  0  0  0  0  0  0  0
   11.8627   10.0626    6.8968 C   0  0  0  0  0  0  0  0  0  0  0  0
   12.0947    8.8670    6.7819 O   0  0  0  0  0  0  0  0  0  0  0  0
   11.2358   10.8732    4.5841 N   0  0  0  0  0  0  0  0  0  0  0  0
   10.8869   12.0981    4.1377 C   0  0  0  0  0  0  0  0  0  0  0  0
   10.8978   13.0082    5.1636 N   0  0  0  0  0  0  0  0  0  0  0  0
  1  2  1  0  0  0  0
  1  6  1  0  0  0  0
  2  3  2  0  0  0  0
  3  4  1  0  0  0  0
  4  5  2  0  0  0  0
  4 10  1  0  0  0  0
  5  6  1  0  0  0  0
  5  8  1  0  0  0  0
  6  7  2  0  0  0  0
  8  9  1  0  0  0  0
  9 10  2  0  0  0  0
M  END
>  <CHROM.1>
11.49742185,11.32520628,6.39904651,0.16512403,-1.28894195,0.82312974

>  <Name>
ligand

>  <RI>
0

>  <Rbt.Current_Directory>
/home/itssahil/PROJECTS/Mol_Feturizer/New_Systems/rnas/4FEJ

>  <Rbt.Executable>
rbdock ($Id: //depot/dev/client3/rdock/2013.1/src/exe/rbdock.cxx#4 $)

>  <Rbt.Library>
libRbt.so (2013.1, Build901 2013/11/27)

>  <Rbt.Parameter_File>
/export/apps/rDock/src/rDock_2013.1_src/data/scripts/dock_solv.prm

>  <Rbt.Receptor>
prm/blind_docking_20.prm

>  <SCORE>
-17.1592

>  <SCORE.INTER>
-17.1592

>  <SCORE.INTER.CONST>
1

>  <SCORE.INTER.POLAR>
0

>  <SCORE.INTER.ROT>
0

>  <SCORE.INTER.SOLV>
3.83748

>  <SCORE.INTER.VDW>
-16.3186

>  <SCORE.INTER.norm>
-1.71592

>  <SCORE.INTRA>
0

>  <SCORE.INTRA.DIHEDRAL>
0

>  <SCORE.INTRA.DIHEDRAL.0>
0

>  <SCORE.INTRA.POLAR>
0

>  <SCORE.INTRA.POLAR.0>
0

>  <SCORE.INTRA.REPUL>
0

>  <SCORE.INTRA.REPUL.0>
0

>  <SCORE.INTRA.SOLV>
0

>  <SCORE.INTRA.SOLV.lig_0>
-4.26631

>  <SCORE.INTRA.VDW>
0

>  <SCORE.INTRA.VDW.0>
0

>  <SCORE.INTRA.norm>
0

>  <SCORE.RESTR>
0

>  <SCORE.RESTR.CAVITY>
0

>  <SCORE.RESTR.norm>
0

>  <SCORE.SYSTEM>
0

>  <SCORE.SYSTEM.CONST>
0

>  <SCORE.SYSTEM.DIHEDRAL>
0

>  <SCORE.SYSTEM.SOLV>
0

>  <SCORE.SYSTEM.norm>
0

>  <SCORE.heavy>
10

>  <SCORE.norm>
-1.71592

>  <RMSD>
0.733

$$$$
ligand
 OpenBabel11021811493D
libRbt.so/2013.1/901 2013/11/27
 10 11  0  0  0  0  0  0  0  0999 V2000
   11.9913   10.6314    8.1538 N   0  0  0  0  0  0  0  0  0  0  0  0
   11.7598   11.9476    8.4646 C   0  0  0  0  0  0  0  0  0  0  0  0
   11.3849   12.8341    7.5283 N   0  0  0  0  0  0  0  0  0  0  0  0
   11.2657   12.3006    6.2949 C   0  0  0  0  0  0  0  0  0  0  0  0
   11.4837   10.9930    5.9206 C   0  0  0  0  0  0  0  0  0  0  0  0
   11.8755   10.0470    6.8886 C   0  0  0  0  0  0  0  0  0  0  0  0
   12.1151    8.8539    6.7633 O   0  0  0  0  0  0  0  0  0  0  0  0
   11.2505   10.8751    4.5817 N   0  0  0  0  0  0  0  0  0  0  0  0
   10.8955   12.1020    4.1456 C   0  0  0  0  0  0  0  0  0  0  0  0
   10.8979   13.0026    5.1798 N   0  0  0  0  0  0  0  0  0  0  0  0
  1  2  1  0  0  0  0
  1  6  1  0  0  0  0
  2  3  2  0  0  0  0
  3  4  1  0  0  0  0
  4  5  2  0  0  0  0
  4 10  1  0  0  0  0
  5  6  1  0  0  0  0
  5  8  1  0  0  0  0
  6  7  2  0  0  0  0
  8  9  1  0  0  0  0
  9 10  2  0  0  0  0
M  END
>  <CHROM.1>
11.50411067,11.31190932,6.40143910,0.18728392,-1.28641115,0.85362561

>  <Name>
ligand

>  <RI>
0

>  <Rbt.Current_Directory>
/home/itssahil/PROJECTS/Mol_Feturizer/New_Systems/rnas/4FEJ

>  <Rbt.Executable>
rbdock ($Id: //depot/dev/client3/rdock/2013.1/src/exe/rbdock.cxx#4 $)

>  <Rbt.Library>
libRbt.so (2013.1, Build901 2013/11/27)

>  <Rbt.Parameter_File>
/export/apps/rDock/src/rDock_2013.1_src/data/scripts/dock_solv.prm

>  <Rbt.Receptor>
prm/blind_docking_20.prm

>  <SCORE>
-17.1321

>  <SCORE.INTER>
-17.1321

>  <SCORE.INTER.CONST>
1

>  <SCORE.INTER.POLAR>
0

>  <SCORE.INTER.ROT>
0

>  <SCORE.INTER.SOLV>
3.82234

>  <SCORE.INTER.VDW>
-16.2955

>  <SCORE.INTER.norm>
-1.71321

>  <SCORE.INTRA>
0

>  <SCORE.INTRA.DIHEDRAL>
0

>  <SCORE.INTRA.DIHEDRAL.0>
0

>  <SCORE.INTRA.POLAR>
0

>  <SCORE.INTRA.POLAR.0>
0

>  <SCORE.INTRA.REPUL>
0

>  <SCORE.INTRA.REPUL.0>
0

>  <SCORE.INTRA.SOLV>
0

>  <SCORE.INTRA.SOLV.lig_0>
-4.26631

>  <SCORE.INTRA.VDW>
0

>  <SCORE.INTRA.VDW.0>
0

>  <SCORE.INTRA.norm>
0

>  <SCORE.RESTR>
0

>  <SCORE.RESTR.CAVITY>
0

>  <SCORE.RESTR.norm>
0

>  <SCORE.SYSTEM>
0

>  <SCORE.SYSTEM.CONST>
0

>  <SCORE.SYSTEM.DIHEDRAL>
0

>  <SCORE.SYSTEM.SOLV>
0

>  <SCORE.SYSTEM.norm>
0

>  <SCORE.heavy>
10

>  <SCORE.norm>
-1.71321

>  <RMSD>
0.734

$$$$
ligand
 OpenBabel11021811493D
libRbt.so/2013.1/901 2013/11/27
 10 11  0  0  0  0  0  0  0  0999 V2000
   11.9888   10.6624    8.1540 N   0  0  0  0  0  0  0  0  0  0  0  0
   11.7684   11.9830    8.4535 C   0  0  0  0  0  0  0  0  0  0  0  0
   11.3989   12.8642    7.5101 N   0  0  0  0  0  0  0  0  0  0  0  0
   11.2733   12.3208    6.2816 C   0  0  0  0  0  0  0  0  0  0  0  0
   11.4802   11.0083    5.9185 C   0  0  0  0  0  0  0  0  0  0  0  0
   11.8662   10.0677    6.8943 C   0  0  0  0  0  0  0  0  0  0  0  0
   12.0960    8.8716    6.7792 O   0  0  0  0  0  0  0  0  0  0  0  0
   11.2436   10.8803    4.5811 N   0  0  0  0  0  0  0  0  0  0  0  0
   10.8976   12.1061    4.1348 C   0  0  0  0  0  0  0  0  0  0  0  0
   10.9091   13.0158    5.1609 N   0  0  0  0  0  0  0  0  0  0  0  0
  1  2  1  0  0  0  0
  1  6  1  0  0  0  0
  2  3  2  0  0  0  0
  3  4  1  0  0  0  0
  4  5  2  0  0  0  0
  4 10  1  0  0  0  0
  5  6  1  0  0  0  0
  5  8  1  0  0  0  0
  6  7  2  0  0  0  0
  8  9  1  0  0  0  0
  9 10  2  0  0  0  0
M  END
>  <CHROM.1>
11.50396253,11.33120263,6.39651727,0.16340146,-1.29117697,0.82182773

>  <Name>
ligand

>  <RI>
0

>  <Rbt.Current_Directory>
/home/itssahil/PROJECTS/Mol_Feturizer/New_Systems/rnas/4FEJ

>  <Rbt.Executable>
rbdock ($Id: //depot/dev/client3/rdock/2013.1/src/exe/rbdock.cxx#4 $)

>  <Rbt.Library>
libRbt.so (2013.1, Build901 2013/11/27)

>  <Rbt.Parameter_File>
/export/apps/rDock/src/rDock_2013.1_src/data/scripts/dock_solv.prm

>  <Rbt.Receptor>
prm/blind_docking_20.prm

>  <SCORE>
-17.1683

>  <SCORE.INTER>
-17.1683

>  <SCORE.INTER.CONST>
1

>  <SCORE.INTER.POLAR>
0

>  <SCORE.INTER.ROT>
0

>  <SCORE.INTER.SOLV>
3.84024

>  <SCORE.INTER.VDW>
-16.3256

>  <SCORE.INTER.norm>
-1.71683

>  <SCORE.INTRA>
0

>  <SCORE.INTRA.DIHEDRAL>
0

>  <SCORE.INTRA.DIHEDRAL.0>
0

>  <SCORE.INTRA.POLAR>
0

>  <SCORE.INTRA.POLAR.0>
0

>  <SCORE.INTRA.REPUL>
0

>  <SCORE.INTRA.REPUL.0>
0

>  <SCORE.INTRA.SOLV>
0

>  <SCORE.INTRA.SOLV.lig_0>
-4.26631

>  <SCORE.INTRA.VDW>
0

>  <SCORE.INTRA.VDW.0>
0

>  <SCORE.INTRA.norm>
0

>  <SCORE.RESTR>
0

>  <SCORE.RESTR.CAVITY>
0

>  <SCORE.RESTR.norm>
0

>  <SCORE.SYSTEM>
0

>  <SCORE.SYSTEM.CONST>
0

>  <SCORE.SYSTEM.DIHEDRAL>
0

>  <SCORE.SYSTEM.SOLV>
0

>  <SCORE.SYSTEM.norm>
0

>  <SCORE.heavy>
10

>  <SCORE.norm>
-1.71683

>  <RMSD>
0.734

$$$$
ligand
 OpenBabel11021811493D
libRbt.so/2013.1/901 2013/11/27
 10 11  0  0  0  0  0  0  0  0999 V2000
   11.9728   10.6557    8.1554 N   0  0  0  0  0  0  0  0  0  0  0  0
   11.7437   11.9744    8.4571 C   0  0  0  0  0  0  0  0  0  0  0  0
   11.3776   12.8566    7.5133 N   0  0  0  0  0  0  0  0  0  0  0  0
   11.2646   12.3164    6.2823 C   0  0  0  0  0  0  0  0  0  0  0  0
   11.4808   11.0060    5.9169 C   0  0  0  0  0  0  0  0  0  0  0  0
   11.8633   10.0643    6.8929 C   0  0  0  0  0  0  0  0  0  0  0  0
   12.0997    8.8697    6.7761 O   0  0  0  0  0  0  0  0  0  0  0  0
   11.2557   10.8810    4.5773 N   0  0  0  0  0  0  0  0  0  0  0  0
   10.9075   12.1065    4.1318 C   0  0  0  0  0  0  0  0  0  0  0  0
   10.9063   13.0131    5.1608 N   0  0  0  0  0  0  0  0  0  0  0  0
  1  2  1  0  0  0  0
  1  6  1  0  0  0  0
  2  3  2  0  0  0  0
  3  4  1  0  0  0  0
  4  5  2  0  0  0  0
  4 10  1  0  0  0  0
  5  6  1  0  0  0  0
  5  8  1  0  0  0  0
  6  7  2  0  0  0  0
  8  9  1  0  0  0  0
  9 10  2  0  0  0  0
M  END
>  <CHROM.1>
11.49910804,11.32756472,6.39605522,0.19706737,-1.29308566,0.85723561

>  <Name>
ligand

>  <RI>
0

>  <Rbt.Current_Directory>
/home/itssahil/PROJECTS/Mol_Feturizer/New_Systems/rnas/4FEJ

>  <Rbt.Executable>
rbdock ($Id: //depot/dev/client3/rdock/2013.1/src/exe/rbdock.cxx#4 $)

>  <Rbt.Library>
libRbt.so (2013.1, Build901 2013/11/27)

>  <Rbt.Parameter_File>
/export/apps/rDock/src/rDock_2013.1_src/data/scripts/dock_solv.prm

>  <Rbt.Receptor>
prm/blind_docking_20.prm

>  <SCORE>
-17.1665

>  <SCORE.INTER>
-17.1665

>  <SCORE.INTER.CONST>
1

>  <SCORE.INTER.POLAR>
0

>  <SCORE.INTER.ROT>
0

>  <SCORE.INTER.SOLV>
3.83858

>  <SCORE.INTER.VDW>
-16.3239

>  <SCORE.INTER.norm>
-1.71665

>  <SCORE.INTRA>
0

>  <SCORE.INTRA.DIHEDRAL>
0

>  <SCORE.INTRA.DIHEDRAL.0>
0

>  <SCORE.INTRA.POLAR>
0

>  <SCORE.INTRA.POLAR.0>
0

>  <SCORE.INTRA.REPUL>
0

>  <SCORE.INTRA.REPUL.0>
0

>  <SCORE.INTRA.SOLV>
0

>  <SCORE.INTRA.SOLV.lig_0>
-4.26631

>  <SCORE.INTRA.VDW>
0

>  <SCORE.INTRA.VDW.0>
0

>  <SCORE.INTRA.norm>
0

>  <SCORE.RESTR>
0

>  <SCORE.RESTR.CAVITY>
0

>  <SCORE.RESTR.norm>
0

>  <SCORE.SYSTEM>
0

>  <SCORE.SYSTEM.CONST>
0

>  <SCORE.SYSTEM.DIHEDRAL>
0

>  <SCORE.SYSTEM.SOLV>
0

>  <SCORE.SYSTEM.norm>
0

>  <SCORE.heavy>
10

>  <SCORE.norm>
-1.71665

>  <RMSD>
0.735

$$$$
ligand
 OpenBabel11021811493D
libRbt.so/2013.1/901 2013/11/27
 10 11  0  0  0  0  0  0  0  0999 V2000
   11.9876   10.6529    8.1418 N   0  0  0  0  0  0  0  0  0  0  0  0
   11.7511   11.9681    8.4529 C   0  0  0  0  0  0  0  0  0  0  0  0
   11.3791   12.8549    7.5157 N   0  0  0  0  0  0  0  0  0  0  0  0
   11.2682   12.3227    6.2810 C   0  0  0  0  0  0  0  0  0  0  0  0
   11.4917   11.0162    5.9062 C   0  0  0  0  0  0  0  0  0  0  0  0
   11.8805   10.0699    6.8752 C   0  0  0  0  0  0  0  0  0  0  0  0
   12.1238    8.8775    6.7497 O   0  0  0  0  0  0  0  0  0  0  0  0
   11.2663   10.8994    4.5658 N   0  0  0  0  0  0  0  0  0  0  0  0
   10.9105   12.1260    4.1293 C   0  0  0  0  0  0  0  0  0  0  0  0
   10.9049   13.0252    5.1647 N   0  0  0  0  0  0  0  0  0  0  0  0
  1  2  1  0  0  0  0
  1  6  1  0  0  0  0
  2  3  2  0  0  0  0
  3  4  1  0  0  0  0
  4  5  2  0  0  0  0
  4 10  1  0  0  0  0
  5  6  1  0  0  0  0
  5  8  1  0  0  0  0
  6  7  2  0  0  0  0
  8  9  1  0  0  0  0
  9 10  2  0  0  0  0
M  END
>  <CHROM.1>
11.50854916,11.33449797,6.38755278,0.20843781,-1.28811397,0.87524604

>  <Name>
ligand

>  <RI>
0

>  <Rbt.Current_Directory>
/home/itssahil/PROJECTS/Mol_Feturizer/New_Systems/rnas/4FEJ

>  <Rbt.Executable>
rbdock ($Id: //depot/dev/client3/rdock/2013.1/src/exe/rbdock.cxx#4 $)

>  <Rbt.Library>
libRbt.so (2013.1, Build901 2013/11/27)

>  <Rbt.Parameter_File>
/export/apps/rDock/src/rDock_2013.1_src/data/scripts/dock_solv.prm

>  <Rbt.Receptor>
prm/blind_docking_20.prm

>  <SCORE>
-17.1321

>  <SCORE.INTER>
-17.1321

>  <SCORE.INTER.CONST>
1

>  <SCORE.INTER.POLAR>
0

>  <SCORE.INTER.ROT>
0

>  <SCORE.INTER.SOLV>
3.81625

>  <SCORE.INTER.VDW>
-16.2935

>  <SCORE.INTER.norm>
-1.71321

>  <SCORE.INTRA>
0

>  <SCORE.INTRA.DIHEDRAL>
0

>  <SCORE.INTRA.DIHEDRAL.0>
0

>  <SCORE.INTRA.POLAR>
0

>  <SCORE.INTRA.POLAR.0>
0

>  <SCORE.INTRA.REPUL>
0

>  <SCORE.INTRA.REPUL.0>
0

>  <SCORE.INTRA.SOLV>
0

>  <SCORE.INTRA.SOLV.lig_0>
-4.26631

>  <SCORE.INTRA.VDW>
0

>  <SCORE.INTRA.VDW.0>
0

>  <SCORE.INTRA.norm>
0

>  <SCORE.RESTR>
0

>  <SCORE.RESTR.CAVITY>
0

>  <SCORE.RESTR.norm>
0

>  <SCORE.SYSTEM>
0

>  <SCORE.SYSTEM.CONST>
0

>  <SCORE.SYSTEM.DIHEDRAL>
0

>  <SCORE.SYSTEM.SOLV>
0

>  <SCORE.SYSTEM.norm>
0

>  <SCORE.heavy>
10

>  <SCORE.norm>
-1.71321

>  <RMSD>
0.741

$$$$
ligand
 OpenBabel11021811493D
libRbt.so/2013.1/901 2013/11/27
 10 11  0  0  0  0  0  0  0  0999 V2000
   11.9804   10.6251    8.1369 N   0  0  0  0  0  0  0  0  0  0  0  0
   11.7059   11.9323    8.4504 C   0  0  0  0  0  0  0  0  0  0  0  0
   11.3160   12.8115    7.5134 N   0  0  0  0  0  0  0  0  0  0  0  0
   11.2278   12.2805    6.2764 C   0  0  0  0  0  0  0  0  0  0  0  0
   11.4895   10.9818    5.8991 C   0  0  0  0  0  0  0  0  0  0  0  0
   11.8976   10.0434    6.8679 C   0  0  0  0  0  0  0  0  0  0  0  0
   12.1743    8.8585    6.7404 O   0  0  0  0  0  0  0  0  0  0  0  0
   11.2762   10.8632    4.5570 N   0  0  0  0  0  0  0  0  0  0  0  0
   10.8899   12.0809    4.1218 C   0  0  0  0  0  0  0  0  0  0  0  0
   10.8528   12.9764    5.1598 N   0  0  0  0  0  0  0  0  0  0  0  0
  1  2  1  0  0  0  0
  1  6  1  0  0  0  0
  2  3  2  0  0  0  0
  3  4  1  0  0  0  0
  4  5  2  0  0  0  0
  4 10  1  0  0  0  0
  5  6  1  0  0  0  0
  5  8  1  0  0  0  0
  6  7  2  0  0  0  0
  8  9  1  0  0  0  0
  9 10  2  0  0  0  0
M  END
>  <CHROM.1>
11.49443867,11.29888716,6.38157870,0.28501456,-1.27049424,0.95170908

>  <Name>
ligand

>  <RI>
0

>  <Rbt.Current_Directory>
/home/itssahil/PROJECTS/Mol_Feturizer/New_Systems/rnas/4FEJ

>  <Rbt.Executable>
rbdock ($Id: //depot/dev/client3/rdock/2013.1/src/exe/rbdock.cxx#4 $)

>  <Rbt.Library>
libRbt.so (2013.1, Build901 2013/11/27)

>  <Rbt.Parameter_File>
/export/apps/rDock/src/rDock_2013.1_src/data/scripts/dock_solv.prm

>  <Rbt.Receptor>
prm/blind_docking_20.prm

>  <SCORE>
-17.1324

>  <SCORE.INTER>
-17.1324

>  <SCORE.INTER.CONST>
1

>  <SCORE.INTER.POLAR>
0

>  <SCORE.INTER.ROT>
0

>  <SCORE.INTER.SOLV>
3.74654

>  <SCORE.INTER.VDW>
-16.2705

>  <SCORE.INTER.norm>
-1.71324

>  <SCORE.INTRA>
0

>  <SCORE.INTRA.DIHEDRAL>
0

>  <SCORE.INTRA.DIHEDRAL.0>
0

>  <SCORE.INTRA.POLAR>
0

>  <SCORE.INTRA.POLAR.0>
0

>  <SCORE.INTRA.REPUL>
0

>  <SCORE.INTRA.REPUL.0>
0

>  <SCORE.INTRA.SOLV>
0

>  <SCORE.INTRA.SOLV.lig_0>
-4.26631

>  <SCORE.INTRA.VDW>
0

>  <SCORE.INTRA.VDW.0>
0

>  <SCORE.INTRA.norm>
0

>  <SCORE.RESTR>
0

>  <SCORE.RESTR.CAVITY>
0

>  <SCORE.RESTR.norm>
0

>  <SCORE.SYSTEM>
0

>  <SCORE.SYSTEM.CONST>
0

>  <SCORE.SYSTEM.DIHEDRAL>
0

>  <SCORE.SYSTEM.SOLV>
0

>  <SCORE.SYSTEM.norm>
0

>  <SCORE.heavy>
10

>  <SCORE.norm>
-1.71324

>  <RMSD>
0.748

$$$$
ligand
 OpenBabel11021811493D
libRbt.so/2013.1/901 2013/11/27
 10 11  0  0  0  0  0  0  0  0999 V2000
   11.8789   10.8552    8.7760 N   0  0  0  0  0  0  0  0  0  0  0  0
   12.0120    9.6928    8.0593 C   0  0  0  0  0  0  0  0  0  0  0  0
   11.8336    9.6646    6.7287 N   0  0  0  0  0  0  0  0  0  0  0  0
   11.5217   10.8656    6.1991 C   0  0  0  0  0  0  0  0  0  0  0  0
   11.3735   12.0634    6.8627 C   0  0  0  0  0  0  0  0  0  0  0  0
   11.5587   12.1143    8.2587 C   0  0  0  0  0  0  0  0  0  0  0  0
   11.4748   13.0650    9.0241 O   0  0  0  0  0  0  0  0  0  0  0  0
   11.0578   13.0318    5.9553 N   0  0  0  0  0  0  0  0  0  0  0  0
   11.0125   12.4265    4.7499 C   0  0  0  0  0  0  0  0  0  0  0  0
   11.2925   11.0893    4.8690 N   0  0  0  0  0  0  0  0  0  0  0  0
  1  2  1  0  0  0  0
  1  6  1  0  0  0  0
  2  3  2  0  0  0  0
  3  4  1  0  0  0  0
  4  5  2  0  0  0  0
  4 10  1  0  0  0  0
  5  6  1  0  0  0  0
  5  8  1  0  0  0  0
  6  7  2  0  0  0  0
  8  9  1  0  0  0  0
  9 10  2  0  0  0  0
M  END
>  <CHROM.1>
11.50165011,11.51477330,6.98885817,-0.87575368,1.33343497,-2.17824487

>  <Name>
ligand

>  <RI>
0

>  <Rbt.Current_Directory>
/home/itssahil/PROJECTS/Mol_Feturizer/New_Systems/rnas/4FEJ

>  <Rbt.Executable>
rbdock ($Id: //depot/dev/client3/rdock/2013.1/src/exe/rbdock.cxx#4 $)

>  <Rbt.Library>
libRbt.so (2013.1, Build901 2013/11/27)

>  <Rbt.Parameter_File>
/export/apps/rDock/src/rDock_2013.1_src/data/scripts/dock_solv.prm

>  <Rbt.Receptor>
prm/blind_docking_100.prm

>  <SCORE>
-17.4114

>  <SCORE.INTER>
-17.4114

>  <SCORE.INTER.CONST>
1

>  <SCORE.INTER.POLAR>
0

>  <SCORE.INTER.ROT>
0

>  <SCORE.INTER.SOLV>
3.95629

>  <SCORE.INTER.VDW>
-16.5263

>  <SCORE.INTER.norm>
-1.74114

>  <SCORE.INTRA>
0

>  <SCORE.INTRA.DIHEDRAL>
0

>  <SCORE.INTRA.DIHEDRAL.0>
0

>  <SCORE.INTRA.POLAR>
0

>  <SCORE.INTRA.POLAR.0>
0

>  <SCORE.INTRA.REPUL>
0

>  <SCORE.INTRA.REPUL.0>
0

>  <SCORE.INTRA.SOLV>
0

>  <SCORE.INTRA.SOLV.lig_0>
-4.26631

>  <SCORE.INTRA.VDW>
0

>  <SCORE.INTRA.VDW.0>
0

>  <SCORE.INTRA.norm>
0

>  <SCORE.RESTR>
0

>  <SCORE.RESTR.CAVITY>
0

>  <SCORE.RESTR.norm>
0

>  <SCORE.SYSTEM>
0

>  <SCORE.SYSTEM.CONST>
0

>  <SCORE.SYSTEM.DIHEDRAL>
0

>  <SCORE.SYSTEM.SOLV>
0

>  <SCORE.SYSTEM.norm>
0

>  <SCORE.heavy>
10

>  <SCORE.norm>
-1.74114

>  <RMSD>
2.405

$$$$
ligand
 OpenBabel11021811493D
libRbt.so/2013.1/901 2013/11/27
 10 11  0  0  0  0  0  0  0  0999 V2000
   11.9004   10.8790    8.7884 N   0  0  0  0  0  0  0  0  0  0  0  0
   12.0711    9.7200    8.0743 C   0  0  0  0  0  0  0  0  0  0  0  0
   11.9067    9.6860    6.7421 N   0  0  0  0  0  0  0  0  0  0  0  0
   11.5684   10.8779    6.2081 C   0  0  0  0  0  0  0  0  0  0  0  0
   11.3822   12.0720    6.8690 C   0  0  0  0  0  0  0  0  0  0  0  0
   11.5522   12.1289    8.2666 C   0  0  0  0  0  0  0  0  0  0  0  0
   11.4357   13.0777    9.0301 O   0  0  0  0  0  0  0  0  0  0  0  0
   11.0500   13.0310    5.9574 N   0  0  0  0  0  0  0  0  0  0  0  0
   11.0326   12.4237    4.7523 C   0  0  0  0  0  0  0  0  0  0  0  0
   11.3465   11.0945    4.8756 N   0  0  0  0  0  0  0  0  0  0  0  0
  1  2  1  0  0  0  0
  1  6  1  0  0  0  0
  2  3  2  0  0  0  0
  3  4  1  0  0  0  0
  4  5  2  0  0  0  0
  4 10  1  0  0  0  0
  5  6  1  0  0  0  0
  5  8  1  0  0  0  0
  6  7  2  0  0  0  0
  8  9  1  0  0  0  0
  9 10  2  0  0  0  0
M  END
>  <CHROM.1>
11.52349189,11.52700858,6.99692312,-0.96780805,1.31635876,-2.08990041

>  <Name>
ligand

>  <RI>
0

>  <Rbt.Current_Directory>
/home/itssahil/PROJECTS/Mol_Feturizer/New_Systems/rnas/4FEJ

>  <Rbt.Executable>
rbdock ($Id: //depot/dev/client3/rdock/2013.1/src/exe/rbdock.cxx#4 $)

>  <Rbt.Library>
libRbt.so (2013.1, Build901 2013/11/27)

>  <Rbt.Parameter_File>
/export/apps/rDock/src/rDock_2013.1_src/data/scripts/dock_solv.prm

>  <Rbt.Receptor>
prm/pocket_docking_8.prm

>  <SCORE>
-17.521

>  <SCORE.INTER>
-17.521

>  <SCORE.INTER.CONST>
1

>  <SCORE.INTER.POLAR>
0

>  <SCORE.INTER.ROT>
0

>  <SCORE.INTER.SOLV>
3.93463

>  <SCORE.INTER.VDW>
-16.5922

>  <SCORE.INTER.norm>
-1.7521

>  <SCORE.INTRA>
0

>  <SCORE.INTRA.DIHEDRAL>
0

>  <SCORE.INTRA.DIHEDRAL.0>
0

>  <SCORE.INTRA.POLAR>
0

>  <SCORE.INTRA.POLAR.0>
0

>  <SCORE.INTRA.REPUL>
0

>  <SCORE.INTRA.REPUL.0>
0

>  <SCORE.INTRA.SOLV>
0

>  <SCORE.INTRA.SOLV.lig_0>
-4.26631

>  <SCORE.INTRA.VDW>
0

>  <SCORE.INTRA.VDW.0>
0

>  <SCORE.INTRA.norm>
0

>  <SCORE.RESTR>
0

>  <SCORE.RESTR.CAVITY>
0

>  <SCORE.RESTR.norm>
0

>  <SCORE.SYSTEM>
0

>  <SCORE.SYSTEM.CONST>
0

>  <SCORE.SYSTEM.DIHEDRAL>
0

>  <SCORE.SYSTEM.SOLV>
0

>  <SCORE.SYSTEM.norm>
0

>  <SCORE.heavy>
10

>  <SCORE.norm>
-1.7521

>  <RMSD>
2.406

$$$$
ligand
 OpenBabel11021811493D
libRbt.so/2013.1/901 2013/11/27
 10 11  0  0  0  0  0  0  0  0999 V2000
   11.8896   10.8739    8.7698 N   0  0  0  0  0  0  0  0  0  0  0  0
   12.0287    9.7007    8.0721 C   0  0  0  0  0  0  0  0  0  0  0  0
   11.8403    9.6478    6.7437 N   0  0  0  0  0  0  0  0  0  0  0  0
   11.5122   10.8364    6.1960 C   0  0  0  0  0  0  0  0  0  0  0  0
   11.3573   12.0440    6.8402 C   0  0  0  0  0  0  0  0  0  0  0  0
   11.5529   12.1207    8.2336 C   0  0  0  0  0  0  0  0  0  0  0  0
   11.4654   13.0836    8.9832 O   0  0  0  0  0  0  0  0  0  0  0  0
   11.0249   12.9934    5.9188 N   0  0  0  0  0  0  0  0  0  0  0  0
   10.9763   12.3671    4.7243 C   0  0  0  0  0  0  0  0  0  0  0  0
   11.2705   11.0349    4.8642 N   0  0  0  0  0  0  0  0  0  0  0  0
  1  2  1  0  0  0  0
  1  6  1  0  0  0  0
  2  3  2  0  0  0  0
  3  4  1  0  0  0  0
  4  5  2  0  0  0  0
  4 10  1  0  0  0  0
  5  6  1  0  0  0  0
  5  8  1  0  0  0  0
  6  7  2  0  0  0  0
  8  9  1  0  0  0  0
  9 10  2  0  0  0  0
M  END
>  <CHROM.1>
11.49188973,11.49885590,6.97467844,-0.87284954,1.32080286,-2.19825237

>  <Name>
ligand

>  <RI>
0

>  <Rbt.Current_Directory>
/home/itssahil/PROJECTS/Mol_Feturizer/New_Systems/rnas/4FEJ

>  <Rbt.Executable>
rbdock ($Id: //depot/dev/client3/rdock/2013.1/src/exe/rbdock.cxx#4 $)

>  <Rbt.Library>
libRbt.so (2013.1, Build901 2013/11/27)

>  <Rbt.Parameter_File>
/export/apps/rDock/src/rDock_2013.1_src/data/scripts/dock_solv.prm

>  <Rbt.Receptor>
prm/blind_docking_60.prm

>  <SCORE>
-17.4428

>  <SCORE.INTER>
-17.4428

>  <SCORE.INTER.CONST>
1

>  <SCORE.INTER.POLAR>
0

>  <SCORE.INTER.ROT>
0

>  <SCORE.INTER.SOLV>
3.96234

>  <SCORE.INTER.VDW>
-16.5493

>  <SCORE.INTER.norm>
-1.74428

>  <SCORE.INTRA>
0

>  <SCORE.INTRA.DIHEDRAL>
0

>  <SCORE.INTRA.DIHEDRAL.0>
0

>  <SCORE.INTRA.POLAR>
0

>  <SCORE.INTRA.POLAR.0>
0

>  <SCORE.INTRA.REPUL>
0

>  <SCORE.INTRA.REPUL.0>
0

>  <SCORE.INTRA.SOLV>
0

>  <SCORE.INTRA.SOLV.lig_0>
-4.26631

>  <SCORE.INTRA.VDW>
0

>  <SCORE.INTRA.VDW.0>
0

>  <SCORE.INTRA.norm>
0

>  <SCORE.RESTR>
0

>  <SCORE.RESTR.CAVITY>
0

>  <SCORE.RESTR.norm>
0

>  <SCORE.SYSTEM>
0

>  <SCORE.SYSTEM.CONST>
0

>  <SCORE.SYSTEM.DIHEDRAL>
0

>  <SCORE.SYSTEM.SOLV>
0

>  <SCORE.SYSTEM.norm>
0

>  <SCORE.heavy>
10

>  <SCORE.norm>
-1.74428

>  <RMSD>
2.407

$$$$
ligand
 OpenBabel11021811493D
libRbt.so/2013.1/901 2013/11/27
 10 11  0  0  0  0  0  0  0  0999 V2000
   11.8781   10.8624    8.7629 N   0  0  0  0  0  0  0  0  0  0  0  0
   12.0242    9.6991    8.0502 C   0  0  0  0  0  0  0  0  0  0  0  0
   11.8526    9.6657    6.7188 N   0  0  0  0  0  0  0  0  0  0  0  0
   11.5333   10.8626    6.1842 C   0  0  0  0  0  0  0  0  0  0  0  0
   11.3721   12.0610    6.8438 C   0  0  0  0  0  0  0  0  0  0  0  0
   11.5501   12.1174    8.2404 C   0  0  0  0  0  0  0  0  0  0  0  0
   11.4547   13.0696    9.0027 O   0  0  0  0  0  0  0  0  0  0  0  0
   11.0529   13.0243    5.9320 N   0  0  0  0  0  0  0  0  0  0  0  0
   11.0184   12.4152    4.7281 C   0  0  0  0  0  0  0  0  0  0  0  0
   11.3088   11.0807    4.8525 N   0  0  0  0  0  0  0  0  0  0  0  0
  1  2  1  0  0  0  0
  1  6  1  0  0  0  0
  2  3  2  0  0  0  0
  3  4  1  0  0  0  0
  4  5  2  0  0  0  0
  4 10  1  0  0  0  0
  5  6  1  0  0  0  0
  5  8  1  0  0  0  0
  6  7  2  0  0  0  0
  8  9  1  0  0  0  0
  9 10  2  0  0  0  0
M  END
>  <CHROM.1>
11.50414169,11.51383535,6.97205398,-0.91200520,1.32931359,-2.14586235

>  <Name>
ligand

>  <RI>
0

>  <Rbt.Current_Directory>
/home/itssahil/PROJECTS/Mol_Feturizer/New_Systems/rnas/4FEJ

>  <Rbt.Executable>
rbdock ($Id: //depot/dev/client3/rdock/2013.1/src/exe/rbdock.cxx#4 $)

>  <Rbt.Library>
libRbt.so (2013.1, Build901 2013/11/27)

>  <Rbt.Parameter_File>
/export/apps/rDock/src/rDock_2013.1_src/data/scripts/dock_solv.prm

>  <Rbt.Receptor>
prm/blind_docking_60.prm

>  <SCORE>
-17.4665

>  <SCORE.INTER>
-17.4665

>  <SCORE.INTER.CONST>
1

>  <SCORE.INTER.POLAR>
0

>  <SCORE.INTER.ROT>
0

>  <SCORE.INTER.SOLV>
3.94985

>  <SCORE.INTER.VDW>
-16.561

>  <SCORE.INTER.norm>
-1.74665

>  <SCORE.INTRA>
0

>  <SCORE.INTRA.DIHEDRAL>
0

>  <SCORE.INTRA.DIHEDRAL.0>
0

>  <SCORE.INTRA.POLAR>
0

>  <SCORE.INTRA.POLAR.0>
0

>  <SCORE.INTRA.REPUL>
0

>  <SCORE.INTRA.REPUL.0>
0

>  <SCORE.INTRA.SOLV>
0

>  <SCORE.INTRA.SOLV.lig_0>
-4.26631

>  <SCORE.INTRA.VDW>
0

>  <SCORE.INTRA.VDW.0>
0

>  <SCORE.INTRA.norm>
0

>  <SCORE.RESTR>
0

>  <SCORE.RESTR.CAVITY>
0

>  <SCORE.RESTR.norm>
0

>  <SCORE.SYSTEM>
0

>  <SCORE.SYSTEM.CONST>
0

>  <SCORE.SYSTEM.DIHEDRAL>
0

>  <SCORE.SYSTEM.SOLV>
0

>  <SCORE.SYSTEM.norm>
0

>  <SCORE.heavy>
10

>  <SCORE.norm>
-1.74665

>  <RMSD>
2.407

$$$$
ligand
 OpenBabel11021811493D
libRbt.so/2013.1/901 2013/11/27
 10 11  0  0  0  0  0  0  0  0999 V2000
   11.8651   10.8401    8.8060 N   0  0  0  0  0  0  0  0  0  0  0  0
   12.0659    9.7010    8.0681 C   0  0  0  0  0  0  0  0  0  0  0  0
   11.9145    9.6936    6.7339 N   0  0  0  0  0  0  0  0  0  0  0  0
   11.5569   10.8900    6.2232 C   0  0  0  0  0  0  0  0  0  0  0  0
   11.3403   12.0650    6.9086 C   0  0  0  0  0  0  0  0  0  0  0  0
   11.4963   12.0941    8.3088 C   0  0  0  0  0  0  0  0  0  0  0  0
   11.3534   13.0230    9.0920 O   0  0  0  0  0  0  0  0  0  0  0  0
   10.9970   13.0373    6.0154 N   0  0  0  0  0  0  0  0  0  0  0  0
   11.0030   12.4569    4.7970 C   0  0  0  0  0  0  0  0  0  0  0  0
   11.3429   11.1318    4.8938 N   0  0  0  0  0  0  0  0  0  0  0  0
  1  2  1  0  0  0  0
  1  6  1  0  0  0  0
  2  3  2  0  0  0  0
  3  4  1  0  0  0  0
  4  5  2  0  0  0  0
  4 10  1  0  0  0  0
  5  6  1  0  0  0  0
  5  8  1  0  0  0  0
  6  7  2  0  0  0  0
  8  9  1  0  0  0  0
  9 10  2  0  0  0  0
M  END
>  <CHROM.1>
11.49149249,11.52029061,7.02583312,-1.03613004,1.30262165,-2.00161575

>  <Name>
ligand

>  <RI>
0

>  <Rbt.Current_Directory>
/home/itssahil/PROJECTS/Mol_Feturizer/New_Systems/rnas/4FEJ

>  <Rbt.Executable>
rbdock ($Id: //depot/dev/client3/rdock/2013.1/src/exe/rbdock.cxx#4 $)

>  <Rbt.Library>
libRbt.so (2013.1, Build901 2013/11/27)

>  <Rbt.Parameter_File>
/export/apps/rDock/src/rDock_2013.1_src/data/scripts/dock_solv.prm

>  <Rbt.Receptor>
prm/blind_docking_80.prm

>  <SCORE>
-17.4257

>  <SCORE.INTER>
-17.4257

>  <SCORE.INTER.CONST>
1

>  <SCORE.INTER.POLAR>
0

>  <SCORE.INTER.ROT>
0

>  <SCORE.INTER.SOLV>
3.88085

>  <SCORE.INTER.VDW>
-16.5108

>  <SCORE.INTER.norm>
-1.74257

>  <SCORE.INTRA>
0

>  <SCORE.INTRA.DIHEDRAL>
0

>  <SCORE.INTRA.DIHEDRAL.0>
0

>  <SCORE.INTRA.POLAR>
0

>  <SCORE.INTRA.POLAR.0>
0

>  <SCORE.INTRA.REPUL>
0

>  <SCORE.INTRA.REPUL.0>
0

>  <SCORE.INTRA.SOLV>
0

>  <SCORE.INTRA.SOLV.lig_0>
-4.26631

>  <SCORE.INTRA.VDW>
0

>  <SCORE.INTRA.VDW.0>
0

>  <SCORE.INTRA.norm>
0

>  <SCORE.RESTR>
0

>  <SCORE.RESTR.CAVITY>
0

>  <SCORE.RESTR.norm>
0

>  <SCORE.SYSTEM>
0

>  <SCORE.SYSTEM.CONST>
0

>  <SCORE.SYSTEM.DIHEDRAL>
0

>  <SCORE.SYSTEM.SOLV>
0

>  <SCORE.SYSTEM.norm>
0

>  <SCORE.heavy>
10

>  <SCORE.norm>
-1.74257

>  <RMSD>
2.407

$$$$
ligand
 OpenBabel11021811493D
libRbt.so/2013.1/901 2013/11/27
 10 11  0  0  0  0  0  0  0  0999 V2000
   11.8886   10.8971    8.8028 N   0  0  0  0  0  0  0  0  0  0  0  0
   12.0556    9.7290    8.1027 C   0  0  0  0  0  0  0  0  0  0  0  0
   11.8842    9.6780    6.7719 N   0  0  0  0  0  0  0  0  0  0  0  0
   11.5430   10.8630    6.2245 C   0  0  0  0  0  0  0  0  0  0  0  0
   11.3602   12.0654    6.8711 C   0  0  0  0  0  0  0  0  0  0  0  0
   11.5376   12.1402    8.2670 C   0  0  0  0  0  0  0  0  0  0  0  0
   11.4250   13.0986    9.0189 O   0  0  0  0  0  0  0  0  0  0  0  0
   11.0231   13.0127    5.9491 N   0  0  0  0  0  0  0  0  0  0  0  0
   10.9994   12.3901    4.7519 C   0  0  0  0  0  0  0  0  0  0  0  0
   11.3141   11.0625    4.8906 N   0  0  0  0  0  0  0  0  0  0  0  0
  1  2  1  0  0  0  0
  1  6  1  0  0  0  0
  2  3  2  0  0  0  0
  3  4  1  0  0  0  0
  4  5  2  0  0  0  0
  4 10  1  0  0  0  0
  5  6  1  0  0  0  0
  5  8  1  0  0  0  0
  6  7  2  0  0  0  0
  8  9  1  0  0  0  0
  9 10  2  0  0  0  0
M  END
>  <CHROM.1>
11.50219661,11.52210656,7.00522711,-0.94993036,1.31364441,-2.11996816

>  <Name>
ligand

>  <RI>
0

>  <Rbt.Current_Directory>
/home/itssahil/PROJECTS/Mol_Feturizer/New_Systems/rnas/4FEJ

>  <Rbt.Executable>
rbdock ($Id: //depot/dev/client3/rdock/2013.1/src/exe/rbdock.cxx#4 $)

>  <Rbt.Library>
libRbt.so (2013.1, Build901 2013/11/27)

>  <Rbt.Parameter_File>
/export/apps/rDock/src/rDock_2013.1_src/data/scripts/dock_solv.prm

>  <Rbt.Receptor>
prm/pocket_docking_3.prm

>  <SCORE>
-17.4533

>  <SCORE.INTER>
-17.4533

>  <SCORE.INTER.CONST>
1

>  <SCORE.INTER.POLAR>
0

>  <SCORE.INTER.ROT>
0

>  <SCORE.INTER.SOLV>
3.95344

>  <SCORE.INTER.VDW>
-16.5533

>  <SCORE.INTER.norm>
-1.74533

>  <SCORE.INTRA>
0

>  <SCORE.INTRA.DIHEDRAL>
0

>  <SCORE.INTRA.DIHEDRAL.0>
0

>  <SCORE.INTRA.POLAR>
0

>  <SCORE.INTRA.POLAR.0>
0

>  <SCORE.INTRA.REPUL>
0

>  <SCORE.INTRA.REPUL.0>
0

>  <SCORE.INTRA.SOLV>
0

>  <SCORE.INTRA.SOLV.lig_0>
-4.26631

>  <SCORE.INTRA.VDW>
0

>  <SCORE.INTRA.VDW.0>
0

>  <SCORE.INTRA.norm>
0

>  <SCORE.RESTR>
0

>  <SCORE.RESTR.CAVITY>
0

>  <SCORE.RESTR.norm>
0

>  <SCORE.SYSTEM>
0

>  <SCORE.SYSTEM.CONST>
0

>  <SCORE.SYSTEM.DIHEDRAL>
0

>  <SCORE.SYSTEM.SOLV>
0

>  <SCORE.SYSTEM.norm>
0

>  <SCORE.heavy>
10

>  <SCORE.norm>
-1.74533

>  <RMSD>
2.407

$$$$
ligand
 OpenBabel11021811493D
libRbt.so/2013.1/901 2013/11/27
 10 11  0  0  0  0  0  0  0  0999 V2000
   11.8930   10.8812    8.7980 N   0  0  0  0  0  0  0  0  0  0  0  0
   12.0608    9.7141    8.0964 C   0  0  0  0  0  0  0  0  0  0  0  0
   11.8880    9.6644    6.7657 N   0  0  0  0  0  0  0  0  0  0  0  0
   11.5447   10.8496    6.2200 C   0  0  0  0  0  0  0  0  0  0  0  0
   11.3610   12.0510    6.8682 C   0  0  0  0  0  0  0  0  0  0  0  0
   11.5398   12.1244    8.2640 C   0  0  0  0  0  0  0  0  0  0  0  0
   11.4268   13.0818    9.0172 O   0  0  0  0  0  0  0  0  0  0  0  0
   11.0217   12.9989    5.9477 N   0  0  0  0  0  0  0  0  0  0  0  0
   10.9975   12.3777    4.7498 C   0  0  0  0  0  0  0  0  0  0  0  0
   11.3141   11.0504    4.8866 N   0  0  0  0  0  0  0  0  0  0  0  0
  1  2  1  0  0  0  0
  1  6  1  0  0  0  0
  2  3  2  0  0  0  0
  3  4  1  0  0  0  0
  4  5  2  0  0  0  0
  4 10  1  0  0  0  0
  5  6  1  0  0  0  0
  5  8  1  0  0  0  0
  6  7  2  0  0  0  0
  8  9  1  0  0  0  0
  9 10  2  0  0  0  0
M  END
>  <CHROM.1>
11.50384733,11.50776839,7.00157531,-0.94902350,1.31196555,-2.11968392

>  <Name>
ligand

>  <RI>
0

>  <Rbt.Current_Directory>
/home/itssahil/PROJECTS/Mol_Feturizer/New_Systems/rnas/4FEJ

>  <Rbt.Executable>
rbdock ($Id: //depot/dev/client3/rdock/2013.1/src/exe/rbdock.cxx#4 $)

>  <Rbt.Library>
libRbt.so (2013.1, Build901 2013/11/27)

>  <Rbt.Parameter_File>
/export/apps/rDock/src/rDock_2013.1_src/data/scripts/dock_solv.prm

>  <Rbt.Receptor>
prm/pocket_docking_4.prm

>  <SCORE>
-17.4589

>  <SCORE.INTER>
-17.4589

>  <SCORE.INTER.CONST>
1

>  <SCORE.INTER.POLAR>
0

>  <SCORE.INTER.ROT>
0

>  <SCORE.INTER.SOLV>
3.93876

>  <SCORE.INTER.VDW>
-16.5522

>  <SCORE.INTER.norm>
-1.74589

>  <SCORE.INTRA>
0

>  <SCORE.INTRA.DIHEDRAL>
0

>  <SCORE.INTRA.DIHEDRAL.0>
0

>  <SCORE.INTRA.POLAR>
0

>  <SCORE.INTRA.POLAR.0>
0

>  <SCORE.INTRA.REPUL>
0

>  <SCORE.INTRA.REPUL.0>
0

>  <SCORE.INTRA.SOLV>
0

>  <SCORE.INTRA.SOLV.lig_0>
-4.26631

>  <SCORE.INTRA.VDW>
0

>  <SCORE.INTRA.VDW.0>
0

>  <SCORE.INTRA.norm>
0

>  <SCORE.RESTR>
0

>  <SCORE.RESTR.CAVITY>
0

>  <SCORE.RESTR.norm>
0

>  <SCORE.SYSTEM>
0

>  <SCORE.SYSTEM.CONST>
0

>  <SCORE.SYSTEM.DIHEDRAL>
0

>  <SCORE.SYSTEM.SOLV>
0

>  <SCORE.SYSTEM.norm>
0

>  <SCORE.heavy>
10

>  <SCORE.norm>
-1.74589

>  <RMSD>
2.407

$$$$
ligand
 OpenBabel11021811493D
libRbt.so/2013.1/901 2013/11/27
 10 11  0  0  0  0  0  0  0  0999 V2000
   11.8699   10.8742    8.7741 N   0  0  0  0  0  0  0  0  0  0  0  0
   11.9998    9.6989    8.0783 C   0  0  0  0  0  0  0  0  0  0  0  0
   11.8212    9.6475    6.7484 N   0  0  0  0  0  0  0  0  0  0  0  0
   11.5124   10.8397    6.1975 C   0  0  0  0  0  0  0  0  0  0  0  0
   11.3674   12.0495    6.8397 C   0  0  0  0  0  0  0  0  0  0  0  0
   11.5529   12.1248    8.2345 C   0  0  0  0  0  0  0  0  0  0  0  0
   11.4716   13.0892    8.9829 O   0  0  0  0  0  0  0  0  0  0  0  0
   11.0542   13.0025    5.9152 N   0  0  0  0  0  0  0  0  0  0  0  0
   11.0072   12.3759    4.7207 C   0  0  0  0  0  0  0  0  0  0  0  0
   11.2836   11.0403    4.8637 N   0  0  0  0  0  0  0  0  0  0  0  0
  1  2  1  0  0  0  0
  1  6  1  0  0  0  0
  2  3  2  0  0  0  0
  3  4  1  0  0  0  0
  4  5  2  0  0  0  0
  4 10  1  0  0  0  0
  5  6  1  0  0  0  0
  5  8  1  0  0  0  0
  6  7  2  0  0  0  0
  8  9  1  0  0  0  0
  9 10  2  0  0  0  0
M  END
>  <CHROM.1>
11.49413735,11.50290001,6.97557033,-0.86888242,1.33552254,-2.20273025

>  <Name>
ligand

>  <RI>
0

>  <Rbt.Current_Directory>
/home/itssahil/PROJECTS/Mol_Feturizer/New_Systems/rnas/4FEJ

>  <Rbt.Executable>
rbdock ($Id: //depot/dev/client3/rdock/2013.1/src/exe/rbdock.cxx#4 $)

>  <Rbt.Library>
libRbt.so (2013.1, Build901 2013/11/27)

>  <Rbt.Parameter_File>
/export/apps/rDock/src/rDock_2013.1_src/data/scripts/dock_solv.prm

>  <Rbt.Receptor>
prm/pocket_docking_4.prm

>  <SCORE>
-17.4132

>  <SCORE.INTER>
-17.4132

>  <SCORE.INTER.CONST>
1

>  <SCORE.INTER.POLAR>
0

>  <SCORE.INTER.ROT>
0

>  <SCORE.INTER.SOLV>
3.98871

>  <SCORE.INTER.VDW>
-16.5384

>  <SCORE.INTER.norm>
-1.74132

>  <SCORE.INTRA>
0

>  <SCORE.INTRA.DIHEDRAL>
0

>  <SCORE.INTRA.DIHEDRAL.0>
0

>  <SCORE.INTRA.POLAR>
0

>  <SCORE.INTRA.POLAR.0>
0

>  <SCORE.INTRA.REPUL>
0

>  <SCORE.INTRA.REPUL.0>
0

>  <SCORE.INTRA.SOLV>
0

>  <SCORE.INTRA.SOLV.lig_0>
-4.26631

>  <SCORE.INTRA.VDW>
0

>  <SCORE.INTRA.VDW.0>
0

>  <SCORE.INTRA.norm>
0

>  <SCORE.RESTR>
0

>  <SCORE.RESTR.CAVITY>
0

>  <SCORE.RESTR.norm>
0

>  <SCORE.SYSTEM>
0

>  <SCORE.SYSTEM.CONST>
0

>  <SCORE.SYSTEM.DIHEDRAL>
0

>  <SCORE.SYSTEM.SOLV>
0

>  <SCORE.SYSTEM.norm>
0

>  <SCORE.heavy>
10

>  <SCORE.norm>
-1.74132

>  <RMSD>
2.407

$$$$
ligand
 OpenBabel11021811493D
libRbt.so/2013.1/901 2013/11/27
 10 11  0  0  0  0  0  0  0  0999 V2000
   11.8703   10.8684    8.7767 N   0  0  0  0  0  0  0  0  0  0  0  0
   12.0038    9.6947    8.0788 C   0  0  0  0  0  0  0  0  0  0  0  0
   11.8275    9.6454    6.7485 N   0  0  0  0  0  0  0  0  0  0  0  0
   11.5169   10.8380    6.1994 C   0  0  0  0  0  0  0  0  0  0  0  0
   11.3684   12.0463    6.8437 C   0  0  0  0  0  0  0  0  0  0  0  0
   11.5515   12.1193    8.2389 C   0  0  0  0  0  0  0  0  0  0  0  0
   11.4669   13.0821    8.9890 O   0  0  0  0  0  0  0  0  0  0  0  0
   11.0546   13.0003    5.9205 N   0  0  0  0  0  0  0  0  0  0  0  0
   11.0108   12.3760    4.7247 C   0  0  0  0  0  0  0  0  0  0  0  0
   11.2899   11.0407    4.8656 N   0  0  0  0  0  0  0  0  0  0  0  0
  1  2  1  0  0  0  0
  1  6  1  0  0  0  0
  2  3  2  0  0  0  0
  3  4  1  0  0  0  0
  4  5  2  0  0  0  0
  4 10  1  0  0  0  0
  5  6  1  0  0  0  0
  5  8  1  0  0  0  0
  6  7  2  0  0  0  0
  8  9  1  0  0  0  0
  9 10  2  0  0  0  0
M  END
>  <CHROM.1>
11.49604188,11.49969509,6.97869067,-0.87974502,1.33472102,-2.19026677

>  <Name>
ligand

>  <RI>
0

>  <Rbt.Current_Directory>
/home/itssahil/PROJECTS/Mol_Feturizer/New_Systems/rnas/4FEJ

>  <Rbt.Executable>
rbdock ($Id: //depot/dev/client3/rdock/2013.1/src/exe/rbdock.cxx#4 $)

>  <Rbt.Library>
libRbt.so (2013.1, Build901 2013/11/27)

>  <Rbt.Parameter_File>
/export/apps/rDock/src/rDock_2013.1_src/data/scripts/dock_solv.prm

>  <Rbt.Receptor>
prm/pocket_docking_5.prm

>  <SCORE>
-17.4152

>  <SCORE.INTER>
-17.4152

>  <SCORE.INTER.CONST>
1

>  <SCORE.INTER.POLAR>
0

>  <SCORE.INTER.ROT>
0

>  <SCORE.INTER.SOLV>
3.98002

>  <SCORE.INTER.VDW>
-16.5368

>  <SCORE.INTER.norm>
-1.74152

>  <SCORE.INTRA>
0

>  <SCORE.INTRA.DIHEDRAL>
0

>  <SCORE.INTRA.DIHEDRAL.0>
0

>  <SCORE.INTRA.POLAR>
0

>  <SCORE.INTRA.POLAR.0>
0

>  <SCORE.INTRA.REPUL>
0

>  <SCORE.INTRA.REPUL.0>
0

>  <SCORE.INTRA.SOLV>
0

>  <SCORE.INTRA.SOLV.lig_0>
-4.26631

>  <SCORE.INTRA.VDW>
0

>  <SCORE.INTRA.VDW.0>
0

>  <SCORE.INTRA.norm>
0

>  <SCORE.RESTR>
0

>  <SCORE.RESTR.CAVITY>
0

>  <SCORE.RESTR.norm>
0

>  <SCORE.SYSTEM>
0

>  <SCORE.SYSTEM.CONST>
0

>  <SCORE.SYSTEM.DIHEDRAL>
0

>  <SCORE.SYSTEM.SOLV>
0

>  <SCORE.SYSTEM.norm>
0

>  <SCORE.heavy>
10

>  <SCORE.norm>
-1.74152

>  <RMSD>
2.407

$$$$
ligand
 OpenBabel11021811493D
libRbt.so/2013.1/901 2013/11/27
 10 11  0  0  0  0  0  0  0  0999 V2000
   11.8828   10.8391    8.7842 N   0  0  0  0  0  0  0  0  0  0  0  0
   12.0477    9.6855    8.0601 C   0  0  0  0  0  0  0  0  0  0  0  0
   11.8886    9.6652    6.7269 N   0  0  0  0  0  0  0  0  0  0  0  0
   11.5618   10.8646    6.2027 C   0  0  0  0  0  0  0  0  0  0  0  0
   11.3820   12.0539    6.8739 C   0  0  0  0  0  0  0  0  0  0  0  0
   11.5465   12.0964    8.2728 C   0  0  0  0  0  0  0  0  0  0  0  0
   11.4341   13.0389    9.0447 O   0  0  0  0  0  0  0  0  0  0  0  0
   11.0611   13.0239    5.9701 N   0  0  0  0  0  0  0  0  0  0  0  0
   11.0441   12.4281    4.7592 C   0  0  0  0  0  0  0  0  0  0  0  0
   11.3473   11.0953    4.8714 N   0  0  0  0  0  0  0  0  0  0  0  0
  1  2  1  0  0  0  0
  1  6  1  0  0  0  0
  2  3  2  0  0  0  0
  3  4  1  0  0  0  0
  4  5  2  0  0  0  0
  4 10  1  0  0  0  0
  5  6  1  0  0  0  0
  5  8  1  0  0  0  0
  6  7  2  0  0  0  0
  8  9  1  0  0  0  0
  9 10  2  0  0  0  0
M  END
>  <CHROM.1>
11.51855290,11.50664208,6.99736986,-0.96723080,1.32515798,-2.08109945

>  <Name>
ligand

>  <RI>
0

>  <Rbt.Current_Directory>
/home/itssahil/PROJECTS/Mol_Feturizer/New_Systems/rnas/4FEJ

>  <Rbt.Executable>
rbdock ($Id: //depot/dev/client3/rdock/2013.1/src/exe/rbdock.cxx#4 $)

>  <Rbt.Library>
libRbt.so (2013.1, Build901 2013/11/27)

>  <Rbt.Parameter_File>
/export/apps/rDock/src/rDock_2013.1_src/data/scripts/dock_solv.prm

>  <Rbt.Receptor>
prm/pocket_docking_6.prm

>  <SCORE>
-17.467

>  <SCORE.INTER>
-17.467

>  <SCORE.INTER.CONST>
1

>  <SCORE.INTER.POLAR>
0

>  <SCORE.INTER.ROT>
0

>  <SCORE.INTER.SOLV>
3.91432

>  <SCORE.INTER.VDW>
-16.5494

>  <SCORE.INTER.norm>
-1.7467

>  <SCORE.INTRA>
0

>  <SCORE.INTRA.DIHEDRAL>
0

>  <SCORE.INTRA.DIHEDRAL.0>
0

>  <SCORE.INTRA.POLAR>
0

>  <SCORE.INTRA.POLAR.0>
0

>  <SCORE.INTRA.REPUL>
0

>  <SCORE.INTRA.REPUL.0>
0

>  <SCORE.INTRA.SOLV>
0

>  <SCORE.INTRA.SOLV.lig_0>
-4.26631

>  <SCORE.INTRA.VDW>
0

>  <SCORE.INTRA.VDW.0>
0

>  <SCORE.INTRA.norm>
0

>  <SCORE.RESTR>
0

>  <SCORE.RESTR.CAVITY>
0

>  <SCORE.RESTR.norm>
0

>  <SCORE.SYSTEM>
0

>  <SCORE.SYSTEM.CONST>
0

>  <SCORE.SYSTEM.DIHEDRAL>
0

>  <SCORE.SYSTEM.SOLV>
0

>  <SCORE.SYSTEM.norm>
0

>  <SCORE.heavy>
10

>  <SCORE.norm>
-1.7467

>  <RMSD>
2.407

$$$$
ligand
 OpenBabel11021811493D
libRbt.so/2013.1/901 2013/11/27
 10 11  0  0  0  0  0  0  0  0999 V2000
   11.8948   10.8643    8.7769 N   0  0  0  0  0  0  0  0  0  0  0  0
   12.0695    9.7108    8.0549 C   0  0  0  0  0  0  0  0  0  0  0  0
   11.9072    9.6858    6.7222 N   0  0  0  0  0  0  0  0  0  0  0  0
   11.5667   10.8806    6.1961 C   0  0  0  0  0  0  0  0  0  0  0  0
   11.3765   12.0695    6.8651 C   0  0  0  0  0  0  0  0  0  0  0  0
   11.5443   12.1170    8.2634 C   0  0  0  0  0  0  0  0  0  0  0  0
   11.4243   13.0600    9.0335 O   0  0  0  0  0  0  0  0  0  0  0  0
   11.0434   13.0341    5.9599 N   0  0  0  0  0  0  0  0  0  0  0  0
   11.0293   12.4354    4.7504 C   0  0  0  0  0  0  0  0  0  0  0  0
   11.3463   11.1061    4.8649 N   0  0  0  0  0  0  0  0  0  0  0  0
  1  2  1  0  0  0  0
  1  6  1  0  0  0  0
  2  3  2  0  0  0  0
  3  4  1  0  0  0  0
  4  5  2  0  0  0  0
  4 10  1  0  0  0  0
  5  6  1  0  0  0  0
  5  8  1  0  0  0  0
  6  7  2  0  0  0  0
  8  9  1  0  0  0  0
  9 10  2  0  0  0  0
M  END
>  <CHROM.1>
11.51900228,11.52399746,6.98945331,-0.97788985,1.31495948,-2.07306616

>  <Name>
ligand

>  <RI>
0

>  <Rbt.Current_Directory>
/home/itssahil/PROJECTS/Mol_Feturizer/New_Systems/rnas/4FEJ

>  <Rbt.Executable>
rbdock ($Id: //depot/dev/client3/rdock/2013.1/src/exe/rbdock.cxx#4 $)

>  <Rbt.Library>
libRbt.so (2013.1, Build901 2013/11/27)

>  <Rbt.Parameter_File>
/export/apps/rDock/src/rDock_2013.1_src/data/scripts/dock_solv.prm

>  <Rbt.Receptor>
prm/pocket_docking_6.prm

>  <SCORE>
-17.5211

>  <SCORE.INTER>
-17.5211

>  <SCORE.INTER.CONST>
1

>  <SCORE.INTER.POLAR>
0

>  <SCORE.INTER.ROT>
0

>  <SCORE.INTER.SOLV>
3.91393

>  <SCORE.INTER.VDW>
-16.5854

>  <SCORE.INTER.norm>
-1.75211

>  <SCORE.INTRA>
0

>  <SCORE.INTRA.DIHEDRAL>
0

>  <SCORE.INTRA.DIHEDRAL.0>
0

>  <SCORE.INTRA.POLAR>
0

>  <SCORE.INTRA.POLAR.0>
0

>  <SCORE.INTRA.REPUL>
0

>  <SCORE.INTRA.REPUL.0>
0

>  <SCORE.INTRA.SOLV>
0

>  <SCORE.INTRA.SOLV.lig_0>
-4.26631

>  <SCORE.INTRA.VDW>
0

>  <SCORE.INTRA.VDW.0>
0

>  <SCORE.INTRA.norm>
0

>  <SCORE.RESTR>
0

>  <SCORE.RESTR.CAVITY>
0

>  <SCORE.RESTR.norm>
0

>  <SCORE.SYSTEM>
0

>  <SCORE.SYSTEM.CONST>
0

>  <SCORE.SYSTEM.DIHEDRAL>
0

>  <SCORE.SYSTEM.SOLV>
0

>  <SCORE.SYSTEM.norm>
0

>  <SCORE.heavy>
10

>  <SCORE.norm>
-1.75211

>  <RMSD>
2.407

$$$$
ligand
 OpenBabel11021811493D
libRbt.so/2013.1/901 2013/11/27
 10 11  0  0  0  0  0  0  0  0999 V2000
   11.8969   10.8866    8.7855 N   0  0  0  0  0  0  0  0  0  0  0  0
   12.0673    9.7249    8.0756 C   0  0  0  0  0  0  0  0  0  0  0  0
   11.9067    9.6871    6.7429 N   0  0  0  0  0  0  0  0  0  0  0  0
   11.5725   10.8780    6.2042 C   0  0  0  0  0  0  0  0  0  0  0  0
   11.3868   12.0745    6.8608 C   0  0  0  0  0  0  0  0  0  0  0  0
   11.5529   12.1355    8.2587 C   0  0  0  0  0  0  0  0  0  0  0  0
   11.4361   13.0870    9.0189 O   0  0  0  0  0  0  0  0  0  0  0  0
   11.0593   13.0313    5.9452 N   0  0  0  0  0  0  0  0  0  0  0  0
   11.0442   12.4203    4.7419 C   0  0  0  0  0  0  0  0  0  0  0  0
   11.3550   11.0908    4.8704 N   0  0  0  0  0  0  0  0  0  0  0  0
  1  2  1  0  0  0  0
  1  6  1  0  0  0  0
  2  3  2  0  0  0  0
  3  4  1  0  0  0  0
  4  5  2  0  0  0  0
  4 10  1  0  0  0  0
  5  6  1  0  0  0  0
  5  8  1  0  0  0  0
  6  7  2  0  0  0  0
  8  9  1  0  0  0  0
  9 10  2  0  0  0  0
M  END
>  <CHROM.1>
11.52660010,11.52968075,6.99086183,-0.97386175,1.31964040,-2.08719947

>  <Name>
ligand

>  <RI>
0

>  <Rbt.Current_Directory>
/home/itssahil/PROJECTS/Mol_Feturizer/New_Systems/rnas/4FEJ

>  <Rbt.Executable>
rbdock ($Id: //depot/dev/client3/rdock/2013.1/src/exe/rbdock.cxx#4 $)

>  <Rbt.Library>
libRbt.so (2013.1, Build901 2013/11/27)

>  <Rbt.Parameter_File>
/export/apps/rDock/src/rDock_2013.1_src/data/scripts/dock_solv.prm

>  <Rbt.Receptor>
prm/pocket_docking_6.prm

>  <SCORE>
-17.5193

>  <SCORE.INTER>
-17.5193

>  <SCORE.INTER.CONST>
1

>  <SCORE.INTER.POLAR>
0

>  <SCORE.INTER.ROT>
0

>  <SCORE.INTER.SOLV>
3.9485

>  <SCORE.INTER.VDW>
-16.5957

>  <SCORE.INTER.norm>
-1.75193

>  <SCORE.INTRA>
0

>  <SCORE.INTRA.DIHEDRAL>
0

>  <SCORE.INTRA.DIHEDRAL.0>
0

>  <SCORE.INTRA.POLAR>
0

>  <SCORE.INTRA.POLAR.0>
0

>  <SCORE.INTRA.REPUL>
0

>  <SCORE.INTRA.REPUL.0>
0

>  <SCORE.INTRA.SOLV>
0

>  <SCORE.INTRA.SOLV.lig_0>
-4.26631

>  <SCORE.INTRA.VDW>
0

>  <SCORE.INTRA.VDW.0>
0

>  <SCORE.INTRA.norm>
0

>  <SCORE.RESTR>
0

>  <SCORE.RESTR.CAVITY>
0

>  <SCORE.RESTR.norm>
0

>  <SCORE.SYSTEM>
0

>  <SCORE.SYSTEM.CONST>
0

>  <SCORE.SYSTEM.DIHEDRAL>
0

>  <SCORE.SYSTEM.SOLV>
0

>  <SCORE.SYSTEM.norm>
0

>  <SCORE.heavy>
10

>  <SCORE.norm>
-1.75193

>  <RMSD>
2.407

$$$$
ligand
 OpenBabel11021811493D
libRbt.so/2013.1/901 2013/11/27
 10 11  0  0  0  0  0  0  0  0999 V2000
   11.8727   10.9100    8.8297 N   0  0  0  0  0  0  0  0  0  0  0  0
   12.0049    9.7187    8.1621 C   0  0  0  0  0  0  0  0  0  0  0  0
   11.8315    9.6362    6.8331 N   0  0  0  0  0  0  0  0  0  0  0  0
   11.5253   10.8152    6.2532 C   0  0  0  0  0  0  0  0  0  0  0  0
   11.3784   12.0399    6.8663 C   0  0  0  0  0  0  0  0  0  0  0  0
   11.5584   12.1477    8.2597 C   0  0  0  0  0  0  0  0  0  0  0  0
   11.4745   13.1294    8.9850 O   0  0  0  0  0  0  0  0  0  0  0  0
   11.0692   12.9710    5.9185 N   0  0  0  0  0  0  0  0  0  0  0  0
   11.0266   12.3167    4.7389 C   0  0  0  0  0  0  0  0  0  0  0  0
   11.3019   10.9847    4.9141 N   0  0  0  0  0  0  0  0  0  0  0  0
  1  2  1  0  0  0  0
  1  6  1  0  0  0  0
  2  3  2  0  0  0  0
  3  4  1  0  0  0  0
  4  5  2  0  0  0  0
  4 10  1  0  0  0  0
  5  6  1  0  0  0  0
  5  8  1  0  0  0  0
  6  7  2  0  0  0  0
  8  9  1  0  0  0  0
  9 10  2  0  0  0  0
M  END
>  <CHROM.1>
11.50430643,11.49651163,7.01544537,-0.88160140,1.33816914,-2.21376816

>  <Name>
ligand

>  <RI>
0

>  <Rbt.Current_Directory>
/home/itssahil/PROJECTS/Mol_Feturizer/New_Systems/rnas/4FEJ

>  <Rbt.Executable>
rbdock ($Id: //depot/dev/client3/rdock/2013.1/src/exe/rbdock.cxx#4 $)

>  <Rbt.Library>
libRbt.so (2013.1, Build901 2013/11/27)

>  <Rbt.Parameter_File>
/export/apps/rDock/src/rDock_2013.1_src/data/scripts/dock_solv.prm

>  <Rbt.Receptor>
prm/pocket_docking_7.prm

>  <SCORE>
-17.4111

>  <SCORE.INTER>
-17.4111

>  <SCORE.INTER.CONST>
1

>  <SCORE.INTER.POLAR>
0

>  <SCORE.INTER.ROT>
0

>  <SCORE.INTER.SOLV>
4.03611

>  <SCORE.INTER.VDW>
-16.5527

>  <SCORE.INTER.norm>
-1.74111

>  <SCORE.INTRA>
0

>  <SCORE.INTRA.DIHEDRAL>
0

>  <SCORE.INTRA.DIHEDRAL.0>
0

>  <SCORE.INTRA.POLAR>
0

>  <SCORE.INTRA.POLAR.0>
0

>  <SCORE.INTRA.REPUL>
0

>  <SCORE.INTRA.REPUL.0>
0

>  <SCORE.INTRA.SOLV>
0

>  <SCORE.INTRA.SOLV.lig_0>
-4.26631

>  <SCORE.INTRA.VDW>
0

>  <SCORE.INTRA.VDW.0>
0

>  <SCORE.INTRA.norm>
0

>  <SCORE.RESTR>
0

>  <SCORE.RESTR.CAVITY>
0

>  <SCORE.RESTR.norm>
0

>  <SCORE.SYSTEM>
0

>  <SCORE.SYSTEM.CONST>
0

>  <SCORE.SYSTEM.DIHEDRAL>
0

>  <SCORE.SYSTEM.SOLV>
0

>  <SCORE.SYSTEM.norm>
0

>  <SCORE.heavy>
10

>  <SCORE.norm>
-1.74111

>  <RMSD>
2.407

$$$$
ligand
 OpenBabel11021811493D
libRbt.so/2013.1/901 2013/11/27
 10 11  0  0  0  0  0  0  0  0999 V2000
   11.8923   10.8914    8.7907 N   0  0  0  0  0  0  0  0  0  0  0  0
   12.0628    9.7190    8.0987 C   0  0  0  0  0  0  0  0  0  0  0  0
   11.8882    9.6575    6.7687 N   0  0  0  0  0  0  0  0  0  0  0  0
   11.5404   10.8370    6.2136 C   0  0  0  0  0  0  0  0  0  0  0  0
   11.3538   12.0432    6.8519 C   0  0  0  0  0  0  0  0  0  0  0  0
   11.5344   12.1290    8.2467 C   0  0  0  0  0  0  0  0  0  0  0  0
   11.4195   13.0924    8.9920 O   0  0  0  0  0  0  0  0  0  0  0  0
   11.0103   12.9823    5.9239 N   0  0  0  0  0  0  0  0  0  0  0  0
   10.9863   12.3509    4.7313 C   0  0  0  0  0  0  0  0  0  0  0  0
   11.3072   11.0258    4.8789 N   0  0  0  0  0  0  0  0  0  0  0  0
  1  2  1  0  0  0  0
  1  6  1  0  0  0  0
  2  3  2  0  0  0  0
  3  4  1  0  0  0  0
  4  5  2  0  0  0  0
  4 10  1  0  0  0  0
  5  6  1  0  0  0  0
  5  8  1  0  0  0  0
  6  7  2  0  0  0  0
  8  9  1  0  0  0  0
  9 10  2  0  0  0  0
M  END
>  <CHROM.1>
11.49861600,11.50158942,6.98962015,-0.95059313,1.30854401,-2.12660834

>  <Name>
ligand

>  <RI>
0

>  <Rbt.Current_Directory>
/home/itssahil/PROJECTS/Mol_Feturizer/New_Systems/rnas/4FEJ

>  <Rbt.Executable>
rbdock ($Id: //depot/dev/client3/rdock/2013.1/src/exe/rbdock.cxx#4 $)

>  <Rbt.Library>
libRbt.so (2013.1, Build901 2013/11/27)

>  <Rbt.Parameter_File>
/export/apps/rDock/src/rDock_2013.1_src/data/scripts/dock_solv.prm

>  <Rbt.Receptor>
prm/blind_docking_100.prm

>  <SCORE>
-17.462

>  <SCORE.INTER>
-17.462

>  <SCORE.INTER.CONST>
1

>  <SCORE.INTER.POLAR>
0

>  <SCORE.INTER.ROT>
0

>  <SCORE.INTER.SOLV>
3.94315

>  <SCORE.INTER.VDW>
-16.5557

>  <SCORE.INTER.norm>
-1.7462

>  <SCORE.INTRA>
0

>  <SCORE.INTRA.DIHEDRAL>
0

>  <SCORE.INTRA.DIHEDRAL.0>
0

>  <SCORE.INTRA.POLAR>
0

>  <SCORE.INTRA.POLAR.0>
0

>  <SCORE.INTRA.REPUL>
0

>  <SCORE.INTRA.REPUL.0>
0

>  <SCORE.INTRA.SOLV>
0

>  <SCORE.INTRA.SOLV.lig_0>
-4.26631

>  <SCORE.INTRA.VDW>
0

>  <SCORE.INTRA.VDW.0>
0

>  <SCORE.INTRA.norm>
0

>  <SCORE.RESTR>
0

>  <SCORE.RESTR.CAVITY>
0

>  <SCORE.RESTR.norm>
0

>  <SCORE.SYSTEM>
0

>  <SCORE.SYSTEM.CONST>
0

>  <SCORE.SYSTEM.DIHEDRAL>
0

>  <SCORE.SYSTEM.SOLV>
0

>  <SCORE.SYSTEM.norm>
0

>  <SCORE.heavy>
10

>  <SCORE.norm>
-1.7462

>  <RMSD>
2.408

$$$$
ligand
 OpenBabel11021811493D
libRbt.so/2013.1/901 2013/11/27
 10 11  0  0  0  0  0  0  0  0999 V2000
   11.8708   10.8573    8.7595 N   0  0  0  0  0  0  0  0  0  0  0  0
   12.0254    9.6948    8.0473 C   0  0  0  0  0  0  0  0  0  0  0  0
   11.8523    9.6591    6.7162 N   0  0  0  0  0  0  0  0  0  0  0  0
   11.5226   10.8530    6.1813 C   0  0  0  0  0  0  0  0  0  0  0  0
   11.3525   12.0506    6.8403 C   0  0  0  0  0  0  0  0  0  0  0  0
   11.5319   12.1093    8.2367 C   0  0  0  0  0  0  0  0  0  0  0  0
   11.4296   13.0611    8.9985 O   0  0  0  0  0  0  0  0  0  0  0  0
   11.0242   13.0106    5.9284 N   0  0  0  0  0  0  0  0  0  0  0  0
   10.9932   12.4005    4.7249 C   0  0  0  0  0  0  0  0  0  0  0  0
   11.2946   11.0685    4.8497 N   0  0  0  0  0  0  0  0  0  0  0  0
  1  2  1  0  0  0  0
  1  6  1  0  0  0  0
  2  3  2  0  0  0  0
  3  4  1  0  0  0  0
  4  5  2  0  0  0  0
  4 10  1  0  0  0  0
  5  6  1  0  0  0  0
  5  8  1  0  0  0  0
  6  7  2  0  0  0  0
  8  9  1  0  0  0  0
  9 10  2  0  0  0  0
M  END
>  <CHROM.1>
11.48915359,11.50453287,6.96874580,-0.92555534,1.32172415,-2.13335550

>  <Name>
ligand

>  <RI>
0

>  <Rbt.Current_Directory>
/home/itssahil/PROJECTS/Mol_Feturizer/New_Systems/rnas/4FEJ

>  <Rbt.Executable>
rbdock ($Id: //depot/dev/client3/rdock/2013.1/src/exe/rbdock.cxx#4 $)

>  <Rbt.Library>
libRbt.so (2013.1, Build901 2013/11/27)

>  <Rbt.Parameter_File>
/export/apps/rDock/src/rDock_2013.1_src/data/scripts/dock_solv.prm

>  <Rbt.Receptor>
prm/blind_docking_40.prm

>  <SCORE>
-17.4658

>  <SCORE.INTER>
-17.4658

>  <SCORE.INTER.CONST>
1

>  <SCORE.INTER.POLAR>
0

>  <SCORE.INTER.ROT>
0

>  <SCORE.INTER.SOLV>
3.93036

>  <SCORE.INTER.VDW>
-16.554

>  <SCORE.INTER.norm>
-1.74658

>  <SCORE.INTRA>
0

>  <SCORE.INTRA.DIHEDRAL>
0

>  <SCORE.INTRA.DIHEDRAL.0>
0

>  <SCORE.INTRA.POLAR>
0

>  <SCORE.INTRA.POLAR.0>
0

>  <SCORE.INTRA.REPUL>
0

>  <SCORE.INTRA.REPUL.0>
0

>  <SCORE.INTRA.SOLV>
0

>  <SCORE.INTRA.SOLV.lig_0>
-4.26631

>  <SCORE.INTRA.VDW>
0

>  <SCORE.INTRA.VDW.0>
0

>  <SCORE.INTRA.norm>
0

>  <SCORE.RESTR>
0

>  <SCORE.RESTR.CAVITY>
0

>  <SCORE.RESTR.norm>
0

>  <SCORE.SYSTEM>
0

>  <SCORE.SYSTEM.CONST>
0

>  <SCORE.SYSTEM.DIHEDRAL>
0

>  <SCORE.SYSTEM.SOLV>
0

>  <SCORE.SYSTEM.norm>
0

>  <SCORE.heavy>
10

>  <SCORE.norm>
-1.74658

>  <RMSD>
2.408

$$$$
ligand
 OpenBabel11021811493D
libRbt.so/2013.1/901 2013/11/27
 10 11  0  0  0  0  0  0  0  0999 V2000
   11.8888   10.8813    8.7867 N   0  0  0  0  0  0  0  0  0  0  0  0
   12.0621    9.7204    8.0762 C   0  0  0  0  0  0  0  0  0  0  0  0
   11.9054    9.6837    6.7431 N   0  0  0  0  0  0  0  0  0  0  0  0
   11.5719   10.8749    6.2045 C   0  0  0  0  0  0  0  0  0  0  0  0
   11.3835   12.0707    6.8616 C   0  0  0  0  0  0  0  0  0  0  0  0
   11.5455   12.1305    8.2601 C   0  0  0  0  0  0  0  0  0  0  0  0
   11.4258   13.0811    9.0208 O   0  0  0  0  0  0  0  0  0  0  0  0
   11.0580   13.0281    5.9460 N   0  0  0  0  0  0  0  0  0  0  0  0
   11.0467   12.4182    4.7421 C   0  0  0  0  0  0  0  0  0  0  0  0
   11.3581   11.0888    4.8703 N   0  0  0  0  0  0  0  0  0  0  0  0
  1  2  1  0  0  0  0
  1  6  1  0  0  0  0
  2  3  2  0  0  0  0
  3  4  1  0  0  0  0
  4  5  2  0  0  0  0
  4 10  1  0  0  0  0
  5  6  1  0  0  0  0
  5  8  1  0  0  0  0
  6  7  2  0  0  0  0
  8  9  1  0  0  0  0
  9 10  2  0  0  0  0
M  END
>  <CHROM.1>
11.52329233,11.52579886,6.99162852,-0.98542044,1.32042754,-2.07507768

>  <Name>
ligand

>  <RI>
0

>  <Rbt.Current_Directory>
/home/itssahil/PROJECTS/Mol_Feturizer/New_Systems/rnas/4FEJ

>  <Rbt.Executable>
rbdock ($Id: //depot/dev/client3/rdock/2013.1/src/exe/rbdock.cxx#4 $)

>  <Rbt.Library>
libRbt.so (2013.1, Build901 2013/11/27)

>  <Rbt.Parameter_File>
/export/apps/rDock/src/rDock_2013.1_src/data/scripts/dock_solv.prm

>  <Rbt.Receptor>
prm/blind_docking_40.prm

>  <SCORE>
-17.5217

>  <SCORE.INTER>
-17.5217

>  <SCORE.INTER.CONST>
1

>  <SCORE.INTER.POLAR>
0

>  <SCORE.INTER.ROT>
0

>  <SCORE.INTER.SOLV>
3.9428

>  <SCORE.INTER.VDW>
-16.5954

>  <SCORE.INTER.norm>
-1.75217

>  <SCORE.INTRA>
0

>  <SCORE.INTRA.DIHEDRAL>
0

>  <SCORE.INTRA.DIHEDRAL.0>
0

>  <SCORE.INTRA.POLAR>
0

>  <SCORE.INTRA.POLAR.0>
0

>  <SCORE.INTRA.REPUL>
0

>  <SCORE.INTRA.REPUL.0>
0

>  <SCORE.INTRA.SOLV>
0

>  <SCORE.INTRA.SOLV.lig_0>
-4.26631

>  <SCORE.INTRA.VDW>
0

>  <SCORE.INTRA.VDW.0>
0

>  <SCORE.INTRA.norm>
0

>  <SCORE.RESTR>
0

>  <SCORE.RESTR.CAVITY>
0

>  <SCORE.RESTR.norm>
0

>  <SCORE.SYSTEM>
0

>  <SCORE.SYSTEM.CONST>
0

>  <SCORE.SYSTEM.DIHEDRAL>
0

>  <SCORE.SYSTEM.SOLV>
0

>  <SCORE.SYSTEM.norm>
0

>  <SCORE.heavy>
10

>  <SCORE.norm>
-1.75217

>  <RMSD>
2.408

$$$$
ligand
 OpenBabel11021811493D
libRbt.so/2013.1/901 2013/11/27
 10 11  0  0  0  0  0  0  0  0999 V2000
   11.8682   10.8629    8.7569 N   0  0  0  0  0  0  0  0  0  0  0  0
   12.0007    9.6942    8.0504 C   0  0  0  0  0  0  0  0  0  0  0  0
   11.8288    9.6558    6.7192 N   0  0  0  0  0  0  0  0  0  0  0  0
   11.5236   10.8534    6.1782 C   0  0  0  0  0  0  0  0  0  0  0  0
   11.3763   12.0572    6.8313 C   0  0  0  0  0  0  0  0  0  0  0  0
   11.5549   12.1189    8.2278 C   0  0  0  0  0  0  0  0  0  0  0  0
   11.4705   13.0761    8.9849 O   0  0  0  0  0  0  0  0  0  0  0  0
   11.0685   13.0192    5.9145 N   0  0  0  0  0  0  0  0  0  0  0  0
   11.0270   12.4042    4.7138 C   0  0  0  0  0  0  0  0  0  0  0  0
   11.3018   11.0671    4.8453 N   0  0  0  0  0  0  0  0  0  0  0  0
  1  2  1  0  0  0  0
  1  6  1  0  0  0  0
  2  3  2  0  0  0  0
  3  4  1  0  0  0  0
  4  5  2  0  0  0  0
  4 10  1  0  0  0  0
  5  6  1  0  0  0  0
  5  8  1  0  0  0  0
  6  7  2  0  0  0  0
  8  9  1  0  0  0  0
  9 10  2  0  0  0  0
M  END
>  <CHROM.1>
11.50197022,11.50914126,6.96257480,-0.88465790,1.33907013,-2.17776167

>  <Name>
ligand

>  <RI>
0

>  <Rbt.Current_Directory>
/home/itssahil/PROJECTS/Mol_Feturizer/New_Systems/rnas/4FEJ

>  <Rbt.Executable>
rbdock ($Id: //depot/dev/client3/rdock/2013.1/src/exe/rbdock.cxx#4 $)

>  <Rbt.Library>
libRbt.so (2013.1, Build901 2013/11/27)

>  <Rbt.Parameter_File>
/export/apps/rDock/src/rDock_2013.1_src/data/scripts/dock_solv.prm

>  <Rbt.Receptor>
prm/blind_docking_60.prm

>  <SCORE>
-17.4348

>  <SCORE.INTER>
-17.4348

>  <SCORE.INTER.CONST>
1

>  <SCORE.INTER.POLAR>
0

>  <SCORE.INTER.ROT>
0

>  <SCORE.INTER.SOLV>
3.97422

>  <SCORE.INTER.VDW>
-16.548

>  <SCORE.INTER.norm>
-1.74348

>  <SCORE.INTRA>
0

>  <SCORE.INTRA.DIHEDRAL>
0

>  <SCORE.INTRA.DIHEDRAL.0>
0

>  <SCORE.INTRA.POLAR>
0

>  <SCORE.INTRA.POLAR.0>
0

>  <SCORE.INTRA.REPUL>
0

>  <SCORE.INTRA.REPUL.0>
0

>  <SCORE.INTRA.SOLV>
0

>  <SCORE.INTRA.SOLV.lig_0>
-4.26631

>  <SCORE.INTRA.VDW>
0

>  <SCORE.INTRA.VDW.0>
0

>  <SCORE.INTRA.norm>
0

>  <SCORE.RESTR>
0

>  <SCORE.RESTR.CAVITY>
0

>  <SCORE.RESTR.norm>
0

>  <SCORE.SYSTEM>
0

>  <SCORE.SYSTEM.CONST>
0

>  <SCORE.SYSTEM.DIHEDRAL>
0

>  <SCORE.SYSTEM.SOLV>
0

>  <SCORE.SYSTEM.norm>
0

>  <SCORE.heavy>
10

>  <SCORE.norm>
-1.74348

>  <RMSD>
2.408

$$$$
ligand
 OpenBabel11021811493D
libRbt.so/2013.1/901 2013/11/27
 10 11  0  0  0  0  0  0  0  0999 V2000
   11.8995   10.8746    8.7759 N   0  0  0  0  0  0  0  0  0  0  0  0
   12.0815    9.7161    8.0637 C   0  0  0  0  0  0  0  0  0  0  0  0
   11.9176    9.6784    6.7315 N   0  0  0  0  0  0  0  0  0  0  0  0
   11.5679   10.8662    6.1956 C   0  0  0  0  0  0  0  0  0  0  0  0
   11.3701   12.0594    6.8545 C   0  0  0  0  0  0  0  0  0  0  0  0
   11.5394   12.1202    8.2521 C   0  0  0  0  0  0  0  0  0  0  0  0
   11.4137   13.0691    9.0141 O   0  0  0  0  0  0  0  0  0  0  0  0
   11.0288   13.0137    5.9414 N   0  0  0  0  0  0  0  0  0  0  0  0
   11.0174   12.4044    4.7372 C   0  0  0  0  0  0  0  0  0  0  0  0
   11.3441   11.0784    4.8627 N   0  0  0  0  0  0  0  0  0  0  0  0
  1  2  1  0  0  0  0
  1  6  1  0  0  0  0
  2  3  2  0  0  0  0
  3  4  1  0  0  0  0
  4  5  2  0  0  0  0
  4 10  1  0  0  0  0
  5  6  1  0  0  0  0
  5  8  1  0  0  0  0
  6  7  2  0  0  0  0
  8  9  1  0  0  0  0
  9 10  2  0  0  0  0
M  END
>  <CHROM.1>
11.51664584,11.51606144,6.98336863,-0.98657666,1.30802635,-2.07335628

>  <Name>
ligand

>  <RI>
0

>  <Rbt.Current_Directory>
/home/itssahil/PROJECTS/Mol_Feturizer/New_Systems/rnas/4FEJ

>  <Rbt.Executable>
rbdock ($Id: //depot/dev/client3/rdock/2013.1/src/exe/rbdock.cxx#4 $)

>  <Rbt.Library>
libRbt.so (2013.1, Build901 2013/11/27)

>  <Rbt.Parameter_File>
/export/apps/rDock/src/rDock_2013.1_src/data/scripts/dock_solv.prm

>  <Rbt.Receptor>
prm/blind_docking_60.prm

>  <SCORE>
-17.4967

>  <SCORE.INTER>
-17.4967

>  <SCORE.INTER.CONST>
1

>  <SCORE.INTER.POLAR>
0

>  <SCORE.INTER.ROT>
0

>  <SCORE.INTER.SOLV>
3.91301

>  <SCORE.INTER.VDW>
-16.5688

>  <SCORE.INTER.norm>
-1.74967

>  <SCORE.INTRA>
0

>  <SCORE.INTRA.DIHEDRAL>
0

>  <SCORE.INTRA.DIHEDRAL.0>
0

>  <SCORE.INTRA.POLAR>
0

>  <SCORE.INTRA.POLAR.0>
0

>  <SCORE.INTRA.REPUL>
0

>  <SCORE.INTRA.REPUL.0>
0

>  <SCORE.INTRA.SOLV>
0

>  <SCORE.INTRA.SOLV.lig_0>
-4.26631

>  <SCORE.INTRA.VDW>
0

>  <SCORE.INTRA.VDW.0>
0

>  <SCORE.INTRA.norm>
0

>  <SCORE.RESTR>
0

>  <SCORE.RESTR.CAVITY>
0

>  <SCORE.RESTR.norm>
0

>  <SCORE.SYSTEM>
0

>  <SCORE.SYSTEM.CONST>
0

>  <SCORE.SYSTEM.DIHEDRAL>
0

>  <SCORE.SYSTEM.SOLV>
0

>  <SCORE.SYSTEM.norm>
0

>  <SCORE.heavy>
10

>  <SCORE.norm>
-1.74967

>  <RMSD>
2.408

$$$$
ligand
 OpenBabel11021811493D
libRbt.so/2013.1/901 2013/11/27
 10 11  0  0  0  0  0  0  0  0999 V2000
   11.8951   10.8843    8.7821 N   0  0  0  0  0  0  0  0  0  0  0  0
   12.0889    9.7279    8.0696 C   0  0  0  0  0  0  0  0  0  0  0  0
   11.9325    9.6906    6.7365 N   0  0  0  0  0  0  0  0  0  0  0  0
   11.5776   10.8766    6.2000 C   0  0  0  0  0  0  0  0  0  0  0  0
   11.3680   12.0677    6.8593 C   0  0  0  0  0  0  0  0  0  0  0  0
   11.5292   12.1280    8.2578 C   0  0  0  0  0  0  0  0  0  0  0  0
   11.3928   13.0750    9.0202 O   0  0  0  0  0  0  0  0  0  0  0  0
   11.0251   13.0207    5.9454 N   0  0  0  0  0  0  0  0  0  0  0  0
   11.0244   12.4127    4.7405 C   0  0  0  0  0  0  0  0  0  0  0  0
   11.3596   11.0889    4.8662 N   0  0  0  0  0  0  0  0  0  0  0  0
  1  2  1  0  0  0  0
  1  6  1  0  0  0  0
  2  3  2  0  0  0  0
  3  4  1  0  0  0  0
  4  5  2  0  0  0  0
  4 10  1  0  0  0  0
  5  6  1  0  0  0  0
  5  8  1  0  0  0  0
  6  7  2  0  0  0  0
  8  9  1  0  0  0  0
  9 10  2  0  0  0  0
M  END
>  <CHROM.1>
11.51753132,11.52518153,6.98828630,-1.01734210,1.30449457,-2.04249412

>  <Name>
ligand

>  <RI>
0

>  <Rbt.Current_Directory>
/home/itssahil/PROJECTS/Mol_Feturizer/New_Systems/rnas/4FEJ

>  <Rbt.Executable>
rbdock ($Id: //depot/dev/client3/rdock/2013.1/src/exe/rbdock.cxx#4 $)

>  <Rbt.Library>
libRbt.so (2013.1, Build901 2013/11/27)

>  <Rbt.Parameter_File>
/export/apps/rDock/src/rDock_2013.1_src/data/scripts/dock_solv.prm

>  <Rbt.Receptor>
prm/blind_docking_60.prm

>  <SCORE>
-17.5072

>  <SCORE.INTER>
-17.5072

>  <SCORE.INTER.CONST>
1

>  <SCORE.INTER.POLAR>
0

>  <SCORE.INTER.ROT>
0

>  <SCORE.INTER.SOLV>
3.91035

>  <SCORE.INTER.VDW>
-16.5749

>  <SCORE.INTER.norm>
-1.75072

>  <SCORE.INTRA>
0

>  <SCORE.INTRA.DIHEDRAL>
0

>  <SCORE.INTRA.DIHEDRAL.0>
0

>  <SCORE.INTRA.POLAR>
0

>  <SCORE.INTRA.POLAR.0>
0

>  <SCORE.INTRA.REPUL>
0

>  <SCORE.INTRA.REPUL.0>
0

>  <SCORE.INTRA.SOLV>
0

>  <SCORE.INTRA.SOLV.lig_0>
-4.26631

>  <SCORE.INTRA.VDW>
0

>  <SCORE.INTRA.VDW.0>
0

>  <SCORE.INTRA.norm>
0

>  <SCORE.RESTR>
0

>  <SCORE.RESTR.CAVITY>
0

>  <SCORE.RESTR.norm>
0

>  <SCORE.SYSTEM>
0

>  <SCORE.SYSTEM.CONST>
0

>  <SCORE.SYSTEM.DIHEDRAL>
0

>  <SCORE.SYSTEM.SOLV>
0

>  <SCORE.SYSTEM.norm>
0

>  <SCORE.heavy>
10

>  <SCORE.norm>
-1.75072

>  <RMSD>
2.408

$$$$
ligand
 OpenBabel11021811493D
libRbt.so/2013.1/901 2013/11/27
 10 11  0  0  0  0  0  0  0  0999 V2000
   11.8851   10.8504    8.7896 N   0  0  0  0  0  0  0  0  0  0  0  0
   12.0662    9.6965    8.0698 C   0  0  0  0  0  0  0  0  0  0  0  0
   11.9112    9.6698    6.7362 N   0  0  0  0  0  0  0  0  0  0  0  0
   11.5710   10.8634    6.2071 C   0  0  0  0  0  0  0  0  0  0  0  0
   11.3746   12.0525    6.8739 C   0  0  0  0  0  0  0  0  0  0  0  0
   11.5347   12.1017    8.2731 C   0  0  0  0  0  0  0  0  0  0  0  0
   11.4085   13.0453    9.0415 O   0  0  0  0  0  0  0  0  0  0  0  0
   11.0442   13.0155    5.9660 N   0  0  0  0  0  0  0  0  0  0  0  0
   11.0380   12.4155    4.7570 C   0  0  0  0  0  0  0  0  0  0  0  0
   11.3573   11.0870    4.8745 N   0  0  0  0  0  0  0  0  0  0  0  0
  1  2  1  0  0  0  0
  1  6  1  0  0  0  0
  2  3  2  0  0  0  0
  3  4  1  0  0  0  0
  4  5  2  0  0  0  0
  4 10  1  0  0  0  0
  5  6  1  0  0  0  0
  5  8  1  0  0  0  0
  6  7  2  0  0  0  0
  8  9  1  0  0  0  0
  9 10  2  0  0  0  0
M  END
>  <CHROM.1>
11.51757511,11.50746128,6.99956788,-1.00080663,1.31558194,-2.05189145

>  <Name>
ligand

>  <RI>
0

>  <Rbt.Current_Directory>
/home/itssahil/PROJECTS/Mol_Feturizer/New_Systems/rnas/4FEJ

>  <Rbt.Executable>
rbdock ($Id: //depot/dev/client3/rdock/2013.1/src/exe/rbdock.cxx#4 $)

>  <Rbt.Library>
libRbt.so (2013.1, Build901 2013/11/27)

>  <Rbt.Parameter_File>
/export/apps/rDock/src/rDock_2013.1_src/data/scripts/dock_solv.prm

>  <Rbt.Receptor>
prm/blind_docking_60.prm

>  <SCORE>
-17.4848

>  <SCORE.INTER>
-17.4848

>  <SCORE.INTER.CONST>
1

>  <SCORE.INTER.POLAR>
0

>  <SCORE.INTER.ROT>
0

>  <SCORE.INTER.SOLV>
3.90687

>  <SCORE.INTER.VDW>
-16.5588

>  <SCORE.INTER.norm>
-1.74848

>  <SCORE.INTRA>
0

>  <SCORE.INTRA.DIHEDRAL>
0

>  <SCORE.INTRA.DIHEDRAL.0>
0

>  <SCORE.INTRA.POLAR>
0

>  <SCORE.INTRA.POLAR.0>
0

>  <SCORE.INTRA.REPUL>
0

>  <SCORE.INTRA.REPUL.0>
0

>  <SCORE.INTRA.SOLV>
0

>  <SCORE.INTRA.SOLV.lig_0>
-4.26631

>  <SCORE.INTRA.VDW>
0

>  <SCORE.INTRA.VDW.0>
0

>  <SCORE.INTRA.norm>
0

>  <SCORE.RESTR>
0

>  <SCORE.RESTR.CAVITY>
0

>  <SCORE.RESTR.norm>
0

>  <SCORE.SYSTEM>
0

>  <SCORE.SYSTEM.CONST>
0

>  <SCORE.SYSTEM.DIHEDRAL>
0

>  <SCORE.SYSTEM.SOLV>
0

>  <SCORE.SYSTEM.norm>
0

>  <SCORE.heavy>
10

>  <SCORE.norm>
-1.74848

>  <RMSD>
2.408

$$$$
ligand
 OpenBabel11021811493D
libRbt.so/2013.1/901 2013/11/27
 10 11  0  0  0  0  0  0  0  0999 V2000
   11.8932   10.8795    8.7768 N   0  0  0  0  0  0  0  0  0  0  0  0
   12.0796    9.7248    8.0596 C   0  0  0  0  0  0  0  0  0  0  0  0
   11.9213    9.6935    6.7266 N   0  0  0  0  0  0  0  0  0  0  0  0
   11.5723   10.8834    6.1951 C   0  0  0  0  0  0  0  0  0  0  0  0
   11.3702   12.0732    6.8592 C   0  0  0  0  0  0  0  0  0  0  0  0
   11.5336   12.1272    8.2577 C   0  0  0  0  0  0  0  0  0  0  0  0
   11.4035   13.0721    9.0239 O   0  0  0  0  0  0  0  0  0  0  0  0
   11.0315   13.0316    5.9494 N   0  0  0  0  0  0  0  0  0  0  0  0
   11.0258   12.4282    4.7421 C   0  0  0  0  0  0  0  0  0  0  0  0
   11.3537   11.1021    4.8624 N   0  0  0  0  0  0  0  0  0  0  0  0
  1  2  1  0  0  0  0
  1  6  1  0  0  0  0
  2  3  2  0  0  0  0
  3  4  1  0  0  0  0
  4  5  2  0  0  0  0
  4 10  1  0  0  0  0
  5  6  1  0  0  0  0
  5  8  1  0  0  0  0
  6  7  2  0  0  0  0
  8  9  1  0  0  0  0
  9 10  2  0  0  0  0
M  END
>  <CHROM.1>
11.51689936,11.52934894,6.98591100,-1.00306830,1.30884695,-2.05245508

>  <Name>
ligand

>  <RI>
0

>  <Rbt.Current_Directory>
/home/itssahil/PROJECTS/Mol_Feturizer/New_Systems/rnas/4FEJ

>  <Rbt.Executable>
rbdock ($Id: //depot/dev/client3/rdock/2013.1/src/exe/rbdock.cxx#4 $)

>  <Rbt.Library>
libRbt.so (2013.1, Build901 2013/11/27)

>  <Rbt.Parameter_File>
/export/apps/rDock/src/rDock_2013.1_src/data/scripts/dock_solv.prm

>  <Rbt.Receptor>
prm/blind_docking_80.prm

>  <SCORE>
-17.5429

>  <SCORE.INTER>
-17.5429

>  <SCORE.INTER.CONST>
1

>  <SCORE.INTER.POLAR>
0

>  <SCORE.INTER.ROT>
0

>  <SCORE.INTER.SOLV>
3.91297

>  <SCORE.INTER.VDW>
-16.5996

>  <SCORE.INTER.norm>
-1.75429

>  <SCORE.INTRA>
0

>  <SCORE.INTRA.DIHEDRAL>
0

>  <SCORE.INTRA.DIHEDRAL.0>
0

>  <SCORE.INTRA.POLAR>
0

>  <SCORE.INTRA.POLAR.0>
0

>  <SCORE.INTRA.REPUL>
0

>  <SCORE.INTRA.REPUL.0>
0

>  <SCORE.INTRA.SOLV>
0

>  <SCORE.INTRA.SOLV.lig_0>
-4.26631

>  <SCORE.INTRA.VDW>
0

>  <SCORE.INTRA.VDW.0>
0

>  <SCORE.INTRA.norm>
0

>  <SCORE.RESTR>
0

>  <SCORE.RESTR.CAVITY>
0

>  <SCORE.RESTR.norm>
0

>  <SCORE.SYSTEM>
0

>  <SCORE.SYSTEM.CONST>
0

>  <SCORE.SYSTEM.DIHEDRAL>
0

>  <SCORE.SYSTEM.SOLV>
0

>  <SCORE.SYSTEM.norm>
0

>  <SCORE.heavy>
10

>  <SCORE.norm>
-1.75429

>  <RMSD>
2.408

$$$$
ligand
 OpenBabel11021811493D
libRbt.so/2013.1/901 2013/11/27
 10 11  0  0  0  0  0  0  0  0999 V2000
   11.8738   10.8541    8.7630 N   0  0  0  0  0  0  0  0  0  0  0  0
   12.0305    9.6913    8.0518 C   0  0  0  0  0  0  0  0  0  0  0  0
   11.8624    9.6553    6.7201 N   0  0  0  0  0  0  0  0  0  0  0  0
   11.5354   10.8492    6.1835 C   0  0  0  0  0  0  0  0  0  0  0  0
   11.3635   12.0470    6.8414 C   0  0  0  0  0  0  0  0  0  0  0  0
   11.5376   12.1061    8.2385 C   0  0  0  0  0  0  0  0  0  0  0  0
   11.4330   13.0582    8.9996 O   0  0  0  0  0  0  0  0  0  0  0  0
   11.0392   13.0069    5.9280 N   0  0  0  0  0  0  0  0  0  0  0  0
   11.0123   12.3964    4.7246 C   0  0  0  0  0  0  0  0  0  0  0  0
   11.3125   11.0643    4.8510 N   0  0  0  0  0  0  0  0  0  0  0  0
  1  2  1  0  0  0  0
  1  6  1  0  0  0  0
  2  3  2  0  0  0  0
  3  4  1  0  0  0  0
  4  5  2  0  0  0  0
  4 10  1  0  0  0  0
  5  6  1  0  0  0  0
  5  8  1  0  0  0  0
  6  7  2  0  0  0  0
  8  9  1  0  0  0  0
  9 10  2  0  0  0  0
M  END
>  <CHROM.1>
11.49932583,11.50094990,6.97062196,-0.93744702,1.32420896,-2.12216617

>  <Name>
ligand

>  <RI>
0

>  <Rbt.Current_Directory>
/home/itssahil/PROJECTS/Mol_Feturizer/New_Systems/rnas/4FEJ

>  <Rbt.Executable>
rbdock ($Id: //depot/dev/client3/rdock/2013.1/src/exe/rbdock.cxx#4 $)

>  <Rbt.Library>
libRbt.so (2013.1, Build901 2013/11/27)

>  <Rbt.Parameter_File>
/export/apps/rDock/src/rDock_2013.1_src/data/scripts/dock_solv.prm

>  <Rbt.Receptor>
prm/pocket_docking_4.prm

>  <SCORE>
-17.4707

>  <SCORE.INTER>
-17.4707

>  <SCORE.INTER.CONST>
1

>  <SCORE.INTER.POLAR>
0

>  <SCORE.INTER.ROT>
0

>  <SCORE.INTER.SOLV>
3.93203

>  <SCORE.INTER.VDW>
-16.5578

>  <SCORE.INTER.norm>
-1.74707

>  <SCORE.INTRA>
0

>  <SCORE.INTRA.DIHEDRAL>
0

>  <SCORE.INTRA.DIHEDRAL.0>
0

>  <SCORE.INTRA.POLAR>
0

>  <SCORE.INTRA.POLAR.0>
0

>  <SCORE.INTRA.REPUL>
0

>  <SCORE.INTRA.REPUL.0>
0

>  <SCORE.INTRA.SOLV>
0

>  <SCORE.INTRA.SOLV.lig_0>
-4.26631

>  <SCORE.INTRA.VDW>
0

>  <SCORE.INTRA.VDW.0>
0

>  <SCORE.INTRA.norm>
0

>  <SCORE.RESTR>
0

>  <SCORE.RESTR.CAVITY>
0

>  <SCORE.RESTR.norm>
0

>  <SCORE.SYSTEM>
0

>  <SCORE.SYSTEM.CONST>
0

>  <SCORE.SYSTEM.DIHEDRAL>
0

>  <SCORE.SYSTEM.SOLV>
0

>  <SCORE.SYSTEM.norm>
0

>  <SCORE.heavy>
10

>  <SCORE.norm>
-1.74707

>  <RMSD>
2.408

$$$$
ligand
 OpenBabel11021811493D
libRbt.so/2013.1/901 2013/11/27
 10 11  0  0  0  0  0  0  0  0999 V2000
   11.8848   10.8824    8.7907 N   0  0  0  0  0  0  0  0  0  0  0  0
   12.0614    9.7226    8.0791 C   0  0  0  0  0  0  0  0  0  0  0  0
   11.9041    9.6865    6.7461 N   0  0  0  0  0  0  0  0  0  0  0  0
   11.5665   10.8770    6.2086 C   0  0  0  0  0  0  0  0  0  0  0  0
   11.3746   12.0717    6.8669 C   0  0  0  0  0  0  0  0  0  0  0  0
   11.5371   12.1309    8.2653 C   0  0  0  0  0  0  0  0  0  0  0  0
   11.4149   13.0805    9.0269 O   0  0  0  0  0  0  0  0  0  0  0  0
   11.0455   13.0288    5.9523 N   0  0  0  0  0  0  0  0  0  0  0  0
   11.0355   12.4198    4.7478 C   0  0  0  0  0  0  0  0  0  0  0  0
   11.3512   11.0913    4.8747 N   0  0  0  0  0  0  0  0  0  0  0  0
  1  2  1  0  0  0  0
  1  6  1  0  0  0  0
  2  3  2  0  0  0  0
  3  4  1  0  0  0  0
  4  5  2  0  0  0  0
  4 10  1  0  0  0  0
  5  6  1  0  0  0  0
  5  8  1  0  0  0  0
  6  7  2  0  0  0  0
  8  9  1  0  0  0  0
  9 10  2  0  0  0  0
M  END
>  <CHROM.1>
11.51621809,11.52714669,6.99633235,-0.98967763,1.31735467,-2.07012620

>  <Name>
ligand

>  <RI>
0

>  <Rbt.Current_Directory>
/home/itssahil/PROJECTS/Mol_Feturizer/New_Systems/rnas/4FEJ

>  <Rbt.Executable>
rbdock ($Id: //depot/dev/client3/rdock/2013.1/src/exe/rbdock.cxx#4 $)

>  <Rbt.Library>
libRbt.so (2013.1, Build901 2013/11/27)

>  <Rbt.Parameter_File>
/export/apps/rDock/src/rDock_2013.1_src/data/scripts/dock_solv.prm

>  <Rbt.Receptor>
prm/pocket_docking_4.prm

>  <SCORE>
-17.5233

>  <SCORE.INTER>
-17.5233

>  <SCORE.INTER.CONST>
1

>  <SCORE.INTER.POLAR>
0

>  <SCORE.INTER.ROT>
0

>  <SCORE.INTER.SOLV>
3.93631

>  <SCORE.INTER.VDW>
-16.5943

>  <SCORE.INTER.norm>
-1.75233

>  <SCORE.INTRA>
0

>  <SCORE.INTRA.DIHEDRAL>
0

>  <SCORE.INTRA.DIHEDRAL.0>
0

>  <SCORE.INTRA.POLAR>
0

>  <SCORE.INTRA.POLAR.0>
0

>  <SCORE.INTRA.REPUL>
0

>  <SCORE.INTRA.REPUL.0>
0

>  <SCORE.INTRA.SOLV>
0

>  <SCORE.INTRA.SOLV.lig_0>
-4.26631

>  <SCORE.INTRA.VDW>
0

>  <SCORE.INTRA.VDW.0>
0

>  <SCORE.INTRA.norm>
0

>  <SCORE.RESTR>
0

>  <SCORE.RESTR.CAVITY>
0

>  <SCORE.RESTR.norm>
0

>  <SCORE.SYSTEM>
0

>  <SCORE.SYSTEM.CONST>
0

>  <SCORE.SYSTEM.DIHEDRAL>
0

>  <SCORE.SYSTEM.SOLV>
0

>  <SCORE.SYSTEM.norm>
0

>  <SCORE.heavy>
10

>  <SCORE.norm>
-1.75233

>  <RMSD>
2.408

$$$$
ligand
 OpenBabel11021811493D
libRbt.so/2013.1/901 2013/11/27
 10 11  0  0  0  0  0  0  0  0999 V2000
   11.8781   10.8706    8.7955 N   0  0  0  0  0  0  0  0  0  0  0  0
   12.0615    9.7147    8.0795 C   0  0  0  0  0  0  0  0  0  0  0  0
   11.9057    9.6831    6.7461 N   0  0  0  0  0  0  0  0  0  0  0  0
   11.5623   10.8740    6.2131 C   0  0  0  0  0  0  0  0  0  0  0  0
   11.3634   12.0650    6.8760 C   0  0  0  0  0  0  0  0  0  0  0  0
   11.5243   12.1194    8.2748 C   0  0  0  0  0  0  0  0  0  0  0  0
   11.3963   13.0653    9.0401 O   0  0  0  0  0  0  0  0  0  0  0  0
   11.0302   13.0240    5.9649 N   0  0  0  0  0  0  0  0  0  0  0  0
   11.0246   12.4199    4.7580 C   0  0  0  0  0  0  0  0  0  0  0  0
   11.3472   11.0926    4.8799 N   0  0  0  0  0  0  0  0  0  0  0  0
  1  2  1  0  0  0  0
  1  6  1  0  0  0  0
  2  3  2  0  0  0  0
  3  4  1  0  0  0  0
  4  5  2  0  0  0  0
  4 10  1  0  0  0  0
  5  6  1  0  0  0  0
  5  8  1  0  0  0  0
  6  7  2  0  0  0  0
  8  9  1  0  0  0  0
  9 10  2  0  0  0  0
M  END
>  <CHROM.1>
11.50782430,11.52068296,7.00339519,-1.00300861,1.31314579,-2.05319999

>  <Name>
ligand

>  <RI>
0

>  <Rbt.Current_Directory>
/home/itssahil/PROJECTS/Mol_Feturizer/New_Systems/rnas/4FEJ

>  <Rbt.Executable>
rbdock ($Id: //depot/dev/client3/rdock/2013.1/src/exe/rbdock.cxx#4 $)

>  <Rbt.Library>
libRbt.so (2013.1, Build901 2013/11/27)

>  <Rbt.Parameter_File>
/export/apps/rDock/src/rDock_2013.1_src/data/scripts/dock_solv.prm

>  <Rbt.Receptor>
prm/pocket_docking_4.prm

>  <SCORE>
-17.4842

>  <SCORE.INTER>
-17.4842

>  <SCORE.INTER.CONST>
1

>  <SCORE.INTER.POLAR>
0

>  <SCORE.INTER.ROT>
0

>  <SCORE.INTER.SOLV>
3.91817

>  <SCORE.INTER.VDW>
-16.5622

>  <SCORE.INTER.norm>
-1.74842

>  <SCORE.INTRA>
0

>  <SCORE.INTRA.DIHEDRAL>
0

>  <SCORE.INTRA.DIHEDRAL.0>
0

>  <SCORE.INTRA.POLAR>
0

>  <SCORE.INTRA.POLAR.0>
0

>  <SCORE.INTRA.REPUL>
0

>  <SCORE.INTRA.REPUL.0>
0

>  <SCORE.INTRA.SOLV>
0

>  <SCORE.INTRA.SOLV.lig_0>
-4.26631

>  <SCORE.INTRA.VDW>
0

>  <SCORE.INTRA.VDW.0>
0

>  <SCORE.INTRA.norm>
0

>  <SCORE.RESTR>
0

>  <SCORE.RESTR.CAVITY>
0

>  <SCORE.RESTR.norm>
0

>  <SCORE.SYSTEM>
0

>  <SCORE.SYSTEM.CONST>
0

>  <SCORE.SYSTEM.DIHEDRAL>
0

>  <SCORE.SYSTEM.SOLV>
0

>  <SCORE.SYSTEM.norm>
0

>  <SCORE.heavy>
10

>  <SCORE.norm>
-1.74842

>  <RMSD>
2.408

$$$$
ligand
 OpenBabel11021811493D
libRbt.so/2013.1/901 2013/11/27
 10 11  0  0  0  0  0  0  0  0999 V2000
   11.8762   10.8482    8.7806 N   0  0  0  0  0  0  0  0  0  0  0  0
   12.0450    9.6934    8.0593 C   0  0  0  0  0  0  0  0  0  0  0  0
   11.8896    9.6700    6.7257 N   0  0  0  0  0  0  0  0  0  0  0  0
   11.5621   10.8677    6.1981 C   0  0  0  0  0  0  0  0  0  0  0  0
   11.3783   12.0581    6.8664 C   0  0  0  0  0  0  0  0  0  0  0  0
   11.5391   12.1039    8.2655 C   0  0  0  0  0  0  0  0  0  0  0  0
   11.4229   13.0478    9.0351 O   0  0  0  0  0  0  0  0  0  0  0  0
   11.0582   13.0256    5.9596 N   0  0  0  0  0  0  0  0  0  0  0  0
   11.0455   12.4272    4.7499 C   0  0  0  0  0  0  0  0  0  0  0  0
   11.3507   11.0952    4.8658 N   0  0  0  0  0  0  0  0  0  0  0  0
  1  2  1  0  0  0  0
  1  6  1  0  0  0  0
  2  3  2  0  0  0  0
  3  4  1  0  0  0  0
  4  5  2  0  0  0  0
  4 10  1  0  0  0  0
  5  6  1  0  0  0  0
  5  8  1  0  0  0  0
  6  7  2  0  0  0  0
  8  9  1  0  0  0  0
  9 10  2  0  0  0  0
M  END
>  <CHROM.1>
11.51553537,11.51136127,6.99133730,-0.98032593,1.32493108,-2.07052462

>  <Name>
ligand

>  <RI>
0

>  <Rbt.Current_Directory>
/home/itssahil/PROJECTS/Mol_Feturizer/New_Systems/rnas/4FEJ

>  <Rbt.Executable>
rbdock ($Id: //depot/dev/client3/rdock/2013.1/src/exe/rbdock.cxx#4 $)

>  <Rbt.Library>
libRbt.so (2013.1, Build901 2013/11/27)

>  <Rbt.Parameter_File>
/export/apps/rDock/src/rDock_2013.1_src/data/scripts/dock_solv.prm

>  <Rbt.Receptor>
prm/pocket_docking_4.prm

>  <SCORE>
-17.4706

>  <SCORE.INTER>
-17.4706

>  <SCORE.INTER.CONST>
1

>  <SCORE.INTER.POLAR>
0

>  <SCORE.INTER.ROT>
0

>  <SCORE.INTER.SOLV>
3.91979

>  <SCORE.INTER.VDW>
-16.5537

>  <SCORE.INTER.norm>
-1.74706

>  <SCORE.INTRA>
0

>  <SCORE.INTRA.DIHEDRAL>
0

>  <SCORE.INTRA.DIHEDRAL.0>
0

>  <SCORE.INTRA.POLAR>
0

>  <SCORE.INTRA.POLAR.0>
0

>  <SCORE.INTRA.REPUL>
0

>  <SCORE.INTRA.REPUL.0>
0

>  <SCORE.INTRA.SOLV>
0

>  <SCORE.INTRA.SOLV.lig_0>
-4.26631

>  <SCORE.INTRA.VDW>
0

>  <SCORE.INTRA.VDW.0>
0

>  <SCORE.INTRA.norm>
0

>  <SCORE.RESTR>
0

>  <SCORE.RESTR.CAVITY>
0

>  <SCORE.RESTR.norm>
0

>  <SCORE.SYSTEM>
0

>  <SCORE.SYSTEM.CONST>
0

>  <SCORE.SYSTEM.DIHEDRAL>
0

>  <SCORE.SYSTEM.SOLV>
0

>  <SCORE.SYSTEM.norm>
0

>  <SCORE.heavy>
10

>  <SCORE.norm>
-1.74706

>  <RMSD>
2.408

$$$$
ligand
 OpenBabel11021811493D
libRbt.so/2013.1/901 2013/11/27
 10 11  0  0  0  0  0  0  0  0999 V2000
   11.8940   10.8860    8.7809 N   0  0  0  0  0  0  0  0  0  0  0  0
   12.0796    9.7250    8.0738 C   0  0  0  0  0  0  0  0  0  0  0  0
   11.9116    9.6800    6.7423 N   0  0  0  0  0  0  0  0  0  0  0  0
   11.5542   10.8633    6.2017 C   0  0  0  0  0  0  0  0  0  0  0  0
   11.3524   12.0587    6.8555 C   0  0  0  0  0  0  0  0  0  0  0  0
   11.5259   12.1272    8.2522 C   0  0  0  0  0  0  0  0  0  0  0  0
   11.3978   13.0791    9.0100 O   0  0  0  0  0  0  0  0  0  0  0  0
   11.0034   13.0068    5.9389 N   0  0  0  0  0  0  0  0  0  0  0  0
   10.9912   12.3916    4.7377 C   0  0  0  0  0  0  0  0  0  0  0  0
   11.3250   11.0679    4.8686 N   0  0  0  0  0  0  0  0  0  0  0  0
  1  2  1  0  0  0  0
  1  6  1  0  0  0  0
  2  3  2  0  0  0  0
  3  4  1  0  0  0  0
  4  5  2  0  0  0  0
  4 10  1  0  0  0  0
  5  6  1  0  0  0  0
  5  8  1  0  0  0  0
  6  7  2  0  0  0  0
  8  9  1  0  0  0  0
  9 10  2  0  0  0  0
M  END
>  <CHROM.1>
11.50211890,11.51674974,6.98650499,-0.98526087,1.30202981,-2.07949375

>  <Name>
ligand

>  <RI>
0

>  <Rbt.Current_Directory>
/home/itssahil/PROJECTS/Mol_Feturizer/New_Systems/rnas/4FEJ

>  <Rbt.Executable>
rbdock ($Id: //depot/dev/client3/rdock/2013.1/src/exe/rbdock.cxx#4 $)

>  <Rbt.Library>
libRbt.so (2013.1, Build901 2013/11/27)

>  <Rbt.Parameter_File>
/export/apps/rDock/src/rDock_2013.1_src/data/scripts/dock_solv.prm

>  <Rbt.Receptor>
prm/pocket_docking_4.prm

>  <SCORE>
-17.4922

>  <SCORE.INTER>
-17.4922

>  <SCORE.INTER.CONST>
1

>  <SCORE.INTER.POLAR>
0

>  <SCORE.INTER.ROT>
0

>  <SCORE.INTER.SOLV>
3.91239

>  <SCORE.INTER.VDW>
-16.5656

>  <SCORE.INTER.norm>
-1.74922

>  <SCORE.INTRA>
0

>  <SCORE.INTRA.DIHEDRAL>
0

>  <SCORE.INTRA.DIHEDRAL.0>
0

>  <SCORE.INTRA.POLAR>
0

>  <SCORE.INTRA.POLAR.0>
0

>  <SCORE.INTRA.REPUL>
0

>  <SCORE.INTRA.REPUL.0>
0

>  <SCORE.INTRA.SOLV>
0

>  <SCORE.INTRA.SOLV.lig_0>
-4.26631

>  <SCORE.INTRA.VDW>
0

>  <SCORE.INTRA.VDW.0>
0

>  <SCORE.INTRA.norm>
0

>  <SCORE.RESTR>
0

>  <SCORE.RESTR.CAVITY>
0

>  <SCORE.RESTR.norm>
0

>  <SCORE.SYSTEM>
0

>  <SCORE.SYSTEM.CONST>
0

>  <SCORE.SYSTEM.DIHEDRAL>
0

>  <SCORE.SYSTEM.SOLV>
0

>  <SCORE.SYSTEM.norm>
0

>  <SCORE.heavy>
10

>  <SCORE.norm>
-1.74922

>  <RMSD>
2.408

$$$$
ligand
 OpenBabel11021811493D
libRbt.so/2013.1/901 2013/11/27
 10 11  0  0  0  0  0  0  0  0999 V2000
   11.8739   10.8667    8.7570 N   0  0  0  0  0  0  0  0  0  0  0  0
   12.0270    9.7023    8.0477 C   0  0  0  0  0  0  0  0  0  0  0  0
   11.8569    9.6642    6.7163 N   0  0  0  0  0  0  0  0  0  0  0  0
   11.5319   10.8578    6.1780 C   0  0  0  0  0  0  0  0  0  0  0  0
   11.3635   12.0572    6.8339 C   0  0  0  0  0  0  0  0  0  0  0  0
   11.5398   12.1185    8.2306 C   0  0  0  0  0  0  0  0  0  0  0  0
   11.4385   13.0723    8.9901 O   0  0  0  0  0  0  0  0  0  0  0  0
   11.0401   13.0162    5.9192 N   0  0  0  0  0  0  0  0  0  0  0  0
   11.0102   12.4035    4.7169 C   0  0  0  0  0  0  0  0  0  0  0  0
   11.3075   11.0710    4.8454 N   0  0  0  0  0  0  0  0  0  0  0  0
  1  2  1  0  0  0  0
  1  6  1  0  0  0  0
  2  3  2  0  0  0  0
  3  4  1  0  0  0  0
  4  5  2  0  0  0  0
  4 10  1  0  0  0  0
  5  6  1  0  0  0  0
  5  8  1  0  0  0  0
  6  7  2  0  0  0  0
  8  9  1  0  0  0  0
  9 10  2  0  0  0  0
M  END
>  <CHROM.1>
11.49836382,11.51111524,6.96392429,-0.92757482,1.32537239,-2.13358693

>  <Name>
ligand

>  <RI>
0

>  <Rbt.Current_Directory>
/home/itssahil/PROJECTS/Mol_Feturizer/New_Systems/rnas/4FEJ

>  <Rbt.Executable>
rbdock ($Id: //depot/dev/client3/rdock/2013.1/src/exe/rbdock.cxx#4 $)

>  <Rbt.Library>
libRbt.so (2013.1, Build901 2013/11/27)

>  <Rbt.Parameter_File>
/export/apps/rDock/src/rDock_2013.1_src/data/scripts/dock_solv.prm

>  <Rbt.Receptor>
prm/pocket_docking_4.prm

>  <SCORE>
-17.4736

>  <SCORE.INTER>
-17.4736

>  <SCORE.INTER.CONST>
1

>  <SCORE.INTER.POLAR>
0

>  <SCORE.INTER.ROT>
0

>  <SCORE.INTER.SOLV>
3.94424

>  <SCORE.INTER.VDW>
-16.5638

>  <SCORE.INTER.norm>
-1.74736

>  <SCORE.INTRA>
0

>  <SCORE.INTRA.DIHEDRAL>
0

>  <SCORE.INTRA.DIHEDRAL.0>
0

>  <SCORE.INTRA.POLAR>
0

>  <SCORE.INTRA.POLAR.0>
0

>  <SCORE.INTRA.REPUL>
0

>  <SCORE.INTRA.REPUL.0>
0

>  <SCORE.INTRA.SOLV>
0

>  <SCORE.INTRA.SOLV.lig_0>
-4.26631

>  <SCORE.INTRA.VDW>
0

>  <SCORE.INTRA.VDW.0>
0

>  <SCORE.INTRA.norm>
0

>  <SCORE.RESTR>
0

>  <SCORE.RESTR.CAVITY>
0

>  <SCORE.RESTR.norm>
0

>  <SCORE.SYSTEM>
0

>  <SCORE.SYSTEM.CONST>
0

>  <SCORE.SYSTEM.DIHEDRAL>
0

>  <SCORE.SYSTEM.SOLV>
0

>  <SCORE.SYSTEM.norm>
0

>  <SCORE.heavy>
10

>  <SCORE.norm>
-1.74736

>  <RMSD>
2.408

$$$$
ligand
 OpenBabel11021811493D
libRbt.so/2013.1/901 2013/11/27
 10 11  0  0  0  0  0  0  0  0999 V2000
   11.8666   10.8637    8.7786 N   0  0  0  0  0  0  0  0  0  0  0  0
   12.0080    9.6927    8.0777 C   0  0  0  0  0  0  0  0  0  0  0  0
   11.8340    9.6461    6.7470 N   0  0  0  0  0  0  0  0  0  0  0  0
   11.5174   10.8384    6.2007 C   0  0  0  0  0  0  0  0  0  0  0  0
   11.3608   12.0440    6.8481 C   0  0  0  0  0  0  0  0  0  0  0  0
   11.5414   12.1142    8.2439 C   0  0  0  0  0  0  0  0  0  0  0  0
   11.4501   13.0744    8.9965 O   0  0  0  0  0  0  0  0  0  0  0  0
   11.0429   12.9988    5.9271 N   0  0  0  0  0  0  0  0  0  0  0  0
   11.0045   12.3775    4.7296 C   0  0  0  0  0  0  0  0  0  0  0  0
   11.2911   11.0435    4.8672 N   0  0  0  0  0  0  0  0  0  0  0  0
  1  2  1  0  0  0  0
  1  6  1  0  0  0  0
  2  3  2  0  0  0  0
  3  4  1  0  0  0  0
  4  5  2  0  0  0  0
  4 10  1  0  0  0  0
  5  6  1  0  0  0  0
  5  8  1  0  0  0  0
  6  7  2  0  0  0  0
  8  9  1  0  0  0  0
  9 10  2  0  0  0  0
M  END
>  <CHROM.1>
11.49146018,11.49778429,6.98184319,-0.89908965,1.33083546,-2.16868668

>  <Name>
ligand

>  <RI>
0

>  <Rbt.Current_Directory>
/home/itssahil/PROJECTS/Mol_Feturizer/New_Systems/rnas/4FEJ

>  <Rbt.Executable>
rbdock ($Id: //depot/dev/client3/rdock/2013.1/src/exe/rbdock.cxx#4 $)

>  <Rbt.Library>
libRbt.so (2013.1, Build901 2013/11/27)

>  <Rbt.Parameter_File>
/export/apps/rDock/src/rDock_2013.1_src/data/scripts/dock_solv.prm

>  <Rbt.Receptor>
prm/pocket_docking_4.prm

>  <SCORE>
-17.4153

>  <SCORE.INTER>
-17.4153

>  <SCORE.INTER.CONST>
1

>  <SCORE.INTER.POLAR>
0

>  <SCORE.INTER.ROT>
0

>  <SCORE.INTER.SOLV>
3.96447

>  <SCORE.INTER.VDW>
-16.5317

>  <SCORE.INTER.norm>
-1.74153

>  <SCORE.INTRA>
0

>  <SCORE.INTRA.DIHEDRAL>
0

>  <SCORE.INTRA.DIHEDRAL.0>
0

>  <SCORE.INTRA.POLAR>
0

>  <SCORE.INTRA.POLAR.0>
0

>  <SCORE.INTRA.REPUL>
0

>  <SCORE.INTRA.REPUL.0>
0

>  <SCORE.INTRA.SOLV>
0

>  <SCORE.INTRA.SOLV.lig_0>
-4.26631

>  <SCORE.INTRA.VDW>
0

>  <SCORE.INTRA.VDW.0>
0

>  <SCORE.INTRA.norm>
0

>  <SCORE.RESTR>
0

>  <SCORE.RESTR.CAVITY>
0

>  <SCORE.RESTR.norm>
0

>  <SCORE.SYSTEM>
0

>  <SCORE.SYSTEM.CONST>
0

>  <SCORE.SYSTEM.DIHEDRAL>
0

>  <SCORE.SYSTEM.SOLV>
0

>  <SCORE.SYSTEM.norm>
0

>  <SCORE.heavy>
10

>  <SCORE.norm>
-1.74153

>  <RMSD>
2.408

$$$$
ligand
 OpenBabel11021811493D
libRbt.so/2013.1/901 2013/11/27
 10 11  0  0  0  0  0  0  0  0999 V2000
   11.8682   10.8630    8.7563 N   0  0  0  0  0  0  0  0  0  0  0  0
   12.0068    9.6955    8.0491 C   0  0  0  0  0  0  0  0  0  0  0  0
   11.8342    9.6567    6.7180 N   0  0  0  0  0  0  0  0  0  0  0  0
   11.5219   10.8529    6.1779 C   0  0  0  0  0  0  0  0  0  0  0  0
   11.3684   12.0555    6.8317 C   0  0  0  0  0  0  0  0  0  0  0  0
   11.5476   12.1175    8.2280 C   0  0  0  0  0  0  0  0  0  0  0  0
   11.4583   13.0739    8.9857 O   0  0  0  0  0  0  0  0  0  0  0  0
   11.0545   13.0162    5.9155 N   0  0  0  0  0  0  0  0  0  0  0  0
   11.0156   12.4016    4.7146 C   0  0  0  0  0  0  0  0  0  0  0  0
   11.2979   11.0660    4.8452 N   0  0  0  0  0  0  0  0  0  0  0  0
  1  2  1  0  0  0  0
  1  6  1  0  0  0  0
  2  3  2  0  0  0  0
  3  4  1  0  0  0  0
  4  5  2  0  0  0  0
  4 10  1  0  0  0  0
  5  6  1  0  0  0  0
  5  8  1  0  0  0  0
  6  7  2  0  0  0  0
  8  9  1  0  0  0  0
  9 10  2  0  0  0  0
M  END
>  <CHROM.1>
11.49714976,11.50811324,6.96254317,-0.89576447,1.33405562,-2.16646866

>  <Name>
ligand

>  <RI>
0

>  <Rbt.Current_Directory>
/home/itssahil/PROJECTS/Mol_Feturizer/New_Systems/rnas/4FEJ

>  <Rbt.Executable>
rbdock ($Id: //depot/dev/client3/rdock/2013.1/src/exe/rbdock.cxx#4 $)

>  <Rbt.Library>
libRbt.so (2013.1, Build901 2013/11/27)

>  <Rbt.Parameter_File>
/export/apps/rDock/src/rDock_2013.1_src/data/scripts/dock_solv.prm

>  <Rbt.Receptor>
prm/pocket_docking_4.prm

>  <SCORE>
-17.4378

>  <SCORE.INTER>
-17.4378

>  <SCORE.INTER.CONST>
1

>  <SCORE.INTER.POLAR>
0

>  <SCORE.INTER.ROT>
0

>  <SCORE.INTER.SOLV>
3.96313

>  <SCORE.INTER.VDW>
-16.5462

>  <SCORE.INTER.norm>
-1.74378

>  <SCORE.INTRA>
0

>  <SCORE.INTRA.DIHEDRAL>
0

>  <SCORE.INTRA.DIHEDRAL.0>
0

>  <SCORE.INTRA.POLAR>
0

>  <SCORE.INTRA.POLAR.0>
0

>  <SCORE.INTRA.REPUL>
0

>  <SCORE.INTRA.REPUL.0>
0

>  <SCORE.INTRA.SOLV>
0

>  <SCORE.INTRA.SOLV.lig_0>
-4.26631

>  <SCORE.INTRA.VDW>
0

>  <SCORE.INTRA.VDW.0>
0

>  <SCORE.INTRA.norm>
0

>  <SCORE.RESTR>
0

>  <SCORE.RESTR.CAVITY>
0

>  <SCORE.RESTR.norm>
0

>  <SCORE.SYSTEM>
0

>  <SCORE.SYSTEM.CONST>
0

>  <SCORE.SYSTEM.DIHEDRAL>
0

>  <SCORE.SYSTEM.SOLV>
0

>  <SCORE.SYSTEM.norm>
0

>  <SCORE.heavy>
10

>  <SCORE.norm>
-1.74378

>  <RMSD>
2.408

$$$$
ligand
 OpenBabel11021811493D
libRbt.so/2013.1/901 2013/11/27
 10 11  0  0  0  0  0  0  0  0999 V2000
   11.8930   10.8694    8.7793 N   0  0  0  0  0  0  0  0  0  0  0  0
   12.0763    9.7157    8.0598 C   0  0  0  0  0  0  0  0  0  0  0  0
   11.9198    9.6880    6.7265 N   0  0  0  0  0  0  0  0  0  0  0  0
   11.5758   10.8803    6.1972 C   0  0  0  0  0  0  0  0  0  0  0  0
   11.3770   12.0693    6.8636 C   0  0  0  0  0  0  0  0  0  0  0  0
   11.5386   12.1196    8.2625 C   0  0  0  0  0  0  0  0  0  0  0  0
   11.4108   13.0632    9.0306 O   0  0  0  0  0  0  0  0  0  0  0  0
   11.0430   13.0309    5.9555 N   0  0  0  0  0  0  0  0  0  0  0  0
   11.0369   12.4303    4.7469 C   0  0  0  0  0  0  0  0  0  0  0  0
   11.3600   11.1027    4.8647 N   0  0  0  0  0  0  0  0  0  0  0  0
  1  2  1  0  0  0  0
  1  6  1  0  0  0  0
  2  3  2  0  0  0  0
  3  4  1  0  0  0  0
  4  5  2  0  0  0  0
  4 10  1  0  0  0  0
  5  6  1  0  0  0  0
  5  8  1  0  0  0  0
  6  7  2  0  0  0  0
  8  9  1  0  0  0  0
  9 10  2  0  0  0  0
M  END
>  <CHROM.1>
11.52160245,11.52464454,6.98934075,-1.00154615,1.31267334,-2.05167894

>  <Name>
ligand

>  <RI>
0

>  <Rbt.Current_Directory>
/home/itssahil/PROJECTS/Mol_Feturizer/New_Systems/rnas/4FEJ

>  <Rbt.Executable>
rbdock ($Id: //depot/dev/client3/rdock/2013.1/src/exe/rbdock.cxx#4 $)

>  <Rbt.Library>
libRbt.so (2013.1, Build901 2013/11/27)

>  <Rbt.Parameter_File>
/export/apps/rDock/src/rDock_2013.1_src/data/scripts/dock_solv.prm

>  <Rbt.Receptor>
prm/pocket_docking_5.prm

>  <SCORE>
-17.5421

>  <SCORE.INTER>
-17.5421

>  <SCORE.INTER.CONST>
1

>  <SCORE.INTER.POLAR>
0

>  <SCORE.INTER.ROT>
0

>  <SCORE.INTER.SOLV>
3.912

>  <SCORE.INTER.VDW>
-16.5987

>  <SCORE.INTER.norm>
-1.75421

>  <SCORE.INTRA>
0

>  <SCORE.INTRA.DIHEDRAL>
0

>  <SCORE.INTRA.DIHEDRAL.0>
0

>  <SCORE.INTRA.POLAR>
0

>  <SCORE.INTRA.POLAR.0>
0

>  <SCORE.INTRA.REPUL>
0

>  <SCORE.INTRA.REPUL.0>
0

>  <SCORE.INTRA.SOLV>
0

>  <SCORE.INTRA.SOLV.lig_0>
-4.26631

>  <SCORE.INTRA.VDW>
0

>  <SCORE.INTRA.VDW.0>
0

>  <SCORE.INTRA.norm>
0

>  <SCORE.RESTR>
0

>  <SCORE.RESTR.CAVITY>
0

>  <SCORE.RESTR.norm>
0

>  <SCORE.SYSTEM>
0

>  <SCORE.SYSTEM.CONST>
0

>  <SCORE.SYSTEM.DIHEDRAL>
0

>  <SCORE.SYSTEM.SOLV>
0

>  <SCORE.SYSTEM.norm>
0

>  <SCORE.heavy>
10

>  <SCORE.norm>
-1.75421

>  <RMSD>
2.408

$$$$
ligand
 OpenBabel11021811493D
libRbt.so/2013.1/901 2013/11/27
 10 11  0  0  0  0  0  0  0  0999 V2000
   11.8800   10.8859    8.7946 N   0  0  0  0  0  0  0  0  0  0  0  0
   12.0548    9.7249    8.0847 C   0  0  0  0  0  0  0  0  0  0  0  0
   11.9006    9.6879    6.7513 N   0  0  0  0  0  0  0  0  0  0  0  0
   11.5677   10.8789    6.2119 C   0  0  0  0  0  0  0  0  0  0  0  0
   11.3778   12.0748    6.8684 C   0  0  0  0  0  0  0  0  0  0  0  0
   11.5373   12.1349    8.2672 C   0  0  0  0  0  0  0  0  0  0  0  0
   11.4161   13.0857    9.0275 O   0  0  0  0  0  0  0  0  0  0  0  0
   11.0538   13.0319    5.9521 N   0  0  0  0  0  0  0  0  0  0  0  0
   11.0448   12.4218    4.7483 C   0  0  0  0  0  0  0  0  0  0  0  0
   11.3563   11.0925    4.8772 N   0  0  0  0  0  0  0  0  0  0  0  0
  1  2  1  0  0  0  0
  1  6  1  0  0  0  0
  2  3  2  0  0  0  0
  3  4  1  0  0  0  0
  4  5  2  0  0  0  0
  4 10  1  0  0  0  0
  5  6  1  0  0  0  0
  5  8  1  0  0  0  0
  6  7  2  0  0  0  0
  8  9  1  0  0  0  0
  9 10  2  0  0  0  0
M  END
>  <CHROM.1>
11.51754886,11.52995655,6.99877659,-0.99226963,1.32108569,-2.06863663

>  <Name>
ligand

>  <RI>
0

>  <Rbt.Current_Directory>
/home/itssahil/PROJECTS/Mol_Feturizer/New_Systems/rnas/4FEJ

>  <Rbt.Executable>
rbdock ($Id: //depot/dev/client3/rdock/2013.1/src/exe/rbdock.cxx#4 $)

>  <Rbt.Library>
libRbt.so (2013.1, Build901 2013/11/27)

>  <Rbt.Parameter_File>
/export/apps/rDock/src/rDock_2013.1_src/data/scripts/dock_solv.prm

>  <Rbt.Receptor>
prm/pocket_docking_5.prm

>  <SCORE>
-17.5188

>  <SCORE.INTER>
-17.5188

>  <SCORE.INTER.CONST>
1

>  <SCORE.INTER.POLAR>
0

>  <SCORE.INTER.ROT>
0

>  <SCORE.INTER.SOLV>
3.94647

>  <SCORE.INTER.VDW>
-16.5947

>  <SCORE.INTER.norm>
-1.75188

>  <SCORE.INTRA>
0

>  <SCORE.INTRA.DIHEDRAL>
0

>  <SCORE.INTRA.DIHEDRAL.0>
0

>  <SCORE.INTRA.POLAR>
0

>  <SCORE.INTRA.POLAR.0>
0

>  <SCORE.INTRA.REPUL>
0

>  <SCORE.INTRA.REPUL.0>
0

>  <SCORE.INTRA.SOLV>
0

>  <SCORE.INTRA.SOLV.lig_0>
-4.26631

>  <SCORE.INTRA.VDW>
0

>  <SCORE.INTRA.VDW.0>
0

>  <SCORE.INTRA.norm>
0

>  <SCORE.RESTR>
0

>  <SCORE.RESTR.CAVITY>
0

>  <SCORE.RESTR.norm>
0

>  <SCORE.SYSTEM>
0

>  <SCORE.SYSTEM.CONST>
0

>  <SCORE.SYSTEM.DIHEDRAL>
0

>  <SCORE.SYSTEM.SOLV>
0

>  <SCORE.SYSTEM.norm>
0

>  <SCORE.heavy>
10

>  <SCORE.norm>
-1.75188

>  <RMSD>
2.408

$$$$
ligand
 OpenBabel11021811493D
libRbt.so/2013.1/901 2013/11/27
 10 11  0  0  0  0  0  0  0  0999 V2000
   11.8790   10.8676    8.7838 N   0  0  0  0  0  0  0  0  0  0  0  0
   12.0643    9.7129    8.0662 C   0  0  0  0  0  0  0  0  0  0  0  0
   11.9149    9.6844    6.7321 N   0  0  0  0  0  0  0  0  0  0  0  0
   11.5758   10.8769    6.2000 C   0  0  0  0  0  0  0  0  0  0  0  0
   11.3753   12.0667    6.8644 C   0  0  0  0  0  0  0  0  0  0  0  0
   11.5295   12.1179    8.2642 C   0  0  0  0  0  0  0  0  0  0  0  0
   11.3991   13.0623    9.0308 O   0  0  0  0  0  0  0  0  0  0  0  0
   11.0478   13.0282    5.9538 N   0  0  0  0  0  0  0  0  0  0  0  0
   11.0473   12.4267    4.7457 C   0  0  0  0  0  0  0  0  0  0  0  0
   11.3675   11.0987    4.8662 N   0  0  0  0  0  0  0  0  0  0  0  0
  1  2  1  0  0  0  0
  1  6  1  0  0  0  0
  2  3  2  0  0  0  0
  3  4  1  0  0  0  0
  4  5  2  0  0  0  0
  4 10  1  0  0  0  0
  5  6  1  0  0  0  0
  5  8  1  0  0  0  0
  6  7  2  0  0  0  0
  8  9  1  0  0  0  0
  9 10  2  0  0  0  0
M  END
>  <CHROM.1>
11.51835380,11.52198245,6.99138875,-1.01751708,1.31660144,-2.03700974

>  <Name>
ligand

>  <RI>
0

>  <Rbt.Current_Directory>
/home/itssahil/PROJECTS/Mol_Feturizer/New_Systems/rnas/4FEJ

>  <Rbt.Executable>
rbdock ($Id: //depot/dev/client3/rdock/2013.1/src/exe/rbdock.cxx#4 $)

>  <Rbt.Library>
libRbt.so (2013.1, Build901 2013/11/27)

>  <Rbt.Parameter_File>
/export/apps/rDock/src/rDock_2013.1_src/data/scripts/dock_solv.prm

>  <Rbt.Receptor>
prm/pocket_docking_6.prm

>  <SCORE>
-17.5407

>  <SCORE.INTER>
-17.5407

>  <SCORE.INTER.CONST>
1

>  <SCORE.INTER.POLAR>
0

>  <SCORE.INTER.ROT>
0

>  <SCORE.INTER.SOLV>
3.91816

>  <SCORE.INTER.VDW>
-16.5999

>  <SCORE.INTER.norm>
-1.75407

>  <SCORE.INTRA>
0

>  <SCORE.INTRA.DIHEDRAL>
0

>  <SCORE.INTRA.DIHEDRAL.0>
0

>  <SCORE.INTRA.POLAR>
0

>  <SCORE.INTRA.POLAR.0>
0

>  <SCORE.INTRA.REPUL>
0

>  <SCORE.INTRA.REPUL.0>
0

>  <SCORE.INTRA.SOLV>
0

>  <SCORE.INTRA.SOLV.lig_0>
-4.26631

>  <SCORE.INTRA.VDW>
0

>  <SCORE.INTRA.VDW.0>
0

>  <SCORE.INTRA.norm>
0

>  <SCORE.RESTR>
0

>  <SCORE.RESTR.CAVITY>
0

>  <SCORE.RESTR.norm>
0

>  <SCORE.SYSTEM>
0

>  <SCORE.SYSTEM.CONST>
0

>  <SCORE.SYSTEM.DIHEDRAL>
0

>  <SCORE.SYSTEM.SOLV>
0

>  <SCORE.SYSTEM.norm>
0

>  <SCORE.heavy>
10

>  <SCORE.norm>
-1.75407

>  <RMSD>
2.408

$$$$
ligand
 OpenBabel11021811493D
libRbt.so/2013.1/901 2013/11/27
 10 11  0  0  0  0  0  0  0  0999 V2000
   11.8713   10.8661    8.7586 N   0  0  0  0  0  0  0  0  0  0  0  0
   12.0122    9.6976    8.0535 C   0  0  0  0  0  0  0  0  0  0  0  0
   11.8401    9.6562    6.7225 N   0  0  0  0  0  0  0  0  0  0  0  0
   11.5258   10.8509    6.1801 C   0  0  0  0  0  0  0  0  0  0  0  0
   11.3698   12.0543    6.8318 C   0  0  0  0  0  0  0  0  0  0  0  0
   11.5484   12.1191    8.2281 C   0  0  0  0  0  0  0  0  0  0  0  0
   11.4572   13.0766    8.9841 O   0  0  0  0  0  0  0  0  0  0  0  0
   11.0545   13.0129    5.9139 N   0  0  0  0  0  0  0  0  0  0  0  0
   11.0171   12.3961    4.7140 C   0  0  0  0  0  0  0  0  0  0  0  0
   11.3019   11.0613    4.8470 N   0  0  0  0  0  0  0  0  0  0  0  0
  1  2  1  0  0  0  0
  1  6  1  0  0  0  0
  2  3  2  0  0  0  0
  3  4  1  0  0  0  0
  4  5  2  0  0  0  0
  4 10  1  0  0  0  0
  5  6  1  0  0  0  0
  5  8  1  0  0  0  0
  6  7  2  0  0  0  0
  8  9  1  0  0  0  0
  9 10  2  0  0  0  0
M  END
>  <CHROM.1>
11.49958668,11.50741171,6.96365348,-0.90134310,1.33271506,-2.16276789

>  <Name>
ligand

>  <RI>
0

>  <Rbt.Current_Directory>
/home/itssahil/PROJECTS/Mol_Feturizer/New_Systems/rnas/4FEJ

>  <Rbt.Executable>
rbdock ($Id: //depot/dev/client3/rdock/2013.1/src/exe/rbdock.cxx#4 $)

>  <Rbt.Library>
libRbt.so (2013.1, Build901 2013/11/27)

>  <Rbt.Parameter_File>
/export/apps/rDock/src/rDock_2013.1_src/data/scripts/dock_solv.prm

>  <Rbt.Receptor>
prm/pocket_docking_6.prm

>  <SCORE>
-17.4384

>  <SCORE.INTER>
-17.4384

>  <SCORE.INTER.CONST>
1

>  <SCORE.INTER.POLAR>
0

>  <SCORE.INTER.ROT>
0

>  <SCORE.INTER.SOLV>
3.96407

>  <SCORE.INTER.VDW>
-16.547

>  <SCORE.INTER.norm>
-1.74384

>  <SCORE.INTRA>
0

>  <SCORE.INTRA.DIHEDRAL>
0

>  <SCORE.INTRA.DIHEDRAL.0>
0

>  <SCORE.INTRA.POLAR>
0

>  <SCORE.INTRA.POLAR.0>
0

>  <SCORE.INTRA.REPUL>
0

>  <SCORE.INTRA.REPUL.0>
0

>  <SCORE.INTRA.SOLV>
0

>  <SCORE.INTRA.SOLV.lig_0>
-4.26631

>  <SCORE.INTRA.VDW>
0

>  <SCORE.INTRA.VDW.0>
0

>  <SCORE.INTRA.norm>
0

>  <SCORE.RESTR>
0

>  <SCORE.RESTR.CAVITY>
0

>  <SCORE.RESTR.norm>
0

>  <SCORE.SYSTEM>
0

>  <SCORE.SYSTEM.CONST>
0

>  <SCORE.SYSTEM.DIHEDRAL>
0

>  <SCORE.SYSTEM.SOLV>
0

>  <SCORE.SYSTEM.norm>
0

>  <SCORE.heavy>
10

>  <SCORE.norm>
-1.74384

>  <RMSD>
2.408

$$$$
ligand
 OpenBabel11021811493D
libRbt.so/2013.1/901 2013/11/27
 10 11  0  0  0  0  0  0  0  0999 V2000
   11.8924   10.8894    8.7791 N   0  0  0  0  0  0  0  0  0  0  0  0
   12.0700    9.7263    8.0733 C   0  0  0  0  0  0  0  0  0  0  0  0
   11.9076    9.6823    6.7411 N   0  0  0  0  0  0  0  0  0  0  0  0
   11.5640   10.8687    6.1984 C   0  0  0  0  0  0  0  0  0  0  0  0
   11.3708   12.0664    6.8508 C   0  0  0  0  0  0  0  0  0  0  0  0
   11.5386   12.1338    8.2483 C   0  0  0  0  0  0  0  0  0  0  0  0
   11.4162   13.0873    9.0051 O   0  0  0  0  0  0  0  0  0  0  0  0
   11.0350   13.0174    5.9322 N   0  0  0  0  0  0  0  0  0  0  0  0
   11.0223   12.4017    4.7313 C   0  0  0  0  0  0  0  0  0  0  0  0
   11.3428   11.0750    4.8642 N   0  0  0  0  0  0  0  0  0  0  0  0
  1  2  1  0  0  0  0
  1  6  1  0  0  0  0
  2  3  2  0  0  0  0
  3  4  1  0  0  0  0
  4  5  2  0  0  0  0
  4 10  1  0  0  0  0
  5  6  1  0  0  0  0
  5  8  1  0  0  0  0
  6  7  2  0  0  0  0
  8  9  1  0  0  0  0
  9 10  2  0  0  0  0
M  END
>  <CHROM.1>
11.51468260,11.52304358,6.98271985,-0.98230816,1.31259697,-2.08278011

>  <Name>
ligand

>  <RI>
0

>  <Rbt.Current_Directory>
/home/itssahil/PROJECTS/Mol_Feturizer/New_Systems/rnas/4FEJ

>  <Rbt.Executable>
rbdock ($Id: //depot/dev/client3/rdock/2013.1/src/exe/rbdock.cxx#4 $)

>  <Rbt.Library>
libRbt.so (2013.1, Build901 2013/11/27)

>  <Rbt.Parameter_File>
/export/apps/rDock/src/rDock_2013.1_src/data/scripts/dock_solv.prm

>  <Rbt.Receptor>
prm/pocket_docking_6.prm

>  <SCORE>
-17.5004

>  <SCORE.INTER>
-17.5004

>  <SCORE.INTER.CONST>
1

>  <SCORE.INTER.POLAR>
0

>  <SCORE.INTER.ROT>
0

>  <SCORE.INTER.SOLV>
3.9361

>  <SCORE.INTER.VDW>
-16.579

>  <SCORE.INTER.norm>
-1.75004

>  <SCORE.INTRA>
0

>  <SCORE.INTRA.DIHEDRAL>
0

>  <SCORE.INTRA.DIHEDRAL.0>
0

>  <SCORE.INTRA.POLAR>
0

>  <SCORE.INTRA.POLAR.0>
0

>  <SCORE.INTRA.REPUL>
0

>  <SCORE.INTRA.REPUL.0>
0

>  <SCORE.INTRA.SOLV>
0

>  <SCORE.INTRA.SOLV.lig_0>
-4.26631

>  <SCORE.INTRA.VDW>
0

>  <SCORE.INTRA.VDW.0>
0

>  <SCORE.INTRA.norm>
0

>  <SCORE.RESTR>
0

>  <SCORE.RESTR.CAVITY>
0

>  <SCORE.RESTR.norm>
0

>  <SCORE.SYSTEM>
0

>  <SCORE.SYSTEM.CONST>
0

>  <SCORE.SYSTEM.DIHEDRAL>
0

>  <SCORE.SYSTEM.SOLV>
0

>  <SCORE.SYSTEM.norm>
0

>  <SCORE.heavy>
10

>  <SCORE.norm>
-1.75004

>  <RMSD>
2.408

$$$$
ligand
 OpenBabel11021811493D
libRbt.so/2013.1/901 2013/11/27
 10 11  0  0  0  0  0  0  0  0999 V2000
   11.8935   10.8689    8.7783 N   0  0  0  0  0  0  0  0  0  0  0  0
   12.0741    9.7128    8.0620 C   0  0  0  0  0  0  0  0  0  0  0  0
   11.9162    9.6815    6.7289 N   0  0  0  0  0  0  0  0  0  0  0  0
   11.5738   10.8729    6.1964 C   0  0  0  0  0  0  0  0  0  0  0  0
   11.3777   12.0641    6.8596 C   0  0  0  0  0  0  0  0  0  0  0  0
   11.5408   12.1182    8.2582 C   0  0  0  0  0  0  0  0  0  0  0  0
   11.4153   13.0643    9.0237 O   0  0  0  0  0  0  0  0  0  0  0  0
   11.0446   13.0237    5.9491 N   0  0  0  0  0  0  0  0  0  0  0  0
   11.0363   12.4196    4.7422 C   0  0  0  0  0  0  0  0  0  0  0  0
   11.3571   11.0918    4.8635 N   0  0  0  0  0  0  0  0  0  0  0  0
  1  2  1  0  0  0  0
  1  6  1  0  0  0  0
  2  3  2  0  0  0  0
  3  4  1  0  0  0  0
  4  5  2  0  0  0  0
  4 10  1  0  0  0  0
  5  6  1  0  0  0  0
  5  8  1  0  0  0  0
  6  7  2  0  0  0  0
  8  9  1  0  0  0  0
  9 10  2  0  0  0  0
M  END
>  <CHROM.1>
11.52150426,11.51959765,6.98680603,-0.99501935,1.31377059,-2.06088018

>  <Name>
ligand

>  <RI>
0

>  <Rbt.Current_Directory>
/home/itssahil/PROJECTS/Mol_Feturizer/New_Systems/rnas/4FEJ

>  <Rbt.Executable>
rbdock ($Id: //depot/dev/client3/rdock/2013.1/src/exe/rbdock.cxx#4 $)

>  <Rbt.Library>
libRbt.so (2013.1, Build901 2013/11/27)

>  <Rbt.Parameter_File>
/export/apps/rDock/src/rDock_2013.1_src/data/scripts/dock_solv.prm

>  <Rbt.Receptor>
prm/pocket_docking_7.prm

>  <SCORE>
-17.5243

>  <SCORE.INTER>
-17.5243

>  <SCORE.INTER.CONST>
1

>  <SCORE.INTER.POLAR>
0

>  <SCORE.INTER.ROT>
0

>  <SCORE.INTER.SOLV>
3.91634

>  <SCORE.INTER.VDW>
-16.5883

>  <SCORE.INTER.norm>
-1.75243

>  <SCORE.INTRA>
0

>  <SCORE.INTRA.DIHEDRAL>
0

>  <SCORE.INTRA.DIHEDRAL.0>
0

>  <SCORE.INTRA.POLAR>
0

>  <SCORE.INTRA.POLAR.0>
0

>  <SCORE.INTRA.REPUL>
0

>  <SCORE.INTRA.REPUL.0>
0

>  <SCORE.INTRA.SOLV>
0

>  <SCORE.INTRA.SOLV.lig_0>
-4.26631

>  <SCORE.INTRA.VDW>
0

>  <SCORE.INTRA.VDW.0>
0

>  <SCORE.INTRA.norm>
0

>  <SCORE.RESTR>
0

>  <SCORE.RESTR.CAVITY>
0

>  <SCORE.RESTR.norm>
0

>  <SCORE.SYSTEM>
0

>  <SCORE.SYSTEM.CONST>
0

>  <SCORE.SYSTEM.DIHEDRAL>
0

>  <SCORE.SYSTEM.SOLV>
0

>  <SCORE.SYSTEM.norm>
0

>  <SCORE.heavy>
10

>  <SCORE.norm>
-1.75243

>  <RMSD>
2.408

$$$$
ligand
 OpenBabel11021811493D
libRbt.so/2013.1/901 2013/11/27
 10 11  0  0  0  0  0  0  0  0999 V2000
   11.8826   10.8776    8.7915 N   0  0  0  0  0  0  0  0  0  0  0  0
   12.0623    9.7197    8.0779 C   0  0  0  0  0  0  0  0  0  0  0  0
   11.9052    9.6855    6.7448 N   0  0  0  0  0  0  0  0  0  0  0  0
   11.5645   10.8762    6.2094 C   0  0  0  0  0  0  0  0  0  0  0  0
   11.3694   12.0691    6.8698 C   0  0  0  0  0  0  0  0  0  0  0  0
   11.5317   12.1262    8.2684 C   0  0  0  0  0  0  0  0  0  0  0  0
   11.4069   13.0741    9.0317 O   0  0  0  0  0  0  0  0  0  0  0  0
   11.0379   13.0270    5.9569 N   0  0  0  0  0  0  0  0  0  0  0  0
   11.0296   12.4202    4.7514 C   0  0  0  0  0  0  0  0  0  0  0  0
   11.3488   11.0923    4.8759 N   0  0  0  0  0  0  0  0  0  0  0  0
  1  2  1  0  0  0  0
  1  6  1  0  0  0  0
  2  3  2  0  0  0  0
  3  4  1  0  0  0  0
  4  5  2  0  0  0  0
  4 10  1  0  0  0  0
  5  6  1  0  0  0  0
  5  8  1  0  0  0  0
  6  7  2  0  0  0  0
  8  9  1  0  0  0  0
  9 10  2  0  0  0  0
M  END
>  <CHROM.1>
11.51245779,11.52472058,6.99830921,-0.99488305,1.31510537,-2.06328027

>  <Name>
ligand

>  <RI>
0

>  <Rbt.Current_Directory>
/home/itssahil/PROJECTS/Mol_Feturizer/New_Systems/rnas/4FEJ

>  <Rbt.Executable>
rbdock ($Id: //depot/dev/client3/rdock/2013.1/src/exe/rbdock.cxx#4 $)

>  <Rbt.Library>
libRbt.so (2013.1, Build901 2013/11/27)

>  <Rbt.Parameter_File>
/export/apps/rDock/src/rDock_2013.1_src/data/scripts/dock_solv.prm

>  <Rbt.Receptor>
prm/pocket_docking_7.prm

>  <SCORE>
-17.5236

>  <SCORE.INTER>
-17.5236

>  <SCORE.INTER.CONST>
1

>  <SCORE.INTER.POLAR>
0

>  <SCORE.INTER.ROT>
0

>  <SCORE.INTER.SOLV>
3.92655

>  <SCORE.INTER.VDW>
-16.5912

>  <SCORE.INTER.norm>
-1.75236

>  <SCORE.INTRA>
0

>  <SCORE.INTRA.DIHEDRAL>
0

>  <SCORE.INTRA.DIHEDRAL.0>
0

>  <SCORE.INTRA.POLAR>
0

>  <SCORE.INTRA.POLAR.0>
0

>  <SCORE.INTRA.REPUL>
0

>  <SCORE.INTRA.REPUL.0>
0

>  <SCORE.INTRA.SOLV>
0

>  <SCORE.INTRA.SOLV.lig_0>
-4.26631

>  <SCORE.INTRA.VDW>
0

>  <SCORE.INTRA.VDW.0>
0

>  <SCORE.INTRA.norm>
0

>  <SCORE.RESTR>
0

>  <SCORE.RESTR.CAVITY>
0

>  <SCORE.RESTR.norm>
0

>  <SCORE.SYSTEM>
0

>  <SCORE.SYSTEM.CONST>
0

>  <SCORE.SYSTEM.DIHEDRAL>
0

>  <SCORE.SYSTEM.SOLV>
0

>  <SCORE.SYSTEM.norm>
0

>  <SCORE.heavy>
10

>  <SCORE.norm>
-1.75236

>  <RMSD>
2.408

$$$$
ligand
 OpenBabel11021811493D
libRbt.so/2013.1/901 2013/11/27
 10 11  0  0  0  0  0  0  0  0999 V2000
   11.8785   10.8692    8.7573 N   0  0  0  0  0  0  0  0  0  0  0  0
   12.0298    9.7040    8.0488 C   0  0  0  0  0  0  0  0  0  0  0  0
   11.8605    9.6654    6.7173 N   0  0  0  0  0  0  0  0  0  0  0  0
   11.5381   10.8594    6.1781 C   0  0  0  0  0  0  0  0  0  0  0  0
   11.3717   12.0595    6.8332 C   0  0  0  0  0  0  0  0  0  0  0  0
   11.5471   12.1213    8.2300 C   0  0  0  0  0  0  0  0  0  0  0  0
   11.4472   13.0757    8.9888 O   0  0  0  0  0  0  0  0  0  0  0  0
   11.0507   13.0185    5.9176 N   0  0  0  0  0  0  0  0  0  0  0  0
   11.0203   12.4052    4.7158 C   0  0  0  0  0  0  0  0  0  0  0  0
   11.3150   11.0721    4.8452 N   0  0  0  0  0  0  0  0  0  0  0  0
  1  2  1  0  0  0  0
  1  6  1  0  0  0  0
  2  3  2  0  0  0  0
  3  4  1  0  0  0  0
  4  5  2  0  0  0  0
  4 10  1  0  0  0  0
  5  6  1  0  0  0  0
  5  8  1  0  0  0  0
  6  7  2  0  0  0  0
  8  9  1  0  0  0  0
  9 10  2  0  0  0  0
M  END
>  <CHROM.1>
11.50534023,11.51321723,6.96359129,-0.92552553,1.32733304,-2.13618654

>  <Name>
ligand

>  <RI>
0

>  <Rbt.Current_Directory>
/home/itssahil/PROJECTS/Mol_Feturizer/New_Systems/rnas/4FEJ

>  <Rbt.Executable>
rbdock ($Id: //depot/dev/client3/rdock/2013.1/src/exe/rbdock.cxx#4 $)

>  <Rbt.Library>
libRbt.so (2013.1, Build901 2013/11/27)

>  <Rbt.Parameter_File>
/export/apps/rDock/src/rDock_2013.1_src/data/scripts/dock_solv.prm

>  <Rbt.Receptor>
prm/pocket_docking_8.prm

>  <SCORE>
-17.4722

>  <SCORE.INTER>
-17.4722

>  <SCORE.INTER.CONST>
1

>  <SCORE.INTER.POLAR>
0

>  <SCORE.INTER.ROT>
0

>  <SCORE.INTER.SOLV>
3.95176

>  <SCORE.INTER.VDW>
-16.5654

>  <SCORE.INTER.norm>
-1.74722

>  <SCORE.INTRA>
0

>  <SCORE.INTRA.DIHEDRAL>
0

>  <SCORE.INTRA.DIHEDRAL.0>
0

>  <SCORE.INTRA.POLAR>
0

>  <SCORE.INTRA.POLAR.0>
0

>  <SCORE.INTRA.REPUL>
0

>  <SCORE.INTRA.REPUL.0>
0

>  <SCORE.INTRA.SOLV>
0

>  <SCORE.INTRA.SOLV.lig_0>
-4.26631

>  <SCORE.INTRA.VDW>
0

>  <SCORE.INTRA.VDW.0>
0

>  <SCORE.INTRA.norm>
0

>  <SCORE.RESTR>
0

>  <SCORE.RESTR.CAVITY>
0

>  <SCORE.RESTR.norm>
0

>  <SCORE.SYSTEM>
0

>  <SCORE.SYSTEM.CONST>
0

>  <SCORE.SYSTEM.DIHEDRAL>
0

>  <SCORE.SYSTEM.SOLV>
0

>  <SCORE.SYSTEM.norm>
0

>  <SCORE.heavy>
10

>  <SCORE.norm>
-1.74722

>  <RMSD>
2.408

$$$$
ligand
 OpenBabel11021811493D
libRbt.so/2013.1/901 2013/11/27
 10 11  0  0  0  0  0  0  0  0999 V2000
   11.8356   10.8434    8.7995 N   0  0  0  0  0  0  0  0  0  0  0  0
   12.0106    9.7004    8.0609 C   0  0  0  0  0  0  0  0  0  0  0  0
   11.8523    9.6955    6.7275 N   0  0  0  0  0  0  0  0  0  0  0  0
   11.5154   10.8985    6.2182 C   0  0  0  0  0  0  0  0  0  0  0  0
   11.3251   12.0777    6.9043 C   0  0  0  0  0  0  0  0  0  0  0  0
   11.4887   12.1041    8.3036 C   0  0  0  0  0  0  0  0  0  0  0  0
   11.3679   13.0358    9.0872 O   0  0  0  0  0  0  0  0  0  0  0  0
   10.9962   13.0562    6.0125 N   0  0  0  0  0  0  0  0  0  0  0  0
   10.9848   12.4755    4.7942 C   0  0  0  0  0  0  0  0  0  0  0  0
   11.2994   11.1441    4.8899 N   0  0  0  0  0  0  0  0  0  0  0  0
  1  2  1  0  0  0  0
  1  6  1  0  0  0  0
  2  3  2  0  0  0  0
  3  4  1  0  0  0  0
  4  5  2  0  0  0  0
  4 10  1  0  0  0  0
  5  6  1  0  0  0  0
  5  8  1  0  0  0  0
  6  7  2  0  0  0  0
  8  9  1  0  0  0  0
  9 10  2  0  0  0  0
M  END
>  <CHROM.1>
11.46629694,11.53015549,7.02092655,-0.98534211,1.31783257,-2.05100259

>  <Name>
ligand

>  <RI>
0

>  <Rbt.Current_Directory>
/home/itssahil/PROJECTS/Mol_Feturizer/New_Systems/rnas/4FEJ

>  <Rbt.Executable>
rbdock ($Id: //depot/dev/client3/rdock/2013.1/src/exe/rbdock.cxx#4 $)

>  <Rbt.Library>
libRbt.so (2013.1, Build901 2013/11/27)

>  <Rbt.Parameter_File>
/export/apps/rDock/src/rDock_2013.1_src/data/scripts/dock_solv.prm

>  <Rbt.Receptor>
prm/pocket_docking_8.prm

>  <SCORE>
-17.4109

>  <SCORE.INTER>
-17.4109

>  <SCORE.INTER.CONST>
1

>  <SCORE.INTER.POLAR>
0

>  <SCORE.INTER.ROT>
0

>  <SCORE.INTER.SOLV>
3.90775

>  <SCORE.INTER.VDW>
-16.5098

>  <SCORE.INTER.norm>
-1.74109

>  <SCORE.INTRA>
0

>  <SCORE.INTRA.DIHEDRAL>
0

>  <SCORE.INTRA.DIHEDRAL.0>
0

>  <SCORE.INTRA.POLAR>
0

>  <SCORE.INTRA.POLAR.0>
0

>  <SCORE.INTRA.REPUL>
0

>  <SCORE.INTRA.REPUL.0>
0

>  <SCORE.INTRA.SOLV>
0

>  <SCORE.INTRA.SOLV.lig_0>
-4.26631

>  <SCORE.INTRA.VDW>
0

>  <SCORE.INTRA.VDW.0>
0

>  <SCORE.INTRA.norm>
0

>  <SCORE.RESTR>
0

>  <SCORE.RESTR.CAVITY>
0

>  <SCORE.RESTR.norm>
0

>  <SCORE.SYSTEM>
0

>  <SCORE.SYSTEM.CONST>
0

>  <SCORE.SYSTEM.DIHEDRAL>
0

>  <SCORE.SYSTEM.SOLV>
0

>  <SCORE.SYSTEM.norm>
0

>  <SCORE.heavy>
10

>  <SCORE.norm>
-1.74109

>  <RMSD>
2.408

$$$$
ligand
 OpenBabel11021811493D
libRbt.so/2013.1/901 2013/11/27
 10 11  0  0  0  0  0  0  0  0999 V2000
   11.8749   10.8765    8.7835 N   0  0  0  0  0  0  0  0  0  0  0  0
   12.0586    9.7179    8.0719 C   0  0  0  0  0  0  0  0  0  0  0  0
   11.9091    9.6826    6.7380 N   0  0  0  0  0  0  0  0  0  0  0  0
   11.5714   10.8728    6.1997 C   0  0  0  0  0  0  0  0  0  0  0  0
   11.3726   12.0663    6.8579 C   0  0  0  0  0  0  0  0  0  0  0  0
   11.5269   12.1246    8.2573 C   0  0  0  0  0  0  0  0  0  0  0  0
   11.3978   13.0732    9.0191 O   0  0  0  0  0  0  0  0  0  0  0  0
   11.0463   13.0234    5.9423 N   0  0  0  0  0  0  0  0  0  0  0  0
   11.0449   12.4156    4.7373 C   0  0  0  0  0  0  0  0  0  0  0  0
   11.3633   11.0878    4.8648 N   0  0  0  0  0  0  0  0  0  0  0  0
  1  2  1  0  0  0  0
  1  6  1  0  0  0  0
  2  3  2  0  0  0  0
  3  4  1  0  0  0  0
  4  5  2  0  0  0  0
  4 10  1  0  0  0  0
  5  6  1  0  0  0  0
  5  8  1  0  0  0  0
  6  7  2  0  0  0  0
  8  9  1  0  0  0  0
  9 10  2  0  0  0  0
M  END
>  <CHROM.1>
11.51492067,11.52202216,6.98768751,-1.01493199,1.31772231,-2.04474780

>  <Name>
ligand

>  <RI>
0

>  <Rbt.Current_Directory>
/home/itssahil/PROJECTS/Mol_Feturizer/New_Systems/rnas/4FEJ

>  <Rbt.Executable>
rbdock ($Id: //depot/dev/client3/rdock/2013.1/src/exe/rbdock.cxx#4 $)

>  <Rbt.Library>
libRbt.so (2013.1, Build901 2013/11/27)

>  <Rbt.Parameter_File>
/export/apps/rDock/src/rDock_2013.1_src/data/scripts/dock_solv.prm

>  <Rbt.Receptor>
prm/blind_docking_100.prm

>  <SCORE>
-17.5236

>  <SCORE.INTER>
-17.5236

>  <SCORE.INTER.CONST>
1

>  <SCORE.INTER.POLAR>
0

>  <SCORE.INTER.ROT>
0

>  <SCORE.INTER.SOLV>
3.92926

>  <SCORE.INTER.VDW>
-16.5921

>  <SCORE.INTER.norm>
-1.75236

>  <SCORE.INTRA>
0

>  <SCORE.INTRA.DIHEDRAL>
0

>  <SCORE.INTRA.DIHEDRAL.0>
0

>  <SCORE.INTRA.POLAR>
0

>  <SCORE.INTRA.POLAR.0>
0

>  <SCORE.INTRA.REPUL>
0

>  <SCORE.INTRA.REPUL.0>
0

>  <SCORE.INTRA.SOLV>
0

>  <SCORE.INTRA.SOLV.lig_0>
-4.26631

>  <SCORE.INTRA.VDW>
0

>  <SCORE.INTRA.VDW.0>
0

>  <SCORE.INTRA.norm>
0

>  <SCORE.RESTR>
0

>  <SCORE.RESTR.CAVITY>
0

>  <SCORE.RESTR.norm>
0

>  <SCORE.SYSTEM>
0

>  <SCORE.SYSTEM.CONST>
0

>  <SCORE.SYSTEM.DIHEDRAL>
0

>  <SCORE.SYSTEM.SOLV>
0

>  <SCORE.SYSTEM.norm>
0

>  <SCORE.heavy>
10

>  <SCORE.norm>
-1.75236

>  <RMSD>
2.409

$$$$
ligand
 OpenBabel11021811493D
libRbt.so/2013.1/901 2013/11/27
 10 11  0  0  0  0  0  0  0  0999 V2000
   11.8722   10.8635    8.7570 N   0  0  0  0  0  0  0  0  0  0  0  0
   12.0239    9.6980    8.0492 C   0  0  0  0  0  0  0  0  0  0  0  0
   11.8555    9.6588    6.7176 N   0  0  0  0  0  0  0  0  0  0  0  0
   11.5335   10.8525    6.1776 C   0  0  0  0  0  0  0  0  0  0  0  0
   11.3667   12.0530    6.8320 C   0  0  0  0  0  0  0  0  0  0  0  0
   11.5412   12.1154    8.2289 C   0  0  0  0  0  0  0  0  0  0  0  0
   11.4407   13.0701    8.9872 O   0  0  0  0  0  0  0  0  0  0  0  0
   11.0464   13.0116    5.9158 N   0  0  0  0  0  0  0  0  0  0  0  0
   11.0168   12.3978    4.7142 C   0  0  0  0  0  0  0  0  0  0  0  0
   11.3114   11.0647    4.8444 N   0  0  0  0  0  0  0  0  0  0  0  0
  1  2  1  0  0  0  0
  1  6  1  0  0  0  0
  2  3  2  0  0  0  0
  3  4  1  0  0  0  0
  4  5  2  0  0  0  0
  4 10  1  0  0  0  0
  5  6  1  0  0  0  0
  5  8  1  0  0  0  0
  6  7  2  0  0  0  0
  8  9  1  0  0  0  0
  9 10  2  0  0  0  0
M  END
>  <CHROM.1>
11.50023640,11.50673071,6.96276241,-0.92794176,1.32773932,-2.13428079

>  <Name>
ligand

>  <RI>
0

>  <Rbt.Current_Directory>
/home/itssahil/PROJECTS/Mol_Feturizer/New_Systems/rnas/4FEJ

>  <Rbt.Executable>
rbdock ($Id: //depot/dev/client3/rdock/2013.1/src/exe/rbdock.cxx#4 $)

>  <Rbt.Library>
libRbt.so (2013.1, Build901 2013/11/27)

>  <Rbt.Parameter_File>
/export/apps/rDock/src/rDock_2013.1_src/data/scripts/dock_solv.prm

>  <Rbt.Receptor>
prm/blind_docking_100.prm

>  <SCORE>
-17.4763

>  <SCORE.INTER>
-17.4763

>  <SCORE.INTER.CONST>
1

>  <SCORE.INTER.POLAR>
0

>  <SCORE.INTER.ROT>
0

>  <SCORE.INTER.SOLV>
3.94687

>  <SCORE.INTER.VDW>
-16.5665

>  <SCORE.INTER.norm>
-1.74763

>  <SCORE.INTRA>
0

>  <SCORE.INTRA.DIHEDRAL>
0

>  <SCORE.INTRA.DIHEDRAL.0>
0

>  <SCORE.INTRA.POLAR>
0

>  <SCORE.INTRA.POLAR.0>
0

>  <SCORE.INTRA.REPUL>
0

>  <SCORE.INTRA.REPUL.0>
0

>  <SCORE.INTRA.SOLV>
0

>  <SCORE.INTRA.SOLV.lig_0>
-4.26631

>  <SCORE.INTRA.VDW>
0

>  <SCORE.INTRA.VDW.0>
0

>  <SCORE.INTRA.norm>
0

>  <SCORE.RESTR>
0

>  <SCORE.RESTR.CAVITY>
0

>  <SCORE.RESTR.norm>
0

>  <SCORE.SYSTEM>
0

>  <SCORE.SYSTEM.CONST>
0

>  <SCORE.SYSTEM.DIHEDRAL>
0

>  <SCORE.SYSTEM.SOLV>
0

>  <SCORE.SYSTEM.norm>
0

>  <SCORE.heavy>
10

>  <SCORE.norm>
-1.74763

>  <RMSD>
2.409

$$$$
ligand
 OpenBabel11021811493D
libRbt.so/2013.1/901 2013/11/27
 10 11  0  0  0  0  0  0  0  0999 V2000
   11.8644   10.8608    8.7558 N   0  0  0  0  0  0  0  0  0  0  0  0
   12.0082    9.6944    8.0479 C   0  0  0  0  0  0  0  0  0  0  0  0
   11.8378    9.6562    6.7165 N   0  0  0  0  0  0  0  0  0  0  0  0
   11.5222   10.8518    6.1769 C   0  0  0  0  0  0  0  0  0  0  0  0
   11.3635   12.0533    6.8315 C   0  0  0  0  0  0  0  0  0  0  0  0
   11.5402   12.1147    8.2282 C   0  0  0  0  0  0  0  0  0  0  0  0
   11.4465   13.0700    8.9866 O   0  0  0  0  0  0  0  0  0  0  0  0
   11.0477   13.0138    5.9158 N   0  0  0  0  0  0  0  0  0  0  0  0
   11.0129   12.4001    4.7142 C   0  0  0  0  0  0  0  0  0  0  0  0
   11.2996   11.0654    4.8441 N   0  0  0  0  0  0  0  0  0  0  0  0
  1  2  1  0  0  0  0
  1  6  1  0  0  0  0
  2  3  2  0  0  0  0
  3  4  1  0  0  0  0
  4  5  2  0  0  0  0
  4 10  1  0  0  0  0
  5  6  1  0  0  0  0
  5  8  1  0  0  0  0
  6  7  2  0  0  0  0
  8  9  1  0  0  0  0
  9 10  2  0  0  0  0
M  END
>  <CHROM.1>
11.49395137,11.50623379,6.96211691,-0.90953645,1.33206479,-2.15216945

>  <Name>
ligand

>  <RI>
0

>  <Rbt.Current_Directory>
/home/itssahil/PROJECTS/Mol_Feturizer/New_Systems/rnas/4FEJ

>  <Rbt.Executable>
rbdock ($Id: //depot/dev/client3/rdock/2013.1/src/exe/rbdock.cxx#4 $)

>  <Rbt.Library>
libRbt.so (2013.1, Build901 2013/11/27)

>  <Rbt.Parameter_File>
/export/apps/rDock/src/rDock_2013.1_src/data/scripts/dock_solv.prm

>  <Rbt.Receptor>
prm/blind_docking_100.prm

>  <SCORE>
-17.44

>  <SCORE.INTER>
-17.44

>  <SCORE.INTER.CONST>
1

>  <SCORE.INTER.POLAR>
0

>  <SCORE.INTER.ROT>
0

>  <SCORE.INTER.SOLV>
3.95448

>  <SCORE.INTER.VDW>
-16.5448

>  <SCORE.INTER.norm>
-1.744

>  <SCORE.INTRA>
0

>  <SCORE.INTRA.DIHEDRAL>
0

>  <SCORE.INTRA.DIHEDRAL.0>
0

>  <SCORE.INTRA.POLAR>
0

>  <SCORE.INTRA.POLAR.0>
0

>  <SCORE.INTRA.REPUL>
0

>  <SCORE.INTRA.REPUL.0>
0

>  <SCORE.INTRA.SOLV>
0

>  <SCORE.INTRA.SOLV.lig_0>
-4.26631

>  <SCORE.INTRA.VDW>
0

>  <SCORE.INTRA.VDW.0>
0

>  <SCORE.INTRA.norm>
0

>  <SCORE.RESTR>
0

>  <SCORE.RESTR.CAVITY>
0

>  <SCORE.RESTR.norm>
0

>  <SCORE.SYSTEM>
0

>  <SCORE.SYSTEM.CONST>
0

>  <SCORE.SYSTEM.DIHEDRAL>
0

>  <SCORE.SYSTEM.SOLV>
0

>  <SCORE.SYSTEM.norm>
0

>  <SCORE.heavy>
10

>  <SCORE.norm>
-1.744

>  <RMSD>
2.409

$$$$
ligand
 OpenBabel11021811493D
libRbt.so/2013.1/901 2013/11/27
 10 11  0  0  0  0  0  0  0  0999 V2000
   11.8688   10.8610    8.7573 N   0  0  0  0  0  0  0  0  0  0  0  0
   12.0240    9.6973    8.0473 C   0  0  0  0  0  0  0  0  0  0  0  0
   11.8579    9.6605    6.7154 N   0  0  0  0  0  0  0  0  0  0  0  0
   11.5344   10.8547    6.1773 C   0  0  0  0  0  0  0  0  0  0  0  0
   11.3641   12.0534    6.8340 C   0  0  0  0  0  0  0  0  0  0  0  0
   11.5361   12.1133    8.2313 C   0  0  0  0  0  0  0  0  0  0  0  0
   11.4325   13.0663    8.9914 O   0  0  0  0  0  0  0  0  0  0  0  0
   11.0433   13.0133    5.9192 N   0  0  0  0  0  0  0  0  0  0  0  0
   11.0170   12.4019    4.7163 C   0  0  0  0  0  0  0  0  0  0  0  0
   11.3140   11.0692    4.8443 N   0  0  0  0  0  0  0  0  0  0  0  0
  1  2  1  0  0  0  0
  1  6  1  0  0  0  0
  2  3  2  0  0  0  0
  3  4  1  0  0  0  0
  4  5  2  0  0  0  0
  4 10  1  0  0  0  0
  5  6  1  0  0  0  0
  5  8  1  0  0  0  0
  6  7  2  0  0  0  0
  8  9  1  0  0  0  0
  9 10  2  0  0  0  0
M  END
>  <CHROM.1>
11.49851754,11.50717100,6.96381241,-0.93812861,1.32689308,-2.12233000

>  <Name>
ligand

>  <RI>
0

>  <Rbt.Current_Directory>
/home/itssahil/PROJECTS/Mol_Feturizer/New_Systems/rnas/4FEJ

>  <Rbt.Executable>
rbdock ($Id: //depot/dev/client3/rdock/2013.1/src/exe/rbdock.cxx#4 $)

>  <Rbt.Library>
libRbt.so (2013.1, Build901 2013/11/27)

>  <Rbt.Parameter_File>
/export/apps/rDock/src/rDock_2013.1_src/data/scripts/dock_solv.prm

>  <Rbt.Receptor>
prm/blind_docking_100.prm

>  <SCORE>
-17.4755

>  <SCORE.INTER>
-17.4755

>  <SCORE.INTER.CONST>
1

>  <SCORE.INTER.POLAR>
0

>  <SCORE.INTER.ROT>
0

>  <SCORE.INTER.SOLV>
3.94105

>  <SCORE.INTER.VDW>
-16.564

>  <SCORE.INTER.norm>
-1.74755

>  <SCORE.INTRA>
0

>  <SCORE.INTRA.DIHEDRAL>
0

>  <SCORE.INTRA.DIHEDRAL.0>
0

>  <SCORE.INTRA.POLAR>
0

>  <SCORE.INTRA.POLAR.0>
0

>  <SCORE.INTRA.REPUL>
0

>  <SCORE.INTRA.REPUL.0>
0

>  <SCORE.INTRA.SOLV>
0

>  <SCORE.INTRA.SOLV.lig_0>
-4.26631

>  <SCORE.INTRA.VDW>
0

>  <SCORE.INTRA.VDW.0>
0

>  <SCORE.INTRA.norm>
0

>  <SCORE.RESTR>
0

>  <SCORE.RESTR.CAVITY>
0

>  <SCORE.RESTR.norm>
0

>  <SCORE.SYSTEM>
0

>  <SCORE.SYSTEM.CONST>
0

>  <SCORE.SYSTEM.DIHEDRAL>
0

>  <SCORE.SYSTEM.SOLV>
0

>  <SCORE.SYSTEM.norm>
0

>  <SCORE.heavy>
10

>  <SCORE.norm>
-1.74755

>  <RMSD>
2.409

$$$$
ligand
 OpenBabel11021811493D
libRbt.so/2013.1/901 2013/11/27
 10 11  0  0  0  0  0  0  0  0999 V2000
   11.8489   10.8659    8.7862 N   0  0  0  0  0  0  0  0  0  0  0  0
   11.9995    9.6948    8.0875 C   0  0  0  0  0  0  0  0  0  0  0  0
   11.8388    9.6470    6.7552 N   0  0  0  0  0  0  0  0  0  0  0  0
   11.5255   10.8384    6.2050 C   0  0  0  0  0  0  0  0  0  0  0  0
   11.3602   12.0441    6.8500 C   0  0  0  0  0  0  0  0  0  0  0  0
   11.5267   12.1155    8.2475 C   0  0  0  0  0  0  0  0  0  0  0  0
   11.4261   13.0760    8.9985 O   0  0  0  0  0  0  0  0  0  0  0  0
   11.0497   12.9977    5.9253 N   0  0  0  0  0  0  0  0  0  0  0  0
   11.0245   12.3756    4.7278 C   0  0  0  0  0  0  0  0  0  0  0  0
   11.3122   11.0422    4.8691 N   0  0  0  0  0  0  0  0  0  0  0  0
  1  2  1  0  0  0  0
  1  6  1  0  0  0  0
  2  3  2  0  0  0  0
  3  4  1  0  0  0  0
  4  5  2  0  0  0  0
  4 10  1  0  0  0  0
  5  6  1  0  0  0  0
  5  8  1  0  0  0  0
  6  7  2  0  0  0  0
  8  9  1  0  0  0  0
  9 10  2  0  0  0  0
M  END
>  <CHROM.1>
11.49051718,11.49818150,6.98537162,-0.93895750,1.33472681,-2.13056208

>  <Name>
ligand

>  <RI>
0

>  <Rbt.Current_Directory>
/home/itssahil/PROJECTS/Mol_Feturizer/New_Systems/rnas/4FEJ

>  <Rbt.Executable>
rbdock ($Id: //depot/dev/client3/rdock/2013.1/src/exe/rbdock.cxx#4 $)

>  <Rbt.Library>
libRbt.so (2013.1, Build901 2013/11/27)

>  <Rbt.Parameter_File>
/export/apps/rDock/src/rDock_2013.1_src/data/scripts/dock_solv.prm

>  <Rbt.Receptor>
prm/blind_docking_100.prm

>  <SCORE>
-17.4172

>  <SCORE.INTER>
-17.4172

>  <SCORE.INTER.CONST>
1

>  <SCORE.INTER.POLAR>
0

>  <SCORE.INTER.ROT>
0

>  <SCORE.INTER.SOLV>
3.96723

>  <SCORE.INTER.VDW>
-16.5339

>  <SCORE.INTER.norm>
-1.74172

>  <SCORE.INTRA>
0

>  <SCORE.INTRA.DIHEDRAL>
0

>  <SCORE.INTRA.DIHEDRAL.0>
0

>  <SCORE.INTRA.POLAR>
0

>  <SCORE.INTRA.POLAR.0>
0

>  <SCORE.INTRA.REPUL>
0

>  <SCORE.INTRA.REPUL.0>
0

>  <SCORE.INTRA.SOLV>
0

>  <SCORE.INTRA.SOLV.lig_0>
-4.26631

>  <SCORE.INTRA.VDW>
0

>  <SCORE.INTRA.VDW.0>
0

>  <SCORE.INTRA.norm>
0

>  <SCORE.RESTR>
0

>  <SCORE.RESTR.CAVITY>
0

>  <SCORE.RESTR.norm>
0

>  <SCORE.SYSTEM>
0

>  <SCORE.SYSTEM.CONST>
0

>  <SCORE.SYSTEM.DIHEDRAL>
0

>  <SCORE.SYSTEM.SOLV>
0

>  <SCORE.SYSTEM.norm>
0

>  <SCORE.heavy>
10

>  <SCORE.norm>
-1.74172

>  <RMSD>
2.409

$$$$
ligand
 OpenBabel11021811493D
libRbt.so/2013.1/901 2013/11/27
 10 11  0  0  0  0  0  0  0  0999 V2000
   11.8476   10.8644    8.7897 N   0  0  0  0  0  0  0  0  0  0  0  0
   12.0059    9.6974    8.0859 C   0  0  0  0  0  0  0  0  0  0  0  0
   11.8465    9.6546    6.7533 N   0  0  0  0  0  0  0  0  0  0  0  0
   11.5263   10.8464    6.2081 C   0  0  0  0  0  0  0  0  0  0  0  0
   11.3533   12.0483    6.8584 C   0  0  0  0  0  0  0  0  0  0  0  0
   11.5183   12.1144    8.2563 C   0  0  0  0  0  0  0  0  0  0  0  0
   11.4112   13.0709    9.0115 O   0  0  0  0  0  0  0  0  0  0  0  0
   11.0377   13.0041    5.9377 N   0  0  0  0  0  0  0  0  0  0  0  0
   11.0171   12.3872    4.7374 C   0  0  0  0  0  0  0  0  0  0  0  0
   11.3129   11.0550    4.8730 N   0  0  0  0  0  0  0  0  0  0  0  0
  1  2  1  0  0  0  0
  1  6  1  0  0  0  0
  2  3  2  0  0  0  0
  3  4  1  0  0  0  0
  4  5  2  0  0  0  0
  4 10  1  0  0  0  0
  5  6  1  0  0  0  0
  5  8  1  0  0  0  0
  6  7  2  0  0  0  0
  8  9  1  0  0  0  0
  9 10  2  0  0  0  0
M  END
>  <CHROM.1>
11.48678613,11.50254578,6.99142888,-0.95520345,1.32995299,-2.11031979

>  <Name>
ligand

>  <RI>
0

>  <Rbt.Current_Directory>
/home/itssahil/PROJECTS/Mol_Feturizer/New_Systems/rnas/4FEJ

>  <Rbt.Executable>
rbdock ($Id: //depot/dev/client3/rdock/2013.1/src/exe/rbdock.cxx#4 $)

>  <Rbt.Library>
libRbt.so (2013.1, Build901 2013/11/27)

>  <Rbt.Parameter_File>
/export/apps/rDock/src/rDock_2013.1_src/data/scripts/dock_solv.prm

>  <Rbt.Receptor>
prm/blind_docking_100.prm

>  <SCORE>
-17.4129

>  <SCORE.INTER>
-17.4129

>  <SCORE.INTER.CONST>
1

>  <SCORE.INTER.POLAR>
0

>  <SCORE.INTER.ROT>
0

>  <SCORE.INTER.SOLV>
3.95428

>  <SCORE.INTER.VDW>
-16.5267

>  <SCORE.INTER.norm>
-1.74129

>  <SCORE.INTRA>
0

>  <SCORE.INTRA.DIHEDRAL>
0

>  <SCORE.INTRA.DIHEDRAL.0>
0

>  <SCORE.INTRA.POLAR>
0

>  <SCORE.INTRA.POLAR.0>
0

>  <SCORE.INTRA.REPUL>
0

>  <SCORE.INTRA.REPUL.0>
0

>  <SCORE.INTRA.SOLV>
0

>  <SCORE.INTRA.SOLV.lig_0>
-4.26631

>  <SCORE.INTRA.VDW>
0

>  <SCORE.INTRA.VDW.0>
0

>  <SCORE.INTRA.norm>
0

>  <SCORE.RESTR>
0

>  <SCORE.RESTR.CAVITY>
0

>  <SCORE.RESTR.norm>
0

>  <SCORE.SYSTEM>
0

>  <SCORE.SYSTEM.CONST>
0

>  <SCORE.SYSTEM.DIHEDRAL>
0

>  <SCORE.SYSTEM.SOLV>
0

>  <SCORE.SYSTEM.norm>
0

>  <SCORE.heavy>
10

>  <SCORE.norm>
-1.74129

>  <RMSD>
2.409

$$$$
ligand
 OpenBabel11021811493D
libRbt.so/2013.1/901 2013/11/27
 10 11  0  0  0  0  0  0  0  0999 V2000
   11.8767   10.8576    8.7741 N   0  0  0  0  0  0  0  0  0  0  0  0
   12.0722    9.7069    8.0529 C   0  0  0  0  0  0  0  0  0  0  0  0
   11.9232    9.6812    6.7186 N   0  0  0  0  0  0  0  0  0  0  0  0
   11.5736   10.8723    6.1902 C   0  0  0  0  0  0  0  0  0  0  0  0
   11.3627   12.0583    6.8583 C   0  0  0  0  0  0  0  0  0  0  0  0
   11.5163   12.1065    8.2582 C   0  0  0  0  0  0  0  0  0  0  0  0
   11.3775   13.0473    9.0278 O   0  0  0  0  0  0  0  0  0  0  0  0
   11.0268   13.0197    5.9507 N   0  0  0  0  0  0  0  0  0  0  0  0
   11.0316   12.4219    4.7407 C   0  0  0  0  0  0  0  0  0  0  0  0
   11.3634   11.0964    4.8571 N   0  0  0  0  0  0  0  0  0  0  0  0
  1  2  1  0  0  0  0
  1  6  1  0  0  0  0
  2  3  2  0  0  0  0
  3  4  1  0  0  0  0
  4  5  2  0  0  0  0
  4 10  1  0  0  0  0
  5  6  1  0  0  0  0
  5  8  1  0  0  0  0
  6  7  2  0  0  0  0
  8  9  1  0  0  0  0
  9 10  2  0  0  0  0
M  END
>  <CHROM.1>
11.51044037,11.51440705,6.98361003,-1.03299348,1.30875265,-2.01894645

>  <Name>
ligand

>  <RI>
0

>  <Rbt.Current_Directory>
/home/itssahil/PROJECTS/Mol_Feturizer/New_Systems/rnas/4FEJ

>  <Rbt.Executable>
rbdock ($Id: //depot/dev/client3/rdock/2013.1/src/exe/rbdock.cxx#4 $)

>  <Rbt.Library>
libRbt.so (2013.1, Build901 2013/11/27)

>  <Rbt.Parameter_File>
/export/apps/rDock/src/rDock_2013.1_src/data/scripts/dock_solv.prm

>  <Rbt.Receptor>
prm/blind_docking_40.prm

>  <SCORE>
-17.5433

>  <SCORE.INTER>
-17.5433

>  <SCORE.INTER.CONST>
1

>  <SCORE.INTER.POLAR>
0

>  <SCORE.INTER.ROT>
0

>  <SCORE.INTER.SOLV>
3.89866

>  <SCORE.INTER.VDW>
-16.5951

>  <SCORE.INTER.norm>
-1.75433

>  <SCORE.INTRA>
0

>  <SCORE.INTRA.DIHEDRAL>
0

>  <SCORE.INTRA.DIHEDRAL.0>
0

>  <SCORE.INTRA.POLAR>
0

>  <SCORE.INTRA.POLAR.0>
0

>  <SCORE.INTRA.REPUL>
0

>  <SCORE.INTRA.REPUL.0>
0

>  <SCORE.INTRA.SOLV>
0

>  <SCORE.INTRA.SOLV.lig_0>
-4.26631

>  <SCORE.INTRA.VDW>
0

>  <SCORE.INTRA.VDW.0>
0

>  <SCORE.INTRA.norm>
0

>  <SCORE.RESTR>
0

>  <SCORE.RESTR.CAVITY>
0

>  <SCORE.RESTR.norm>
0

>  <SCORE.SYSTEM>
0

>  <SCORE.SYSTEM.CONST>
0

>  <SCORE.SYSTEM.DIHEDRAL>
0

>  <SCORE.SYSTEM.SOLV>
0

>  <SCORE.SYSTEM.norm>
0

>  <SCORE.heavy>
10

>  <SCORE.norm>
-1.75433

>  <RMSD>
2.409

$$$$
ligand
 OpenBabel11021811493D
libRbt.so/2013.1/901 2013/11/27
 10 11  0  0  0  0  0  0  0  0999 V2000
   11.8626   10.8615    8.7565 N   0  0  0  0  0  0  0  0  0  0  0  0
   12.0176    9.6973    8.0471 C   0  0  0  0  0  0  0  0  0  0  0  0
   11.8546    9.6605    6.7148 N   0  0  0  0  0  0  0  0  0  0  0  0
   11.5344   10.8551    6.1757 C   0  0  0  0  0  0  0  0  0  0  0  0
   11.3645   12.0543    6.8317 C   0  0  0  0  0  0  0  0  0  0  0  0
   11.5333   12.1142    8.2294 C   0  0  0  0  0  0  0  0  0  0  0  0
   11.4295   13.0676    8.9890 O   0  0  0  0  0  0  0  0  0  0  0  0
   11.0475   13.0145    5.9160 N   0  0  0  0  0  0  0  0  0  0  0  0
   11.0230   12.4029    4.7131 C   0  0  0  0  0  0  0  0  0  0  0  0
   11.3175   11.0697    4.8421 N   0  0  0  0  0  0  0  0  0  0  0  0
  1  2  1  0  0  0  0
  1  6  1  0  0  0  0
  2  3  2  0  0  0  0
  3  4  1  0  0  0  0
  4  5  2  0  0  0  0
  4 10  1  0  0  0  0
  5  6  1  0  0  0  0
  5  8  1  0  0  0  0
  6  7  2  0  0  0  0
  8  9  1  0  0  0  0
  9 10  2  0  0  0  0
M  END
>  <CHROM.1>
11.49771257,11.50788246,6.96195419,-0.94292034,1.32957363,-2.11790104

>  <Name>
ligand

>  <RI>
0

>  <Rbt.Current_Directory>
/home/itssahil/PROJECTS/Mol_Feturizer/New_Systems/rnas/4FEJ

>  <Rbt.Executable>
rbdock ($Id: //depot/dev/client3/rdock/2013.1/src/exe/rbdock.cxx#4 $)

>  <Rbt.Library>
libRbt.so (2013.1, Build901 2013/11/27)

>  <Rbt.Parameter_File>
/export/apps/rDock/src/rDock_2013.1_src/data/scripts/dock_solv.prm

>  <Rbt.Receptor>
prm/blind_docking_40.prm

>  <SCORE>
-17.4764

>  <SCORE.INTER>
-17.4764

>  <SCORE.INTER.CONST>
1

>  <SCORE.INTER.POLAR>
0

>  <SCORE.INTER.ROT>
0

>  <SCORE.INTER.SOLV>
3.94566

>  <SCORE.INTER.VDW>
-16.5662

>  <SCORE.INTER.norm>
-1.74764

>  <SCORE.INTRA>
0

>  <SCORE.INTRA.DIHEDRAL>
0

>  <SCORE.INTRA.DIHEDRAL.0>
0

>  <SCORE.INTRA.POLAR>
0

>  <SCORE.INTRA.POLAR.0>
0

>  <SCORE.INTRA.REPUL>
0

>  <SCORE.INTRA.REPUL.0>
0

>  <SCORE.INTRA.SOLV>
0

>  <SCORE.INTRA.SOLV.lig_0>
-4.26631

>  <SCORE.INTRA.VDW>
0

>  <SCORE.INTRA.VDW.0>
0

>  <SCORE.INTRA.norm>
0

>  <SCORE.RESTR>
0

>  <SCORE.RESTR.CAVITY>
0

>  <SCORE.RESTR.norm>
0

>  <SCORE.SYSTEM>
0

>  <SCORE.SYSTEM.CONST>
0

>  <SCORE.SYSTEM.DIHEDRAL>
0

>  <SCORE.SYSTEM.SOLV>
0

>  <SCORE.SYSTEM.norm>
0

>  <SCORE.heavy>
10

>  <SCORE.norm>
-1.74764

>  <RMSD>
2.409

$$$$
ligand
 OpenBabel11021811493D
libRbt.so/2013.1/901 2013/11/27
 10 11  0  0  0  0  0  0  0  0999 V2000
   11.8704   10.8623    8.7556 N   0  0  0  0  0  0  0  0  0  0  0  0
   12.0225    9.6976    8.0466 C   0  0  0  0  0  0  0  0  0  0  0  0
   11.8537    9.6596    6.7150 N   0  0  0  0  0  0  0  0  0  0  0  0
   11.5309   10.8537    6.1763 C   0  0  0  0  0  0  0  0  0  0  0  0
   11.3636   12.0534    6.8320 C   0  0  0  0  0  0  0  0  0  0  0  0
   11.5386   12.1145    8.2289 C   0  0  0  0  0  0  0  0  0  0  0  0
   11.4378   13.0685    8.9882 O   0  0  0  0  0  0  0  0  0  0  0  0
   11.0425   13.0127    5.9169 N   0  0  0  0  0  0  0  0  0  0  0  0
   11.0129   12.4001    4.7146 C   0  0  0  0  0  0  0  0  0  0  0  0
   11.3082   11.0671    4.8435 N   0  0  0  0  0  0  0  0  0  0  0  0
  1  2  1  0  0  0  0
  1  6  1  0  0  0  0
  2  3  2  0  0  0  0
  3  4  1  0  0  0  0
  4  5  2  0  0  0  0
  4 10  1  0  0  0  0
  5  6  1  0  0  0  0
  5  8  1  0  0  0  0
  6  7  2  0  0  0  0
  8  9  1  0  0  0  0
  9 10  2  0  0  0  0
M  END
>  <CHROM.1>
11.49754785,11.50710242,6.96217172,-0.92797171,1.32711216,-2.13326742

>  <Name>
ligand

>  <RI>
0

>  <Rbt.Current_Directory>
/home/itssahil/PROJECTS/Mol_Feturizer/New_Systems/rnas/4FEJ

>  <Rbt.Executable>
rbdock ($Id: //depot/dev/client3/rdock/2013.1/src/exe/rbdock.cxx#4 $)

>  <Rbt.Library>
libRbt.so (2013.1, Build901 2013/11/27)

>  <Rbt.Parameter_File>
/export/apps/rDock/src/rDock_2013.1_src/data/scripts/dock_solv.prm

>  <Rbt.Receptor>
prm/blind_docking_40.prm

>  <SCORE>
-17.4766

>  <SCORE.INTER>
-17.4766

>  <SCORE.INTER.CONST>
1

>  <SCORE.INTER.POLAR>
0

>  <SCORE.INTER.ROT>
0

>  <SCORE.INTER.SOLV>
3.9439

>  <SCORE.INTER.VDW>
-16.5657

>  <SCORE.INTER.norm>
-1.74766

>  <SCORE.INTRA>
0

>  <SCORE.INTRA.DIHEDRAL>
0

>  <SCORE.INTRA.DIHEDRAL.0>
0

>  <SCORE.INTRA.POLAR>
0

>  <SCORE.INTRA.POLAR.0>
0

>  <SCORE.INTRA.REPUL>
0

>  <SCORE.INTRA.REPUL.0>
0

>  <SCORE.INTRA.SOLV>
0

>  <SCORE.INTRA.SOLV.lig_0>
-4.26631

>  <SCORE.INTRA.VDW>
0

>  <SCORE.INTRA.VDW.0>
0

>  <SCORE.INTRA.norm>
0

>  <SCORE.RESTR>
0

>  <SCORE.RESTR.CAVITY>
0

>  <SCORE.RESTR.norm>
0

>  <SCORE.SYSTEM>
0

>  <SCORE.SYSTEM.CONST>
0

>  <SCORE.SYSTEM.DIHEDRAL>
0

>  <SCORE.SYSTEM.SOLV>
0

>  <SCORE.SYSTEM.norm>
0

>  <SCORE.heavy>
10

>  <SCORE.norm>
-1.74766

>  <RMSD>
2.409

$$$$
ligand
 OpenBabel11021811493D
libRbt.so/2013.1/901 2013/11/27
 10 11  0  0  0  0  0  0  0  0999 V2000
   11.8556   10.8718    8.7782 N   0  0  0  0  0  0  0  0  0  0  0  0
   12.0005    9.6989    8.0812 C   0  0  0  0  0  0  0  0  0  0  0  0
   11.8314    9.6484    6.7500 N   0  0  0  0  0  0  0  0  0  0  0  0
   11.5159   10.8388    6.1991 C   0  0  0  0  0  0  0  0  0  0  0  0
   11.3561   12.0462    6.8424 C   0  0  0  0  0  0  0  0  0  0  0  0
   11.5314   12.1206    8.2386 C   0  0  0  0  0  0  0  0  0  0  0  0
   11.4366   13.0829    8.9881 O   0  0  0  0  0  0  0  0  0  0  0  0
   11.0408   12.9980    5.9175 N   0  0  0  0  0  0  0  0  0  0  0  0
   11.0074   12.3732    4.7216 C   0  0  0  0  0  0  0  0  0  0  0  0
   11.2945   11.0398    4.8641 N   0  0  0  0  0  0  0  0  0  0  0  0
  1  2  1  0  0  0  0
  1  6  1  0  0  0  0
  2  3  2  0  0  0  0
  3  4  1  0  0  0  0
  4  5  2  0  0  0  0
  4 10  1  0  0  0  0
  5  6  1  0  0  0  0
  5  8  1  0  0  0  0
  6  7  2  0  0  0  0
  8  9  1  0  0  0  0
  9 10  2  0  0  0  0
M  END
>  <CHROM.1>
11.48662003,11.50042595,6.97819439,-0.91389218,1.33225320,-2.15720743

>  <Name>
ligand

>  <RI>
0

>  <Rbt.Current_Directory>
/home/itssahil/PROJECTS/Mol_Feturizer/New_Systems/rnas/4FEJ

>  <Rbt.Executable>
rbdock ($Id: //depot/dev/client3/rdock/2013.1/src/exe/rbdock.cxx#4 $)

>  <Rbt.Library>
libRbt.so (2013.1, Build901 2013/11/27)

>  <Rbt.Parameter_File>
/export/apps/rDock/src/rDock_2013.1_src/data/scripts/dock_solv.prm

>  <Rbt.Receptor>
prm/blind_docking_40.prm

>  <SCORE>
-17.4188

>  <SCORE.INTER>
-17.4188

>  <SCORE.INTER.CONST>
1

>  <SCORE.INTER.POLAR>
0

>  <SCORE.INTER.ROT>
0

>  <SCORE.INTER.SOLV>
3.97164

>  <SCORE.INTER.VDW>
-16.5364

>  <SCORE.INTER.norm>
-1.74188

>  <SCORE.INTRA>
0

>  <SCORE.INTRA.DIHEDRAL>
0

>  <SCORE.INTRA.DIHEDRAL.0>
0

>  <SCORE.INTRA.POLAR>
0

>  <SCORE.INTRA.POLAR.0>
0

>  <SCORE.INTRA.REPUL>
0

>  <SCORE.INTRA.REPUL.0>
0

>  <SCORE.INTRA.SOLV>
0

>  <SCORE.INTRA.SOLV.lig_0>
-4.26631

>  <SCORE.INTRA.VDW>
0

>  <SCORE.INTRA.VDW.0>
0

>  <SCORE.INTRA.norm>
0

>  <SCORE.RESTR>
0

>  <SCORE.RESTR.CAVITY>
0

>  <SCORE.RESTR.norm>
0

>  <SCORE.SYSTEM>
0

>  <SCORE.SYSTEM.CONST>
0

>  <SCORE.SYSTEM.DIHEDRAL>
0

>  <SCORE.SYSTEM.SOLV>
0

>  <SCORE.SYSTEM.norm>
0

>  <SCORE.heavy>
10

>  <SCORE.norm>
-1.74188

>  <RMSD>
2.409

$$$$
ligand
 OpenBabel11021811493D
libRbt.so/2013.1/901 2013/11/27
 10 11  0  0  0  0  0  0  0  0999 V2000
   11.8796   10.8637    8.7777 N   0  0  0  0  0  0  0  0  0  0  0  0
   12.0699    9.7110    8.0584 C   0  0  0  0  0  0  0  0  0  0  0  0
   11.9197    9.6835    6.7243 N   0  0  0  0  0  0  0  0  0  0  0  0
   11.5746   10.8751    6.1941 C   0  0  0  0  0  0  0  0  0  0  0  0
   11.3690   12.0631    6.8603 C   0  0  0  0  0  0  0  0  0  0  0  0
   11.5239   12.1131    8.2600 C   0  0  0  0  0  0  0  0  0  0  0  0
   11.3895   13.0559    9.0280 O   0  0  0  0  0  0  0  0  0  0  0  0
   11.0363   13.0242    5.9512 N   0  0  0  0  0  0  0  0  0  0  0  0
   11.0378   12.4243    4.7422 C   0  0  0  0  0  0  0  0  0  0  0  0
   11.3643   11.0977    4.8607 N   0  0  0  0  0  0  0  0  0  0  0  0
  1  2  1  0  0  0  0
  1  6  1  0  0  0  0
  2  3  2  0  0  0  0
  3  4  1  0  0  0  0
  4  5  2  0  0  0  0
  4 10  1  0  0  0  0
  5  6  1  0  0  0  0
  5  8  1  0  0  0  0
  6  7  2  0  0  0  0
  8  9  1  0  0  0  0
  9 10  2  0  0  0  0
M  END
>  <CHROM.1>
11.51464253,11.51884343,6.98637275,-1.02336499,1.31207081,-2.03000857

>  <Name>
ligand

>  <RI>
0

>  <Rbt.Current_Directory>
/home/itssahil/PROJECTS/Mol_Feturizer/New_Systems/rnas/4FEJ

>  <Rbt.Executable>
rbdock ($Id: //depot/dev/client3/rdock/2013.1/src/exe/rbdock.cxx#4 $)

>  <Rbt.Library>
libRbt.so (2013.1, Build901 2013/11/27)

>  <Rbt.Parameter_File>
/export/apps/rDock/src/rDock_2013.1_src/data/scripts/dock_solv.prm

>  <Rbt.Receptor>
prm/blind_docking_60.prm

>  <SCORE>
-17.5443

>  <SCORE.INTER>
-17.5443

>  <SCORE.INTER.CONST>
1

>  <SCORE.INTER.POLAR>
0

>  <SCORE.INTER.ROT>
0

>  <SCORE.INTER.SOLV>
3.90673

>  <SCORE.INTER.VDW>
-16.5984

>  <SCORE.INTER.norm>
-1.75443

>  <SCORE.INTRA>
0

>  <SCORE.INTRA.DIHEDRAL>
0

>  <SCORE.INTRA.DIHEDRAL.0>
0

>  <SCORE.INTRA.POLAR>
0

>  <SCORE.INTRA.POLAR.0>
0

>  <SCORE.INTRA.REPUL>
0

>  <SCORE.INTRA.REPUL.0>
0

>  <SCORE.INTRA.SOLV>
0

>  <SCORE.INTRA.SOLV.lig_0>
-4.26631

>  <SCORE.INTRA.VDW>
0

>  <SCORE.INTRA.VDW.0>
0

>  <SCORE.INTRA.norm>
0

>  <SCORE.RESTR>
0

>  <SCORE.RESTR.CAVITY>
0

>  <SCORE.RESTR.norm>
0

>  <SCORE.SYSTEM>
0

>  <SCORE.SYSTEM.CONST>
0

>  <SCORE.SYSTEM.DIHEDRAL>
0

>  <SCORE.SYSTEM.SOLV>
0

>  <SCORE.SYSTEM.norm>
0

>  <SCORE.heavy>
10

>  <SCORE.norm>
-1.75443

>  <RMSD>
2.409

$$$$
ligand
 OpenBabel11021811493D
libRbt.so/2013.1/901 2013/11/27
 10 11  0  0  0  0  0  0  0  0999 V2000
   11.8500   10.8615    8.7803 N   0  0  0  0  0  0  0  0  0  0  0  0
   11.9998    9.6914    8.0797 C   0  0  0  0  0  0  0  0  0  0  0  0
   11.8341    9.6449    6.7480 N   0  0  0  0  0  0  0  0  0  0  0  0
   11.5167   10.8363    6.2003 C   0  0  0  0  0  0  0  0  0  0  0  0
   11.3519   12.0411    6.8474 C   0  0  0  0  0  0  0  0  0  0  0  0
   11.5237   12.1112    8.2443 C   0  0  0  0  0  0  0  0  0  0  0  0
   11.4244   13.0707    8.9968 O   0  0  0  0  0  0  0  0  0  0  0  0
   11.0362   12.9952    5.9249 N   0  0  0  0  0  0  0  0  0  0  0  0
   11.0074   12.3744    4.7269 C   0  0  0  0  0  0  0  0  0  0  0  0
   11.2979   11.0413    4.8655 N   0  0  0  0  0  0  0  0  0  0  0  0
  1  2  1  0  0  0  0
  1  6  1  0  0  0  0
  2  3  2  0  0  0  0
  3  4  1  0  0  0  0
  4  5  2  0  0  0  0
  4 10  1  0  0  0  0
  5  6  1  0  0  0  0
  5  8  1  0  0  0  0
  6  7  2  0  0  0  0
  8  9  1  0  0  0  0
  9 10  2  0  0  0  0
M  END
>  <CHROM.1>
11.48364337,11.49523600,6.98161923,-0.92882642,1.33126677,-2.13928924

>  <Name>
ligand

>  <RI>
0

>  <Rbt.Current_Directory>
/home/itssahil/PROJECTS/Mol_Feturizer/New_Systems/rnas/4FEJ

>  <Rbt.Executable>
rbdock ($Id: //depot/dev/client3/rdock/2013.1/src/exe/rbdock.cxx#4 $)

>  <Rbt.Library>
libRbt.so (2013.1, Build901 2013/11/27)

>  <Rbt.Parameter_File>
/export/apps/rDock/src/rDock_2013.1_src/data/scripts/dock_solv.prm

>  <Rbt.Receptor>
prm/blind_docking_60.prm

>  <SCORE>
-17.4166

>  <SCORE.INTER>
-17.4166

>  <SCORE.INTER.CONST>
1

>  <SCORE.INTER.POLAR>
0

>  <SCORE.INTER.ROT>
0

>  <SCORE.INTER.SOLV>
3.95921

>  <SCORE.INTER.VDW>
-16.5308

>  <SCORE.INTER.norm>
-1.74166

>  <SCORE.INTRA>
0

>  <SCORE.INTRA.DIHEDRAL>
0

>  <SCORE.INTRA.DIHEDRAL.0>
0

>  <SCORE.INTRA.POLAR>
0

>  <SCORE.INTRA.POLAR.0>
0

>  <SCORE.INTRA.REPUL>
0

>  <SCORE.INTRA.REPUL.0>
0

>  <SCORE.INTRA.SOLV>
0

>  <SCORE.INTRA.SOLV.lig_0>
-4.26631

>  <SCORE.INTRA.VDW>
0

>  <SCORE.INTRA.VDW.0>
0

>  <SCORE.INTRA.norm>
0

>  <SCORE.RESTR>
0

>  <SCORE.RESTR.CAVITY>
0

>  <SCORE.RESTR.norm>
0

>  <SCORE.SYSTEM>
0

>  <SCORE.SYSTEM.CONST>
0

>  <SCORE.SYSTEM.DIHEDRAL>
0

>  <SCORE.SYSTEM.SOLV>
0

>  <SCORE.SYSTEM.norm>
0

>  <SCORE.heavy>
10

>  <SCORE.norm>
-1.74166

>  <RMSD>
2.409

$$$$
ligand
 OpenBabel11021811493D
libRbt.so/2013.1/901 2013/11/27
 10 11  0  0  0  0  0  0  0  0999 V2000
   11.8531   10.8645    8.7817 N   0  0  0  0  0  0  0  0  0  0  0  0
   11.9999    9.6931    8.0825 C   0  0  0  0  0  0  0  0  0  0  0  0
   11.8346    9.6454    6.7508 N   0  0  0  0  0  0  0  0  0  0  0  0
   11.5207   10.8371    6.2016 C   0  0  0  0  0  0  0  0  0  0  0  0
   11.3591   12.0431    6.8471 C   0  0  0  0  0  0  0  0  0  0  0  0
   11.5305   12.1144    8.2439 C   0  0  0  0  0  0  0  0  0  0  0  0
   11.4337   13.0751    8.9952 O   0  0  0  0  0  0  0  0  0  0  0  0
   11.0465   12.9969    5.9233 N   0  0  0  0  0  0  0  0  0  0  0  0
   11.0164   12.3747    4.7260 C   0  0  0  0  0  0  0  0  0  0  0  0
   11.3031   11.0410    4.8664 N   0  0  0  0  0  0  0  0  0  0  0  0
  1  2  1  0  0  0  0
  1  6  1  0  0  0  0
  2  3  2  0  0  0  0
  3  4  1  0  0  0  0
  4  5  2  0  0  0  0
  4 10  1  0  0  0  0
  5  6  1  0  0  0  0
  5  8  1  0  0  0  0
  6  7  2  0  0  0  0
  8  9  1  0  0  0  0
  9 10  2  0  0  0  0
M  END
>  <CHROM.1>
11.48924514,11.49701678,6.98202141,-0.92375960,1.33386753,-2.14545197

>  <Name>
ligand

>  <RI>
0

>  <Rbt.Current_Directory>
/home/itssahil/PROJECTS/Mol_Feturizer/New_Systems/rnas/4FEJ

>  <Rbt.Executable>
rbdock ($Id: //depot/dev/client3/rdock/2013.1/src/exe/rbdock.cxx#4 $)

>  <Rbt.Library>
libRbt.so (2013.1, Build901 2013/11/27)

>  <Rbt.Parameter_File>
/export/apps/rDock/src/rDock_2013.1_src/data/scripts/dock_solv.prm

>  <Rbt.Receptor>
prm/blind_docking_60.prm

>  <SCORE>
-17.4187

>  <SCORE.INTER>
-17.4187

>  <SCORE.INTER.CONST>
1

>  <SCORE.INTER.POLAR>
0

>  <SCORE.INTER.ROT>
0

>  <SCORE.INTER.SOLV>
3.96679

>  <SCORE.INTER.VDW>
-16.5347

>  <SCORE.INTER.norm>
-1.74187

>  <SCORE.INTRA>
0

>  <SCORE.INTRA.DIHEDRAL>
0

>  <SCORE.INTRA.DIHEDRAL.0>
0

>  <SCORE.INTRA.POLAR>
0

>  <SCORE.INTRA.POLAR.0>
0

>  <SCORE.INTRA.REPUL>
0

>  <SCORE.INTRA.REPUL.0>
0

>  <SCORE.INTRA.SOLV>
0

>  <SCORE.INTRA.SOLV.lig_0>
-4.26631

>  <SCORE.INTRA.VDW>
0

>  <SCORE.INTRA.VDW.0>
0

>  <SCORE.INTRA.norm>
0

>  <SCORE.RESTR>
0

>  <SCORE.RESTR.CAVITY>
0

>  <SCORE.RESTR.norm>
0

>  <SCORE.SYSTEM>
0

>  <SCORE.SYSTEM.CONST>
0

>  <SCORE.SYSTEM.DIHEDRAL>
0

>  <SCORE.SYSTEM.SOLV>
0

>  <SCORE.SYSTEM.norm>
0

>  <SCORE.heavy>
10

>  <SCORE.norm>
-1.74187

>  <RMSD>
2.409

$$$$
ligand
 OpenBabel11021811493D
libRbt.so/2013.1/901 2013/11/27
 10 11  0  0  0  0  0  0  0  0999 V2000
   11.8424   10.8741    8.7874 N   0  0  0  0  0  0  0  0  0  0  0  0
   11.9937    9.7040    8.0871 C   0  0  0  0  0  0  0  0  0  0  0  0
   11.8338    9.6580    6.7546 N   0  0  0  0  0  0  0  0  0  0  0  0
   11.5206   10.8501    6.2059 C   0  0  0  0  0  0  0  0  0  0  0  0
   11.3547   12.0549    6.8525 C   0  0  0  0  0  0  0  0  0  0  0  0
   11.5204   12.1244    8.2501 C   0  0  0  0  0  0  0  0  0  0  0  0
   11.4191   13.0838    9.0024 O   0  0  0  0  0  0  0  0  0  0  0  0
   11.0446   13.0097    5.9289 N   0  0  0  0  0  0  0  0  0  0  0  0
   11.0202   12.3893    4.7306 C   0  0  0  0  0  0  0  0  0  0  0  0
   11.3081   11.0557    4.8702 N   0  0  0  0  0  0  0  0  0  0  0  0
  1  2  1  0  0  0  0
  1  6  1  0  0  0  0
  2  3  2  0  0  0  0
  3  4  1  0  0  0  0
  4  5  2  0  0  0  0
  4 10  1  0  0  0  0
  5  6  1  0  0  0  0
  5  8  1  0  0  0  0
  6  7  2  0  0  0  0
  8  9  1  0  0  0  0
  9 10  2  0  0  0  0
M  END
>  <CHROM.1>
11.48504424,11.50880211,6.98717957,-0.94152615,1.33489889,-2.12669271

>  <Name>
ligand

>  <RI>
0

>  <Rbt.Current_Directory>
/home/itssahil/PROJECTS/Mol_Feturizer/New_Systems/rnas/4FEJ

>  <Rbt.Executable>
rbdock ($Id: //depot/dev/client3/rdock/2013.1/src/exe/rbdock.cxx#4 $)

>  <Rbt.Library>
libRbt.so (2013.1, Build901 2013/11/27)

>  <Rbt.Parameter_File>
/export/apps/rDock/src/rDock_2013.1_src/data/scripts/dock_solv.prm

>  <Rbt.Receptor>
prm/blind_docking_80.prm

>  <SCORE>
-17.4154

>  <SCORE.INTER>
-17.4154

>  <SCORE.INTER.CONST>
1

>  <SCORE.INTER.POLAR>
0

>  <SCORE.INTER.ROT>
0

>  <SCORE.INTER.SOLV>
3.97137

>  <SCORE.INTER.VDW>
-16.534

>  <SCORE.INTER.norm>
-1.74154

>  <SCORE.INTRA>
0

>  <SCORE.INTRA.DIHEDRAL>
0

>  <SCORE.INTRA.DIHEDRAL.0>
0

>  <SCORE.INTRA.POLAR>
0

>  <SCORE.INTRA.POLAR.0>
0

>  <SCORE.INTRA.REPUL>
0

>  <SCORE.INTRA.REPUL.0>
0

>  <SCORE.INTRA.SOLV>
0

>  <SCORE.INTRA.SOLV.lig_0>
-4.26631

>  <SCORE.INTRA.VDW>
0

>  <SCORE.INTRA.VDW.0>
0

>  <SCORE.INTRA.norm>
0

>  <SCORE.RESTR>
0

>  <SCORE.RESTR.CAVITY>
0

>  <SCORE.RESTR.norm>
0

>  <SCORE.SYSTEM>
0

>  <SCORE.SYSTEM.CONST>
0

>  <SCORE.SYSTEM.DIHEDRAL>
0

>  <SCORE.SYSTEM.SOLV>
0

>  <SCORE.SYSTEM.norm>
0

>  <SCORE.heavy>
10

>  <SCORE.norm>
-1.74154

>  <RMSD>
2.409

$$$$
ligand
 OpenBabel11021811493D
libRbt.so/2013.1/901 2013/11/27
 10 11  0  0  0  0  0  0  0  0999 V2000
   11.8671   10.8625    8.7557 N   0  0  0  0  0  0  0  0  0  0  0  0
   12.0238    9.6986    8.0464 C   0  0  0  0  0  0  0  0  0  0  0  0
   11.8582    9.6609    6.7144 N   0  0  0  0  0  0  0  0  0  0  0  0
   11.5336   10.8544    6.1756 C   0  0  0  0  0  0  0  0  0  0  0  0
   11.3617   12.0534    6.8316 C   0  0  0  0  0  0  0  0  0  0  0  0
   11.5332   12.1142    8.2289 C   0  0  0  0  0  0  0  0  0  0  0  0
   11.4282   13.0675    8.9885 O   0  0  0  0  0  0  0  0  0  0  0  0
   11.0402   13.0124    5.9162 N   0  0  0  0  0  0  0  0  0  0  0  0
   11.0149   12.4003    4.7136 C   0  0  0  0  0  0  0  0  0  0  0  0
   11.3134   11.0680    4.8424 N   0  0  0  0  0  0  0  0  0  0  0  0
  1  2  1  0  0  0  0
  1  6  1  0  0  0  0
  2  3  2  0  0  0  0
  3  4  1  0  0  0  0
  4  5  2  0  0  0  0
  4 10  1  0  0  0  0
  5  6  1  0  0  0  0
  5  8  1  0  0  0  0
  6  7  2  0  0  0  0
  8  9  1  0  0  0  0
  9 10  2  0  0  0  0
M  END
>  <CHROM.1>
11.49668647,11.50734694,6.96173558,-0.94178918,1.32612282,-2.11931634

>  <Name>
ligand

>  <RI>
0

>  <Rbt.Current_Directory>
/home/itssahil/PROJECTS/Mol_Feturizer/New_Systems/rnas/4FEJ

>  <Rbt.Executable>
rbdock ($Id: //depot/dev/client3/rdock/2013.1/src/exe/rbdock.cxx#4 $)

>  <Rbt.Library>
libRbt.so (2013.1, Build901 2013/11/27)

>  <Rbt.Parameter_File>
/export/apps/rDock/src/rDock_2013.1_src/data/scripts/dock_solv.prm

>  <Rbt.Receptor>
prm/blind_docking_80.prm

>  <SCORE>
-17.4766

>  <SCORE.INTER>
-17.4766

>  <SCORE.INTER.CONST>
1

>  <SCORE.INTER.POLAR>
0

>  <SCORE.INTER.ROT>
0

>  <SCORE.INTER.SOLV>
3.94061

>  <SCORE.INTER.VDW>
-16.5646

>  <SCORE.INTER.norm>
-1.74766

>  <SCORE.INTRA>
0

>  <SCORE.INTRA.DIHEDRAL>
0

>  <SCORE.INTRA.DIHEDRAL.0>
0

>  <SCORE.INTRA.POLAR>
0

>  <SCORE.INTRA.POLAR.0>
0

>  <SCORE.INTRA.REPUL>
0

>  <SCORE.INTRA.REPUL.0>
0

>  <SCORE.INTRA.SOLV>
0

>  <SCORE.INTRA.SOLV.lig_0>
-4.26631

>  <SCORE.INTRA.VDW>
0

>  <SCORE.INTRA.VDW.0>
0

>  <SCORE.INTRA.norm>
0

>  <SCORE.RESTR>
0

>  <SCORE.RESTR.CAVITY>
0

>  <SCORE.RESTR.norm>
0

>  <SCORE.SYSTEM>
0

>  <SCORE.SYSTEM.CONST>
0

>  <SCORE.SYSTEM.DIHEDRAL>
0

>  <SCORE.SYSTEM.SOLV>
0

>  <SCORE.SYSTEM.norm>
0

>  <SCORE.heavy>
10

>  <SCORE.norm>
-1.74766

>  <RMSD>
2.409

$$$$
ligand
 OpenBabel11021811493D
libRbt.so/2013.1/901 2013/11/27
 10 11  0  0  0  0  0  0  0  0999 V2000
   11.8760   10.8691    8.7576 N   0  0  0  0  0  0  0  0  0  0  0  0
   12.0347    9.7038    8.0510 C   0  0  0  0  0  0  0  0  0  0  0  0
   11.8663    9.6622    6.7195 N   0  0  0  0  0  0  0  0  0  0  0  0
   11.5369   10.8534    6.1783 C   0  0  0  0  0  0  0  0  0  0  0  0
   11.3629   12.0535    6.8316 C   0  0  0  0  0  0  0  0  0  0  0  0
   11.5373   12.1184    8.2284 C   0  0  0  0  0  0  0  0  0  0  0  0
   11.4312   13.0733    8.9857 O   0  0  0  0  0  0  0  0  0  0  0  0
   11.0365   13.0092    5.9145 N   0  0  0  0  0  0  0  0  0  0  0  0
   11.0105   12.3939    4.7135 C   0  0  0  0  0  0  0  0  0  0  0  0
   11.3132   11.0629    4.8450 N   0  0  0  0  0  0  0  0  0  0  0  0
  1  2  1  0  0  0  0
  1  6  1  0  0  0  0
  2  3  2  0  0  0  0
  3  4  1  0  0  0  0
  4  5  2  0  0  0  0
  4 10  1  0  0  0  0
  5  6  1  0  0  0  0
  5  8  1  0  0  0  0
  6  7  2  0  0  0  0
  8  9  1  0  0  0  0
  9 10  2  0  0  0  0
M  END
>  <CHROM.1>
11.49981080,11.50820052,6.96285258,-0.94040312,1.32244621,-2.12322935

>  <Name>
ligand

>  <RI>
0

>  <Rbt.Current_Directory>
/home/itssahil/PROJECTS/Mol_Feturizer/New_Systems/rnas/4FEJ

>  <Rbt.Executable>
rbdock ($Id: //depot/dev/client3/rdock/2013.1/src/exe/rbdock.cxx#4 $)

>  <Rbt.Library>
libRbt.so (2013.1, Build901 2013/11/27)

>  <Rbt.Parameter_File>
/export/apps/rDock/src/rDock_2013.1_src/data/scripts/dock_solv.prm

>  <Rbt.Receptor>
prm/blind_docking_80.prm

>  <SCORE>
-17.4739

>  <SCORE.INTER>
-17.4739

>  <SCORE.INTER.CONST>
1

>  <SCORE.INTER.POLAR>
0

>  <SCORE.INTER.ROT>
0

>  <SCORE.INTER.SOLV>
3.94103

>  <SCORE.INTER.VDW>
-16.5629

>  <SCORE.INTER.norm>
-1.74739

>  <SCORE.INTRA>
0

>  <SCORE.INTRA.DIHEDRAL>
0

>  <SCORE.INTRA.DIHEDRAL.0>
0

>  <SCORE.INTRA.POLAR>
0

>  <SCORE.INTRA.POLAR.0>
0

>  <SCORE.INTRA.REPUL>
0

>  <SCORE.INTRA.REPUL.0>
0

>  <SCORE.INTRA.SOLV>
0

>  <SCORE.INTRA.SOLV.lig_0>
-4.26631

>  <SCORE.INTRA.VDW>
0

>  <SCORE.INTRA.VDW.0>
0

>  <SCORE.INTRA.norm>
0

>  <SCORE.RESTR>
0

>  <SCORE.RESTR.CAVITY>
0

>  <SCORE.RESTR.norm>
0

>  <SCORE.SYSTEM>
0

>  <SCORE.SYSTEM.CONST>
0

>  <SCORE.SYSTEM.DIHEDRAL>
0

>  <SCORE.SYSTEM.SOLV>
0

>  <SCORE.SYSTEM.norm>
0

>  <SCORE.heavy>
10

>  <SCORE.norm>
-1.74739

>  <RMSD>
2.409

$$$$
ligand
 OpenBabel11021811493D
libRbt.so/2013.1/901 2013/11/27
 10 11  0  0  0  0  0  0  0  0999 V2000
   11.8789   10.8628    8.7739 N   0  0  0  0  0  0  0  0  0  0  0  0
   12.0699    9.7095    8.0555 C   0  0  0  0  0  0  0  0  0  0  0  0
   11.9212    9.6813    6.7213 N   0  0  0  0  0  0  0  0  0  0  0  0
   11.5767   10.8726    6.1899 C   0  0  0  0  0  0  0  0  0  0  0  0
   11.3704   12.0609    6.8551 C   0  0  0  0  0  0  0  0  0  0  0  0
   11.5238   12.1118    8.2549 C   0  0  0  0  0  0  0  0  0  0  0  0
   11.3886   13.0551    9.0222 O   0  0  0  0  0  0  0  0  0  0  0  0
   11.0388   13.0215    5.9450 N   0  0  0  0  0  0  0  0  0  0  0  0
   11.0416   12.4208    4.7364 C   0  0  0  0  0  0  0  0  0  0  0  0
   11.3679   11.0942    4.8562 N   0  0  0  0  0  0  0  0  0  0  0  0
  1  2  1  0  0  0  0
  1  6  1  0  0  0  0
  2  3  2  0  0  0  0
  3  4  1  0  0  0  0
  4  5  2  0  0  0  0
  4 10  1  0  0  0  0
  5  6  1  0  0  0  0
  5  8  1  0  0  0  0
  6  7  2  0  0  0  0
  8  9  1  0  0  0  0
  9 10  2  0  0  0  0
M  END
>  <CHROM.1>
11.51594645,11.51676283,6.98170899,-1.02719371,1.31259831,-2.02694635

>  <Name>
ligand

>  <RI>
0

>  <Rbt.Current_Directory>
/home/itssahil/PROJECTS/Mol_Feturizer/New_Systems/rnas/4FEJ

>  <Rbt.Executable>
rbdock ($Id: //depot/dev/client3/rdock/2013.1/src/exe/rbdock.cxx#4 $)

>  <Rbt.Library>
libRbt.so (2013.1, Build901 2013/11/27)

>  <Rbt.Parameter_File>
/export/apps/rDock/src/rDock_2013.1_src/data/scripts/dock_solv.prm

>  <Rbt.Receptor>
prm/blind_docking_80.prm

>  <SCORE>
-17.5448

>  <SCORE.INTER>
-17.5448

>  <SCORE.INTER.CONST>
1

>  <SCORE.INTER.POLAR>
0

>  <SCORE.INTER.ROT>
0

>  <SCORE.INTER.SOLV>
3.9073

>  <SCORE.INTER.VDW>
-16.599

>  <SCORE.INTER.norm>
-1.75448

>  <SCORE.INTRA>
0

>  <SCORE.INTRA.DIHEDRAL>
0

>  <SCORE.INTRA.DIHEDRAL.0>
0

>  <SCORE.INTRA.POLAR>
0

>  <SCORE.INTRA.POLAR.0>
0

>  <SCORE.INTRA.REPUL>
0

>  <SCORE.INTRA.REPUL.0>
0

>  <SCORE.INTRA.SOLV>
0

>  <SCORE.INTRA.SOLV.lig_0>
-4.26631

>  <SCORE.INTRA.VDW>
0

>  <SCORE.INTRA.VDW.0>
0

>  <SCORE.INTRA.norm>
0

>  <SCORE.RESTR>
0

>  <SCORE.RESTR.CAVITY>
0

>  <SCORE.RESTR.norm>
0

>  <SCORE.SYSTEM>
0

>  <SCORE.SYSTEM.CONST>
0

>  <SCORE.SYSTEM.DIHEDRAL>
0

>  <SCORE.SYSTEM.SOLV>
0

>  <SCORE.SYSTEM.norm>
0

>  <SCORE.heavy>
10

>  <SCORE.norm>
-1.75448

>  <RMSD>
2.409

$$$$
ligand
 OpenBabel11021811493D
libRbt.so/2013.1/901 2013/11/27
 10 11  0  0  0  0  0  0  0  0999 V2000
   11.8605   10.8633    8.7583 N   0  0  0  0  0  0  0  0  0  0  0  0
   12.0207    9.7005    8.0480 C   0  0  0  0  0  0  0  0  0  0  0  0
   11.8584    9.6643    6.7155 N   0  0  0  0  0  0  0  0  0  0  0  0
   11.5333   10.8580    6.1774 C   0  0  0  0  0  0  0  0  0  0  0  0
   11.3581   12.0558    6.8345 C   0  0  0  0  0  0  0  0  0  0  0  0
   11.5261   12.1151    8.2323 C   0  0  0  0  0  0  0  0  0  0  0  0
   11.4179   13.0673    8.9928 O   0  0  0  0  0  0  0  0  0  0  0  0
   11.0374   13.0155    5.9195 N   0  0  0  0  0  0  0  0  0  0  0  0
   11.0160   12.4049    4.7161 C   0  0  0  0  0  0  0  0  0  0  0  0
   11.3161   11.0729    4.8439 N   0  0  0  0  0  0  0  0  0  0  0  0
  1  2  1  0  0  0  0
  1  6  1  0  0  0  0
  2  3  2  0  0  0  0
  3  4  1  0  0  0  0
  4  5  2  0  0  0  0
  4 10  1  0  0  0  0
  5  6  1  0  0  0  0
  5  8  1  0  0  0  0
  6  7  2  0  0  0  0
  8  9  1  0  0  0  0
  9 10  2  0  0  0  0
M  END
>  <CHROM.1>
11.49356423,11.50982353,6.96429606,-0.95349801,1.32615362,-2.10668453

>  <Name>
ligand

>  <RI>
0

>  <Rbt.Current_Directory>
/home/itssahil/PROJECTS/Mol_Feturizer/New_Systems/rnas/4FEJ

>  <Rbt.Executable>
rbdock ($Id: //depot/dev/client3/rdock/2013.1/src/exe/rbdock.cxx#4 $)

>  <Rbt.Library>
libRbt.so (2013.1, Build901 2013/11/27)

>  <Rbt.Parameter_File>
/export/apps/rDock/src/rDock_2013.1_src/data/scripts/dock_solv.prm

>  <Rbt.Receptor>
prm/blind_docking_80.prm

>  <SCORE>
-17.4737

>  <SCORE.INTER>
-17.4737

>  <SCORE.INTER.CONST>
1

>  <SCORE.INTER.POLAR>
0

>  <SCORE.INTER.ROT>
0

>  <SCORE.INTER.SOLV>
3.9393

>  <SCORE.INTER.VDW>
-16.5623

>  <SCORE.INTER.norm>
-1.74737

>  <SCORE.INTRA>
0

>  <SCORE.INTRA.DIHEDRAL>
0

>  <SCORE.INTRA.DIHEDRAL.0>
0

>  <SCORE.INTRA.POLAR>
0

>  <SCORE.INTRA.POLAR.0>
0

>  <SCORE.INTRA.REPUL>
0

>  <SCORE.INTRA.REPUL.0>
0

>  <SCORE.INTRA.SOLV>
0

>  <SCORE.INTRA.SOLV.lig_0>
-4.26631

>  <SCORE.INTRA.VDW>
0

>  <SCORE.INTRA.VDW.0>
0

>  <SCORE.INTRA.norm>
0

>  <SCORE.RESTR>
0

>  <SCORE.RESTR.CAVITY>
0

>  <SCORE.RESTR.norm>
0

>  <SCORE.SYSTEM>
0

>  <SCORE.SYSTEM.CONST>
0

>  <SCORE.SYSTEM.DIHEDRAL>
0

>  <SCORE.SYSTEM.SOLV>
0

>  <SCORE.SYSTEM.norm>
0

>  <SCORE.heavy>
10

>  <SCORE.norm>
-1.74737

>  <RMSD>
2.409

$$$$
ligand
 OpenBabel11021811493D
libRbt.so/2013.1/901 2013/11/27
 10 11  0  0  0  0  0  0  0  0999 V2000
   11.8711   10.8535    8.7581 N   0  0  0  0  0  0  0  0  0  0  0  0
   12.0260    9.6912    8.0458 C   0  0  0  0  0  0  0  0  0  0  0  0
   11.8579    9.6568    6.7140 N   0  0  0  0  0  0  0  0  0  0  0  0
   11.5327   10.8517    6.1786 C   0  0  0  0  0  0  0  0  0  0  0  0
   11.3626   12.0491    6.8377 C   0  0  0  0  0  0  0  0  0  0  0  0
   11.5368   12.1066    8.2349 C   0  0  0  0  0  0  0  0  0  0  0  0
   11.4337   13.0581    8.9969 O   0  0  0  0  0  0  0  0  0  0  0  0
   11.0398   13.0104    5.9252 N   0  0  0  0  0  0  0  0  0  0  0  0
   11.0120   12.4012    4.7212 C   0  0  0  0  0  0  0  0  0  0  0  0
   11.3101   11.0685    4.8463 N   0  0  0  0  0  0  0  0  0  0  0  0
  1  2  1  0  0  0  0
  1  6  1  0  0  0  0
  2  3  2  0  0  0  0
  3  4  1  0  0  0  0
  4  5  2  0  0  0  0
  4 10  1  0  0  0  0
  5  6  1  0  0  0  0
  5  8  1  0  0  0  0
  6  7  2  0  0  0  0
  8  9  1  0  0  0  0
  9 10  2  0  0  0  0
M  END
>  <CHROM.1>
11.49762608,11.50273877,6.96636272,-0.93409631,1.32551947,-2.12442347

>  <Name>
ligand

>  <RI>
0

>  <Rbt.Current_Directory>
/home/itssahil/PROJECTS/Mol_Feturizer/New_Systems/rnas/4FEJ

>  <Rbt.Executable>
rbdock ($Id: //depot/dev/client3/rdock/2013.1/src/exe/rbdock.cxx#4 $)

>  <Rbt.Library>
libRbt.so (2013.1, Build901 2013/11/27)

>  <Rbt.Parameter_File>
/export/apps/rDock/src/rDock_2013.1_src/data/scripts/dock_solv.prm

>  <Rbt.Receptor>
prm/blind_docking_80.prm

>  <SCORE>
-17.474

>  <SCORE.INTER>
-17.474

>  <SCORE.INTER.CONST>
1

>  <SCORE.INTER.POLAR>
0

>  <SCORE.INTER.ROT>
0

>  <SCORE.INTER.SOLV>
3.93293

>  <SCORE.INTER.VDW>
-16.5603

>  <SCORE.INTER.norm>
-1.7474

>  <SCORE.INTRA>
0

>  <SCORE.INTRA.DIHEDRAL>
0

>  <SCORE.INTRA.DIHEDRAL.0>
0

>  <SCORE.INTRA.POLAR>
0

>  <SCORE.INTRA.POLAR.0>
0

>  <SCORE.INTRA.REPUL>
0

>  <SCORE.INTRA.REPUL.0>
0

>  <SCORE.INTRA.SOLV>
0

>  <SCORE.INTRA.SOLV.lig_0>
-4.26631

>  <SCORE.INTRA.VDW>
0

>  <SCORE.INTRA.VDW.0>
0

>  <SCORE.INTRA.norm>
0

>  <SCORE.RESTR>
0

>  <SCORE.RESTR.CAVITY>
0

>  <SCORE.RESTR.norm>
0

>  <SCORE.SYSTEM>
0

>  <SCORE.SYSTEM.CONST>
0

>  <SCORE.SYSTEM.DIHEDRAL>
0

>  <SCORE.SYSTEM.SOLV>
0

>  <SCORE.SYSTEM.norm>
0

>  <SCORE.heavy>
10

>  <SCORE.norm>
-1.7474

>  <RMSD>
2.409

$$$$
ligand
 OpenBabel11021811493D
libRbt.so/2013.1/901 2013/11/27
 10 11  0  0  0  0  0  0  0  0999 V2000
   11.8484   10.8737    8.7829 N   0  0  0  0  0  0  0  0  0  0  0  0
   11.9968    9.7025    8.0839 C   0  0  0  0  0  0  0  0  0  0  0  0
   11.8325    9.6547    6.7520 N   0  0  0  0  0  0  0  0  0  0  0  0
   11.5179   10.8461    6.2026 C   0  0  0  0  0  0  0  0  0  0  0  0
   11.3547   12.0519    6.8480 C   0  0  0  0  0  0  0  0  0  0  0  0
   11.5251   12.1234    8.2450 C   0  0  0  0  0  0  0  0  0  0  0  0
   11.4268   13.0840    8.9962 O   0  0  0  0  0  0  0  0  0  0  0  0
   11.0419   13.0055    5.9241 N   0  0  0  0  0  0  0  0  0  0  0  0
   11.0133   12.3834    4.7267 C   0  0  0  0  0  0  0  0  0  0  0  0
   11.3011   11.0499    4.8673 N   0  0  0  0  0  0  0  0  0  0  0  0
  1  2  1  0  0  0  0
  1  6  1  0  0  0  0
  2  3  2  0  0  0  0
  3  4  1  0  0  0  0
  4  5  2  0  0  0  0
  4 10  1  0  0  0  0
  5  6  1  0  0  0  0
  5  8  1  0  0  0  0
  6  7  2  0  0  0  0
  8  9  1  0  0  0  0
  9 10  2  0  0  0  0
M  END
>  <CHROM.1>
11.48528521,11.50598720,6.98304481,-0.92848822,1.33348015,-2.14081931

>  <Name>
ligand

>  <RI>
0

>  <Rbt.Current_Directory>
/home/itssahil/PROJECTS/Mol_Feturizer/New_Systems/rnas/4FEJ

>  <Rbt.Executable>
rbdock ($Id: //depot/dev/client3/rdock/2013.1/src/exe/rbdock.cxx#4 $)

>  <Rbt.Library>
libRbt.so (2013.1, Build901 2013/11/27)

>  <Rbt.Parameter_File>
/export/apps/rDock/src/rDock_2013.1_src/data/scripts/dock_solv.prm

>  <Rbt.Receptor>
prm/pocket_docking_3.prm

>  <SCORE>
-17.4176

>  <SCORE.INTER>
-17.4176

>  <SCORE.INTER.CONST>
1

>  <SCORE.INTER.POLAR>
0

>  <SCORE.INTER.ROT>
0

>  <SCORE.INTER.SOLV>
3.97125

>  <SCORE.INTER.VDW>
-16.5355

>  <SCORE.INTER.norm>
-1.74176

>  <SCORE.INTRA>
0

>  <SCORE.INTRA.DIHEDRAL>
0

>  <SCORE.INTRA.DIHEDRAL.0>
0

>  <SCORE.INTRA.POLAR>
0

>  <SCORE.INTRA.POLAR.0>
0

>  <SCORE.INTRA.REPUL>
0

>  <SCORE.INTRA.REPUL.0>
0

>  <SCORE.INTRA.SOLV>
0

>  <SCORE.INTRA.SOLV.lig_0>
-4.26631

>  <SCORE.INTRA.VDW>
0

>  <SCORE.INTRA.VDW.0>
0

>  <SCORE.INTRA.norm>
0

>  <SCORE.RESTR>
0

>  <SCORE.RESTR.CAVITY>
0

>  <SCORE.RESTR.norm>
0

>  <SCORE.SYSTEM>
0

>  <SCORE.SYSTEM.CONST>
0

>  <SCORE.SYSTEM.DIHEDRAL>
0

>  <SCORE.SYSTEM.SOLV>
0

>  <SCORE.SYSTEM.norm>
0

>  <SCORE.heavy>
10

>  <SCORE.norm>
-1.74176

>  <RMSD>
2.409

$$$$
ligand
 OpenBabel11021811493D
libRbt.so/2013.1/901 2013/11/27
 10 11  0  0  0  0  0  0  0  0999 V2000
   11.8643   10.8565    8.7586 N   0  0  0  0  0  0  0  0  0  0  0  0
   12.0248    9.6943    8.0473 C   0  0  0  0  0  0  0  0  0  0  0  0
   11.8605    9.6586    6.7151 N   0  0  0  0  0  0  0  0  0  0  0  0
   11.5331   10.8522    6.1782 C   0  0  0  0  0  0  0  0  0  0  0  0
   11.3574   12.0495    6.8362 C   0  0  0  0  0  0  0  0  0  0  0  0
   11.5276   12.1082    8.2338 C   0  0  0  0  0  0  0  0  0  0  0  0
   11.4194   13.0598    8.9950 O   0  0  0  0  0  0  0  0  0  0  0  0
   11.0342   13.0093    5.9223 N   0  0  0  0  0  0  0  0  0  0  0  0
   11.0116   12.3994    4.7185 C   0  0  0  0  0  0  0  0  0  0  0  0
   11.3136   11.0677    4.8451 N   0  0  0  0  0  0  0  0  0  0  0  0
  1  2  1  0  0  0  0
  1  6  1  0  0  0  0
  2  3  2  0  0  0  0
  3  4  1  0  0  0  0
  4  5  2  0  0  0  0
  4 10  1  0  0  0  0
  5  6  1  0  0  0  0
  5  8  1  0  0  0  0
  6  7  2  0  0  0  0
  8  9  1  0  0  0  0
  9 10  2  0  0  0  0
M  END
>  <CHROM.1>
11.49379593,11.50360524,6.96547246,-0.95055001,1.32429352,-2.10898572

>  <Name>
ligand

>  <RI>
0

>  <Rbt.Current_Directory>
/home/itssahil/PROJECTS/Mol_Feturizer/New_Systems/rnas/4FEJ

>  <Rbt.Executable>
rbdock ($Id: //depot/dev/client3/rdock/2013.1/src/exe/rbdock.cxx#4 $)

>  <Rbt.Library>
libRbt.so (2013.1, Build901 2013/11/27)

>  <Rbt.Parameter_File>
/export/apps/rDock/src/rDock_2013.1_src/data/scripts/dock_solv.prm

>  <Rbt.Receptor>
prm/pocket_docking_3.prm

>  <SCORE>
-17.4741

>  <SCORE.INTER>
-17.4741

>  <SCORE.INTER.CONST>
1

>  <SCORE.INTER.POLAR>
0

>  <SCORE.INTER.ROT>
0

>  <SCORE.INTER.SOLV>
3.93147

>  <SCORE.INTER.VDW>
-16.5599

>  <SCORE.INTER.norm>
-1.74741

>  <SCORE.INTRA>
0

>  <SCORE.INTRA.DIHEDRAL>
0

>  <SCORE.INTRA.DIHEDRAL.0>
0

>  <SCORE.INTRA.POLAR>
0

>  <SCORE.INTRA.POLAR.0>
0

>  <SCORE.INTRA.REPUL>
0

>  <SCORE.INTRA.REPUL.0>
0

>  <SCORE.INTRA.SOLV>
0

>  <SCORE.INTRA.SOLV.lig_0>
-4.26631

>  <SCORE.INTRA.VDW>
0

>  <SCORE.INTRA.VDW.0>
0

>  <SCORE.INTRA.norm>
0

>  <SCORE.RESTR>
0

>  <SCORE.RESTR.CAVITY>
0

>  <SCORE.RESTR.norm>
0

>  <SCORE.SYSTEM>
0

>  <SCORE.SYSTEM.CONST>
0

>  <SCORE.SYSTEM.DIHEDRAL>
0

>  <SCORE.SYSTEM.SOLV>
0

>  <SCORE.SYSTEM.norm>
0

>  <SCORE.heavy>
10

>  <SCORE.norm>
-1.74741

>  <RMSD>
2.409

$$$$
ligand
 OpenBabel11021811493D
libRbt.so/2013.1/901 2013/11/27
 10 11  0  0  0  0  0  0  0  0999 V2000
   11.8641   10.8585    8.7588 N   0  0  0  0  0  0  0  0  0  0  0  0
   12.0220    9.6947    8.0497 C   0  0  0  0  0  0  0  0  0  0  0  0
   11.8581    9.6570    6.7175 N   0  0  0  0  0  0  0  0  0  0  0  0
   11.5337   10.8504    6.1783 C   0  0  0  0  0  0  0  0  0  0  0  0
   11.3607   12.0493    6.8341 C   0  0  0  0  0  0  0  0  0  0  0  0
   11.5305   12.1101    8.2316 C   0  0  0  0  0  0  0  0  0  0  0  0
   11.4244   13.0633    8.9911 O   0  0  0  0  0  0  0  0  0  0  0  0
   11.0400   13.0082    5.9183 N   0  0  0  0  0  0  0  0  0  0  0  0
   11.0164   12.3962    4.7157 C   0  0  0  0  0  0  0  0  0  0  0  0
   11.3151   11.0639    4.8448 N   0  0  0  0  0  0  0  0  0  0  0  0
  1  2  1  0  0  0  0
  1  6  1  0  0  0  0
  2  3  2  0  0  0  0
  3  4  1  0  0  0  0
  4  5  2  0  0  0  0
  4 10  1  0  0  0  0
  5  6  1  0  0  0  0
  5  8  1  0  0  0  0
  6  7  2  0  0  0  0
  8  9  1  0  0  0  0
  9 10  2  0  0  0  0
M  END
>  <CHROM.1>
11.49570232,11.50328664,6.96440719,-0.94661380,1.32651681,-2.11460994

>  <Name>
ligand

>  <RI>
0

>  <Rbt.Current_Directory>
/home/itssahil/PROJECTS/Mol_Feturizer/New_Systems/rnas/4FEJ

>  <Rbt.Executable>
rbdock ($Id: //depot/dev/client3/rdock/2013.1/src/exe/rbdock.cxx#4 $)

>  <Rbt.Library>
libRbt.so (2013.1, Build901 2013/11/27)

>  <Rbt.Parameter_File>
/export/apps/rDock/src/rDock_2013.1_src/data/scripts/dock_solv.prm

>  <Rbt.Receptor>
prm/pocket_docking_4.prm

>  <SCORE>
-17.4757

>  <SCORE.INTER>
-17.4757

>  <SCORE.INTER.CONST>
1

>  <SCORE.INTER.POLAR>
0

>  <SCORE.INTER.ROT>
0

>  <SCORE.INTER.SOLV>
3.93844

>  <SCORE.INTER.VDW>
-16.5633

>  <SCORE.INTER.norm>
-1.74757

>  <SCORE.INTRA>
0

>  <SCORE.INTRA.DIHEDRAL>
0

>  <SCORE.INTRA.DIHEDRAL.0>
0

>  <SCORE.INTRA.POLAR>
0

>  <SCORE.INTRA.POLAR.0>
0

>  <SCORE.INTRA.REPUL>
0

>  <SCORE.INTRA.REPUL.0>
0

>  <SCORE.INTRA.SOLV>
0

>  <SCORE.INTRA.SOLV.lig_0>
-4.26631

>  <SCORE.INTRA.VDW>
0

>  <SCORE.INTRA.VDW.0>
0

>  <SCORE.INTRA.norm>
0

>  <SCORE.RESTR>
0

>  <SCORE.RESTR.CAVITY>
0

>  <SCORE.RESTR.norm>
0

>  <SCORE.SYSTEM>
0

>  <SCORE.SYSTEM.CONST>
0

>  <SCORE.SYSTEM.DIHEDRAL>
0

>  <SCORE.SYSTEM.SOLV>
0

>  <SCORE.SYSTEM.norm>
0

>  <SCORE.heavy>
10

>  <SCORE.norm>
-1.74757

>  <RMSD>
2.409

$$$$
ligand
 OpenBabel11021811493D
libRbt.so/2013.1/901 2013/11/27
 10 11  0  0  0  0  0  0  0  0999 V2000
   11.8562   10.8633    8.7785 N   0  0  0  0  0  0  0  0  0  0  0  0
   12.0004    9.6928    8.0776 C   0  0  0  0  0  0  0  0  0  0  0  0
   11.8308    9.6467    6.7463 N   0  0  0  0  0  0  0  0  0  0  0  0
   11.5156   10.8390    6.1994 C   0  0  0  0  0  0  0  0  0  0  0  0
   11.3564   12.0444    6.8469 C   0  0  0  0  0  0  0  0  0  0  0  0
   11.5323   12.1140    8.2432 C   0  0  0  0  0  0  0  0  0  0  0  0
   11.4381   13.0739    8.9959 O   0  0  0  0  0  0  0  0  0  0  0  0
   11.0412   12.9994    5.9252 N   0  0  0  0  0  0  0  0  0  0  0  0
   11.0071   12.3786    4.7273 C   0  0  0  0  0  0  0  0  0  0  0  0
   11.2938   11.0446    4.8652 N   0  0  0  0  0  0  0  0  0  0  0  0
  1  2  1  0  0  0  0
  1  6  1  0  0  0  0
  2  3  2  0  0  0  0
  3  4  1  0  0  0  0
  4  5  2  0  0  0  0
  4 10  1  0  0  0  0
  5  6  1  0  0  0  0
  5  8  1  0  0  0  0
  6  7  2  0  0  0  0
  8  9  1  0  0  0  0
  9 10  2  0  0  0  0
M  END
>  <CHROM.1>
11.48681166,11.49810089,6.98077306,-0.91174832,1.33239518,-2.15595727

>  <Name>
ligand

>  <RI>
0

>  <Rbt.Current_Directory>
/home/itssahil/PROJECTS/Mol_Feturizer/New_Systems/rnas/4FEJ

>  <Rbt.Executable>
rbdock ($Id: //depot/dev/client3/rdock/2013.1/src/exe/rbdock.cxx#4 $)

>  <Rbt.Library>
libRbt.so (2013.1, Build901 2013/11/27)

>  <Rbt.Parameter_File>
/export/apps/rDock/src/rDock_2013.1_src/data/scripts/dock_solv.prm

>  <Rbt.Receptor>
prm/pocket_docking_4.prm

>  <SCORE>
-17.4172

>  <SCORE.INTER>
-17.4172

>  <SCORE.INTER.CONST>
1

>  <SCORE.INTER.POLAR>
0

>  <SCORE.INTER.ROT>
0

>  <SCORE.INTER.SOLV>
3.96418

>  <SCORE.INTER.VDW>
-16.5329

>  <SCORE.INTER.norm>
-1.74172

>  <SCORE.INTRA>
0

>  <SCORE.INTRA.DIHEDRAL>
0

>  <SCORE.INTRA.DIHEDRAL.0>
0

>  <SCORE.INTRA.POLAR>
0

>  <SCORE.INTRA.POLAR.0>
0

>  <SCORE.INTRA.REPUL>
0

>  <SCORE.INTRA.REPUL.0>
0

>  <SCORE.INTRA.SOLV>
0

>  <SCORE.INTRA.SOLV.lig_0>
-4.26631

>  <SCORE.INTRA.VDW>
0

>  <SCORE.INTRA.VDW.0>
0

>  <SCORE.INTRA.norm>
0

>  <SCORE.RESTR>
0

>  <SCORE.RESTR.CAVITY>
0

>  <SCORE.RESTR.norm>
0

>  <SCORE.SYSTEM>
0

>  <SCORE.SYSTEM.CONST>
0

>  <SCORE.SYSTEM.DIHEDRAL>
0

>  <SCORE.SYSTEM.SOLV>
0

>  <SCORE.SYSTEM.norm>
0

>  <SCORE.heavy>
10

>  <SCORE.norm>
-1.74172

>  <RMSD>
2.409

$$$$
ligand
 OpenBabel11021811493D
libRbt.so/2013.1/901 2013/11/27
 10 11  0  0  0  0  0  0  0  0999 V2000
   11.8630   10.8582    8.7573 N   0  0  0  0  0  0  0  0  0  0  0  0
   12.0189    9.6950    8.0467 C   0  0  0  0  0  0  0  0  0  0  0  0
   11.8532    9.6590    6.7146 N   0  0  0  0  0  0  0  0  0  0  0  0
   11.5294   10.8534    6.1772 C   0  0  0  0  0  0  0  0  0  0  0  0
   11.3584   12.0517    6.8346 C   0  0  0  0  0  0  0  0  0  0  0  0
   11.5301   12.1108    8.2320 C   0  0  0  0  0  0  0  0  0  0  0  0
   11.4259   13.0632    8.9927 O   0  0  0  0  0  0  0  0  0  0  0  0
   11.0376   13.0120    5.9204 N   0  0  0  0  0  0  0  0  0  0  0  0
   11.0118   12.4014    4.7171 C   0  0  0  0  0  0  0  0  0  0  0  0
   11.3093   11.0687    4.8443 N   0  0  0  0  0  0  0  0  0  0  0  0
  1  2  1  0  0  0  0
  1  6  1  0  0  0  0
  2  3  2  0  0  0  0
  3  4  1  0  0  0  0
  4  5  2  0  0  0  0
  4 10  1  0  0  0  0
  5  6  1  0  0  0  0
  5  8  1  0  0  0  0
  6  7  2  0  0  0  0
  8  9  1  0  0  0  0
  9 10  2  0  0  0  0
M  END
>  <CHROM.1>
11.49302219,11.50542825,6.96413414,-0.93990268,1.32673401,-2.11996988

>  <Name>
ligand

>  <RI>
0

>  <Rbt.Current_Directory>
/home/itssahil/PROJECTS/Mol_Feturizer/New_Systems/rnas/4FEJ

>  <Rbt.Executable>
rbdock ($Id: //depot/dev/client3/rdock/2013.1/src/exe/rbdock.cxx#4 $)

>  <Rbt.Library>
libRbt.so (2013.1, Build901 2013/11/27)

>  <Rbt.Parameter_File>
/export/apps/rDock/src/rDock_2013.1_src/data/scripts/dock_solv.prm

>  <Rbt.Receptor>
prm/pocket_docking_4.prm

>  <SCORE>
-17.4753

>  <SCORE.INTER>
-17.4753

>  <SCORE.INTER.CONST>
1

>  <SCORE.INTER.POLAR>
0

>  <SCORE.INTER.ROT>
0

>  <SCORE.INTER.SOLV>
3.9382

>  <SCORE.INTER.VDW>
-16.5629

>  <SCORE.INTER.norm>
-1.74753

>  <SCORE.INTRA>
0

>  <SCORE.INTRA.DIHEDRAL>
0

>  <SCORE.INTRA.DIHEDRAL.0>
0

>  <SCORE.INTRA.POLAR>
0

>  <SCORE.INTRA.POLAR.0>
0

>  <SCORE.INTRA.REPUL>
0

>  <SCORE.INTRA.REPUL.0>
0

>  <SCORE.INTRA.SOLV>
0

>  <SCORE.INTRA.SOLV.lig_0>
-4.26631

>  <SCORE.INTRA.VDW>
0

>  <SCORE.INTRA.VDW.0>
0

>  <SCORE.INTRA.norm>
0

>  <SCORE.RESTR>
0

>  <SCORE.RESTR.CAVITY>
0

>  <SCORE.RESTR.norm>
0

>  <SCORE.SYSTEM>
0

>  <SCORE.SYSTEM.CONST>
0

>  <SCORE.SYSTEM.DIHEDRAL>
0

>  <SCORE.SYSTEM.SOLV>
0

>  <SCORE.SYSTEM.norm>
0

>  <SCORE.heavy>
10

>  <SCORE.norm>
-1.74753

>  <RMSD>
2.409

$$$$
ligand
 OpenBabel11021811493D
libRbt.so/2013.1/901 2013/11/27
 10 11  0  0  0  0  0  0  0  0999 V2000
   11.8658   10.8664    8.7562 N   0  0  0  0  0  0  0  0  0  0  0  0
   12.0216    9.7013    8.0486 C   0  0  0  0  0  0  0  0  0  0  0  0
   11.8576    9.6623    6.7164 N   0  0  0  0  0  0  0  0  0  0  0  0
   11.5357   10.8556    6.1757 C   0  0  0  0  0  0  0  0  0  0  0  0
   11.3649   12.0557    6.8299 C   0  0  0  0  0  0  0  0  0  0  0  0
   11.5348   12.1180    8.2274 C   0  0  0  0  0  0  0  0  0  0  0  0
   11.4304   13.0724    8.9856 O   0  0  0  0  0  0  0  0  0  0  0  0
   11.0462   13.0141    5.9129 N   0  0  0  0  0  0  0  0  0  0  0  0
   11.0215   12.4005    4.7110 C   0  0  0  0  0  0  0  0  0  0  0  0
   11.3176   11.0679    4.8419 N   0  0  0  0  0  0  0  0  0  0  0  0
  1  2  1  0  0  0  0
  1  6  1  0  0  0  0
  2  3  2  0  0  0  0
  3  4  1  0  0  0  0
  4  5  2  0  0  0  0
  4 10  1  0  0  0  0
  5  6  1  0  0  0  0
  5  8  1  0  0  0  0
  6  7  2  0  0  0  0
  8  9  1  0  0  0  0
  9 10  2  0  0  0  0
M  END
>  <CHROM.1>
11.49887322,11.50958672,6.96093111,-0.94269787,1.32823286,-2.11968140

>  <Name>
ligand

>  <RI>
0

>  <Rbt.Current_Directory>
/home/itssahil/PROJECTS/Mol_Feturizer/New_Systems/rnas/4FEJ

>  <Rbt.Executable>
rbdock ($Id: //depot/dev/client3/rdock/2013.1/src/exe/rbdock.cxx#4 $)

>  <Rbt.Library>
libRbt.so (2013.1, Build901 2013/11/27)

>  <Rbt.Parameter_File>
/export/apps/rDock/src/rDock_2013.1_src/data/scripts/dock_solv.prm

>  <Rbt.Receptor>
prm/pocket_docking_5.prm

>  <SCORE>
-17.4764

>  <SCORE.INTER>
-17.4764

>  <SCORE.INTER.CONST>
1

>  <SCORE.INTER.POLAR>
0

>  <SCORE.INTER.ROT>
0

>  <SCORE.INTER.SOLV>
3.94794

>  <SCORE.INTER.VDW>
-16.5669

>  <SCORE.INTER.norm>
-1.74764

>  <SCORE.INTRA>
0

>  <SCORE.INTRA.DIHEDRAL>
0

>  <SCORE.INTRA.DIHEDRAL.0>
0

>  <SCORE.INTRA.POLAR>
0

>  <SCORE.INTRA.POLAR.0>
0

>  <SCORE.INTRA.REPUL>
0

>  <SCORE.INTRA.REPUL.0>
0

>  <SCORE.INTRA.SOLV>
0

>  <SCORE.INTRA.SOLV.lig_0>
-4.26631

>  <SCORE.INTRA.VDW>
0

>  <SCORE.INTRA.VDW.0>
0

>  <SCORE.INTRA.norm>
0

>  <SCORE.RESTR>
0

>  <SCORE.RESTR.CAVITY>
0

>  <SCORE.RESTR.norm>
0

>  <SCORE.SYSTEM>
0

>  <SCORE.SYSTEM.CONST>
0

>  <SCORE.SYSTEM.DIHEDRAL>
0

>  <SCORE.SYSTEM.SOLV>
0

>  <SCORE.SYSTEM.norm>
0

>  <SCORE.heavy>
10

>  <SCORE.norm>
-1.74764

>  <RMSD>
2.409

$$$$
ligand
 OpenBabel11021811493D
libRbt.so/2013.1/901 2013/11/27
 10 11  0  0  0  0  0  0  0  0999 V2000
   11.8400   10.8550    8.8200 N   0  0  0  0  0  0  0  0  0  0  0  0
   12.0160    9.6945    8.1096 C   0  0  0  0  0  0  0  0  0  0  0  0
   11.8777    9.6613    6.7744 N   0  0  0  0  0  0  0  0  0  0  0  0
   11.5590   10.8556    6.2336 C   0  0  0  0  0  0  0  0  0  0  0  0
   11.3688   12.0512    6.8905 C   0  0  0  0  0  0  0  0  0  0  0  0
   11.5116   12.1073    8.2913 C   0  0  0  0  0  0  0  0  0  0  0  0
   11.3872   13.0572    9.0522 O   0  0  0  0  0  0  0  0  0  0  0  0
   11.0619   13.0124    5.9725 N   0  0  0  0  0  0  0  0  0  0  0  0
   11.0637   12.4049    4.7673 C   0  0  0  0  0  0  0  0  0  0  0  0
   11.3651   11.0734    4.8970 N   0  0  0  0  0  0  0  0  0  0  0  0
  1  2  1  0  0  0  0
  1  6  1  0  0  0  0
  2  3  2  0  0  0  0
  3  4  1  0  0  0  0
  4  5  2  0  0  0  0
  4 10  1  0  0  0  0
  5  6  1  0  0  0  0
  5  8  1  0  0  0  0
  6  7  2  0  0  0  0
  8  9  1  0  0  0  0
  9 10  2  0  0  0  0
M  END
>  <CHROM.1>
11.50343386,11.50526895,7.02134880,-1.02456117,1.33234476,-2.03509848

>  <Name>
ligand

>  <RI>
0

>  <Rbt.Current_Directory>
/home/itssahil/PROJECTS/Mol_Feturizer/New_Systems/rnas/4FEJ

>  <Rbt.Executable>
rbdock ($Id: //depot/dev/client3/rdock/2013.1/src/exe/rbdock.cxx#4 $)

>  <Rbt.Library>
libRbt.so (2013.1, Build901 2013/11/27)

>  <Rbt.Parameter_File>
/export/apps/rDock/src/rDock_2013.1_src/data/scripts/dock_solv.prm

>  <Rbt.Receptor>
prm/pocket_docking_5.prm

>  <SCORE>
-17.4271

>  <SCORE.INTER>
-17.4271

>  <SCORE.INTER.CONST>
1

>  <SCORE.INTER.POLAR>
0

>  <SCORE.INTER.ROT>
0

>  <SCORE.INTER.SOLV>
3.94802

>  <SCORE.INTER.VDW>
-16.5341

>  <SCORE.INTER.norm>
-1.74271

>  <SCORE.INTRA>
0

>  <SCORE.INTRA.DIHEDRAL>
0

>  <SCORE.INTRA.DIHEDRAL.0>
0

>  <SCORE.INTRA.POLAR>
0

>  <SCORE.INTRA.POLAR.0>
0

>  <SCORE.INTRA.REPUL>
0

>  <SCORE.INTRA.REPUL.0>
0

>  <SCORE.INTRA.SOLV>
0

>  <SCORE.INTRA.SOLV.lig_0>
-4.26631

>  <SCORE.INTRA.VDW>
0

>  <SCORE.INTRA.VDW.0>
0

>  <SCORE.INTRA.norm>
0

>  <SCORE.RESTR>
0

>  <SCORE.RESTR.CAVITY>
0

>  <SCORE.RESTR.norm>
0

>  <SCORE.SYSTEM>
0

>  <SCORE.SYSTEM.CONST>
0

>  <SCORE.SYSTEM.DIHEDRAL>
0

>  <SCORE.SYSTEM.SOLV>
0

>  <SCORE.SYSTEM.norm>
0

>  <SCORE.heavy>
10

>  <SCORE.norm>
-1.74271

>  <RMSD>
2.409

$$$$
ligand
 OpenBabel11021811493D
libRbt.so/2013.1/901 2013/11/27
 10 11  0  0  0  0  0  0  0  0999 V2000
   11.8683   10.8615    8.7569 N   0  0  0  0  0  0  0  0  0  0  0  0
   12.0210    9.6965    8.0485 C   0  0  0  0  0  0  0  0  0  0  0  0
   11.8543    9.6583    6.7166 N   0  0  0  0  0  0  0  0  0  0  0  0
   11.5329   10.8523    6.1771 C   0  0  0  0  0  0  0  0  0  0  0  0
   11.3651   12.0523    6.8322 C   0  0  0  0  0  0  0  0  0  0  0  0
   11.5378   12.1137    8.2293 C   0  0  0  0  0  0  0  0  0  0  0  0
   11.4362   13.0680    8.9882 O   0  0  0  0  0  0  0  0  0  0  0  0
   11.0458   13.0115    5.9162 N   0  0  0  0  0  0  0  0  0  0  0  0
   11.0178   12.3985    4.7141 C   0  0  0  0  0  0  0  0  0  0  0  0
   11.3124   11.0654    4.8438 N   0  0  0  0  0  0  0  0  0  0  0  0
  1  2  1  0  0  0  0
  1  6  1  0  0  0  0
  2  3  2  0  0  0  0
  3  4  1  0  0  0  0
  4  5  2  0  0  0  0
  4 10  1  0  0  0  0
  5  6  1  0  0  0  0
  5  8  1  0  0  0  0
  6  7  2  0  0  0  0
  8  9  1  0  0  0  0
  9 10  2  0  0  0  0
M  END
>  <CHROM.1>
11.49853202,11.50595206,6.96268918,-0.93264406,1.32830150,-2.12902129

>  <Name>
ligand

>  <RI>
0

>  <Rbt.Current_Directory>
/home/itssahil/PROJECTS/Mol_Feturizer/New_Systems/rnas/4FEJ

>  <Rbt.Executable>
rbdock ($Id: //depot/dev/client3/rdock/2013.1/src/exe/rbdock.cxx#4 $)

>  <Rbt.Library>
libRbt.so (2013.1, Build901 2013/11/27)

>  <Rbt.Parameter_File>
/export/apps/rDock/src/rDock_2013.1_src/data/scripts/dock_solv.prm

>  <Rbt.Receptor>
prm/pocket_docking_5.prm

>  <SCORE>
-17.4769

>  <SCORE.INTER>
-17.4769

>  <SCORE.INTER.CONST>
1

>  <SCORE.INTER.POLAR>
0

>  <SCORE.INTER.ROT>
0

>  <SCORE.INTER.SOLV>
3.94521

>  <SCORE.INTER.VDW>
-16.5663

>  <SCORE.INTER.norm>
-1.74769

>  <SCORE.INTRA>
0

>  <SCORE.INTRA.DIHEDRAL>
0

>  <SCORE.INTRA.DIHEDRAL.0>
0

>  <SCORE.INTRA.POLAR>
0

>  <SCORE.INTRA.POLAR.0>
0

>  <SCORE.INTRA.REPUL>
0

>  <SCORE.INTRA.REPUL.0>
0

>  <SCORE.INTRA.SOLV>
0

>  <SCORE.INTRA.SOLV.lig_0>
-4.26631

>  <SCORE.INTRA.VDW>
0

>  <SCORE.INTRA.VDW.0>
0

>  <SCORE.INTRA.norm>
0

>  <SCORE.RESTR>
0

>  <SCORE.RESTR.CAVITY>
0

>  <SCORE.RESTR.norm>
0

>  <SCORE.SYSTEM>
0

>  <SCORE.SYSTEM.CONST>
0

>  <SCORE.SYSTEM.DIHEDRAL>
0

>  <SCORE.SYSTEM.SOLV>
0

>  <SCORE.SYSTEM.norm>
0

>  <SCORE.heavy>
10

>  <SCORE.norm>
-1.74769

>  <RMSD>
2.409

$$$$
ligand
 OpenBabel11021811493D
libRbt.so/2013.1/901 2013/11/27
 10 11  0  0  0  0  0  0  0  0999 V2000
   11.8481   10.8612    8.7809 N   0  0  0  0  0  0  0  0  0  0  0  0
   11.9966    9.6903    8.0813 C   0  0  0  0  0  0  0  0  0  0  0  0
   11.8334    9.6433    6.7493 N   0  0  0  0  0  0  0  0  0  0  0  0
   11.5198   10.8351    6.2003 C   0  0  0  0  0  0  0  0  0  0  0  0
   11.3565   12.0407    6.8463 C   0  0  0  0  0  0  0  0  0  0  0  0
   11.5258   12.1113    8.2434 C   0  0  0  0  0  0  0  0  0  0  0  0
   11.4272   13.0715    8.9951 O   0  0  0  0  0  0  0  0  0  0  0  0
   11.0449   12.9949    5.9225 N   0  0  0  0  0  0  0  0  0  0  0  0
   11.0170   12.3734    4.7248 C   0  0  0  0  0  0  0  0  0  0  0  0
   11.3041   11.0398    4.8649 N   0  0  0  0  0  0  0  0  0  0  0  0
  1  2  1  0  0  0  0
  1  6  1  0  0  0  0
  2  3  2  0  0  0  0
  3  4  1  0  0  0  0
  4  5  2  0  0  0  0
  4 10  1  0  0  0  0
  5  6  1  0  0  0  0
  5  8  1  0  0  0  0
  6  7  2  0  0  0  0
  8  9  1  0  0  0  0
  9 10  2  0  0  0  0
M  END
>  <CHROM.1>
11.48675103,11.49462437,6.98108480,-0.93053206,1.33427591,-2.13828190

>  <Name>
ligand

>  <RI>
0

>  <Rbt.Current_Directory>
/home/itssahil/PROJECTS/Mol_Feturizer/New_Systems/rnas/4FEJ

>  <Rbt.Executable>
rbdock ($Id: //depot/dev/client3/rdock/2013.1/src/exe/rbdock.cxx#4 $)

>  <Rbt.Library>
libRbt.so (2013.1, Build901 2013/11/27)

>  <Rbt.Parameter_File>
/export/apps/rDock/src/rDock_2013.1_src/data/scripts/dock_solv.prm

>  <Rbt.Receptor>
prm/pocket_docking_5.prm

>  <SCORE>
-17.4188

>  <SCORE.INTER>
-17.4188

>  <SCORE.INTER.CONST>
1

>  <SCORE.INTER.POLAR>
0

>  <SCORE.INTER.ROT>
0

>  <SCORE.INTER.SOLV>
3.96407

>  <SCORE.INTER.VDW>
-16.5339

>  <SCORE.INTER.norm>
-1.74188

>  <SCORE.INTRA>
0

>  <SCORE.INTRA.DIHEDRAL>
0

>  <SCORE.INTRA.DIHEDRAL.0>
0

>  <SCORE.INTRA.POLAR>
0

>  <SCORE.INTRA.POLAR.0>
0

>  <SCORE.INTRA.REPUL>
0

>  <SCORE.INTRA.REPUL.0>
0

>  <SCORE.INTRA.SOLV>
0

>  <SCORE.INTRA.SOLV.lig_0>
-4.26631

>  <SCORE.INTRA.VDW>
0

>  <SCORE.INTRA.VDW.0>
0

>  <SCORE.INTRA.norm>
0

>  <SCORE.RESTR>
0

>  <SCORE.RESTR.CAVITY>
0

>  <SCORE.RESTR.norm>
0

>  <SCORE.SYSTEM>
0

>  <SCORE.SYSTEM.CONST>
0

>  <SCORE.SYSTEM.DIHEDRAL>
0

>  <SCORE.SYSTEM.SOLV>
0

>  <SCORE.SYSTEM.norm>
0

>  <SCORE.heavy>
10

>  <SCORE.norm>
-1.74188

>  <RMSD>
2.409

$$$$
ligand
 OpenBabel11021811493D
libRbt.so/2013.1/901 2013/11/27
 10 11  0  0  0  0  0  0  0  0999 V2000
   11.8723   10.8599    8.7808 N   0  0  0  0  0  0  0  0  0  0  0  0
   12.0653    9.7083    8.0605 C   0  0  0  0  0  0  0  0  0  0  0  0
   11.9181    9.6823    6.7260 N   0  0  0  0  0  0  0  0  0  0  0  0
   11.5730   10.8743    6.1965 C   0  0  0  0  0  0  0  0  0  0  0  0
   11.3647   12.0612    6.8637 C   0  0  0  0  0  0  0  0  0  0  0  0
   11.5164   12.1096    8.2638 C   0  0  0  0  0  0  0  0  0  0  0  0
   11.3794   13.0513    9.0327 O   0  0  0  0  0  0  0  0  0  0  0  0
   11.0332   13.0231    5.9550 N   0  0  0  0  0  0  0  0  0  0  0  0
   11.0380   12.4247    4.7453 C   0  0  0  0  0  0  0  0  0  0  0  0
   11.3655   11.0982    4.8629 N   0  0  0  0  0  0  0  0  0  0  0  0
  1  2  1  0  0  0  0
  1  6  1  0  0  0  0
  2  3  2  0  0  0  0
  3  4  1  0  0  0  0
  4  5  2  0  0  0  0
  4 10  1  0  0  0  0
  5  6  1  0  0  0  0
  5  8  1  0  0  0  0
  6  7  2  0  0  0  0
  8  9  1  0  0  0  0
  9 10  2  0  0  0  0
M  END
>  <CHROM.1>
11.51066423,11.51691249,6.98943119,-1.03301602,1.31217461,-2.01944215

>  <Name>
ligand

>  <RI>
0

>  <Rbt.Current_Directory>
/home/itssahil/PROJECTS/Mol_Feturizer/New_Systems/rnas/4FEJ

>  <Rbt.Executable>
rbdock ($Id: //depot/dev/client3/rdock/2013.1/src/exe/rbdock.cxx#4 $)

>  <Rbt.Library>
libRbt.so (2013.1, Build901 2013/11/27)

>  <Rbt.Parameter_File>
/export/apps/rDock/src/rDock_2013.1_src/data/scripts/dock_solv.prm

>  <Rbt.Receptor>
prm/pocket_docking_6.prm

>  <SCORE>
-17.5412

>  <SCORE.INTER>
-17.5412

>  <SCORE.INTER.CONST>
1

>  <SCORE.INTER.POLAR>
0

>  <SCORE.INTER.ROT>
0

>  <SCORE.INTER.SOLV>
3.90647

>  <SCORE.INTER.VDW>
-16.5963

>  <SCORE.INTER.norm>
-1.75412

>  <SCORE.INTRA>
0

>  <SCORE.INTRA.DIHEDRAL>
0

>  <SCORE.INTRA.DIHEDRAL.0>
0

>  <SCORE.INTRA.POLAR>
0

>  <SCORE.INTRA.POLAR.0>
0

>  <SCORE.INTRA.REPUL>
0

>  <SCORE.INTRA.REPUL.0>
0

>  <SCORE.INTRA.SOLV>
0

>  <SCORE.INTRA.SOLV.lig_0>
-4.26631

>  <SCORE.INTRA.VDW>
0

>  <SCORE.INTRA.VDW.0>
0

>  <SCORE.INTRA.norm>
0

>  <SCORE.RESTR>
0

>  <SCORE.RESTR.CAVITY>
0

>  <SCORE.RESTR.norm>
0

>  <SCORE.SYSTEM>
0

>  <SCORE.SYSTEM.CONST>
0

>  <SCORE.SYSTEM.DIHEDRAL>
0

>  <SCORE.SYSTEM.SOLV>
0

>  <SCORE.SYSTEM.norm>
0

>  <SCORE.heavy>
10

>  <SCORE.norm>
-1.75412

>  <RMSD>
2.409

$$$$
ligand
 OpenBabel11021811493D
libRbt.so/2013.1/901 2013/11/27
 10 11  0  0  0  0  0  0  0  0999 V2000
   11.8711   10.8760    8.7831 N   0  0  0  0  0  0  0  0  0  0  0  0
   12.0606    9.7194    8.0697 C   0  0  0  0  0  0  0  0  0  0  0  0
   11.9116    9.6856    6.7357 N   0  0  0  0  0  0  0  0  0  0  0  0
   11.5683   10.8749    6.1992 C   0  0  0  0  0  0  0  0  0  0  0  0
   11.3635   12.0664    6.8593 C   0  0  0  0  0  0  0  0  0  0  0  0
   11.5172   12.1232    8.2589 C   0  0  0  0  0  0  0  0  0  0  0  0
   11.3833   13.0699    9.0221 O   0  0  0  0  0  0  0  0  0  0  0  0
   11.0327   13.0234    5.9452 N   0  0  0  0  0  0  0  0  0  0  0  0
   11.0345   12.4175    4.7392 C   0  0  0  0  0  0  0  0  0  0  0  0
   11.3594   11.0911    4.8646 N   0  0  0  0  0  0  0  0  0  0  0  0
  1  2  1  0  0  0  0
  1  6  1  0  0  0  0
  2  3  2  0  0  0  0
  3  4  1  0  0  0  0
  4  5  2  0  0  0  0
  4 10  1  0  0  0  0
  5  6  1  0  0  0  0
  5  8  1  0  0  0  0
  6  7  2  0  0  0  0
  8  9  1  0  0  0  0
  9 10  2  0  0  0  0
M  END
>  <CHROM.1>
11.50841382,11.52263174,6.98827146,-1.02440430,1.31348565,-2.03395521

>  <Name>
ligand

>  <RI>
0

>  <Rbt.Current_Directory>
/home/itssahil/PROJECTS/Mol_Feturizer/New_Systems/rnas/4FEJ

>  <Rbt.Executable>
rbdock ($Id: //depot/dev/client3/rdock/2013.1/src/exe/rbdock.cxx#4 $)

>  <Rbt.Library>
libRbt.so (2013.1, Build901 2013/11/27)

>  <Rbt.Parameter_File>
/export/apps/rDock/src/rDock_2013.1_src/data/scripts/dock_solv.prm

>  <Rbt.Receptor>
prm/pocket_docking_6.prm

>  <SCORE>
-17.522

>  <SCORE.INTER>
-17.522

>  <SCORE.INTER.CONST>
1

>  <SCORE.INTER.POLAR>
0

>  <SCORE.INTER.ROT>
0

>  <SCORE.INTER.SOLV>
3.92235

>  <SCORE.INTER.VDW>
-16.5888

>  <SCORE.INTER.norm>
-1.7522

>  <SCORE.INTRA>
0

>  <SCORE.INTRA.DIHEDRAL>
0

>  <SCORE.INTRA.DIHEDRAL.0>
0

>  <SCORE.INTRA.POLAR>
0

>  <SCORE.INTRA.POLAR.0>
0

>  <SCORE.INTRA.REPUL>
0

>  <SCORE.INTRA.REPUL.0>
0

>  <SCORE.INTRA.SOLV>
0

>  <SCORE.INTRA.SOLV.lig_0>
-4.26631

>  <SCORE.INTRA.VDW>
0

>  <SCORE.INTRA.VDW.0>
0

>  <SCORE.INTRA.norm>
0

>  <SCORE.RESTR>
0

>  <SCORE.RESTR.CAVITY>
0

>  <SCORE.RESTR.norm>
0

>  <SCORE.SYSTEM>
0

>  <SCORE.SYSTEM.CONST>
0

>  <SCORE.SYSTEM.DIHEDRAL>
0

>  <SCORE.SYSTEM.SOLV>
0

>  <SCORE.SYSTEM.norm>
0

>  <SCORE.heavy>
10

>  <SCORE.norm>
-1.7522

>  <RMSD>
2.409

$$$$
ligand
 OpenBabel11021811493D
libRbt.so/2013.1/901 2013/11/27
 10 11  0  0  0  0  0  0  0  0999 V2000
   11.8578   10.8459    8.7615 N   0  0  0  0  0  0  0  0  0  0  0  0
   12.0156    9.6853    8.0470 C   0  0  0  0  0  0  0  0  0  0  0  0
   11.8539    9.6544    6.7143 N   0  0  0  0  0  0  0  0  0  0  0  0
   11.5320   10.8509    6.1805 C   0  0  0  0  0  0  0  0  0  0  0  0
   11.3592   12.0467    6.8419 C   0  0  0  0  0  0  0  0  0  0  0  0
   11.5267   12.1004    8.2400 C   0  0  0  0  0  0  0  0  0  0  0  0
   11.4204   13.0500    9.0040 O   0  0  0  0  0  0  0  0  0  0  0  0
   11.0414   13.0105    5.9303 N   0  0  0  0  0  0  0  0  0  0  0  0
   11.0191   12.4044    4.7246 C   0  0  0  0  0  0  0  0  0  0  0  0
   11.3160   11.0712    4.8477 N   0  0  0  0  0  0  0  0  0  0  0  0
  1  2  1  0  0  0  0
  1  6  1  0  0  0  0
  2  3  2  0  0  0  0
  3  4  1  0  0  0  0
  4  5  2  0  0  0  0
  4 10  1  0  0  0  0
  5  6  1  0  0  0  0
  5  8  1  0  0  0  0
  6  7  2  0  0  0  0
  8  9  1  0  0  0  0
  9 10  2  0  0  0  0
M  END
>  <CHROM.1>
11.49337450,11.49990620,6.96972080,-0.95023815,1.32845833,-2.10615549

>  <Name>
ligand

>  <RI>
0

>  <Rbt.Current_Directory>
/home/itssahil/PROJECTS/Mol_Feturizer/New_Systems/rnas/4FEJ

>  <Rbt.Executable>
rbdock ($Id: //depot/dev/client3/rdock/2013.1/src/exe/rbdock.cxx#4 $)

>  <Rbt.Library>
libRbt.so (2013.1, Build901 2013/11/27)

>  <Rbt.Parameter_File>
/export/apps/rDock/src/rDock_2013.1_src/data/scripts/dock_solv.prm

>  <Rbt.Receptor>
prm/pocket_docking_6.prm

>  <SCORE>
-17.4718

>  <SCORE.INTER>
-17.4718

>  <SCORE.INTER.CONST>
1

>  <SCORE.INTER.POLAR>
0

>  <SCORE.INTER.ROT>
0

>  <SCORE.INTER.SOLV>
3.92978

>  <SCORE.INTER.VDW>
-16.5578

>  <SCORE.INTER.norm>
-1.74718

>  <SCORE.INTRA>
0

>  <SCORE.INTRA.DIHEDRAL>
0

>  <SCORE.INTRA.DIHEDRAL.0>
0

>  <SCORE.INTRA.POLAR>
0

>  <SCORE.INTRA.POLAR.0>
0

>  <SCORE.INTRA.REPUL>
0

>  <SCORE.INTRA.REPUL.0>
0

>  <SCORE.INTRA.SOLV>
0

>  <SCORE.INTRA.SOLV.lig_0>
-4.26631

>  <SCORE.INTRA.VDW>
0

>  <SCORE.INTRA.VDW.0>
0

>  <SCORE.INTRA.norm>
0

>  <SCORE.RESTR>
0

>  <SCORE.RESTR.CAVITY>
0

>  <SCORE.RESTR.norm>
0

>  <SCORE.SYSTEM>
0

>  <SCORE.SYSTEM.CONST>
0

>  <SCORE.SYSTEM.DIHEDRAL>
0

>  <SCORE.SYSTEM.SOLV>
0

>  <SCORE.SYSTEM.norm>
0

>  <SCORE.heavy>
10

>  <SCORE.norm>
-1.74718

>  <RMSD>
2.409

$$$$
ligand
 OpenBabel11021811493D
libRbt.so/2013.1/901 2013/11/27
 10 11  0  0  0  0  0  0  0  0999 V2000
   11.8613   10.8167    8.7887 N   0  0  0  0  0  0  0  0  0  0  0  0
   12.0536    9.6690    8.0618 C   0  0  0  0  0  0  0  0  0  0  0  0
   11.9109    9.6519    6.7268 N   0  0  0  0  0  0  0  0  0  0  0  0
   11.5709   10.8481    6.2036 C   0  0  0  0  0  0  0  0  0  0  0  0
   11.3636   12.0314    6.8775 C   0  0  0  0  0  0  0  0  0  0  0  0
   11.5106   12.0706    8.2784 C   0  0  0  0  0  0  0  0  0  0  0  0
   11.3736   13.0078    9.0528 O   0  0  0  0  0  0  0  0  0  0  0  0
   11.0377   12.9999    5.9739 N   0  0  0  0  0  0  0  0  0  0  0  0
   11.0450   12.4091    4.7604 C   0  0  0  0  0  0  0  0  0  0  0  0
   11.3685   11.0810    4.8708 N   0  0  0  0  0  0  0  0  0  0  0  0
  1  2  1  0  0  0  0
  1  6  1  0  0  0  0
  2  3  2  0  0  0  0
  3  4  1  0  0  0  0
  4  5  2  0  0  0  0
  4 10  1  0  0  0  0
  5  6  1  0  0  0  0
  5  8  1  0  0  0  0
  6  7  2  0  0  0  0
  8  9  1  0  0  0  0
  9 10  2  0  0  0  0
M  END
>  <CHROM.1>
11.50758183,11.48593680,7.00036689,-1.04045723,1.31611345,-2.00593828

>  <Name>
ligand

>  <RI>
0

>  <Rbt.Current_Directory>
/home/itssahil/PROJECTS/Mol_Feturizer/New_Systems/rnas/4FEJ

>  <Rbt.Executable>
rbdock ($Id: //depot/dev/client3/rdock/2013.1/src/exe/rbdock.cxx#4 $)

>  <Rbt.Library>
libRbt.so (2013.1, Build901 2013/11/27)

>  <Rbt.Parameter_File>
/export/apps/rDock/src/rDock_2013.1_src/data/scripts/dock_solv.prm

>  <Rbt.Receptor>
prm/pocket_docking_6.prm

>  <SCORE>
-17.5145

>  <SCORE.INTER>
-17.5145

>  <SCORE.INTER.CONST>
1

>  <SCORE.INTER.POLAR>
0

>  <SCORE.INTER.ROT>
0

>  <SCORE.INTER.SOLV>
3.88447

>  <SCORE.INTER.VDW>
-16.5712

>  <SCORE.INTER.norm>
-1.75145

>  <SCORE.INTRA>
0

>  <SCORE.INTRA.DIHEDRAL>
0

>  <SCORE.INTRA.DIHEDRAL.0>
0

>  <SCORE.INTRA.POLAR>
0

>  <SCORE.INTRA.POLAR.0>
0

>  <SCORE.INTRA.REPUL>
0

>  <SCORE.INTRA.REPUL.0>
0

>  <SCORE.INTRA.SOLV>
0

>  <SCORE.INTRA.SOLV.lig_0>
-4.26631

>  <SCORE.INTRA.VDW>
0

>  <SCORE.INTRA.VDW.0>
0

>  <SCORE.INTRA.norm>
0

>  <SCORE.RESTR>
0

>  <SCORE.RESTR.CAVITY>
0

>  <SCORE.RESTR.norm>
0

>  <SCORE.SYSTEM>
0

>  <SCORE.SYSTEM.CONST>
0

>  <SCORE.SYSTEM.DIHEDRAL>
0

>  <SCORE.SYSTEM.SOLV>
0

>  <SCORE.SYSTEM.norm>
0

>  <SCORE.heavy>
10

>  <SCORE.norm>
-1.75145

>  <RMSD>
2.409

$$$$
ligand
 OpenBabel11021811493D
libRbt.so/2013.1/901 2013/11/27
 10 11  0  0  0  0  0  0  0  0999 V2000
   11.8786   10.8405    8.7854 N   0  0  0  0  0  0  0  0  0  0  0  0
   12.0625    9.6836    8.0711 C   0  0  0  0  0  0  0  0  0  0  0  0
   11.9015    9.6487    6.7385 N   0  0  0  0  0  0  0  0  0  0  0  0
   11.5526   10.8375    6.2043 C   0  0  0  0  0  0  0  0  0  0  0  0
   11.3530   12.0293    6.8654 C   0  0  0  0  0  0  0  0  0  0  0  0
   11.5193   12.0872    8.2634 C   0  0  0  0  0  0  0  0  0  0  0  0
   11.3917   13.0344    9.0272 O   0  0  0  0  0  0  0  0  0  0  0  0
   11.0135   12.9854    5.9535 N   0  0  0  0  0  0  0  0  0  0  0  0
   11.0048   12.3786    4.7480 C   0  0  0  0  0  0  0  0  0  0  0  0
   11.3317   11.0525    4.8715 N   0  0  0  0  0  0  0  0  0  0  0  0
  1  2  1  0  0  0  0
  1  6  1  0  0  0  0
  2  3  2  0  0  0  0
  3  4  1  0  0  0  0
  4  5  2  0  0  0  0
  4 10  1  0  0  0  0
  5  6  1  0  0  0  0
  5  8  1  0  0  0  0
  6  7  2  0  0  0  0
  8  9  1  0  0  0  0
  9 10  2  0  0  0  0
M  END
>  <CHROM.1>
11.49945868,11.48567990,6.99337457,-0.99446770,1.30881590,-2.06361595

>  <Name>
ligand

>  <RI>
0

>  <Rbt.Current_Directory>
/home/itssahil/PROJECTS/Mol_Feturizer/New_Systems/rnas/4FEJ

>  <Rbt.Executable>
rbdock ($Id: //depot/dev/client3/rdock/2013.1/src/exe/rbdock.cxx#4 $)

>  <Rbt.Library>
libRbt.so (2013.1, Build901 2013/11/27)

>  <Rbt.Parameter_File>
/export/apps/rDock/src/rDock_2013.1_src/data/scripts/dock_solv.prm

>  <Rbt.Receptor>
prm/pocket_docking_6.prm

>  <SCORE>
-17.463

>  <SCORE.INTER>
-17.463

>  <SCORE.INTER.CONST>
1

>  <SCORE.INTER.POLAR>
0

>  <SCORE.INTER.ROT>
0

>  <SCORE.INTER.SOLV>
3.89485

>  <SCORE.INTER.VDW>
-16.5403

>  <SCORE.INTER.norm>
-1.7463

>  <SCORE.INTRA>
0

>  <SCORE.INTRA.DIHEDRAL>
0

>  <SCORE.INTRA.DIHEDRAL.0>
0

>  <SCORE.INTRA.POLAR>
0

>  <SCORE.INTRA.POLAR.0>
0

>  <SCORE.INTRA.REPUL>
0

>  <SCORE.INTRA.REPUL.0>
0

>  <SCORE.INTRA.SOLV>
0

>  <SCORE.INTRA.SOLV.lig_0>
-4.26631

>  <SCORE.INTRA.VDW>
0

>  <SCORE.INTRA.VDW.0>
0

>  <SCORE.INTRA.norm>
0

>  <SCORE.RESTR>
0

>  <SCORE.RESTR.CAVITY>
0

>  <SCORE.RESTR.norm>
0

>  <SCORE.SYSTEM>
0

>  <SCORE.SYSTEM.CONST>
0

>  <SCORE.SYSTEM.DIHEDRAL>
0

>  <SCORE.SYSTEM.SOLV>
0

>  <SCORE.SYSTEM.norm>
0

>  <SCORE.heavy>
10

>  <SCORE.norm>
-1.7463

>  <RMSD>
2.409

$$$$
ligand
 OpenBabel11021811493D
libRbt.so/2013.1/901 2013/11/27
 10 11  0  0  0  0  0  0  0  0999 V2000
   11.8809   10.7803    8.7629 N   0  0  0  0  0  0  0  0  0  0  0  0
   12.0481    9.6315    8.0316 C   0  0  0  0  0  0  0  0  0  0  0  0
   11.8851    9.6183    6.6988 N   0  0  0  0  0  0  0  0  0  0  0  0
   11.5519   10.8194    6.1825 C   0  0  0  0  0  0  0  0  0  0  0  0
   11.3695   12.0040    6.8611 C   0  0  0  0  0  0  0  0  0  0  0  0
   11.5381   12.0392    8.2597 C   0  0  0  0  0  0  0  0  0  0  0  0
   11.4243   12.9768    9.0373 O   0  0  0  0  0  0  0  0  0  0  0  0
   11.0420   12.9780    5.9638 N   0  0  0  0  0  0  0  0  0  0  0  0
   11.0237   12.3890    4.7496 C   0  0  0  0  0  0  0  0  0  0  0  0
   11.3324   11.0569    4.8532 N   0  0  0  0  0  0  0  0  0  0  0  0
  1  2  1  0  0  0  0
  1  6  1  0  0  0  0
  2  3  2  0  0  0  0
  3  4  1  0  0  0  0
  4  5  2  0  0  0  0
  4 10  1  0  0  0  0
  5  6  1  0  0  0  0
  5  8  1  0  0  0  0
  6  7  2  0  0  0  0
  8  9  1  0  0  0  0
  9 10  2  0  0  0  0
M  END
>  <CHROM.1>
11.50857371,11.45667252,6.98099141,-0.96422815,1.32024792,-2.07826464

>  <Name>
ligand

>  <RI>
0

>  <Rbt.Current_Directory>
/home/itssahil/PROJECTS/Mol_Feturizer/New_Systems/rnas/4FEJ

>  <Rbt.Executable>
rbdock ($Id: //depot/dev/client3/rdock/2013.1/src/exe/rbdock.cxx#4 $)

>  <Rbt.Library>
libRbt.so (2013.1, Build901 2013/11/27)

>  <Rbt.Parameter_File>
/export/apps/rDock/src/rDock_2013.1_src/data/scripts/dock_solv.prm

>  <Rbt.Receptor>
prm/pocket_docking_7.prm

>  <SCORE>
-17.4047

>  <SCORE.INTER>
-17.4047

>  <SCORE.INTER.CONST>
1

>  <SCORE.INTER.POLAR>
0

>  <SCORE.INTER.ROT>
0

>  <SCORE.INTER.SOLV>
3.86944

>  <SCORE.INTER.VDW>
-16.4929

>  <SCORE.INTER.norm>
-1.74047

>  <SCORE.INTRA>
0

>  <SCORE.INTRA.DIHEDRAL>
0

>  <SCORE.INTRA.DIHEDRAL.0>
0

>  <SCORE.INTRA.POLAR>
0

>  <SCORE.INTRA.POLAR.0>
0

>  <SCORE.INTRA.REPUL>
0

>  <SCORE.INTRA.REPUL.0>
0

>  <SCORE.INTRA.SOLV>
0

>  <SCORE.INTRA.SOLV.lig_0>
-4.26631

>  <SCORE.INTRA.VDW>
0

>  <SCORE.INTRA.VDW.0>
0

>  <SCORE.INTRA.norm>
0

>  <SCORE.RESTR>
0

>  <SCORE.RESTR.CAVITY>
0

>  <SCORE.RESTR.norm>
0

>  <SCORE.SYSTEM>
0

>  <SCORE.SYSTEM.CONST>
0

>  <SCORE.SYSTEM.DIHEDRAL>
0

>  <SCORE.SYSTEM.SOLV>
0

>  <SCORE.SYSTEM.norm>
0

>  <SCORE.heavy>
10

>  <SCORE.norm>
-1.74047

>  <RMSD>
2.409

$$$$
ligand
 OpenBabel11021811493D
libRbt.so/2013.1/901 2013/11/27
 10 11  0  0  0  0  0  0  0  0999 V2000
   11.8762   10.8638    8.7581 N   0  0  0  0  0  0  0  0  0  0  0  0
   12.0400    9.6999    8.0504 C   0  0  0  0  0  0  0  0  0  0  0  0
   11.8679    9.6579    6.7194 N   0  0  0  0  0  0  0  0  0  0  0  0
   11.5294   10.8473    6.1798 C   0  0  0  0  0  0  0  0  0  0  0  0
   11.3499   12.0459    6.8342 C   0  0  0  0  0  0  0  0  0  0  0  0
   11.5281   12.1112    8.2305 C   0  0  0  0  0  0  0  0  0  0  0  0
   11.4183   13.0650    8.9887 O   0  0  0  0  0  0  0  0  0  0  0  0
   11.0148   13.0000    5.9186 N   0  0  0  0  0  0  0  0  0  0  0  0
   10.9890   12.3852    4.7174 C   0  0  0  0  0  0  0  0  0  0  0  0
   11.3004   11.0560    4.8473 N   0  0  0  0  0  0  0  0  0  0  0  0
  1  2  1  0  0  0  0
  1  6  1  0  0  0  0
  2  3  2  0  0  0  0
  3  4  1  0  0  0  0
  4  5  2  0  0  0  0
  4 10  1  0  0  0  0
  5  6  1  0  0  0  0
  5  8  1  0  0  0  0
  6  7  2  0  0  0  0
  8  9  1  0  0  0  0
  9 10  2  0  0  0  0
M  END
>  <CHROM.1>
11.49061182,11.50140941,6.96481277,-0.94328877,1.31554981,-2.11990946

>  <Name>
ligand

>  <RI>
0

>  <Rbt.Current_Directory>
/home/itssahil/PROJECTS/Mol_Feturizer/New_Systems/rnas/4FEJ

>  <Rbt.Executable>
rbdock ($Id: //depot/dev/client3/rdock/2013.1/src/exe/rbdock.cxx#4 $)

>  <Rbt.Library>
libRbt.so (2013.1, Build901 2013/11/27)

>  <Rbt.Parameter_File>
/export/apps/rDock/src/rDock_2013.1_src/data/scripts/dock_solv.prm

>  <Rbt.Receptor>
prm/pocket_docking_7.prm

>  <SCORE>
-17.4666

>  <SCORE.INTER>
-17.4666

>  <SCORE.INTER.CONST>
1

>  <SCORE.INTER.POLAR>
0

>  <SCORE.INTER.ROT>
0

>  <SCORE.INTER.SOLV>
3.92491

>  <SCORE.INTER.VDW>
-16.5527

>  <SCORE.INTER.norm>
-1.74666

>  <SCORE.INTRA>
0

>  <SCORE.INTRA.DIHEDRAL>
0

>  <SCORE.INTRA.DIHEDRAL.0>
0

>  <SCORE.INTRA.POLAR>
0

>  <SCORE.INTRA.POLAR.0>
0

>  <SCORE.INTRA.REPUL>
0

>  <SCORE.INTRA.REPUL.0>
0

>  <SCORE.INTRA.SOLV>
0

>  <SCORE.INTRA.SOLV.lig_0>
-4.26631

>  <SCORE.INTRA.VDW>
0

>  <SCORE.INTRA.VDW.0>
0

>  <SCORE.INTRA.norm>
0

>  <SCORE.RESTR>
0

>  <SCORE.RESTR.CAVITY>
0

>  <SCORE.RESTR.norm>
0

>  <SCORE.SYSTEM>
0

>  <SCORE.SYSTEM.CONST>
0

>  <SCORE.SYSTEM.DIHEDRAL>
0

>  <SCORE.SYSTEM.SOLV>
0

>  <SCORE.SYSTEM.norm>
0

>  <SCORE.heavy>
10

>  <SCORE.norm>
-1.74666

>  <RMSD>
2.409

$$$$
ligand
 OpenBabel11021811493D
libRbt.so/2013.1/901 2013/11/27
 10 11  0  0  0  0  0  0  0  0999 V2000
   11.8422   10.8674    8.7785 N   0  0  0  0  0  0  0  0  0  0  0  0
   11.9880    9.6973    8.0771 C   0  0  0  0  0  0  0  0  0  0  0  0
   11.8231    9.6525    6.7452 N   0  0  0  0  0  0  0  0  0  0  0  0
   11.5108   10.8456    6.1982 C   0  0  0  0  0  0  0  0  0  0  0  0
   11.3503   12.0505    6.8461 C   0  0  0  0  0  0  0  0  0  0  0  0
   11.5212   12.1188    8.2431 C   0  0  0  0  0  0  0  0  0  0  0  0
   11.4251   13.0781    8.9963 O   0  0  0  0  0  0  0  0  0  0  0  0
   11.0391   13.0065    5.9241 N   0  0  0  0  0  0  0  0  0  0  0  0
   11.0088   12.3868    4.7255 C   0  0  0  0  0  0  0  0  0  0  0  0
   11.2939   11.0525    4.8634 N   0  0  0  0  0  0  0  0  0  0  0  0
  1  2  1  0  0  0  0
  1  6  1  0  0  0  0
  2  3  2  0  0  0  0
  3  4  1  0  0  0  0
  4  5  2  0  0  0  0
  4 10  1  0  0  0  0
  5  6  1  0  0  0  0
  5  8  1  0  0  0  0
  6  7  2  0  0  0  0
  8  9  1  0  0  0  0
  9 10  2  0  0  0  0
M  END
>  <CHROM.1>
11.47974613,11.50399496,6.97998220,-0.92264078,1.33500189,-2.14452956

>  <Name>
ligand

>  <RI>
0

>  <Rbt.Current_Directory>
/home/itssahil/PROJECTS/Mol_Feturizer/New_Systems/rnas/4FEJ

>  <Rbt.Executable>
rbdock ($Id: //depot/dev/client3/rdock/2013.1/src/exe/rbdock.cxx#4 $)

>  <Rbt.Library>
libRbt.so (2013.1, Build901 2013/11/27)

>  <Rbt.Parameter_File>
/export/apps/rDock/src/rDock_2013.1_src/data/scripts/dock_solv.prm

>  <Rbt.Receptor>
prm/pocket_docking_7.prm

>  <SCORE>
-17.4162

>  <SCORE.INTER>
-17.4162

>  <SCORE.INTER.CONST>
1

>  <SCORE.INTER.POLAR>
0

>  <SCORE.INTER.ROT>
0

>  <SCORE.INTER.SOLV>
3.96831

>  <SCORE.INTER.VDW>
-16.5336

>  <SCORE.INTER.norm>
-1.74162

>  <SCORE.INTRA>
0

>  <SCORE.INTRA.DIHEDRAL>
0

>  <SCORE.INTRA.DIHEDRAL.0>
0

>  <SCORE.INTRA.POLAR>
0

>  <SCORE.INTRA.POLAR.0>
0

>  <SCORE.INTRA.REPUL>
0

>  <SCORE.INTRA.REPUL.0>
0

>  <SCORE.INTRA.SOLV>
0

>  <SCORE.INTRA.SOLV.lig_0>
-4.26631

>  <SCORE.INTRA.VDW>
0

>  <SCORE.INTRA.VDW.0>
0

>  <SCORE.INTRA.norm>
0

>  <SCORE.RESTR>
0

>  <SCORE.RESTR.CAVITY>
0

>  <SCORE.RESTR.norm>
0

>  <SCORE.SYSTEM>
0

>  <SCORE.SYSTEM.CONST>
0

>  <SCORE.SYSTEM.DIHEDRAL>
0

>  <SCORE.SYSTEM.SOLV>
0

>  <SCORE.SYSTEM.norm>
0

>  <SCORE.heavy>
10

>  <SCORE.norm>
-1.74162

>  <RMSD>
2.409

$$$$
ligand
 OpenBabel11021811493D
libRbt.so/2013.1/901 2013/11/27
 10 11  0  0  0  0  0  0  0  0999 V2000
   11.8793   10.8494    8.7734 N   0  0  0  0  0  0  0  0  0  0  0  0
   12.0746    9.7003    8.0498 C   0  0  0  0  0  0  0  0  0  0  0  0
   11.9247    9.6773    6.7156 N   0  0  0  0  0  0  0  0  0  0  0  0
   11.5746   10.8694    6.1898 C   0  0  0  0  0  0  0  0  0  0  0  0
   11.3639   12.0539    6.8605 C   0  0  0  0  0  0  0  0  0  0  0  0
   11.5184   12.0993    8.2604 C   0  0  0  0  0  0  0  0  0  0  0  0
   11.3799   13.0385    9.0320 O   0  0  0  0  0  0  0  0  0  0  0  0
   11.0273   13.0171    5.9550 N   0  0  0  0  0  0  0  0  0  0  0  0
   11.0315   12.4218    4.7437 C   0  0  0  0  0  0  0  0  0  0  0  0
   11.3636   11.0961    4.8573 N   0  0  0  0  0  0  0  0  0  0  0  0
  1  2  1  0  0  0  0
  1  6  1  0  0  0  0
  2  3  2  0  0  0  0
  3  4  1  0  0  0  0
  4  5  2  0  0  0  0
  4 10  1  0  0  0  0
  5  6  1  0  0  0  0
  5  8  1  0  0  0  0
  6  7  2  0  0  0  0
  8  9  1  0  0  0  0
  9 10  2  0  0  0  0
M  END
>  <CHROM.1>
11.51185630,11.50983932,6.98453514,-1.03118317,1.30833039,-2.01864392

>  <Name>
ligand

>  <RI>
0

>  <Rbt.Current_Directory>
/home/itssahil/PROJECTS/Mol_Feturizer/New_Systems/rnas/4FEJ

>  <Rbt.Executable>
rbdock ($Id: //depot/dev/client3/rdock/2013.1/src/exe/rbdock.cxx#4 $)

>  <Rbt.Library>
libRbt.so (2013.1, Build901 2013/11/27)

>  <Rbt.Parameter_File>
/export/apps/rDock/src/rDock_2013.1_src/data/scripts/dock_solv.prm

>  <Rbt.Receptor>
prm/pocket_docking_7.prm

>  <SCORE>
-17.5433

>  <SCORE.INTER>
-17.5433

>  <SCORE.INTER.CONST>
1

>  <SCORE.INTER.POLAR>
0

>  <SCORE.INTER.ROT>
0

>  <SCORE.INTER.SOLV>
3.89055

>  <SCORE.INTER.VDW>
-16.5924

>  <SCORE.INTER.norm>
-1.75433

>  <SCORE.INTRA>
0

>  <SCORE.INTRA.DIHEDRAL>
0

>  <SCORE.INTRA.DIHEDRAL.0>
0

>  <SCORE.INTRA.POLAR>
0

>  <SCORE.INTRA.POLAR.0>
0

>  <SCORE.INTRA.REPUL>
0

>  <SCORE.INTRA.REPUL.0>
0

>  <SCORE.INTRA.SOLV>
0

>  <SCORE.INTRA.SOLV.lig_0>
-4.26631

>  <SCORE.INTRA.VDW>
0

>  <SCORE.INTRA.VDW.0>
0

>  <SCORE.INTRA.norm>
0

>  <SCORE.RESTR>
0

>  <SCORE.RESTR.CAVITY>
0

>  <SCORE.RESTR.norm>
0

>  <SCORE.SYSTEM>
0

>  <SCORE.SYSTEM.CONST>
0

>  <SCORE.SYSTEM.DIHEDRAL>
0

>  <SCORE.SYSTEM.SOLV>
0

>  <SCORE.SYSTEM.norm>
0

>  <SCORE.heavy>
10

>  <SCORE.norm>
-1.75433

>  <RMSD>
2.409

$$$$
ligand
 OpenBabel11021811493D
libRbt.so/2013.1/901 2013/11/27
 10 11  0  0  0  0  0  0  0  0999 V2000
   11.8977   10.8801    8.7828 N   0  0  0  0  0  0  0  0  0  0  0  0
   12.0934    9.7176    8.0809 C   0  0  0  0  0  0  0  0  0  0  0  0
   11.9336    9.6671    6.7486 N   0  0  0  0  0  0  0  0  0  0  0  0
   11.5733   10.8466    6.2017 C   0  0  0  0  0  0  0  0  0  0  0  0
   11.3615   12.0433    6.8501 C   0  0  0  0  0  0  0  0  0  0  0  0
   11.5264   12.1176    8.2475 C   0  0  0  0  0  0  0  0  0  0  0  0
   11.3889   13.0715    9.0012 O   0  0  0  0  0  0  0  0  0  0  0  0
   11.0131   12.9863    5.9280 N   0  0  0  0  0  0  0  0  0  0  0  0
   11.0112   12.3668    4.7290 C   0  0  0  0  0  0  0  0  0  0  0  0
   11.3510   11.0454    4.8666 N   0  0  0  0  0  0  0  0  0  0  0  0
  1  2  1  0  0  0  0
  1  6  1  0  0  0  0
  2  3  2  0  0  0  0
  3  4  1  0  0  0  0
  4  5  2  0  0  0  0
  4 10  1  0  0  0  0
  5  6  1  0  0  0  0
  5  8  1  0  0  0  0
  6  7  2  0  0  0  0
  8  9  1  0  0  0  0
  9 10  2  0  0  0  0
M  END
>  <CHROM.1>
11.51324791,11.50254864,6.98388146,-1.01400811,1.30032274,-2.05531794

>  <Name>
ligand

>  <RI>
0

>  <Rbt.Current_Directory>
/home/itssahil/PROJECTS/Mol_Feturizer/New_Systems/rnas/4FEJ

>  <Rbt.Executable>
rbdock ($Id: //depot/dev/client3/rdock/2013.1/src/exe/rbdock.cxx#4 $)

>  <Rbt.Library>
libRbt.so (2013.1, Build901 2013/11/27)

>  <Rbt.Parameter_File>
/export/apps/rDock/src/rDock_2013.1_src/data/scripts/dock_solv.prm

>  <Rbt.Receptor>
prm/pocket_docking_7.prm

>  <SCORE>
-17.4812

>  <SCORE.INTER>
-17.4812

>  <SCORE.INTER.CONST>
1

>  <SCORE.INTER.POLAR>
0

>  <SCORE.INTER.ROT>
0

>  <SCORE.INTER.SOLV>
3.90797

>  <SCORE.INTER.VDW>
-16.5568

>  <SCORE.INTER.norm>
-1.74812

>  <SCORE.INTRA>
0

>  <SCORE.INTRA.DIHEDRAL>
0

>  <SCORE.INTRA.DIHEDRAL.0>
0

>  <SCORE.INTRA.POLAR>
0

>  <SCORE.INTRA.POLAR.0>
0

>  <SCORE.INTRA.REPUL>
0

>  <SCORE.INTRA.REPUL.0>
0

>  <SCORE.INTRA.SOLV>
0

>  <SCORE.INTRA.SOLV.lig_0>
-4.26631

>  <SCORE.INTRA.VDW>
0

>  <SCORE.INTRA.VDW.0>
0

>  <SCORE.INTRA.norm>
0

>  <SCORE.RESTR>
0

>  <SCORE.RESTR.CAVITY>
0

>  <SCORE.RESTR.norm>
0

>  <SCORE.SYSTEM>
0

>  <SCORE.SYSTEM.CONST>
0

>  <SCORE.SYSTEM.DIHEDRAL>
0

>  <SCORE.SYSTEM.SOLV>
0

>  <SCORE.SYSTEM.norm>
0

>  <SCORE.heavy>
10

>  <SCORE.norm>
-1.74812

>  <RMSD>
2.409

$$$$
ligand
 OpenBabel11021811493D
libRbt.so/2013.1/901 2013/11/27
 10 11  0  0  0  0  0  0  0  0999 V2000
   11.8537   10.8614    8.7858 N   0  0  0  0  0  0  0  0  0  0  0  0
   11.9999    9.6895    8.0873 C   0  0  0  0  0  0  0  0  0  0  0  0
   11.8380    9.6418    6.7552 N   0  0  0  0  0  0  0  0  0  0  0  0
   11.5279   10.8339    6.2048 C   0  0  0  0  0  0  0  0  0  0  0  0
   11.3670   12.0405    6.8496 C   0  0  0  0  0  0  0  0  0  0  0  0
   11.5350   12.1118    8.2469 C   0  0  0  0  0  0  0  0  0  0  0  0
   11.4381   13.0729    8.9977 O   0  0  0  0  0  0  0  0  0  0  0  0
   11.0587   12.9947    5.9248 N   0  0  0  0  0  0  0  0  0  0  0  0
   11.0305   12.3723    4.7276 C   0  0  0  0  0  0  0  0  0  0  0  0
   11.3141   11.0380    4.8691 N   0  0  0  0  0  0  0  0  0  0  0  0
  1  2  1  0  0  0  0
  1  6  1  0  0  0  0
  2  3  2  0  0  0  0
  3  4  1  0  0  0  0
  4  5  2  0  0  0  0
  4 10  1  0  0  0  0
  5  6  1  0  0  0  0
  5  8  1  0  0  0  0
  6  7  2  0  0  0  0
  8  9  1  0  0  0  0
  9 10  2  0  0  0  0
M  END
>  <CHROM.1>
11.49572630,11.49416506,6.98505096,-0.92845565,1.33694033,-2.14113915

>  <Name>
ligand

>  <RI>
0

>  <Rbt.Current_Directory>
/home/itssahil/PROJECTS/Mol_Feturizer/New_Systems/rnas/4FEJ

>  <Rbt.Executable>
rbdock ($Id: //depot/dev/client3/rdock/2013.1/src/exe/rbdock.cxx#4 $)

>  <Rbt.Library>
libRbt.so (2013.1, Build901 2013/11/27)

>  <Rbt.Parameter_File>
/export/apps/rDock/src/rDock_2013.1_src/data/scripts/dock_solv.prm

>  <Rbt.Receptor>
prm/pocket_docking_7.prm

>  <SCORE>
-17.4158

>  <SCORE.INTER>
-17.4158

>  <SCORE.INTER.CONST>
1

>  <SCORE.INTER.POLAR>
0

>  <SCORE.INTER.ROT>
0

>  <SCORE.INTER.SOLV>
3.97002

>  <SCORE.INTER.VDW>
-16.5339

>  <SCORE.INTER.norm>
-1.74158

>  <SCORE.INTRA>
0

>  <SCORE.INTRA.DIHEDRAL>
0

>  <SCORE.INTRA.DIHEDRAL.0>
0

>  <SCORE.INTRA.POLAR>
0

>  <SCORE.INTRA.POLAR.0>
0

>  <SCORE.INTRA.REPUL>
0

>  <SCORE.INTRA.REPUL.0>
0

>  <SCORE.INTRA.SOLV>
0

>  <SCORE.INTRA.SOLV.lig_0>
-4.26631

>  <SCORE.INTRA.VDW>
0

>  <SCORE.INTRA.VDW.0>
0

>  <SCORE.INTRA.norm>
0

>  <SCORE.RESTR>
0

>  <SCORE.RESTR.CAVITY>
0

>  <SCORE.RESTR.norm>
0

>  <SCORE.SYSTEM>
0

>  <SCORE.SYSTEM.CONST>
0

>  <SCORE.SYSTEM.DIHEDRAL>
0

>  <SCORE.SYSTEM.SOLV>
0

>  <SCORE.SYSTEM.norm>
0

>  <SCORE.heavy>
10

>  <SCORE.norm>
-1.74158

>  <RMSD>
2.409

$$$$
ligand
 OpenBabel11021811493D
libRbt.so/2013.1/901 2013/11/27
 10 11  0  0  0  0  0  0  0  0999 V2000
   11.8492   10.8679    8.7777 N   0  0  0  0  0  0  0  0  0  0  0  0
   11.9864    9.6940    8.0809 C   0  0  0  0  0  0  0  0  0  0  0  0
   11.8193    9.6447    6.7495 N   0  0  0  0  0  0  0  0  0  0  0  0
   11.5139   10.8375    6.1980 C   0  0  0  0  0  0  0  0  0  0  0  0
   11.3621   12.0461    6.8411 C   0  0  0  0  0  0  0  0  0  0  0  0
   11.5355   12.1191    8.2376 C   0  0  0  0  0  0  0  0  0  0  0  0
   11.4467   13.0821    8.9869 O   0  0  0  0  0  0  0  0  0  0  0  0
   11.0558   13.0003    5.9156 N   0  0  0  0  0  0  0  0  0  0  0  0
   11.0198   12.3758    4.7196 C   0  0  0  0  0  0  0  0  0  0  0  0
   11.2964   11.0403    4.8626 N   0  0  0  0  0  0  0  0  0  0  0  0
  1  2  1  0  0  0  0
  1  6  1  0  0  0  0
  2  3  2  0  0  0  0
  3  4  1  0  0  0  0
  4  5  2  0  0  0  0
  4 10  1  0  0  0  0
  5  6  1  0  0  0  0
  5  8  1  0  0  0  0
  6  7  2  0  0  0  0
  8  9  1  0  0  0  0
  9 10  2  0  0  0  0
M  END
>  <CHROM.1>
11.48826368,11.49933904,6.97705203,-0.90198811,1.33961098,-2.16876730

>  <Name>
ligand

>  <RI>
0

>  <Rbt.Current_Directory>
/home/itssahil/PROJECTS/Mol_Feturizer/New_Systems/rnas/4FEJ

>  <Rbt.Executable>
rbdock ($Id: //depot/dev/client3/rdock/2013.1/src/exe/rbdock.cxx#4 $)

>  <Rbt.Library>
libRbt.so (2013.1, Build901 2013/11/27)

>  <Rbt.Parameter_File>
/export/apps/rDock/src/rDock_2013.1_src/data/scripts/dock_solv.prm

>  <Rbt.Receptor>
prm/pocket_docking_8.prm

>  <SCORE>
-17.417

>  <SCORE.INTER>
-17.417

>  <SCORE.INTER.CONST>
1

>  <SCORE.INTER.POLAR>
0

>  <SCORE.INTER.ROT>
0

>  <SCORE.INTER.SOLV>
3.98292

>  <SCORE.INTER.VDW>
-16.539

>  <SCORE.INTER.norm>
-1.7417

>  <SCORE.INTRA>
0

>  <SCORE.INTRA.DIHEDRAL>
0

>  <SCORE.INTRA.DIHEDRAL.0>
0

>  <SCORE.INTRA.POLAR>
0

>  <SCORE.INTRA.POLAR.0>
0

>  <SCORE.INTRA.REPUL>
0

>  <SCORE.INTRA.REPUL.0>
0

>  <SCORE.INTRA.SOLV>
0

>  <SCORE.INTRA.SOLV.lig_0>
-4.26631

>  <SCORE.INTRA.VDW>
0

>  <SCORE.INTRA.VDW.0>
0

>  <SCORE.INTRA.norm>
0

>  <SCORE.RESTR>
0

>  <SCORE.RESTR.CAVITY>
0

>  <SCORE.RESTR.norm>
0

>  <SCORE.SYSTEM>
0

>  <SCORE.SYSTEM.CONST>
0

>  <SCORE.SYSTEM.DIHEDRAL>
0

>  <SCORE.SYSTEM.SOLV>
0

>  <SCORE.SYSTEM.norm>
0

>  <SCORE.heavy>
10

>  <SCORE.norm>
-1.7417

>  <RMSD>
2.409

$$$$
ligand
 OpenBabel11021811493D
libRbt.so/2013.1/901 2013/11/27
 10 11  0  0  0  0  0  0  0  0999 V2000
   11.8893   10.8686    8.7707 N   0  0  0  0  0  0  0  0  0  0  0  0
   12.0735    9.7068    8.0645 C   0  0  0  0  0  0  0  0  0  0  0  0
   11.9086    9.6617    6.7326 N   0  0  0  0  0  0  0  0  0  0  0  0
   11.5556   10.8457    6.1907 C   0  0  0  0  0  0  0  0  0  0  0  0
   11.3555   12.0420    6.8435 C   0  0  0  0  0  0  0  0  0  0  0  0
   11.5258   12.1106    8.2406 C   0  0  0  0  0  0  0  0  0  0  0  0
   11.3985   13.0631    8.9977 O   0  0  0  0  0  0  0  0  0  0  0  0
   11.0112   12.9907    5.9257 N   0  0  0  0  0  0  0  0  0  0  0  0
   11.0003   12.3750    4.7247 C   0  0  0  0  0  0  0  0  0  0  0  0
   11.3302   11.0504    4.8570 N   0  0  0  0  0  0  0  0  0  0  0  0
  1  2  1  0  0  0  0
  1  6  1  0  0  0  0
  2  3  2  0  0  0  0
  3  4  1  0  0  0  0
  4  5  2  0  0  0  0
  4 10  1  0  0  0  0
  5  6  1  0  0  0  0
  5  8  1  0  0  0  0
  6  7  2  0  0  0  0
  8  9  1  0  0  0  0
  9 10  2  0  0  0  0
M  END
>  <CHROM.1>
11.50346056,11.49965191,6.97512130,-0.98824059,1.30555306,-2.07702225

>  <Name>
ligand

>  <RI>
0

>  <Rbt.Current_Directory>
/home/itssahil/PROJECTS/Mol_Feturizer/New_Systems/rnas/4FEJ

>  <Rbt.Executable>
rbdock ($Id: //depot/dev/client3/rdock/2013.1/src/exe/rbdock.cxx#4 $)

>  <Rbt.Library>
libRbt.so (2013.1, Build901 2013/11/27)

>  <Rbt.Parameter_File>
/export/apps/rDock/src/rDock_2013.1_src/data/scripts/dock_solv.prm

>  <Rbt.Receptor>
prm/pocket_docking_8.prm

>  <SCORE>
-17.4771

>  <SCORE.INTER>
-17.4771

>  <SCORE.INTER.CONST>
1

>  <SCORE.INTER.POLAR>
0

>  <SCORE.INTER.ROT>
0

>  <SCORE.INTER.SOLV>
3.90657

>  <SCORE.INTER.VDW>
-16.5536

>  <SCORE.INTER.norm>
-1.74771

>  <SCORE.INTRA>
0

>  <SCORE.INTRA.DIHEDRAL>
0

>  <SCORE.INTRA.DIHEDRAL.0>
0

>  <SCORE.INTRA.POLAR>
0

>  <SCORE.INTRA.POLAR.0>
0

>  <SCORE.INTRA.REPUL>
0

>  <SCORE.INTRA.REPUL.0>
0

>  <SCORE.INTRA.SOLV>
0

>  <SCORE.INTRA.SOLV.lig_0>
-4.26631

>  <SCORE.INTRA.VDW>
0

>  <SCORE.INTRA.VDW.0>
0

>  <SCORE.INTRA.norm>
0

>  <SCORE.RESTR>
0

>  <SCORE.RESTR.CAVITY>
0

>  <SCORE.RESTR.norm>
0

>  <SCORE.SYSTEM>
0

>  <SCORE.SYSTEM.CONST>
0

>  <SCORE.SYSTEM.DIHEDRAL>
0

>  <SCORE.SYSTEM.SOLV>
0

>  <SCORE.SYSTEM.norm>
0

>  <SCORE.heavy>
10

>  <SCORE.norm>
-1.74771

>  <RMSD>
2.409

$$$$
ligand
 OpenBabel11021811493D
libRbt.so/2013.1/901 2013/11/27
 10 11  0  0  0  0  0  0  0  0999 V2000
   11.8527   10.9085    8.8374 N   0  0  0  0  0  0  0  0  0  0  0  0
   11.9999    9.7199    8.1680 C   0  0  0  0  0  0  0  0  0  0  0  0
   11.8370    9.6391    6.8376 N   0  0  0  0  0  0  0  0  0  0  0  0
   11.5250   10.8169    6.2582 C   0  0  0  0  0  0  0  0  0  0  0  0
   11.3631   12.0388    6.8731 C   0  0  0  0  0  0  0  0  0  0  0  0
   11.5321   12.1449    8.2680 C   0  0  0  0  0  0  0  0  0  0  0  0
   11.4345   13.1241    8.9949 O   0  0  0  0  0  0  0  0  0  0  0  0
   11.0530   12.9695    5.9252 N   0  0  0  0  0  0  0  0  0  0  0  0
   11.0246   12.3176    4.7437 C   0  0  0  0  0  0  0  0  0  0  0  0
   11.3100   10.9876    4.9180 N   0  0  0  0  0  0  0  0  0  0  0  0
  1  2  1  0  0  0  0
  1  6  1  0  0  0  0
  2  3  2  0  0  0  0
  3  4  1  0  0  0  0
  4  5  2  0  0  0  0
  4 10  1  0  0  0  0
  5  6  1  0  0  0  0
  5  8  1  0  0  0  0
  6  7  2  0  0  0  0
  8  9  1  0  0  0  0
  9 10  2  0  0  0  0
M  END
>  <CHROM.1>
11.49261852,11.49615119,7.02185175,-0.92857763,1.33549697,-2.16575153

>  <Name>
ligand

>  <RI>
0

>  <Rbt.Current_Directory>
/home/itssahil/PROJECTS/Mol_Feturizer/New_Systems/rnas/4FEJ

>  <Rbt.Executable>
rbdock ($Id: //depot/dev/client3/rdock/2013.1/src/exe/rbdock.cxx#4 $)

>  <Rbt.Library>
libRbt.so (2013.1, Build901 2013/11/27)

>  <Rbt.Parameter_File>
/export/apps/rDock/src/rDock_2013.1_src/data/scripts/dock_solv.prm

>  <Rbt.Receptor>
prm/pocket_docking_8.prm

>  <SCORE>
-17.4085

>  <SCORE.INTER>
-17.4085

>  <SCORE.INTER.CONST>
1

>  <SCORE.INTER.POLAR>
0

>  <SCORE.INTER.ROT>
0

>  <SCORE.INTER.SOLV>
4.02131

>  <SCORE.INTER.VDW>
-16.5461

>  <SCORE.INTER.norm>
-1.74085

>  <SCORE.INTRA>
0

>  <SCORE.INTRA.DIHEDRAL>
0

>  <SCORE.INTRA.DIHEDRAL.0>
0

>  <SCORE.INTRA.POLAR>
0

>  <SCORE.INTRA.POLAR.0>
0

>  <SCORE.INTRA.REPUL>
0

>  <SCORE.INTRA.REPUL.0>
0

>  <SCORE.INTRA.SOLV>
0

>  <SCORE.INTRA.SOLV.lig_0>
-4.26631

>  <SCORE.INTRA.VDW>
0

>  <SCORE.INTRA.VDW.0>
0

>  <SCORE.INTRA.norm>
0

>  <SCORE.RESTR>
0

>  <SCORE.RESTR.CAVITY>
0

>  <SCORE.RESTR.norm>
0

>  <SCORE.SYSTEM>
0

>  <SCORE.SYSTEM.CONST>
0

>  <SCORE.SYSTEM.DIHEDRAL>
0

>  <SCORE.SYSTEM.SOLV>
0

>  <SCORE.SYSTEM.norm>
0

>  <SCORE.heavy>
10

>  <SCORE.norm>
-1.74085

>  <RMSD>
2.409

$$$$
ligand
 OpenBabel11021811493D
libRbt.so/2013.1/901 2013/11/27
 10 11  0  0  0  0  0  0  0  0999 V2000
   11.8719   10.8764    8.7712 N   0  0  0  0  0  0  0  0  0  0  0  0
   12.0528    9.7210    8.0538 C   0  0  0  0  0  0  0  0  0  0  0  0
   11.8974    9.6916    6.7203 N   0  0  0  0  0  0  0  0  0  0  0  0
   11.5571   10.8840    6.1888 C   0  0  0  0  0  0  0  0  0  0  0  0
   11.3608   12.0746    6.8532 C   0  0  0  0  0  0  0  0  0  0  0  0
   11.5213   12.1267    8.2521 C   0  0  0  0  0  0  0  0  0  0  0  0
   11.3953   13.0719    9.0186 O   0  0  0  0  0  0  0  0  0  0  0  0
   11.0302   13.0356    5.9433 N   0  0  0  0  0  0  0  0  0  0  0  0
   11.0236   12.4331    4.7356 C   0  0  0  0  0  0  0  0  0  0  0  0
   11.3430   11.1049    4.8558 N   0  0  0  0  0  0  0  0  0  0  0  0
  1  2  1  0  0  0  0
  1  6  1  0  0  0  0
  2  3  2  0  0  0  0
  3  4  1  0  0  0  0
  4  5  2  0  0  0  0
  4 10  1  0  0  0  0
  5  6  1  0  0  0  0
  5  8  1  0  0  0  0
  6  7  2  0  0  0  0
  8  9  1  0  0  0  0
  9 10  2  0  0  0  0
M  END
>  <CHROM.1>
11.50384052,11.52975425,6.97990310,-0.99982646,1.31543370,-2.05494336

>  <Name>
ligand

>  <RI>
0

>  <Rbt.Current_Directory>
/home/itssahil/PROJECTS/Mol_Feturizer/New_Systems/rnas/4FEJ

>  <Rbt.Executable>
rbdock ($Id: //depot/dev/client3/rdock/2013.1/src/exe/rbdock.cxx#4 $)

>  <Rbt.Library>
libRbt.so (2013.1, Build901 2013/11/27)

>  <Rbt.Parameter_File>
/export/apps/rDock/src/rDock_2013.1_src/data/scripts/dock_solv.prm

>  <Rbt.Receptor>
prm/pocket_docking_8.prm

>  <SCORE>
-17.5309

>  <SCORE.INTER>
-17.5309

>  <SCORE.INTER.CONST>
1

>  <SCORE.INTER.POLAR>
0

>  <SCORE.INTER.ROT>
0

>  <SCORE.INTER.SOLV>
3.92191

>  <SCORE.INTER.VDW>
-16.5946

>  <SCORE.INTER.norm>
-1.75309

>  <SCORE.INTRA>
0

>  <SCORE.INTRA.DIHEDRAL>
0

>  <SCORE.INTRA.DIHEDRAL.0>
0

>  <SCORE.INTRA.POLAR>
0

>  <SCORE.INTRA.POLAR.0>
0

>  <SCORE.INTRA.REPUL>
0

>  <SCORE.INTRA.REPUL.0>
0

>  <SCORE.INTRA.SOLV>
0

>  <SCORE.INTRA.SOLV.lig_0>
-4.26631

>  <SCORE.INTRA.VDW>
0

>  <SCORE.INTRA.VDW.0>
0

>  <SCORE.INTRA.norm>
0

>  <SCORE.RESTR>
0

>  <SCORE.RESTR.CAVITY>
0

>  <SCORE.RESTR.norm>
0

>  <SCORE.SYSTEM>
0

>  <SCORE.SYSTEM.CONST>
0

>  <SCORE.SYSTEM.DIHEDRAL>
0

>  <SCORE.SYSTEM.SOLV>
0

>  <SCORE.SYSTEM.norm>
0

>  <SCORE.heavy>
10

>  <SCORE.norm>
-1.75309

>  <RMSD>
2.409

$$$$
ligand
 OpenBabel11021811493D
libRbt.so/2013.1/901 2013/11/27
 10 11  0  0  0  0  0  0  0  0999 V2000
   11.8862   10.8912    8.7883 N   0  0  0  0  0  0  0  0  0  0  0  0
   12.0566    9.7187    8.0965 C   0  0  0  0  0  0  0  0  0  0  0  0
   11.8826    9.6570    6.7665 N   0  0  0  0  0  0  0  0  0  0  0  0
   11.5352   10.8365    6.2111 C   0  0  0  0  0  0  0  0  0  0  0  0
   11.3487   12.0429    6.8491 C   0  0  0  0  0  0  0  0  0  0  0  0
   11.5288   12.1288    8.2440 C   0  0  0  0  0  0  0  0  0  0  0  0
   11.4139   13.0924    8.9890 O   0  0  0  0  0  0  0  0  0  0  0  0
   11.0058   12.9819    5.9209 N   0  0  0  0  0  0  0  0  0  0  0  0
   10.9821   12.3503    4.7283 C   0  0  0  0  0  0  0  0  0  0  0  0
   11.3026   11.0251    4.8762 N   0  0  0  0  0  0  0  0  0  0  0  0
  1  2  1  0  0  0  0
  1  6  1  0  0  0  0
  2  3  2  0  0  0  0
  3  4  1  0  0  0  0
  4  5  2  0  0  0  0
  4 10  1  0  0  0  0
  5  6  1  0  0  0  0
  5  8  1  0  0  0  0
  6  7  2  0  0  0  0
  8  9  1  0  0  0  0
  9 10  2  0  0  0  0
M  END
>  <CHROM.1>
11.49334002,11.50123363,6.98696551,-0.95133509,1.30895728,-2.12605103

>  <Name>
ligand

>  <RI>
0

>  <Rbt.Current_Directory>
/home/itssahil/PROJECTS/Mol_Feturizer/New_Systems/rnas/4FEJ

>  <Rbt.Executable>
rbdock ($Id: //depot/dev/client3/rdock/2013.1/src/exe/rbdock.cxx#4 $)

>  <Rbt.Library>
libRbt.so (2013.1, Build901 2013/11/27)

>  <Rbt.Parameter_File>
/export/apps/rDock/src/rDock_2013.1_src/data/scripts/dock_solv.prm

>  <Rbt.Receptor>
prm/pocket_docking_8.prm

>  <SCORE>
-17.4646

>  <SCORE.INTER>
-17.4646

>  <SCORE.INTER.CONST>
1

>  <SCORE.INTER.POLAR>
0

>  <SCORE.INTER.ROT>
0

>  <SCORE.INTER.SOLV>
3.94365

>  <SCORE.INTER.VDW>
-16.5576

>  <SCORE.INTER.norm>
-1.74646

>  <SCORE.INTRA>
0

>  <SCORE.INTRA.DIHEDRAL>
0

>  <SCORE.INTRA.DIHEDRAL.0>
0

>  <SCORE.INTRA.POLAR>
0

>  <SCORE.INTRA.POLAR.0>
0

>  <SCORE.INTRA.REPUL>
0

>  <SCORE.INTRA.REPUL.0>
0

>  <SCORE.INTRA.SOLV>
0

>  <SCORE.INTRA.SOLV.lig_0>
-4.26631

>  <SCORE.INTRA.VDW>
0

>  <SCORE.INTRA.VDW.0>
0

>  <SCORE.INTRA.norm>
0

>  <SCORE.RESTR>
0

>  <SCORE.RESTR.CAVITY>
0

>  <SCORE.RESTR.norm>
0

>  <SCORE.SYSTEM>
0

>  <SCORE.SYSTEM.CONST>
0

>  <SCORE.SYSTEM.DIHEDRAL>
0

>  <SCORE.SYSTEM.SOLV>
0

>  <SCORE.SYSTEM.norm>
0

>  <SCORE.heavy>
10

>  <SCORE.norm>
-1.74646

>  <RMSD>
2.409

$$$$
ligand
 OpenBabel11021811493D
libRbt.so/2013.1/901 2013/11/27
 10 11  0  0  0  0  0  0  0  0999 V2000
   11.8664   10.8570    8.7770 N   0  0  0  0  0  0  0  0  0  0  0  0
   12.0459    9.7014    8.0595 C   0  0  0  0  0  0  0  0  0  0  0  0
   11.8978    9.6739    6.7252 N   0  0  0  0  0  0  0  0  0  0  0  0
   11.5660   10.8683    6.1929 C   0  0  0  0  0  0  0  0  0  0  0  0
   11.3716   12.0592    6.8572 C   0  0  0  0  0  0  0  0  0  0  0  0
   11.5246   12.1094    8.2571 C   0  0  0  0  0  0  0  0  0  0  0  0
   11.3987   13.0544    9.0237 O   0  0  0  0  0  0  0  0  0  0  0  0
   11.0506   13.0226    5.9463 N   0  0  0  0  0  0  0  0  0  0  0  0
   11.0480   12.4212    4.7381 C   0  0  0  0  0  0  0  0  0  0  0  0
   11.3604   11.0914    4.8589 N   0  0  0  0  0  0  0  0  0  0  0  0
  1  2  1  0  0  0  0
  1  6  1  0  0  0  0
  2  3  2  0  0  0  0
  3  4  1  0  0  0  0
  4  5  2  0  0  0  0
  4 10  1  0  0  0  0
  5  6  1  0  0  0  0
  5  8  1  0  0  0  0
  6  7  2  0  0  0  0
  8  9  1  0  0  0  0
  9 10  2  0  0  0  0
M  END
>  <CHROM.1>
11.51139818,11.51361875,6.98423608,-1.01105826,1.32218633,-2.04316681

>  <Name>
ligand

>  <RI>
0

>  <Rbt.Current_Directory>
/home/itssahil/PROJECTS/Mol_Feturizer/New_Systems/rnas/4FEJ

>  <Rbt.Executable>
rbdock ($Id: //depot/dev/client3/rdock/2013.1/src/exe/rbdock.cxx#4 $)

>  <Rbt.Library>
libRbt.so (2013.1, Build901 2013/11/27)

>  <Rbt.Parameter_File>
/export/apps/rDock/src/rDock_2013.1_src/data/scripts/dock_solv.prm

>  <Rbt.Receptor>
prm/pocket_docking_8.prm

>  <SCORE>
-17.4667

>  <SCORE.INTER>
-17.4667

>  <SCORE.INTER.CONST>
1

>  <SCORE.INTER.POLAR>
0

>  <SCORE.INTER.ROT>
0

>  <SCORE.INTER.SOLV>
3.92098

>  <SCORE.INTER.VDW>
-16.5514

>  <SCORE.INTER.norm>
-1.74667

>  <SCORE.INTRA>
0

>  <SCORE.INTRA.DIHEDRAL>
0

>  <SCORE.INTRA.DIHEDRAL.0>
0

>  <SCORE.INTRA.POLAR>
0

>  <SCORE.INTRA.POLAR.0>
0

>  <SCORE.INTRA.REPUL>
0

>  <SCORE.INTRA.REPUL.0>
0

>  <SCORE.INTRA.SOLV>
0

>  <SCORE.INTRA.SOLV.lig_0>
-4.26631

>  <SCORE.INTRA.VDW>
0

>  <SCORE.INTRA.VDW.0>
0

>  <SCORE.INTRA.norm>
0

>  <SCORE.RESTR>
0

>  <SCORE.RESTR.CAVITY>
0

>  <SCORE.RESTR.norm>
0

>  <SCORE.SYSTEM>
0

>  <SCORE.SYSTEM.CONST>
0

>  <SCORE.SYSTEM.DIHEDRAL>
0

>  <SCORE.SYSTEM.SOLV>
0

>  <SCORE.SYSTEM.norm>
0

>  <SCORE.heavy>
10

>  <SCORE.norm>
-1.74667

>  <RMSD>
2.409

$$$$
ligand
 OpenBabel11021811493D
libRbt.so/2013.1/901 2013/11/27
 10 11  0  0  0  0  0  0  0  0999 V2000
   11.8396   10.8723    8.7846 N   0  0  0  0  0  0  0  0  0  0  0  0
   11.9966    9.6998    8.0896 C   0  0  0  0  0  0  0  0  0  0  0  0
   11.8395    9.6476    6.7571 N   0  0  0  0  0  0  0  0  0  0  0  0
   11.5227   10.8361    6.2027 C   0  0  0  0  0  0  0  0  0  0  0  0
   11.3510   12.0430    6.8439 C   0  0  0  0  0  0  0  0  0  0  0  0
   11.5138   12.1191    8.2415 C   0  0  0  0  0  0  0  0  0  0  0  0
   11.4075   13.0813    8.9895 O   0  0  0  0  0  0  0  0  0  0  0  0
   11.0390   12.9927    5.9156 N   0  0  0  0  0  0  0  0  0  0  0  0
   11.0193   12.3670    4.7199 C   0  0  0  0  0  0  0  0  0  0  0  0
   11.3119   11.0352    4.8657 N   0  0  0  0  0  0  0  0  0  0  0  0
  1  2  1  0  0  0  0
  1  6  1  0  0  0  0
  2  3  2  0  0  0  0
  3  4  1  0  0  0  0
  4  5  2  0  0  0  0
  4 10  1  0  0  0  0
  5  6  1  0  0  0  0
  5  8  1  0  0  0  0
  6  7  2  0  0  0  0
  8  9  1  0  0  0  0
  9 10  2  0  0  0  0
M  END
>  <CHROM.1>
11.48319090,11.49799588,6.98109270,-0.95682896,1.33262907,-2.11608140

>  <Name>
ligand

>  <RI>
0

>  <Rbt.Current_Directory>
/home/itssahil/PROJECTS/Mol_Feturizer/New_Systems/rnas/4FEJ

>  <Rbt.Executable>
rbdock ($Id: //depot/dev/client3/rdock/2013.1/src/exe/rbdock.cxx#4 $)

>  <Rbt.Library>
libRbt.so (2013.1, Build901 2013/11/27)

>  <Rbt.Parameter_File>
/export/apps/rDock/src/rDock_2013.1_src/data/scripts/dock_solv.prm

>  <Rbt.Receptor>
prm/blind_docking_100.prm

>  <SCORE>
-17.4175

>  <SCORE.INTER>
-17.4175

>  <SCORE.INTER.CONST>
1

>  <SCORE.INTER.POLAR>
0

>  <SCORE.INTER.ROT>
0

>  <SCORE.INTER.SOLV>
3.96796

>  <SCORE.INTER.VDW>
-16.5343

>  <SCORE.INTER.norm>
-1.74175

>  <SCORE.INTRA>
0

>  <SCORE.INTRA.DIHEDRAL>
0

>  <SCORE.INTRA.DIHEDRAL.0>
0

>  <SCORE.INTRA.POLAR>
0

>  <SCORE.INTRA.POLAR.0>
0

>  <SCORE.INTRA.REPUL>
0

>  <SCORE.INTRA.REPUL.0>
0

>  <SCORE.INTRA.SOLV>
0

>  <SCORE.INTRA.SOLV.lig_0>
-4.26631

>  <SCORE.INTRA.VDW>
0

>  <SCORE.INTRA.VDW.0>
0

>  <SCORE.INTRA.norm>
0

>  <SCORE.RESTR>
0

>  <SCORE.RESTR.CAVITY>
0

>  <SCORE.RESTR.norm>
0

>  <SCORE.SYSTEM>
0

>  <SCORE.SYSTEM.CONST>
0

>  <SCORE.SYSTEM.DIHEDRAL>
0

>  <SCORE.SYSTEM.SOLV>
0

>  <SCORE.SYSTEM.norm>
0

>  <SCORE.heavy>
10

>  <SCORE.norm>
-1.74175

>  <RMSD>
2.410

$$$$
ligand
 OpenBabel11021811493D
libRbt.so/2013.1/901 2013/11/27
 10 11  0  0  0  0  0  0  0  0999 V2000
   11.8459   10.8456    8.7553 N   0  0  0  0  0  0  0  0  0  0  0  0
   12.0024    9.6861    8.0389 C   0  0  0  0  0  0  0  0  0  0  0  0
   11.8435    9.6582    6.7058 N   0  0  0  0  0  0  0  0  0  0  0  0
   11.5256   10.8564    6.1736 C   0  0  0  0  0  0  0  0  0  0  0  0
   11.3543   12.0514    6.8369 C   0  0  0  0  0  0  0  0  0  0  0  0
   11.5189   12.1020    8.2355 C   0  0  0  0  0  0  0  0  0  0  0  0
   11.4131   13.0504    9.0011 O   0  0  0  0  0  0  0  0  0  0  0  0
   11.0407   13.0177    5.9265 N   0  0  0  0  0  0  0  0  0  0  0  0
   11.0197   12.4140    4.7196 C   0  0  0  0  0  0  0  0  0  0  0  0
   11.3130   11.0799    4.8407 N   0  0  0  0  0  0  0  0  0  0  0  0
  1  2  1  0  0  0  0
  1  6  1  0  0  0  0
  2  3  2  0  0  0  0
  3  4  1  0  0  0  0
  4  5  2  0  0  0  0
  4 10  1  0  0  0  0
  5  6  1  0  0  0  0
  5  8  1  0  0  0  0
  6  7  2  0  0  0  0
  8  9  1  0  0  0  0
  9 10  2  0  0  0  0
M  END
>  <CHROM.1>
11.48685469,11.50402799,6.96399743,-0.95297566,1.33162907,-2.10155954

>  <Name>
ligand

>  <RI>
0

>  <Rbt.Current_Directory>
/home/itssahil/PROJECTS/Mol_Feturizer/New_Systems/rnas/4FEJ

>  <Rbt.Executable>
rbdock ($Id: //depot/dev/client3/rdock/2013.1/src/exe/rbdock.cxx#4 $)

>  <Rbt.Library>
libRbt.so (2013.1, Build901 2013/11/27)

>  <Rbt.Parameter_File>
/export/apps/rDock/src/rDock_2013.1_src/data/scripts/dock_solv.prm

>  <Rbt.Receptor>
prm/blind_docking_100.prm

>  <SCORE>
-17.4368

>  <SCORE.INTER>
-17.4368

>  <SCORE.INTER.CONST>
1

>  <SCORE.INTER.POLAR>
0

>  <SCORE.INTER.ROT>
0

>  <SCORE.INTER.SOLV>
3.93238

>  <SCORE.INTER.VDW>
-16.5353

>  <SCORE.INTER.norm>
-1.74368

>  <SCORE.INTRA>
0

>  <SCORE.INTRA.DIHEDRAL>
0

>  <SCORE.INTRA.DIHEDRAL.0>
0

>  <SCORE.INTRA.POLAR>
0

>  <SCORE.INTRA.POLAR.0>
0

>  <SCORE.INTRA.REPUL>
0

>  <SCORE.INTRA.REPUL.0>
0

>  <SCORE.INTRA.SOLV>
0

>  <SCORE.INTRA.SOLV.lig_0>
-4.26631

>  <SCORE.INTRA.VDW>
0

>  <SCORE.INTRA.VDW.0>
0

>  <SCORE.INTRA.norm>
0

>  <SCORE.RESTR>
0

>  <SCORE.RESTR.CAVITY>
0

>  <SCORE.RESTR.norm>
0

>  <SCORE.SYSTEM>
0

>  <SCORE.SYSTEM.CONST>
0

>  <SCORE.SYSTEM.DIHEDRAL>
0

>  <SCORE.SYSTEM.SOLV>
0

>  <SCORE.SYSTEM.norm>
0

>  <SCORE.heavy>
10

>  <SCORE.norm>
-1.74368

>  <RMSD>
2.410

$$$$
ligand
 OpenBabel11021811493D
libRbt.so/2013.1/901 2013/11/27
 10 11  0  0  0  0  0  0  0  0999 V2000
   11.8494   10.8201    8.7868 N   0  0  0  0  0  0  0  0  0  0  0  0
   12.0393    9.6731    8.0582 C   0  0  0  0  0  0  0  0  0  0  0  0
   11.8975    9.6585    6.7230 N   0  0  0  0  0  0  0  0  0  0  0  0
   11.5608   10.8564    6.2015 C   0  0  0  0  0  0  0  0  0  0  0  0
   11.3561   12.0391    6.8772 C   0  0  0  0  0  0  0  0  0  0  0  0
   11.5023   12.0757    8.2783 C   0  0  0  0  0  0  0  0  0  0  0  0
   11.3671   13.0120    9.0540 O   0  0  0  0  0  0  0  0  0  0  0  0
   11.0333   13.0099    5.9749 N   0  0  0  0  0  0  0  0  0  0  0  0
   11.0399   12.4210    4.7605 C   0  0  0  0  0  0  0  0  0  0  0  0
   11.3599   11.0919    4.8690 N   0  0  0  0  0  0  0  0  0  0  0  0
  1  2  1  0  0  0  0
  1  6  1  0  0  0  0
  2  3  2  0  0  0  0
  3  4  1  0  0  0  0
  4  5  2  0  0  0  0
  4 10  1  0  0  0  0
  5  6  1  0  0  0  0
  5  8  1  0  0  0  0
  6  7  2  0  0  0  0
  8  9  1  0  0  0  0
  9 10  2  0  0  0  0
M  END
>  <CHROM.1>
11.49861483,11.49306874,6.99926471,-1.03859204,1.31869283,-2.00615195

>  <Name>
ligand

>  <RI>
0

>  <Rbt.Current_Directory>
/home/itssahil/PROJECTS/Mol_Feturizer/New_Systems/rnas/4FEJ

>  <Rbt.Executable>
rbdock ($Id: //depot/dev/client3/rdock/2013.1/src/exe/rbdock.cxx#4 $)

>  <Rbt.Library>
libRbt.so (2013.1, Build901 2013/11/27)

>  <Rbt.Parameter_File>
/export/apps/rDock/src/rDock_2013.1_src/data/scripts/dock_solv.prm

>  <Rbt.Receptor>
prm/blind_docking_100.prm

>  <SCORE>
-17.4556

>  <SCORE.INTER>
-17.4556

>  <SCORE.INTER.CONST>
1

>  <SCORE.INTER.POLAR>
0

>  <SCORE.INTER.ROT>
0

>  <SCORE.INTER.SOLV>
3.89246

>  <SCORE.INTER.VDW>
-16.5345

>  <SCORE.INTER.norm>
-1.74556

>  <SCORE.INTRA>
0

>  <SCORE.INTRA.DIHEDRAL>
0

>  <SCORE.INTRA.DIHEDRAL.0>
0

>  <SCORE.INTRA.POLAR>
0

>  <SCORE.INTRA.POLAR.0>
0

>  <SCORE.INTRA.REPUL>
0

>  <SCORE.INTRA.REPUL.0>
0

>  <SCORE.INTRA.SOLV>
0

>  <SCORE.INTRA.SOLV.lig_0>
-4.26631

>  <SCORE.INTRA.VDW>
0

>  <SCORE.INTRA.VDW.0>
0

>  <SCORE.INTRA.norm>
0

>  <SCORE.RESTR>
0

>  <SCORE.RESTR.CAVITY>
0

>  <SCORE.RESTR.norm>
0

>  <SCORE.SYSTEM>
0

>  <SCORE.SYSTEM.CONST>
0

>  <SCORE.SYSTEM.DIHEDRAL>
0

>  <SCORE.SYSTEM.SOLV>
0

>  <SCORE.SYSTEM.norm>
0

>  <SCORE.heavy>
10

>  <SCORE.norm>
-1.74556

>  <RMSD>
2.410

$$$$
ligand
 OpenBabel11021811493D
libRbt.so/2013.1/901 2013/11/27
 10 11  0  0  0  0  0  0  0  0999 V2000
   11.8586   10.8757    8.7831 N   0  0  0  0  0  0  0  0  0  0  0  0
   12.0564    9.7216    8.0679 C   0  0  0  0  0  0  0  0  0  0  0  0
   11.9145    9.6904    6.7330 N   0  0  0  0  0  0  0  0  0  0  0  0
   11.5693   10.8797    6.1977 C   0  0  0  0  0  0  0  0  0  0  0  0
   11.3563   12.0687    6.8595 C   0  0  0  0  0  0  0  0  0  0  0  0
   11.5025   12.1227    8.2600 C   0  0  0  0  0  0  0  0  0  0  0  0
   11.3608   13.0671    9.0248 O   0  0  0  0  0  0  0  0  0  0  0  0
   11.0266   13.0266    5.9460 N   0  0  0  0  0  0  0  0  0  0  0  0
   11.0371   12.4236    4.7385 C   0  0  0  0  0  0  0  0  0  0  0  0
   11.3665   11.0982    4.8625 N   0  0  0  0  0  0  0  0  0  0  0  0
  1  2  1  0  0  0  0
  1  6  1  0  0  0  0
  2  3  2  0  0  0  0
  3  4  1  0  0  0  0
  4  5  2  0  0  0  0
  4 10  1  0  0  0  0
  5  6  1  0  0  0  0
  5  8  1  0  0  0  0
  6  7  2  0  0  0  0
  8  9  1  0  0  0  0
  9 10  2  0  0  0  0
M  END
>  <CHROM.1>
11.50271964,11.52521086,6.98790368,-1.04966376,1.31221270,-2.00713291

>  <Name>
ligand

>  <RI>
0

>  <Rbt.Current_Directory>
/home/itssahil/PROJECTS/Mol_Feturizer/New_Systems/rnas/4FEJ

>  <Rbt.Executable>
rbdock ($Id: //depot/dev/client3/rdock/2013.1/src/exe/rbdock.cxx#4 $)

>  <Rbt.Library>
libRbt.so (2013.1, Build901 2013/11/27)

>  <Rbt.Parameter_File>
/export/apps/rDock/src/rDock_2013.1_src/data/scripts/dock_solv.prm

>  <Rbt.Receptor>
prm/blind_docking_100.prm

>  <SCORE>
-17.5347

>  <SCORE.INTER>
-17.5347

>  <SCORE.INTER.CONST>
1

>  <SCORE.INTER.POLAR>
0

>  <SCORE.INTER.ROT>
0

>  <SCORE.INTER.SOLV>
3.92407

>  <SCORE.INTER.VDW>
-16.5978

>  <SCORE.INTER.norm>
-1.75347

>  <SCORE.INTRA>
0

>  <SCORE.INTRA.DIHEDRAL>
0

>  <SCORE.INTRA.DIHEDRAL.0>
0

>  <SCORE.INTRA.POLAR>
0

>  <SCORE.INTRA.POLAR.0>
0

>  <SCORE.INTRA.REPUL>
0

>  <SCORE.INTRA.REPUL.0>
0

>  <SCORE.INTRA.SOLV>
0

>  <SCORE.INTRA.SOLV.lig_0>
-4.26631

>  <SCORE.INTRA.VDW>
0

>  <SCORE.INTRA.VDW.0>
0

>  <SCORE.INTRA.norm>
0

>  <SCORE.RESTR>
0

>  <SCORE.RESTR.CAVITY>
0

>  <SCORE.RESTR.norm>
0

>  <SCORE.SYSTEM>
0

>  <SCORE.SYSTEM.CONST>
0

>  <SCORE.SYSTEM.DIHEDRAL>
0

>  <SCORE.SYSTEM.SOLV>
0

>  <SCORE.SYSTEM.norm>
0

>  <SCORE.heavy>
10

>  <SCORE.norm>
-1.75347

>  <RMSD>
2.410

$$$$
ligand
 OpenBabel11021811493D
libRbt.so/2013.1/901 2013/11/27
 10 11  0  0  0  0  0  0  0  0999 V2000
   11.8640   10.8652    8.7572 N   0  0  0  0  0  0  0  0  0  0  0  0
   12.0225    9.7003    8.0500 C   0  0  0  0  0  0  0  0  0  0  0  0
   11.8594    9.6606    6.7177 N   0  0  0  0  0  0  0  0  0  0  0  0
   11.5353   10.8532    6.1765 C   0  0  0  0  0  0  0  0  0  0  0  0
   11.3618   12.0530    6.8304 C   0  0  0  0  0  0  0  0  0  0  0  0
   11.5307   12.1160    8.2279 C   0  0  0  0  0  0  0  0  0  0  0  0
   11.4240   13.0704    8.9859 O   0  0  0  0  0  0  0  0  0  0  0  0
   11.0417   13.0105    5.9130 N   0  0  0  0  0  0  0  0  0  0  0  0
   11.0189   12.3967    4.7112 C   0  0  0  0  0  0  0  0  0  0  0  0
   11.3176   11.0647    4.8426 N   0  0  0  0  0  0  0  0  0  0  0  0
  1  2  1  0  0  0  0
  1  6  1  0  0  0  0
  2  3  2  0  0  0  0
  3  4  1  0  0  0  0
  4  5  2  0  0  0  0
  4 10  1  0  0  0  0
  5  6  1  0  0  0  0
  5  8  1  0  0  0  0
  6  7  2  0  0  0  0
  8  9  1  0  0  0  0
  9 10  2  0  0  0  0
M  END
>  <CHROM.1>
11.49676835,11.50723787,6.96160594,-0.94908446,1.32678057,-2.11372866

>  <Name>
ligand

>  <RI>
0

>  <Rbt.Current_Directory>
/home/itssahil/PROJECTS/Mol_Feturizer/New_Systems/rnas/4FEJ

>  <Rbt.Executable>
rbdock ($Id: //depot/dev/client3/rdock/2013.1/src/exe/rbdock.cxx#4 $)

>  <Rbt.Library>
libRbt.so (2013.1, Build901 2013/11/27)

>  <Rbt.Parameter_File>
/export/apps/rDock/src/rDock_2013.1_src/data/scripts/dock_solv.prm

>  <Rbt.Receptor>
prm/blind_docking_100.prm

>  <SCORE>
-17.4766

>  <SCORE.INTER>
-17.4766

>  <SCORE.INTER.CONST>
1

>  <SCORE.INTER.POLAR>
0

>  <SCORE.INTER.ROT>
0

>  <SCORE.INTER.SOLV>
3.94397

>  <SCORE.INTER.VDW>
-16.5657

>  <SCORE.INTER.norm>
-1.74766

>  <SCORE.INTRA>
0

>  <SCORE.INTRA.DIHEDRAL>
0

>  <SCORE.INTRA.DIHEDRAL.0>
0

>  <SCORE.INTRA.POLAR>
0

>  <SCORE.INTRA.POLAR.0>
0

>  <SCORE.INTRA.REPUL>
0

>  <SCORE.INTRA.REPUL.0>
0

>  <SCORE.INTRA.SOLV>
0

>  <SCORE.INTRA.SOLV.lig_0>
-4.26631

>  <SCORE.INTRA.VDW>
0

>  <SCORE.INTRA.VDW.0>
0

>  <SCORE.INTRA.norm>
0

>  <SCORE.RESTR>
0

>  <SCORE.RESTR.CAVITY>
0

>  <SCORE.RESTR.norm>
0

>  <SCORE.SYSTEM>
0

>  <SCORE.SYSTEM.CONST>
0

>  <SCORE.SYSTEM.DIHEDRAL>
0

>  <SCORE.SYSTEM.SOLV>
0

>  <SCORE.SYSTEM.norm>
0

>  <SCORE.heavy>
10

>  <SCORE.norm>
-1.74766

>  <RMSD>
2.410

$$$$
ligand
 OpenBabel11021811493D
libRbt.so/2013.1/901 2013/11/27
 10 11  0  0  0  0  0  0  0  0999 V2000
   11.8817   10.8821    8.7738 N   0  0  0  0  0  0  0  0  0  0  0  0
   12.0719    9.7214    8.0673 C   0  0  0  0  0  0  0  0  0  0  0  0
   11.9172    9.6782    6.7342 N   0  0  0  0  0  0  0  0  0  0  0  0
   11.5678   10.8629    6.1913 C   0  0  0  0  0  0  0  0  0  0  0  0
   11.3620   12.0580    6.8444 C   0  0  0  0  0  0  0  0  0  0  0  0
   11.5216   12.1246    8.2428 C   0  0  0  0  0  0  0  0  0  0  0  0
   11.3878   13.0760    9.0003 O   0  0  0  0  0  0  0  0  0  0  0  0
   11.0242   13.0079    5.9253 N   0  0  0  0  0  0  0  0  0  0  0  0
   11.0227   12.3939    4.7234 C   0  0  0  0  0  0  0  0  0  0  0  0
   11.3524   11.0694    4.8562 N   0  0  0  0  0  0  0  0  0  0  0  0
  1  2  1  0  0  0  0
  1  6  1  0  0  0  0
  2  3  2  0  0  0  0
  3  4  1  0  0  0  0
  4  5  2  0  0  0  0
  4 10  1  0  0  0  0
  5  6  1  0  0  0  0
  5  8  1  0  0  0  0
  6  7  2  0  0  0  0
  8  9  1  0  0  0  0
  9 10  2  0  0  0  0
M  END
>  <CHROM.1>
11.50920385,11.51559472,6.97626910,-1.01512103,1.30865480,-2.04959518

>  <Name>
ligand

>  <RI>
0

>  <Rbt.Current_Directory>
/home/itssahil/PROJECTS/Mol_Feturizer/New_Systems/rnas/4FEJ

>  <Rbt.Executable>
rbdock ($Id: //depot/dev/client3/rdock/2013.1/src/exe/rbdock.cxx#4 $)

>  <Rbt.Library>
libRbt.so (2013.1, Build901 2013/11/27)

>  <Rbt.Parameter_File>
/export/apps/rDock/src/rDock_2013.1_src/data/scripts/dock_solv.prm

>  <Rbt.Receptor>
prm/blind_docking_100.prm

>  <SCORE>
-17.4977

>  <SCORE.INTER>
-17.4977

>  <SCORE.INTER.CONST>
1

>  <SCORE.INTER.POLAR>
0

>  <SCORE.INTER.ROT>
0

>  <SCORE.INTER.SOLV>
3.9221

>  <SCORE.INTER.VDW>
-16.5725

>  <SCORE.INTER.norm>
-1.74977

>  <SCORE.INTRA>
0

>  <SCORE.INTRA.DIHEDRAL>
0

>  <SCORE.INTRA.DIHEDRAL.0>
0

>  <SCORE.INTRA.POLAR>
0

>  <SCORE.INTRA.POLAR.0>
0

>  <SCORE.INTRA.REPUL>
0

>  <SCORE.INTRA.REPUL.0>
0

>  <SCORE.INTRA.SOLV>
0

>  <SCORE.INTRA.SOLV.lig_0>
-4.26631

>  <SCORE.INTRA.VDW>
0

>  <SCORE.INTRA.VDW.0>
0

>  <SCORE.INTRA.norm>
0

>  <SCORE.RESTR>
0

>  <SCORE.RESTR.CAVITY>
0

>  <SCORE.RESTR.norm>
0

>  <SCORE.SYSTEM>
0

>  <SCORE.SYSTEM.CONST>
0

>  <SCORE.SYSTEM.DIHEDRAL>
0

>  <SCORE.SYSTEM.SOLV>
0

>  <SCORE.SYSTEM.norm>
0

>  <SCORE.heavy>
10

>  <SCORE.norm>
-1.74977

>  <RMSD>
2.410

$$$$
ligand
 OpenBabel11021811493D
libRbt.so/2013.1/901 2013/11/27
 10 11  0  0  0  0  0  0  0  0999 V2000
   11.8567   10.8559    8.7572 N   0  0  0  0  0  0  0  0  0  0  0  0
   12.0209    9.6940    8.0463 C   0  0  0  0  0  0  0  0  0  0  0  0
   11.8608    9.6583    6.7135 N   0  0  0  0  0  0  0  0  0  0  0  0
   11.5336   10.8516    6.1758 C   0  0  0  0  0  0  0  0  0  0  0  0
   11.3543   12.0485    6.8334 C   0  0  0  0  0  0  0  0  0  0  0  0
   11.5199   12.1072    8.2315 C   0  0  0  0  0  0  0  0  0  0  0  0
   11.4081   13.0586    8.9925 O   0  0  0  0  0  0  0  0  0  0  0  0
   11.0326   13.0080    5.9186 N   0  0  0  0  0  0  0  0  0  0  0  0
   11.0147   12.3983    4.7147 C   0  0  0  0  0  0  0  0  0  0  0  0
   11.3180   11.0669    4.8421 N   0  0  0  0  0  0  0  0  0  0  0  0
  1  2  1  0  0  0  0
  1  6  1  0  0  0  0
  2  3  2  0  0  0  0
  3  4  1  0  0  0  0
  4  5  2  0  0  0  0
  4 10  1  0  0  0  0
  5  6  1  0  0  0  0
  5  8  1  0  0  0  0
  6  7  2  0  0  0  0
  8  9  1  0  0  0  0
  9 10  2  0  0  0  0
M  END
>  <CHROM.1>
11.49094511,11.50277569,6.96303732,-0.96437739,1.32476078,-2.09542665

>  <Name>
ligand

>  <RI>
0

>  <Rbt.Current_Directory>
/home/itssahil/PROJECTS/Mol_Feturizer/New_Systems/rnas/4FEJ

>  <Rbt.Executable>
rbdock ($Id: //depot/dev/client3/rdock/2013.1/src/exe/rbdock.cxx#4 $)

>  <Rbt.Library>
libRbt.so (2013.1, Build901 2013/11/27)

>  <Rbt.Parameter_File>
/export/apps/rDock/src/rDock_2013.1_src/data/scripts/dock_solv.prm

>  <Rbt.Receptor>
prm/blind_docking_40.prm

>  <SCORE>
-17.4753

>  <SCORE.INTER>
-17.4753

>  <SCORE.INTER.CONST>
1

>  <SCORE.INTER.POLAR>
0

>  <SCORE.INTER.ROT>
0

>  <SCORE.INTER.SOLV>
3.93022

>  <SCORE.INTER.VDW>
-16.5603

>  <SCORE.INTER.norm>
-1.74753

>  <SCORE.INTRA>
0

>  <SCORE.INTRA.DIHEDRAL>
0

>  <SCORE.INTRA.DIHEDRAL.0>
0

>  <SCORE.INTRA.POLAR>
0

>  <SCORE.INTRA.POLAR.0>
0

>  <SCORE.INTRA.REPUL>
0

>  <SCORE.INTRA.REPUL.0>
0

>  <SCORE.INTRA.SOLV>
0

>  <SCORE.INTRA.SOLV.lig_0>
-4.26631

>  <SCORE.INTRA.VDW>
0

>  <SCORE.INTRA.VDW.0>
0

>  <SCORE.INTRA.norm>
0

>  <SCORE.RESTR>
0

>  <SCORE.RESTR.CAVITY>
0

>  <SCORE.RESTR.norm>
0

>  <SCORE.SYSTEM>
0

>  <SCORE.SYSTEM.CONST>
0

>  <SCORE.SYSTEM.DIHEDRAL>
0

>  <SCORE.SYSTEM.SOLV>
0

>  <SCORE.SYSTEM.norm>
0

>  <SCORE.heavy>
10

>  <SCORE.norm>
-1.74753

>  <RMSD>
2.410

$$$$
ligand
 OpenBabel11021811493D
libRbt.so/2013.1/901 2013/11/27
 10 11  0  0  0  0  0  0  0  0999 V2000
   11.8481   10.8607    8.7567 N   0  0  0  0  0  0  0  0  0  0  0  0
   12.0081    9.6967    8.0482 C   0  0  0  0  0  0  0  0  0  0  0  0
   11.8514    9.6596    6.7151 N   0  0  0  0  0  0  0  0  0  0  0  0
   11.5319   10.8536    6.1744 C   0  0  0  0  0  0  0  0  0  0  0  0
   11.3572   12.0526    6.8295 C   0  0  0  0  0  0  0  0  0  0  0  0
   11.5194   12.1129    8.2279 C   0  0  0  0  0  0  0  0  0  0  0  0
   11.4106   13.0662    8.9870 O   0  0  0  0  0  0  0  0  0  0  0  0
   11.0432   13.0122    5.9122 N   0  0  0  0  0  0  0  0  0  0  0  0
   11.0252   12.4005    4.7093 C   0  0  0  0  0  0  0  0  0  0  0  0
   11.3210   11.0678    4.8398 N   0  0  0  0  0  0  0  0  0  0  0  0
  1  2  1  0  0  0  0
  1  6  1  0  0  0  0
  2  3  2  0  0  0  0
  3  4  1  0  0  0  0
  4  5  2  0  0  0  0
  4 10  1  0  0  0  0
  5  6  1  0  0  0  0
  5  8  1  0  0  0  0
  6  7  2  0  0  0  0
  8  9  1  0  0  0  0
  9 10  2  0  0  0  0
M  END
>  <CHROM.1>
11.49063247,11.50639058,6.96043970,-0.96297663,1.33071551,-2.09852293

>  <Name>
ligand

>  <RI>
0

>  <Rbt.Current_Directory>
/home/itssahil/PROJECTS/Mol_Feturizer/New_Systems/rnas/4FEJ

>  <Rbt.Executable>
rbdock ($Id: //depot/dev/client3/rdock/2013.1/src/exe/rbdock.cxx#4 $)

>  <Rbt.Library>
libRbt.so (2013.1, Build901 2013/11/27)

>  <Rbt.Parameter_File>
/export/apps/rDock/src/rDock_2013.1_src/data/scripts/dock_solv.prm

>  <Rbt.Receptor>
prm/blind_docking_40.prm

>  <SCORE>
-17.4762

>  <SCORE.INTER>
-17.4762

>  <SCORE.INTER.CONST>
1

>  <SCORE.INTER.POLAR>
0

>  <SCORE.INTER.ROT>
0

>  <SCORE.INTER.SOLV>
3.945

>  <SCORE.INTER.VDW>
-16.5658

>  <SCORE.INTER.norm>
-1.74762

>  <SCORE.INTRA>
0

>  <SCORE.INTRA.DIHEDRAL>
0

>  <SCORE.INTRA.DIHEDRAL.0>
0

>  <SCORE.INTRA.POLAR>
0

>  <SCORE.INTRA.POLAR.0>
0

>  <SCORE.INTRA.REPUL>
0

>  <SCORE.INTRA.REPUL.0>
0

>  <SCORE.INTRA.SOLV>
0

>  <SCORE.INTRA.SOLV.lig_0>
-4.26631

>  <SCORE.INTRA.VDW>
0

>  <SCORE.INTRA.VDW.0>
0

>  <SCORE.INTRA.norm>
0

>  <SCORE.RESTR>
0

>  <SCORE.RESTR.CAVITY>
0

>  <SCORE.RESTR.norm>
0

>  <SCORE.SYSTEM>
0

>  <SCORE.SYSTEM.CONST>
0

>  <SCORE.SYSTEM.DIHEDRAL>
0

>  <SCORE.SYSTEM.SOLV>
0

>  <SCORE.SYSTEM.norm>
0

>  <SCORE.heavy>
10

>  <SCORE.norm>
-1.74762

>  <RMSD>
2.410

$$$$
ligand
 OpenBabel11021811493D
libRbt.so/2013.1/901 2013/11/27
 10 11  0  0  0  0  0  0  0  0999 V2000
   11.8396   10.8769    8.7880 N   0  0  0  0  0  0  0  0  0  0  0  0
   11.9932    9.7034    8.0940 C   0  0  0  0  0  0  0  0  0  0  0  0
   11.8365    9.6506    6.7614 N   0  0  0  0  0  0  0  0  0  0  0  0
   11.5237   10.8396    6.2059 C   0  0  0  0  0  0  0  0  0  0  0  0
   11.3555   12.0476    6.8460 C   0  0  0  0  0  0  0  0  0  0  0  0
   11.5179   12.1243    8.2437 C   0  0  0  0  0  0  0  0  0  0  0  0
   11.4143   13.0874    8.9909 O   0  0  0  0  0  0  0  0  0  0  0  0
   11.0469   12.9974    5.9169 N   0  0  0  0  0  0  0  0  0  0  0  0
   11.0256   12.3709    4.7217 C   0  0  0  0  0  0  0  0  0  0  0  0
   11.3141   11.0383    4.8687 N   0  0  0  0  0  0  0  0  0  0  0  0
  1  2  1  0  0  0  0
  1  6  1  0  0  0  0
  2  3  2  0  0  0  0
  3  4  1  0  0  0  0
  4  5  2  0  0  0  0
  4 10  1  0  0  0  0
  5  6  1  0  0  0  0
  5  8  1  0  0  0  0
  6  7  2  0  0  0  0
  8  9  1  0  0  0  0
  9 10  2  0  0  0  0
M  END
>  <CHROM.1>
11.48590406,11.50225086,6.98377649,-0.95135857,1.33551874,-2.12220383

>  <Name>
ligand

>  <RI>
0

>  <Rbt.Current_Directory>
/home/itssahil/PROJECTS/Mol_Feturizer/New_Systems/rnas/4FEJ

>  <Rbt.Executable>
rbdock ($Id: //depot/dev/client3/rdock/2013.1/src/exe/rbdock.cxx#4 $)

>  <Rbt.Library>
libRbt.so (2013.1, Build901 2013/11/27)

>  <Rbt.Parameter_File>
/export/apps/rDock/src/rDock_2013.1_src/data/scripts/dock_solv.prm

>  <Rbt.Receptor>
prm/blind_docking_40.prm

>  <SCORE>
-17.4155

>  <SCORE.INTER>
-17.4155

>  <SCORE.INTER.CONST>
1

>  <SCORE.INTER.POLAR>
0

>  <SCORE.INTER.ROT>
0

>  <SCORE.INTER.SOLV>
3.9768

>  <SCORE.INTER.VDW>
-16.5359

>  <SCORE.INTER.norm>
-1.74155

>  <SCORE.INTRA>
0

>  <SCORE.INTRA.DIHEDRAL>
0

>  <SCORE.INTRA.DIHEDRAL.0>
0

>  <SCORE.INTRA.POLAR>
0

>  <SCORE.INTRA.POLAR.0>
0

>  <SCORE.INTRA.REPUL>
0

>  <SCORE.INTRA.REPUL.0>
0

>  <SCORE.INTRA.SOLV>
0

>  <SCORE.INTRA.SOLV.lig_0>
-4.26631

>  <SCORE.INTRA.VDW>
0

>  <SCORE.INTRA.VDW.0>
0

>  <SCORE.INTRA.norm>
0

>  <SCORE.RESTR>
0

>  <SCORE.RESTR.CAVITY>
0

>  <SCORE.RESTR.norm>
0

>  <SCORE.SYSTEM>
0

>  <SCORE.SYSTEM.CONST>
0

>  <SCORE.SYSTEM.DIHEDRAL>
0

>  <SCORE.SYSTEM.SOLV>
0

>  <SCORE.SYSTEM.norm>
0

>  <SCORE.heavy>
10

>  <SCORE.norm>
-1.74155

>  <RMSD>
2.410

$$$$
ligand
 OpenBabel11021811493D
libRbt.so/2013.1/901 2013/11/27
 10 11  0  0  0  0  0  0  0  0999 V2000
   11.8605   10.8571    8.7568 N   0  0  0  0  0  0  0  0  0  0  0  0
   12.0231    9.6947    8.0463 C   0  0  0  0  0  0  0  0  0  0  0  0
   11.8610    9.6584    6.7138 N   0  0  0  0  0  0  0  0  0  0  0  0
   11.5336   10.8515    6.1758 C   0  0  0  0  0  0  0  0  0  0  0  0
   11.3559   12.0489    6.8330 C   0  0  0  0  0  0  0  0  0  0  0  0
   11.5236   12.1084    8.2309 C   0  0  0  0  0  0  0  0  0  0  0  0
   11.4134   13.0602    8.9915 O   0  0  0  0  0  0  0  0  0  0  0  0
   11.0335   13.0081    5.9182 N   0  0  0  0  0  0  0  0  0  0  0  0
   11.0134   12.3976    4.7147 C   0  0  0  0  0  0  0  0  0  0  0  0
   11.3162   11.0662    4.8423 N   0  0  0  0  0  0  0  0  0  0  0  0
  1  2  1  0  0  0  0
  1  6  1  0  0  0  0
  2  3  2  0  0  0  0
  3  4  1  0  0  0  0
  4  5  2  0  0  0  0
  4 10  1  0  0  0  0
  5  6  1  0  0  0  0
  5  8  1  0  0  0  0
  6  7  2  0  0  0  0
  8  9  1  0  0  0  0
  9 10  2  0  0  0  0
M  END
>  <CHROM.1>
11.49247413,11.50318816,6.96277878,-0.95811399,1.32448958,-2.10206870

>  <Name>
ligand

>  <RI>
0

>  <Rbt.Current_Directory>
/home/itssahil/PROJECTS/Mol_Feturizer/New_Systems/rnas/4FEJ

>  <Rbt.Executable>
rbdock ($Id: //depot/dev/client3/rdock/2013.1/src/exe/rbdock.cxx#4 $)

>  <Rbt.Library>
libRbt.so (2013.1, Build901 2013/11/27)

>  <Rbt.Parameter_File>
/export/apps/rDock/src/rDock_2013.1_src/data/scripts/dock_solv.prm

>  <Rbt.Receptor>
prm/blind_docking_40.prm

>  <SCORE>
-17.4758

>  <SCORE.INTER>
-17.4758

>  <SCORE.INTER.CONST>
1

>  <SCORE.INTER.POLAR>
0

>  <SCORE.INTER.ROT>
0

>  <SCORE.INTER.SOLV>
3.93156

>  <SCORE.INTER.VDW>
-16.561

>  <SCORE.INTER.norm>
-1.74758

>  <SCORE.INTRA>
0

>  <SCORE.INTRA.DIHEDRAL>
0

>  <SCORE.INTRA.DIHEDRAL.0>
0

>  <SCORE.INTRA.POLAR>
0

>  <SCORE.INTRA.POLAR.0>
0

>  <SCORE.INTRA.REPUL>
0

>  <SCORE.INTRA.REPUL.0>
0

>  <SCORE.INTRA.SOLV>
0

>  <SCORE.INTRA.SOLV.lig_0>
-4.26631

>  <SCORE.INTRA.VDW>
0

>  <SCORE.INTRA.VDW.0>
0

>  <SCORE.INTRA.norm>
0

>  <SCORE.RESTR>
0

>  <SCORE.RESTR.CAVITY>
0

>  <SCORE.RESTR.norm>
0

>  <SCORE.SYSTEM>
0

>  <SCORE.SYSTEM.CONST>
0

>  <SCORE.SYSTEM.DIHEDRAL>
0

>  <SCORE.SYSTEM.SOLV>
0

>  <SCORE.SYSTEM.norm>
0

>  <SCORE.heavy>
10

>  <SCORE.norm>
-1.74758

>  <RMSD>
2.410

$$$$
ligand
 OpenBabel11021811493D
libRbt.so/2013.1/901 2013/11/27
 10 11  0  0  0  0  0  0  0  0999 V2000
   11.8540   10.8567    8.7576 N   0  0  0  0  0  0  0  0  0  0  0  0
   12.0153    9.6937    8.0478 C   0  0  0  0  0  0  0  0  0  0  0  0
   11.8564    9.6573    6.7150 N   0  0  0  0  0  0  0  0  0  0  0  0
   11.5333   10.8511    6.1759 C   0  0  0  0  0  0  0  0  0  0  0  0
   11.3570   12.0492    6.8323 C   0  0  0  0  0  0  0  0  0  0  0  0
   11.5216   12.1086    8.2306 C   0  0  0  0  0  0  0  0  0  0  0  0
   11.4121   13.0609    8.9907 O   0  0  0  0  0  0  0  0  0  0  0  0
   11.0392   13.0089    5.9165 N   0  0  0  0  0  0  0  0  0  0  0  0
   11.0205   12.3981    4.7131 C   0  0  0  0  0  0  0  0  0  0  0  0
   11.3195   11.0660    4.8418 N   0  0  0  0  0  0  0  0  0  0  0  0
  1  2  1  0  0  0  0
  1  6  1  0  0  0  0
  2  3  2  0  0  0  0
  3  4  1  0  0  0  0
  4  5  2  0  0  0  0
  4 10  1  0  0  0  0
  5  6  1  0  0  0  0
  5  8  1  0  0  0  0
  6  7  2  0  0  0  0
  8  9  1  0  0  0  0
  9 10  2  0  0  0  0
M  END
>  <CHROM.1>
11.49192652,11.50312679,6.96257633,-0.96120869,1.32787955,-2.09936019

>  <Name>
ligand

>  <RI>
0

>  <Rbt.Current_Directory>
/home/itssahil/PROJECTS/Mol_Feturizer/New_Systems/rnas/4FEJ

>  <Rbt.Executable>
rbdock ($Id: //depot/dev/client3/rdock/2013.1/src/exe/rbdock.cxx#4 $)

>  <Rbt.Library>
libRbt.so (2013.1, Build901 2013/11/27)

>  <Rbt.Parameter_File>
/export/apps/rDock/src/rDock_2013.1_src/data/scripts/dock_solv.prm

>  <Rbt.Receptor>
prm/blind_docking_40.prm

>  <SCORE>
-17.4761

>  <SCORE.INTER>
-17.4761

>  <SCORE.INTER.CONST>
1

>  <SCORE.INTER.POLAR>
0

>  <SCORE.INTER.ROT>
0

>  <SCORE.INTER.SOLV>
3.93713

>  <SCORE.INTER.VDW>
-16.5631

>  <SCORE.INTER.norm>
-1.74761

>  <SCORE.INTRA>
0

>  <SCORE.INTRA.DIHEDRAL>
0

>  <SCORE.INTRA.DIHEDRAL.0>
0

>  <SCORE.INTRA.POLAR>
0

>  <SCORE.INTRA.POLAR.0>
0

>  <SCORE.INTRA.REPUL>
0

>  <SCORE.INTRA.REPUL.0>
0

>  <SCORE.INTRA.SOLV>
0

>  <SCORE.INTRA.SOLV.lig_0>
-4.26631

>  <SCORE.INTRA.VDW>
0

>  <SCORE.INTRA.VDW.0>
0

>  <SCORE.INTRA.norm>
0

>  <SCORE.RESTR>
0

>  <SCORE.RESTR.CAVITY>
0

>  <SCORE.RESTR.norm>
0

>  <SCORE.SYSTEM>
0

>  <SCORE.SYSTEM.CONST>
0

>  <SCORE.SYSTEM.DIHEDRAL>
0

>  <SCORE.SYSTEM.SOLV>
0

>  <SCORE.SYSTEM.norm>
0

>  <SCORE.heavy>
10

>  <SCORE.norm>
-1.74761

>  <RMSD>
2.410

$$$$
ligand
 OpenBabel11021811493D
libRbt.so/2013.1/901 2013/11/27
 10 11  0  0  0  0  0  0  0  0999 V2000
   11.8544   10.8617    8.7556 N   0  0  0  0  0  0  0  0  0  0  0  0
   12.0163    9.6979    8.0473 C   0  0  0  0  0  0  0  0  0  0  0  0
   11.8551    9.6593    6.7147 N   0  0  0  0  0  0  0  0  0  0  0  0
   11.5293   10.8518    6.1744 C   0  0  0  0  0  0  0  0  0  0  0  0
   11.3524   12.0506    6.8293 C   0  0  0  0  0  0  0  0  0  0  0  0
   11.5192   12.1123    8.2271 C   0  0  0  0  0  0  0  0  0  0  0  0
   11.4094   13.0656    8.9860 O   0  0  0  0  0  0  0  0  0  0  0  0
   11.0315   13.0084    5.9125 N   0  0  0  0  0  0  0  0  0  0  0  0
   11.0117   12.3958    4.7101 C   0  0  0  0  0  0  0  0  0  0  0  0
   11.3130   11.0643    4.8404 N   0  0  0  0  0  0  0  0  0  0  0  0
  1  2  1  0  0  0  0
  1  6  1  0  0  0  0
  2  3  2  0  0  0  0
  3  4  1  0  0  0  0
  4  5  2  0  0  0  0
  4 10  1  0  0  0  0
  5  6  1  0  0  0  0
  5  8  1  0  0  0  0
  6  7  2  0  0  0  0
  8  9  1  0  0  0  0
  9 10  2  0  0  0  0
M  END
>  <CHROM.1>
11.48830446,11.50490297,6.96013226,-0.95846412,1.32571567,-2.10353288

>  <Name>
ligand

>  <RI>
0

>  <Rbt.Current_Directory>
/home/itssahil/PROJECTS/Mol_Feturizer/New_Systems/rnas/4FEJ

>  <Rbt.Executable>
rbdock ($Id: //depot/dev/client3/rdock/2013.1/src/exe/rbdock.cxx#4 $)

>  <Rbt.Library>
libRbt.so (2013.1, Build901 2013/11/27)

>  <Rbt.Parameter_File>
/export/apps/rDock/src/rDock_2013.1_src/data/scripts/dock_solv.prm

>  <Rbt.Receptor>
prm/blind_docking_60.prm

>  <SCORE>
-17.4771

>  <SCORE.INTER>
-17.4771

>  <SCORE.INTER.CONST>
1

>  <SCORE.INTER.POLAR>
0

>  <SCORE.INTER.ROT>
0

>  <SCORE.INTER.SOLV>
3.93771

>  <SCORE.INTER.VDW>
-16.5639

>  <SCORE.INTER.norm>
-1.74771

>  <SCORE.INTRA>
0

>  <SCORE.INTRA.DIHEDRAL>
0

>  <SCORE.INTRA.DIHEDRAL.0>
0

>  <SCORE.INTRA.POLAR>
0

>  <SCORE.INTRA.POLAR.0>
0

>  <SCORE.INTRA.REPUL>
0

>  <SCORE.INTRA.REPUL.0>
0

>  <SCORE.INTRA.SOLV>
0

>  <SCORE.INTRA.SOLV.lig_0>
-4.26631

>  <SCORE.INTRA.VDW>
0

>  <SCORE.INTRA.VDW.0>
0

>  <SCORE.INTRA.norm>
0

>  <SCORE.RESTR>
0

>  <SCORE.RESTR.CAVITY>
0

>  <SCORE.RESTR.norm>
0

>  <SCORE.SYSTEM>
0

>  <SCORE.SYSTEM.CONST>
0

>  <SCORE.SYSTEM.DIHEDRAL>
0

>  <SCORE.SYSTEM.SOLV>
0

>  <SCORE.SYSTEM.norm>
0

>  <SCORE.heavy>
10

>  <SCORE.norm>
-1.74771

>  <RMSD>
2.410

$$$$
ligand
 OpenBabel11021811493D
libRbt.so/2013.1/901 2013/11/27
 10 11  0  0  0  0  0  0  0  0999 V2000
   11.8303   10.8062    8.7831 N   0  0  0  0  0  0  0  0  0  0  0  0
   11.9878    9.6501    8.0613 C   0  0  0  0  0  0  0  0  0  0  0  0
   11.8346    9.6295    6.7274 N   0  0  0  0  0  0  0  0  0  0  0  0
   11.5212   10.8311    6.2001 C   0  0  0  0  0  0  0  0  0  0  0  0
   11.3494   12.0229    6.8690 C   0  0  0  0  0  0  0  0  0  0  0  0
   11.5080   12.0659    8.2685 C   0  0  0  0  0  0  0  0  0  0  0  0
   11.4008   13.0104    9.0386 O   0  0  0  0  0  0  0  0  0  0  0  0
   11.0415   12.9946    5.9623 N   0  0  0  0  0  0  0  0  0  0  0  0
   11.0245   12.3973    4.7522 C   0  0  0  0  0  0  0  0  0  0  0  0
   11.3148   11.0620    4.8676 N   0  0  0  0  0  0  0  0  0  0  0  0
  1  2  1  0  0  0  0
  1  6  1  0  0  0  0
  2  3  2  0  0  0  0
  3  4  1  0  0  0  0
  4  5  2  0  0  0  0
  4 10  1  0  0  0  0
  5  6  1  0  0  0  0
  5  8  1  0  0  0  0
  6  7  2  0  0  0  0
  8  9  1  0  0  0  0
  9 10  2  0  0  0  0
M  END
>  <CHROM.1>
11.48031060,11.47463825,6.99374566,-0.96478038,1.33543030,-2.08484134

>  <Name>
ligand

>  <RI>
0

>  <Rbt.Current_Directory>
/home/itssahil/PROJECTS/Mol_Feturizer/New_Systems/rnas/4FEJ

>  <Rbt.Executable>
rbdock ($Id: //depot/dev/client3/rdock/2013.1/src/exe/rbdock.cxx#4 $)

>  <Rbt.Library>
libRbt.so (2013.1, Build901 2013/11/27)

>  <Rbt.Parameter_File>
/export/apps/rDock/src/rDock_2013.1_src/data/scripts/dock_solv.prm

>  <Rbt.Receptor>
prm/blind_docking_60.prm

>  <SCORE>
-17.436

>  <SCORE.INTER>
-17.436

>  <SCORE.INTER.CONST>
1

>  <SCORE.INTER.POLAR>
0

>  <SCORE.INTER.ROT>
0

>  <SCORE.INTER.SOLV>
3.91832

>  <SCORE.INTER.VDW>
-16.5301

>  <SCORE.INTER.norm>
-1.7436

>  <SCORE.INTRA>
0

>  <SCORE.INTRA.DIHEDRAL>
0

>  <SCORE.INTRA.DIHEDRAL.0>
0

>  <SCORE.INTRA.POLAR>
0

>  <SCORE.INTRA.POLAR.0>
0

>  <SCORE.INTRA.REPUL>
0

>  <SCORE.INTRA.REPUL.0>
0

>  <SCORE.INTRA.SOLV>
0

>  <SCORE.INTRA.SOLV.lig_0>
-4.26631

>  <SCORE.INTRA.VDW>
0

>  <SCORE.INTRA.VDW.0>
0

>  <SCORE.INTRA.norm>
0

>  <SCORE.RESTR>
0

>  <SCORE.RESTR.CAVITY>
0

>  <SCORE.RESTR.norm>
0

>  <SCORE.SYSTEM>
0

>  <SCORE.SYSTEM.CONST>
0

>  <SCORE.SYSTEM.DIHEDRAL>
0

>  <SCORE.SYSTEM.SOLV>
0

>  <SCORE.SYSTEM.norm>
0

>  <SCORE.heavy>
10

>  <SCORE.norm>
-1.7436

>  <RMSD>
2.410

$$$$
ligand
 OpenBabel11021811493D
libRbt.so/2013.1/901 2013/11/27
 10 11  0  0  0  0  0  0  0  0999 V2000
   11.8551   10.8551    8.7577 N   0  0  0  0  0  0  0  0  0  0  0  0
   12.0165    9.6927    8.0470 C   0  0  0  0  0  0  0  0  0  0  0  0
   11.8565    9.6572    6.7142 N   0  0  0  0  0  0  0  0  0  0  0  0
   11.5324   10.8512    6.1762 C   0  0  0  0  0  0  0  0  0  0  0  0
   11.3559   12.0487    6.8336 C   0  0  0  0  0  0  0  0  0  0  0  0
   11.5215   12.1072    8.2317 C   0  0  0  0  0  0  0  0  0  0  0  0
   11.4120   13.0590    8.9926 O   0  0  0  0  0  0  0  0  0  0  0  0
   11.0368   13.0088    5.9186 N   0  0  0  0  0  0  0  0  0  0  0  0
   11.0175   12.3989    4.7148 C   0  0  0  0  0  0  0  0  0  0  0  0
   11.3175   11.0668    4.8425 N   0  0  0  0  0  0  0  0  0  0  0  0
  1  2  1  0  0  0  0
  1  6  1  0  0  0  0
  2  3  2  0  0  0  0
  3  4  1  0  0  0  0
  4  5  2  0  0  0  0
  4 10  1  0  0  0  0
  5  6  1  0  0  0  0
  5  8  1  0  0  0  0
  6  7  2  0  0  0  0
  8  9  1  0  0  0  0
  9 10  2  0  0  0  0
M  END
>  <CHROM.1>
11.49121961,11.50260991,6.96335162,-0.95973348,1.32698995,-2.10011593

>  <Name>
ligand

>  <RI>
0

>  <Rbt.Current_Directory>
/home/itssahil/PROJECTS/Mol_Feturizer/New_Systems/rnas/4FEJ

>  <Rbt.Executable>
rbdock ($Id: //depot/dev/client3/rdock/2013.1/src/exe/rbdock.cxx#4 $)

>  <Rbt.Library>
libRbt.so (2013.1, Build901 2013/11/27)

>  <Rbt.Parameter_File>
/export/apps/rDock/src/rDock_2013.1_src/data/scripts/dock_solv.prm

>  <Rbt.Receptor>
prm/blind_docking_60.prm

>  <SCORE>
-17.4758

>  <SCORE.INTER>
-17.4758

>  <SCORE.INTER.CONST>
1

>  <SCORE.INTER.POLAR>
0

>  <SCORE.INTER.ROT>
0

>  <SCORE.INTER.SOLV>
3.93426

>  <SCORE.INTER.VDW>
-16.5619

>  <SCORE.INTER.norm>
-1.74758

>  <SCORE.INTRA>
0

>  <SCORE.INTRA.DIHEDRAL>
0

>  <SCORE.INTRA.DIHEDRAL.0>
0

>  <SCORE.INTRA.POLAR>
0

>  <SCORE.INTRA.POLAR.0>
0

>  <SCORE.INTRA.REPUL>
0

>  <SCORE.INTRA.REPUL.0>
0

>  <SCORE.INTRA.SOLV>
0

>  <SCORE.INTRA.SOLV.lig_0>
-4.26631

>  <SCORE.INTRA.VDW>
0

>  <SCORE.INTRA.VDW.0>
0

>  <SCORE.INTRA.norm>
0

>  <SCORE.RESTR>
0

>  <SCORE.RESTR.CAVITY>
0

>  <SCORE.RESTR.norm>
0

>  <SCORE.SYSTEM>
0

>  <SCORE.SYSTEM.CONST>
0

>  <SCORE.SYSTEM.DIHEDRAL>
0

>  <SCORE.SYSTEM.SOLV>
0

>  <SCORE.SYSTEM.norm>
0

>  <SCORE.heavy>
10

>  <SCORE.norm>
-1.74758

>  <RMSD>
2.410

$$$$
ligand
 OpenBabel11021811493D
libRbt.so/2013.1/901 2013/11/27
 10 11  0  0  0  0  0  0  0  0999 V2000
   11.8579   10.8570    8.7572 N   0  0  0  0  0  0  0  0  0  0  0  0
   12.0186    9.6944    8.0466 C   0  0  0  0  0  0  0  0  0  0  0  0
   11.8567    9.6584    6.7141 N   0  0  0  0  0  0  0  0  0  0  0  0
   11.5314   10.8521    6.1761 C   0  0  0  0  0  0  0  0  0  0  0  0
   11.3557   12.0498    6.8334 C   0  0  0  0  0  0  0  0  0  0  0  0
   11.5233   12.1088    8.2313 C   0  0  0  0  0  0  0  0  0  0  0  0
   11.4146   13.0608    8.9920 O   0  0  0  0  0  0  0  0  0  0  0  0
   11.0350   13.0095    5.9186 N   0  0  0  0  0  0  0  0  0  0  0  0
   11.0141   12.3992    4.7150 C   0  0  0  0  0  0  0  0  0  0  0  0
   11.3145   11.0672    4.8426 N   0  0  0  0  0  0  0  0  0  0  0  0
  1  2  1  0  0  0  0
  1  6  1  0  0  0  0
  2  3  2  0  0  0  0
  3  4  1  0  0  0  0
  4  5  2  0  0  0  0
  4 10  1  0  0  0  0
  5  6  1  0  0  0  0
  5  8  1  0  0  0  0
  6  7  2  0  0  0  0
  8  9  1  0  0  0  0
  9 10  2  0  0  0  0
M  END
>  <CHROM.1>
11.49129502,11.50377332,6.96313598,-0.95502889,1.32603406,-2.10500268

>  <Name>
ligand

>  <RI>
0

>  <Rbt.Current_Directory>
/home/itssahil/PROJECTS/Mol_Feturizer/New_Systems/rnas/4FEJ

>  <Rbt.Executable>
rbdock ($Id: //depot/dev/client3/rdock/2013.1/src/exe/rbdock.cxx#4 $)

>  <Rbt.Library>
libRbt.so (2013.1, Build901 2013/11/27)

>  <Rbt.Parameter_File>
/export/apps/rDock/src/rDock_2013.1_src/data/scripts/dock_solv.prm

>  <Rbt.Receptor>
prm/blind_docking_60.prm

>  <SCORE>
-17.4758

>  <SCORE.INTER>
-17.4758

>  <SCORE.INTER.CONST>
1

>  <SCORE.INTER.POLAR>
0

>  <SCORE.INTER.ROT>
0

>  <SCORE.INTER.SOLV>
3.93442

>  <SCORE.INTER.VDW>
-16.562

>  <SCORE.INTER.norm>
-1.74758

>  <SCORE.INTRA>
0

>  <SCORE.INTRA.DIHEDRAL>
0

>  <SCORE.INTRA.DIHEDRAL.0>
0

>  <SCORE.INTRA.POLAR>
0

>  <SCORE.INTRA.POLAR.0>
0

>  <SCORE.INTRA.REPUL>
0

>  <SCORE.INTRA.REPUL.0>
0

>  <SCORE.INTRA.SOLV>
0

>  <SCORE.INTRA.SOLV.lig_0>
-4.26631

>  <SCORE.INTRA.VDW>
0

>  <SCORE.INTRA.VDW.0>
0

>  <SCORE.INTRA.norm>
0

>  <SCORE.RESTR>
0

>  <SCORE.RESTR.CAVITY>
0

>  <SCORE.RESTR.norm>
0

>  <SCORE.SYSTEM>
0

>  <SCORE.SYSTEM.CONST>
0

>  <SCORE.SYSTEM.DIHEDRAL>
0

>  <SCORE.SYSTEM.SOLV>
0

>  <SCORE.SYSTEM.norm>
0

>  <SCORE.heavy>
10

>  <SCORE.norm>
-1.74758

>  <RMSD>
2.410

$$$$
ligand
 OpenBabel11021811493D
libRbt.so/2013.1/901 2013/11/27
 10 11  0  0  0  0  0  0  0  0999 V2000
   11.8502   10.8566    8.7595 N   0  0  0  0  0  0  0  0  0  0  0  0
   12.0160    9.6954    8.0478 C   0  0  0  0  0  0  0  0  0  0  0  0
   11.8577    9.6608    6.7148 N   0  0  0  0  0  0  0  0  0  0  0  0
   11.5306   10.8544    6.1776 C   0  0  0  0  0  0  0  0  0  0  0  0
   11.3498   12.0507    6.8361 C   0  0  0  0  0  0  0  0  0  0  0  0
   11.5136   12.1083    8.2345 C   0  0  0  0  0  0  0  0  0  0  0  0
   11.4002   13.0589    8.9961 O   0  0  0  0  0  0  0  0  0  0  0  0
   11.0290   13.0108    5.9217 N   0  0  0  0  0  0  0  0  0  0  0  0
   11.0130   12.4021    4.7172 C   0  0  0  0  0  0  0  0  0  0  0  0
   11.3167   11.0708    4.8439 N   0  0  0  0  0  0  0  0  0  0  0  0
  1  2  1  0  0  0  0
  1  6  1  0  0  0  0
  2  3  2  0  0  0  0
  3  4  1  0  0  0  0
  4  5  2  0  0  0  0
  4 10  1  0  0  0  0
  5  6  1  0  0  0  0
  5  8  1  0  0  0  0
  6  7  2  0  0  0  0
  8  9  1  0  0  0  0
  9 10  2  0  0  0  0
M  END
>  <CHROM.1>
11.48659676,11.50489838,6.96541764,-0.97025925,1.32502896,-2.08885979

>  <Name>
ligand

>  <RI>
0

>  <Rbt.Current_Directory>
/home/itssahil/PROJECTS/Mol_Feturizer/New_Systems/rnas/4FEJ

>  <Rbt.Executable>
rbdock ($Id: //depot/dev/client3/rdock/2013.1/src/exe/rbdock.cxx#4 $)

>  <Rbt.Library>
libRbt.so (2013.1, Build901 2013/11/27)

>  <Rbt.Parameter_File>
/export/apps/rDock/src/rDock_2013.1_src/data/scripts/dock_solv.prm

>  <Rbt.Receptor>
prm/blind_docking_60.prm

>  <SCORE>
-17.4724

>  <SCORE.INTER>
-17.4724

>  <SCORE.INTER.CONST>
1

>  <SCORE.INTER.POLAR>
0

>  <SCORE.INTER.ROT>
0

>  <SCORE.INTER.SOLV>
3.93005

>  <SCORE.INTER.VDW>
-16.5583

>  <SCORE.INTER.norm>
-1.74724

>  <SCORE.INTRA>
0

>  <SCORE.INTRA.DIHEDRAL>
0

>  <SCORE.INTRA.DIHEDRAL.0>
0

>  <SCORE.INTRA.POLAR>
0

>  <SCORE.INTRA.POLAR.0>
0

>  <SCORE.INTRA.REPUL>
0

>  <SCORE.INTRA.REPUL.0>
0

>  <SCORE.INTRA.SOLV>
0

>  <SCORE.INTRA.SOLV.lig_0>
-4.26631

>  <SCORE.INTRA.VDW>
0

>  <SCORE.INTRA.VDW.0>
0

>  <SCORE.INTRA.norm>
0

>  <SCORE.RESTR>
0

>  <SCORE.RESTR.CAVITY>
0

>  <SCORE.RESTR.norm>
0

>  <SCORE.SYSTEM>
0

>  <SCORE.SYSTEM.CONST>
0

>  <SCORE.SYSTEM.DIHEDRAL>
0

>  <SCORE.SYSTEM.SOLV>
0

>  <SCORE.SYSTEM.norm>
0

>  <SCORE.heavy>
10

>  <SCORE.norm>
-1.74724

>  <RMSD>
2.410

$$$$
ligand
 OpenBabel11021811493D
libRbt.so/2013.1/901 2013/11/27
 10 11  0  0  0  0  0  0  0  0999 V2000
   11.8558   10.8558    8.7587 N   0  0  0  0  0  0  0  0  0  0  0  0
   12.0156    9.6930    8.0484 C   0  0  0  0  0  0  0  0  0  0  0  0
   11.8538    9.6569    6.7159 N   0  0  0  0  0  0  0  0  0  0  0  0
   11.5296   10.8508    6.1777 C   0  0  0  0  0  0  0  0  0  0  0  0
   11.3547   12.0487    6.8347 C   0  0  0  0  0  0  0  0  0  0  0  0
   11.5223   12.1079    8.2326 C   0  0  0  0  0  0  0  0  0  0  0  0
   11.4143   13.0601    8.9931 O   0  0  0  0  0  0  0  0  0  0  0  0
   11.0350   13.0086    5.9197 N   0  0  0  0  0  0  0  0  0  0  0  0
   11.0137   12.3981    4.7162 C   0  0  0  0  0  0  0  0  0  0  0  0
   11.3130   11.0659    4.8441 N   0  0  0  0  0  0  0  0  0  0  0  0
  1  2  1  0  0  0  0
  1  6  1  0  0  0  0
  2  3  2  0  0  0  0
  3  4  1  0  0  0  0
  4  5  2  0  0  0  0
  4 10  1  0  0  0  0
  5  6  1  0  0  0  0
  5  8  1  0  0  0  0
  6  7  2  0  0  0  0
  8  9  1  0  0  0  0
  9 10  2  0  0  0  0
M  END
>  <CHROM.1>
11.48990361,11.50265471,6.96457810,-0.95365265,1.32680223,-2.10649505

>  <Name>
ligand

>  <RI>
0

>  <Rbt.Current_Directory>
/home/itssahil/PROJECTS/Mol_Feturizer/New_Systems/rnas/4FEJ

>  <Rbt.Executable>
rbdock ($Id: //depot/dev/client3/rdock/2013.1/src/exe/rbdock.cxx#4 $)

>  <Rbt.Library>
libRbt.so (2013.1, Build901 2013/11/27)

>  <Rbt.Parameter_File>
/export/apps/rDock/src/rDock_2013.1_src/data/scripts/dock_solv.prm

>  <Rbt.Receptor>
prm/blind_docking_60.prm

>  <SCORE>
-17.475

>  <SCORE.INTER>
-17.475

>  <SCORE.INTER.CONST>
1

>  <SCORE.INTER.POLAR>
0

>  <SCORE.INTER.ROT>
0

>  <SCORE.INTER.SOLV>
3.93547

>  <SCORE.INTER.VDW>
-16.5618

>  <SCORE.INTER.norm>
-1.7475

>  <SCORE.INTRA>
0

>  <SCORE.INTRA.DIHEDRAL>
0

>  <SCORE.INTRA.DIHEDRAL.0>
0

>  <SCORE.INTRA.POLAR>
0

>  <SCORE.INTRA.POLAR.0>
0

>  <SCORE.INTRA.REPUL>
0

>  <SCORE.INTRA.REPUL.0>
0

>  <SCORE.INTRA.SOLV>
0

>  <SCORE.INTRA.SOLV.lig_0>
-4.26631

>  <SCORE.INTRA.VDW>
0

>  <SCORE.INTRA.VDW.0>
0

>  <SCORE.INTRA.norm>
0

>  <SCORE.RESTR>
0

>  <SCORE.RESTR.CAVITY>
0

>  <SCORE.RESTR.norm>
0

>  <SCORE.SYSTEM>
0

>  <SCORE.SYSTEM.CONST>
0

>  <SCORE.SYSTEM.DIHEDRAL>
0

>  <SCORE.SYSTEM.SOLV>
0

>  <SCORE.SYSTEM.norm>
0

>  <SCORE.heavy>
10

>  <SCORE.norm>
-1.7475

>  <RMSD>
2.410

$$$$
ligand
 OpenBabel11021811493D
libRbt.so/2013.1/901 2013/11/27
 10 11  0  0  0  0  0  0  0  0999 V2000
   11.8638   10.8663    8.7566 N   0  0  0  0  0  0  0  0  0  0  0  0
   12.0246    9.7021    8.0485 C   0  0  0  0  0  0  0  0  0  0  0  0
   11.8581    9.6622    6.7167 N   0  0  0  0  0  0  0  0  0  0  0  0
   11.5284   10.8538    6.1767 C   0  0  0  0  0  0  0  0  0  0  0  0
   11.3522   12.0529    6.8314 C   0  0  0  0  0  0  0  0  0  0  0  0
   11.5246   12.1160    8.2285 C   0  0  0  0  0  0  0  0  0  0  0  0
   11.4165   13.0697    8.9871 O   0  0  0  0  0  0  0  0  0  0  0  0
   11.0263   13.0095    5.9152 N   0  0  0  0  0  0  0  0  0  0  0  0
   11.0025   12.3959    4.7133 C   0  0  0  0  0  0  0  0  0  0  0  0
   11.3063   11.0649    4.8434 N   0  0  0  0  0  0  0  0  0  0  0  0
  1  2  1  0  0  0  0
  1  6  1  0  0  0  0
  2  3  2  0  0  0  0
  3  4  1  0  0  0  0
  4  5  2  0  0  0  0
  4 10  1  0  0  0  0
  5  6  1  0  0  0  0
  5  8  1  0  0  0  0
  6  7  2  0  0  0  0
  8  9  1  0  0  0  0
  9 10  2  0  0  0  0
M  END
>  <CHROM.1>
11.48951079,11.50750862,6.96214265,-0.94739853,1.32235289,-2.11505654

>  <Name>
ligand

>  <RI>
0

>  <Rbt.Current_Directory>
/home/itssahil/PROJECTS/Mol_Feturizer/New_Systems/rnas/4FEJ

>  <Rbt.Executable>
rbdock ($Id: //depot/dev/client3/rdock/2013.1/src/exe/rbdock.cxx#4 $)

>  <Rbt.Library>
libRbt.so (2013.1, Build901 2013/11/27)

>  <Rbt.Parameter_File>
/export/apps/rDock/src/rDock_2013.1_src/data/scripts/dock_solv.prm

>  <Rbt.Receptor>
prm/blind_docking_80.prm

>  <SCORE>
-17.4738

>  <SCORE.INTER>
-17.4738

>  <SCORE.INTER.CONST>
1

>  <SCORE.INTER.POLAR>
0

>  <SCORE.INTER.ROT>
0

>  <SCORE.INTER.SOLV>
3.93663

>  <SCORE.INTER.VDW>
-16.5614

>  <SCORE.INTER.norm>
-1.74738

>  <SCORE.INTRA>
0

>  <SCORE.INTRA.DIHEDRAL>
0

>  <SCORE.INTRA.DIHEDRAL.0>
0

>  <SCORE.INTRA.POLAR>
0

>  <SCORE.INTRA.POLAR.0>
0

>  <SCORE.INTRA.REPUL>
0

>  <SCORE.INTRA.REPUL.0>
0

>  <SCORE.INTRA.SOLV>
0

>  <SCORE.INTRA.SOLV.lig_0>
-4.26631

>  <SCORE.INTRA.VDW>
0

>  <SCORE.INTRA.VDW.0>
0

>  <SCORE.INTRA.norm>
0

>  <SCORE.RESTR>
0

>  <SCORE.RESTR.CAVITY>
0

>  <SCORE.RESTR.norm>
0

>  <SCORE.SYSTEM>
0

>  <SCORE.SYSTEM.CONST>
0

>  <SCORE.SYSTEM.DIHEDRAL>
0

>  <SCORE.SYSTEM.SOLV>
0

>  <SCORE.SYSTEM.norm>
0

>  <SCORE.heavy>
10

>  <SCORE.norm>
-1.74738

>  <RMSD>
2.410

$$$$
ligand
 OpenBabel11021811493D
libRbt.so/2013.1/901 2013/11/27
 10 11  0  0  0  0  0  0  0  0999 V2000
   11.8613   10.8632    8.7554 N   0  0  0  0  0  0  0  0  0  0  0  0
   12.0192    9.6988    8.0471 C   0  0  0  0  0  0  0  0  0  0  0  0
   11.8561    9.6603    6.7148 N   0  0  0  0  0  0  0  0  0  0  0  0
   11.5327   10.8535    6.1746 C   0  0  0  0  0  0  0  0  0  0  0  0
   11.3598   12.0529    6.8295 C   0  0  0  0  0  0  0  0  0  0  0  0
   11.5287   12.1146    8.2271 C   0  0  0  0  0  0  0  0  0  0  0  0
   11.4225   13.0684    8.9859 O   0  0  0  0  0  0  0  0  0  0  0  0
   11.0403   13.0114    5.9129 N   0  0  0  0  0  0  0  0  0  0  0  0
   11.0172   12.3985    4.7106 C   0  0  0  0  0  0  0  0  0  0  0  0
   11.3152   11.0663    4.8408 N   0  0  0  0  0  0  0  0  0  0  0  0
  1  2  1  0  0  0  0
  1  6  1  0  0  0  0
  2  3  2  0  0  0  0
  3  4  1  0  0  0  0
  4  5  2  0  0  0  0
  4 10  1  0  0  0  0
  5  6  1  0  0  0  0
  5  8  1  0  0  0  0
  6  7  2  0  0  0  0
  8  9  1  0  0  0  0
  9 10  2  0  0  0  0
M  END
>  <CHROM.1>
11.49450259,11.50692893,6.96027490,-0.94796817,1.32730834,-2.11396080

>  <Name>
ligand

>  <RI>
0

>  <Rbt.Current_Directory>
/home/itssahil/PROJECTS/Mol_Feturizer/New_Systems/rnas/4FEJ

>  <Rbt.Executable>
rbdock ($Id: //depot/dev/client3/rdock/2013.1/src/exe/rbdock.cxx#4 $)

>  <Rbt.Library>
libRbt.so (2013.1, Build901 2013/11/27)

>  <Rbt.Parameter_File>
/export/apps/rDock/src/rDock_2013.1_src/data/scripts/dock_solv.prm

>  <Rbt.Receptor>
prm/blind_docking_80.prm

>  <SCORE>
-17.4777

>  <SCORE.INTER>
-17.4777

>  <SCORE.INTER.CONST>
1

>  <SCORE.INTER.POLAR>
0

>  <SCORE.INTER.ROT>
0

>  <SCORE.INTER.SOLV>
3.94281

>  <SCORE.INTER.VDW>
-16.5661

>  <SCORE.INTER.norm>
-1.74777

>  <SCORE.INTRA>
0

>  <SCORE.INTRA.DIHEDRAL>
0

>  <SCORE.INTRA.DIHEDRAL.0>
0

>  <SCORE.INTRA.POLAR>
0

>  <SCORE.INTRA.POLAR.0>
0

>  <SCORE.INTRA.REPUL>
0

>  <SCORE.INTRA.REPUL.0>
0

>  <SCORE.INTRA.SOLV>
0

>  <SCORE.INTRA.SOLV.lig_0>
-4.26631

>  <SCORE.INTRA.VDW>
0

>  <SCORE.INTRA.VDW.0>
0

>  <SCORE.INTRA.norm>
0

>  <SCORE.RESTR>
0

>  <SCORE.RESTR.CAVITY>
0

>  <SCORE.RESTR.norm>
0

>  <SCORE.SYSTEM>
0

>  <SCORE.SYSTEM.CONST>
0

>  <SCORE.SYSTEM.DIHEDRAL>
0

>  <SCORE.SYSTEM.SOLV>
0

>  <SCORE.SYSTEM.norm>
0

>  <SCORE.heavy>
10

>  <SCORE.norm>
-1.74777

>  <RMSD>
2.410

$$$$
ligand
 OpenBabel11021811493D
libRbt.so/2013.1/901 2013/11/27
 10 11  0  0  0  0  0  0  0  0999 V2000
   11.8471   10.7875    8.7793 N   0  0  0  0  0  0  0  0  0  0  0  0
   11.9926    9.6262    8.0632 C   0  0  0  0  0  0  0  0  0  0  0  0
   11.8291    9.5985    6.7307 N   0  0  0  0  0  0  0  0  0  0  0  0
   11.5185   10.7988    6.1986 C   0  0  0  0  0  0  0  0  0  0  0  0
   11.3584   11.9955    6.8616 C   0  0  0  0  0  0  0  0  0  0  0  0
   11.5279   12.0459    8.2596 C   0  0  0  0  0  0  0  0  0  0  0  0
   11.4319   12.9956    9.0248 O   0  0  0  0  0  0  0  0  0  0  0  0
   11.0491   12.9635    5.9516 N   0  0  0  0  0  0  0  0  0  0  0  0
   11.0196   12.3591    4.7452 C   0  0  0  0  0  0  0  0  0  0  0  0
   11.3033   11.0229    4.8663 N   0  0  0  0  0  0  0  0  0  0  0  0
  1  2  1  0  0  0  0
  1  6  1  0  0  0  0
  2  3  2  0  0  0  0
  3  4  1  0  0  0  0
  4  5  2  0  0  0  0
  4 10  1  0  0  0  0
  5  6  1  0  0  0  0
  5  8  1  0  0  0  0
  6  7  2  0  0  0  0
  8  9  1  0  0  0  0
  9 10  2  0  0  0  0
M  END
>  <CHROM.1>
11.48723985,11.44723451,6.98868232,-0.92436933,1.33638558,-2.13009815

>  <Name>
ligand

>  <RI>
0

>  <Rbt.Current_Directory>
/home/itssahil/PROJECTS/Mol_Feturizer/New_Systems/rnas/4FEJ

>  <Rbt.Executable>
rbdock ($Id: //depot/dev/client3/rdock/2013.1/src/exe/rbdock.cxx#4 $)

>  <Rbt.Library>
libRbt.so (2013.1, Build901 2013/11/27)

>  <Rbt.Parameter_File>
/export/apps/rDock/src/rDock_2013.1_src/data/scripts/dock_solv.prm

>  <Rbt.Receptor>
prm/blind_docking_80.prm

>  <SCORE>
-17.4156

>  <SCORE.INTER>
-17.4156

>  <SCORE.INTER.CONST>
1

>  <SCORE.INTER.POLAR>
0

>  <SCORE.INTER.ROT>
0

>  <SCORE.INTER.SOLV>
3.91476

>  <SCORE.INTER.VDW>
-16.5153

>  <SCORE.INTER.norm>
-1.74156

>  <SCORE.INTRA>
0

>  <SCORE.INTRA.DIHEDRAL>
0

>  <SCORE.INTRA.DIHEDRAL.0>
0

>  <SCORE.INTRA.POLAR>
0

>  <SCORE.INTRA.POLAR.0>
0

>  <SCORE.INTRA.REPUL>
0

>  <SCORE.INTRA.REPUL.0>
0

>  <SCORE.INTRA.SOLV>
0

>  <SCORE.INTRA.SOLV.lig_0>
-4.26631

>  <SCORE.INTRA.VDW>
0

>  <SCORE.INTRA.VDW.0>
0

>  <SCORE.INTRA.norm>
0

>  <SCORE.RESTR>
0

>  <SCORE.RESTR.CAVITY>
0

>  <SCORE.RESTR.norm>
0

>  <SCORE.SYSTEM>
0

>  <SCORE.SYSTEM.CONST>
0

>  <SCORE.SYSTEM.DIHEDRAL>
0

>  <SCORE.SYSTEM.SOLV>
0

>  <SCORE.SYSTEM.norm>
0

>  <SCORE.heavy>
10

>  <SCORE.norm>
-1.74156

>  <RMSD>
2.410

$$$$
ligand
 OpenBabel11021811493D
libRbt.so/2013.1/901 2013/11/27
 10 11  0  0  0  0  0  0  0  0999 V2000
   11.8532   10.8558    8.7571 N   0  0  0  0  0  0  0  0  0  0  0  0
   12.0165    9.6935    8.0465 C   0  0  0  0  0  0  0  0  0  0  0  0
   11.8566    9.6576    6.7138 N   0  0  0  0  0  0  0  0  0  0  0  0
   11.5304   10.8510    6.1756 C   0  0  0  0  0  0  0  0  0  0  0  0
   11.3521   12.0483    6.8329 C   0  0  0  0  0  0  0  0  0  0  0  0
   11.5176   12.1073    8.2310 C   0  0  0  0  0  0  0  0  0  0  0  0
   11.4065   13.0589    8.9918 O   0  0  0  0  0  0  0  0  0  0  0  0
   11.0314   13.0078    5.9178 N   0  0  0  0  0  0  0  0  0  0  0  0
   11.0130   12.3977    4.7141 C   0  0  0  0  0  0  0  0  0  0  0  0
   11.3151   11.0662    4.8418 N   0  0  0  0  0  0  0  0  0  0  0  0
  1  2  1  0  0  0  0
  1  6  1  0  0  0  0
  2  3  2  0  0  0  0
  3  4  1  0  0  0  0
  4  5  2  0  0  0  0
  4 10  1  0  0  0  0
  5  6  1  0  0  0  0
  5  8  1  0  0  0  0
  6  7  2  0  0  0  0
  8  9  1  0  0  0  0
  9 10  2  0  0  0  0
M  END
>  <CHROM.1>
11.48824234,11.50246935,6.96269645,-0.96302228,1.32557571,-2.09701519

>  <Name>
ligand

>  <RI>
0

>  <Rbt.Current_Directory>
/home/itssahil/PROJECTS/Mol_Feturizer/New_Systems/rnas/4FEJ

>  <Rbt.Executable>
rbdock ($Id: //depot/dev/client3/rdock/2013.1/src/exe/rbdock.cxx#4 $)

>  <Rbt.Library>
libRbt.so (2013.1, Build901 2013/11/27)

>  <Rbt.Parameter_File>
/export/apps/rDock/src/rDock_2013.1_src/data/scripts/dock_solv.prm

>  <Rbt.Receptor>
prm/blind_docking_80.prm

>  <SCORE>
-17.4755

>  <SCORE.INTER>
-17.4755

>  <SCORE.INTER.CONST>
1

>  <SCORE.INTER.POLAR>
0

>  <SCORE.INTER.ROT>
0

>  <SCORE.INTER.SOLV>
3.93184

>  <SCORE.INTER.VDW>
-16.561

>  <SCORE.INTER.norm>
-1.74755

>  <SCORE.INTRA>
0

>  <SCORE.INTRA.DIHEDRAL>
0

>  <SCORE.INTRA.DIHEDRAL.0>
0

>  <SCORE.INTRA.POLAR>
0

>  <SCORE.INTRA.POLAR.0>
0

>  <SCORE.INTRA.REPUL>
0

>  <SCORE.INTRA.REPUL.0>
0

>  <SCORE.INTRA.SOLV>
0

>  <SCORE.INTRA.SOLV.lig_0>
-4.26631

>  <SCORE.INTRA.VDW>
0

>  <SCORE.INTRA.VDW.0>
0

>  <SCORE.INTRA.norm>
0

>  <SCORE.RESTR>
0

>  <SCORE.RESTR.CAVITY>
0

>  <SCORE.RESTR.norm>
0

>  <SCORE.SYSTEM>
0

>  <SCORE.SYSTEM.CONST>
0

>  <SCORE.SYSTEM.DIHEDRAL>
0

>  <SCORE.SYSTEM.SOLV>
0

>  <SCORE.SYSTEM.norm>
0

>  <SCORE.heavy>
10

>  <SCORE.norm>
-1.74755

>  <RMSD>
2.410

$$$$
ligand
 OpenBabel11021811493D
libRbt.so/2013.1/901 2013/11/27
 10 11  0  0  0  0  0  0  0  0999 V2000
   11.8567   10.8605    8.7561 N   0  0  0  0  0  0  0  0  0  0  0  0
   12.0192    9.6972    8.0472 C   0  0  0  0  0  0  0  0  0  0  0  0
   11.8597    9.6597    6.7144 N   0  0  0  0  0  0  0  0  0  0  0  0
   11.5349   10.8527    6.1746 C   0  0  0  0  0  0  0  0  0  0  0  0
   11.3573   12.0510    6.8302 C   0  0  0  0  0  0  0  0  0  0  0  0
   11.5224   12.1116    8.2283 C   0  0  0  0  0  0  0  0  0  0  0  0
   11.4119   13.0644    8.9877 O   0  0  0  0  0  0  0  0  0  0  0  0
   11.0378   13.0096    5.9137 N   0  0  0  0  0  0  0  0  0  0  0  0
   11.0194   12.3979    4.7108 C   0  0  0  0  0  0  0  0  0  0  0  0
   11.3203   11.0662    4.8404 N   0  0  0  0  0  0  0  0  0  0  0  0
  1  2  1  0  0  0  0
  1  6  1  0  0  0  0
  2  3  2  0  0  0  0
  3  4  1  0  0  0  0
  4  5  2  0  0  0  0
  4 10  1  0  0  0  0
  5  6  1  0  0  0  0
  5  8  1  0  0  0  0
  6  7  2  0  0  0  0
  8  9  1  0  0  0  0
  9 10  2  0  0  0  0
M  END
>  <CHROM.1>
11.49297525,11.50518352,6.96075444,-0.96248563,1.32652998,-2.09886584

>  <Name>
ligand

>  <RI>
0

>  <Rbt.Current_Directory>
/home/itssahil/PROJECTS/Mol_Feturizer/New_Systems/rnas/4FEJ

>  <Rbt.Executable>
rbdock ($Id: //depot/dev/client3/rdock/2013.1/src/exe/rbdock.cxx#4 $)

>  <Rbt.Library>
libRbt.so (2013.1, Build901 2013/11/27)

>  <Rbt.Parameter_File>
/export/apps/rDock/src/rDock_2013.1_src/data/scripts/dock_solv.prm

>  <Rbt.Receptor>
prm/blind_docking_80.prm

>  <SCORE>
-17.4766

>  <SCORE.INTER>
-17.4766

>  <SCORE.INTER.CONST>
1

>  <SCORE.INTER.POLAR>
0

>  <SCORE.INTER.ROT>
0

>  <SCORE.INTER.SOLV>
3.93775

>  <SCORE.INTER.VDW>
-16.5637

>  <SCORE.INTER.norm>
-1.74766

>  <SCORE.INTRA>
0

>  <SCORE.INTRA.DIHEDRAL>
0

>  <SCORE.INTRA.DIHEDRAL.0>
0

>  <SCORE.INTRA.POLAR>
0

>  <SCORE.INTRA.POLAR.0>
0

>  <SCORE.INTRA.REPUL>
0

>  <SCORE.INTRA.REPUL.0>
0

>  <SCORE.INTRA.SOLV>
0

>  <SCORE.INTRA.SOLV.lig_0>
-4.26631

>  <SCORE.INTRA.VDW>
0

>  <SCORE.INTRA.VDW.0>
0

>  <SCORE.INTRA.norm>
0

>  <SCORE.RESTR>
0

>  <SCORE.RESTR.CAVITY>
0

>  <SCORE.RESTR.norm>
0

>  <SCORE.SYSTEM>
0

>  <SCORE.SYSTEM.CONST>
0

>  <SCORE.SYSTEM.DIHEDRAL>
0

>  <SCORE.SYSTEM.SOLV>
0

>  <SCORE.SYSTEM.norm>
0

>  <SCORE.heavy>
10

>  <SCORE.norm>
-1.74766

>  <RMSD>
2.410

$$$$
ligand
 OpenBabel11021811493D
libRbt.so/2013.1/901 2013/11/27
 10 11  0  0  0  0  0  0  0  0999 V2000
   11.8539   10.8592    8.7576 N   0  0  0  0  0  0  0  0  0  0  0  0
   12.0143    9.6959    8.0480 C   0  0  0  0  0  0  0  0  0  0  0  0
   11.8555    9.6595    6.7151 N   0  0  0  0  0  0  0  0  0  0  0  0
   11.5334   10.8534    6.1758 C   0  0  0  0  0  0  0  0  0  0  0  0
   11.3581   12.0518    6.8320 C   0  0  0  0  0  0  0  0  0  0  0  0
   11.5226   12.1113    8.2302 C   0  0  0  0  0  0  0  0  0  0  0  0
   11.4137   13.0638    8.9902 O   0  0  0  0  0  0  0  0  0  0  0  0
   11.0411   13.0116    5.9159 N   0  0  0  0  0  0  0  0  0  0  0  0
   11.0220   12.4006    4.7126 C   0  0  0  0  0  0  0  0  0  0  0  0
   11.3200   11.0682    4.8417 N   0  0  0  0  0  0  0  0  0  0  0  0
  1  2  1  0  0  0  0
  1  6  1  0  0  0  0
  2  3  2  0  0  0  0
  3  4  1  0  0  0  0
  4  5  2  0  0  0  0
  4 10  1  0  0  0  0
  5  6  1  0  0  0  0
  5  8  1  0  0  0  0
  6  7  2  0  0  0  0
  8  9  1  0  0  0  0
  9 10  2  0  0  0  0
M  END
>  <CHROM.1>
11.49251042,11.50561135,6.96234489,-0.95986199,1.32863496,-2.10084784

>  <Name>
ligand

>  <RI>
0

>  <Rbt.Current_Directory>
/home/itssahil/PROJECTS/Mol_Feturizer/New_Systems/rnas/4FEJ

>  <Rbt.Executable>
rbdock ($Id: //depot/dev/client3/rdock/2013.1/src/exe/rbdock.cxx#4 $)

>  <Rbt.Library>
libRbt.so (2013.1, Build901 2013/11/27)

>  <Rbt.Parameter_File>
/export/apps/rDock/src/rDock_2013.1_src/data/scripts/dock_solv.prm

>  <Rbt.Receptor>
prm/pocket_docking_3.prm

>  <SCORE>
-17.4758

>  <SCORE.INTER>
-17.4758

>  <SCORE.INTER.CONST>
1

>  <SCORE.INTER.POLAR>
0

>  <SCORE.INTER.ROT>
0

>  <SCORE.INTER.SOLV>
3.94039

>  <SCORE.INTER.VDW>
-16.564

>  <SCORE.INTER.norm>
-1.74758

>  <SCORE.INTRA>
0

>  <SCORE.INTRA.DIHEDRAL>
0

>  <SCORE.INTRA.DIHEDRAL.0>
0

>  <SCORE.INTRA.POLAR>
0

>  <SCORE.INTRA.POLAR.0>
0

>  <SCORE.INTRA.REPUL>
0

>  <SCORE.INTRA.REPUL.0>
0

>  <SCORE.INTRA.SOLV>
0

>  <SCORE.INTRA.SOLV.lig_0>
-4.26631

>  <SCORE.INTRA.VDW>
0

>  <SCORE.INTRA.VDW.0>
0

>  <SCORE.INTRA.norm>
0

>  <SCORE.RESTR>
0

>  <SCORE.RESTR.CAVITY>
0

>  <SCORE.RESTR.norm>
0

>  <SCORE.SYSTEM>
0

>  <SCORE.SYSTEM.CONST>
0

>  <SCORE.SYSTEM.DIHEDRAL>
0

>  <SCORE.SYSTEM.SOLV>
0

>  <SCORE.SYSTEM.norm>
0

>  <SCORE.heavy>
10

>  <SCORE.norm>
-1.74758

>  <RMSD>
2.410

$$$$
ligand
 OpenBabel11021811493D
libRbt.so/2013.1/901 2013/11/27
 10 11  0  0  0  0  0  0  0  0999 V2000
   11.8530   10.8550    8.7567 N   0  0  0  0  0  0  0  0  0  0  0  0
   12.0168    9.6928    8.0462 C   0  0  0  0  0  0  0  0  0  0  0  0
   11.8571    9.6569    6.7134 N   0  0  0  0  0  0  0  0  0  0  0  0
   11.5307   10.8502    6.1752 C   0  0  0  0  0  0  0  0  0  0  0  0
   11.3518   12.0474    6.8325 C   0  0  0  0  0  0  0  0  0  0  0  0
   11.5171   12.1064    8.2306 C   0  0  0  0  0  0  0  0  0  0  0  0
   11.4055   13.0580    8.9913 O   0  0  0  0  0  0  0  0  0  0  0  0
   11.0310   13.0068    5.9173 N   0  0  0  0  0  0  0  0  0  0  0  0
   11.0131   12.3967    4.7136 C   0  0  0  0  0  0  0  0  0  0  0  0
   11.3156   11.0652    4.8414 N   0  0  0  0  0  0  0  0  0  0  0  0
  1  2  1  0  0  0  0
  1  6  1  0  0  0  0
  2  3  2  0  0  0  0
  3  4  1  0  0  0  0
  4  5  2  0  0  0  0
  4 10  1  0  0  0  0
  5  6  1  0  0  0  0
  5  8  1  0  0  0  0
  6  7  2  0  0  0  0
  8  9  1  0  0  0  0
  9 10  2  0  0  0  0
M  END
>  <CHROM.1>
11.48816791,11.50159731,6.96228501,-0.96441388,1.32538926,-2.09566266

>  <Name>
ligand

>  <RI>
0

>  <Rbt.Current_Directory>
/home/itssahil/PROJECTS/Mol_Feturizer/New_Systems/rnas/4FEJ

>  <Rbt.Executable>
rbdock ($Id: //depot/dev/client3/rdock/2013.1/src/exe/rbdock.cxx#4 $)

>  <Rbt.Library>
libRbt.so (2013.1, Build901 2013/11/27)

>  <Rbt.Parameter_File>
/export/apps/rDock/src/rDock_2013.1_src/data/scripts/dock_solv.prm

>  <Rbt.Receptor>
prm/pocket_docking_3.prm

>  <SCORE>
-17.4759

>  <SCORE.INTER>
-17.4759

>  <SCORE.INTER.CONST>
1

>  <SCORE.INTER.POLAR>
0

>  <SCORE.INTER.ROT>
0

>  <SCORE.INTER.SOLV>
3.93086

>  <SCORE.INTER.VDW>
-16.5609

>  <SCORE.INTER.norm>
-1.74759

>  <SCORE.INTRA>
0

>  <SCORE.INTRA.DIHEDRAL>
0

>  <SCORE.INTRA.DIHEDRAL.0>
0

>  <SCORE.INTRA.POLAR>
0

>  <SCORE.INTRA.POLAR.0>
0

>  <SCORE.INTRA.REPUL>
0

>  <SCORE.INTRA.REPUL.0>
0

>  <SCORE.INTRA.SOLV>
0

>  <SCORE.INTRA.SOLV.lig_0>
-4.26631

>  <SCORE.INTRA.VDW>
0

>  <SCORE.INTRA.VDW.0>
0

>  <SCORE.INTRA.norm>
0

>  <SCORE.RESTR>
0

>  <SCORE.RESTR.CAVITY>
0

>  <SCORE.RESTR.norm>
0

>  <SCORE.SYSTEM>
0

>  <SCORE.SYSTEM.CONST>
0

>  <SCORE.SYSTEM.DIHEDRAL>
0

>  <SCORE.SYSTEM.SOLV>
0

>  <SCORE.SYSTEM.norm>
0

>  <SCORE.heavy>
10

>  <SCORE.norm>
-1.74759

>  <RMSD>
2.410

$$$$
ligand
 OpenBabel11021811493D
libRbt.so/2013.1/901 2013/11/27
 10 11  0  0  0  0  0  0  0  0999 V2000
   11.8388   10.8697    8.7805 N   0  0  0  0  0  0  0  0  0  0  0  0
   11.9889    9.6971    8.0842 C   0  0  0  0  0  0  0  0  0  0  0  0
   11.8282    9.6466    6.7520 N   0  0  0  0  0  0  0  0  0  0  0  0
   11.5154   10.8369    6.1993 C   0  0  0  0  0  0  0  0  0  0  0  0
   11.3507   12.0441    6.8419 C   0  0  0  0  0  0  0  0  0  0  0  0
   11.5172   12.1183    8.2391 C   0  0  0  0  0  0  0  0  0  0  0  0
   11.4171   13.0805    8.9882 O   0  0  0  0  0  0  0  0  0  0  0  0
   11.0406   12.9959    5.9151 N   0  0  0  0  0  0  0  0  0  0  0  0
   11.0151   12.3713    4.7190 C   0  0  0  0  0  0  0  0  0  0  0  0
   11.3022   11.0381    4.8630 N   0  0  0  0  0  0  0  0  0  0  0  0
  1  2  1  0  0  0  0
  1  6  1  0  0  0  0
  2  3  2  0  0  0  0
  3  4  1  0  0  0  0
  4  5  2  0  0  0  0
  4 10  1  0  0  0  0
  5  6  1  0  0  0  0
  5  8  1  0  0  0  0
  6  7  2  0  0  0  0
  8  9  1  0  0  0  0
  9 10  2  0  0  0  0
M  END
>  <CHROM.1>
11.48074699,11.49839680,6.97836021,-0.93783973,1.33511355,-2.13375355

>  <Name>
ligand

>  <RI>
0

>  <Rbt.Current_Directory>
/home/itssahil/PROJECTS/Mol_Feturizer/New_Systems/rnas/4FEJ

>  <Rbt.Executable>
rbdock ($Id: //depot/dev/client3/rdock/2013.1/src/exe/rbdock.cxx#4 $)

>  <Rbt.Library>
libRbt.so (2013.1, Build901 2013/11/27)

>  <Rbt.Parameter_File>
/export/apps/rDock/src/rDock_2013.1_src/data/scripts/dock_solv.prm

>  <Rbt.Receptor>
prm/pocket_docking_3.prm

>  <SCORE>
-17.4179

>  <SCORE.INTER>
-17.4179

>  <SCORE.INTER.CONST>
1

>  <SCORE.INTER.POLAR>
0

>  <SCORE.INTER.ROT>
0

>  <SCORE.INTER.SOLV>
3.97174

>  <SCORE.INTER.VDW>
-16.5359

>  <SCORE.INTER.norm>
-1.74179

>  <SCORE.INTRA>
0

>  <SCORE.INTRA.DIHEDRAL>
0

>  <SCORE.INTRA.DIHEDRAL.0>
0

>  <SCORE.INTRA.POLAR>
0

>  <SCORE.INTRA.POLAR.0>
0

>  <SCORE.INTRA.REPUL>
0

>  <SCORE.INTRA.REPUL.0>
0

>  <SCORE.INTRA.SOLV>
0

>  <SCORE.INTRA.SOLV.lig_0>
-4.26631

>  <SCORE.INTRA.VDW>
0

>  <SCORE.INTRA.VDW.0>
0

>  <SCORE.INTRA.norm>
0

>  <SCORE.RESTR>
0

>  <SCORE.RESTR.CAVITY>
0

>  <SCORE.RESTR.norm>
0

>  <SCORE.SYSTEM>
0

>  <SCORE.SYSTEM.CONST>
0

>  <SCORE.SYSTEM.DIHEDRAL>
0

>  <SCORE.SYSTEM.SOLV>
0

>  <SCORE.SYSTEM.norm>
0

>  <SCORE.heavy>
10

>  <SCORE.norm>
-1.74179

>  <RMSD>
2.410

$$$$
ligand
 OpenBabel11021811493D
libRbt.so/2013.1/901 2013/11/27
 10 11  0  0  0  0  0  0  0  0999 V2000
   11.8649   10.8483    8.7658 N   0  0  0  0  0  0  0  0  0  0  0  0
   12.0549    9.6976    8.0432 C   0  0  0  0  0  0  0  0  0  0  0  0
   11.9082    9.6749    6.7086 N   0  0  0  0  0  0  0  0  0  0  0  0
   11.5667   10.8689    6.1815 C   0  0  0  0  0  0  0  0  0  0  0  0
   11.3616   12.0550    6.8511 C   0  0  0  0  0  0  0  0  0  0  0  0
   11.5128   12.1001    8.2513 C   0  0  0  0  0  0  0  0  0  0  0  0
   11.3782   13.0405    9.0221 O   0  0  0  0  0  0  0  0  0  0  0  0
   11.0331   13.0198    5.9443 N   0  0  0  0  0  0  0  0  0  0  0  0
   11.0367   12.4239    4.7333 C   0  0  0  0  0  0  0  0  0  0  0  0
   11.3604   11.0963    4.8483 N   0  0  0  0  0  0  0  0  0  0  0  0
  1  2  1  0  0  0  0
  1  6  1  0  0  0  0
  2  3  2  0  0  0  0
  3  4  1  0  0  0  0
  4  5  2  0  0  0  0
  4 10  1  0  0  0  0
  5  6  1  0  0  0  0
  5  8  1  0  0  0  0
  6  7  2  0  0  0  0
  8  9  1  0  0  0  0
  9 10  2  0  0  0  0
M  END
>  <CHROM.1>
11.50588264,11.51007028,6.97573158,-1.02958078,1.31490076,-2.02065246

>  <Name>
ligand

>  <RI>
0

>  <Rbt.Current_Directory>
/home/itssahil/PROJECTS/Mol_Feturizer/New_Systems/rnas/4FEJ

>  <Rbt.Executable>
rbdock ($Id: //depot/dev/client3/rdock/2013.1/src/exe/rbdock.cxx#4 $)

>  <Rbt.Library>
libRbt.so (2013.1, Build901 2013/11/27)

>  <Rbt.Parameter_File>
/export/apps/rDock/src/rDock_2013.1_src/data/scripts/dock_solv.prm

>  <Rbt.Receptor>
prm/pocket_docking_3.prm

>  <SCORE>
-17.4542

>  <SCORE.INTER>
-17.4542

>  <SCORE.INTER.CONST>
1

>  <SCORE.INTER.POLAR>
0

>  <SCORE.INTER.ROT>
0

>  <SCORE.INTER.SOLV>
3.90195

>  <SCORE.INTER.VDW>
-16.5368

>  <SCORE.INTER.norm>
-1.74542

>  <SCORE.INTRA>
0

>  <SCORE.INTRA.DIHEDRAL>
0

>  <SCORE.INTRA.DIHEDRAL.0>
0

>  <SCORE.INTRA.POLAR>
0

>  <SCORE.INTRA.POLAR.0>
0

>  <SCORE.INTRA.REPUL>
0

>  <SCORE.INTRA.REPUL.0>
0

>  <SCORE.INTRA.SOLV>
0

>  <SCORE.INTRA.SOLV.lig_0>
-4.26631

>  <SCORE.INTRA.VDW>
0

>  <SCORE.INTRA.VDW.0>
0

>  <SCORE.INTRA.norm>
0

>  <SCORE.RESTR>
0

>  <SCORE.RESTR.CAVITY>
0

>  <SCORE.RESTR.norm>
0

>  <SCORE.SYSTEM>
0

>  <SCORE.SYSTEM.CONST>
0

>  <SCORE.SYSTEM.DIHEDRAL>
0

>  <SCORE.SYSTEM.SOLV>
0

>  <SCORE.SYSTEM.norm>
0

>  <SCORE.heavy>
10

>  <SCORE.norm>
-1.74542

>  <RMSD>
2.410

$$$$
ligand
 OpenBabel11021811493D
libRbt.so/2013.1/901 2013/11/27
 10 11  0  0  0  0  0  0  0  0999 V2000
   11.8483   10.8730    8.7857 N   0  0  0  0  0  0  0  0  0  0  0  0
   12.0024    9.7000    8.0909 C   0  0  0  0  0  0  0  0  0  0  0  0
   11.8425    9.6474    6.7587 N   0  0  0  0  0  0  0  0  0  0  0  0
   11.5261   10.8360    6.2044 C   0  0  0  0  0  0  0  0  0  0  0  0
   11.3573   12.0434    6.8453 C   0  0  0  0  0  0  0  0  0  0  0  0
   11.5229   12.1200    8.2426 C   0  0  0  0  0  0  0  0  0  0  0  0
   11.4193   13.0827    8.9904 O   0  0  0  0  0  0  0  0  0  0  0  0
   11.0446   12.9931    5.9173 N   0  0  0  0  0  0  0  0  0  0  0  0
   11.0216   12.3669    4.7219 C   0  0  0  0  0  0  0  0  0  0  0  0
   11.3129   11.0348    4.8677 N   0  0  0  0  0  0  0  0  0  0  0  0
  1  2  1  0  0  0  0
  1  6  1  0  0  0  0
  2  3  2  0  0  0  0
  3  4  1  0  0  0  0
  4  5  2  0  0  0  0
  4 10  1  0  0  0  0
  5  6  1  0  0  0  0
  5  8  1  0  0  0  0
  6  7  2  0  0  0  0
  8  9  1  0  0  0  0
  9 10  2  0  0  0  0
M  END
>  <CHROM.1>
11.48901291,11.49833053,6.98257313,-0.94680946,1.33264208,-2.12627685

>  <Name>
ligand

>  <RI>
0

>  <Rbt.Current_Directory>
/home/itssahil/PROJECTS/Mol_Feturizer/New_Systems/rnas/4FEJ

>  <Rbt.Executable>
rbdock ($Id: //depot/dev/client3/rdock/2013.1/src/exe/rbdock.cxx#4 $)

>  <Rbt.Library>
libRbt.so (2013.1, Build901 2013/11/27)

>  <Rbt.Parameter_File>
/export/apps/rDock/src/rDock_2013.1_src/data/scripts/dock_solv.prm

>  <Rbt.Receptor>
prm/pocket_docking_3.prm

>  <SCORE>
-17.4178

>  <SCORE.INTER>
-17.4178

>  <SCORE.INTER.CONST>
1

>  <SCORE.INTER.POLAR>
0

>  <SCORE.INTER.ROT>
0

>  <SCORE.INTER.SOLV>
3.96997

>  <SCORE.INTER.VDW>
-16.5352

>  <SCORE.INTER.norm>
-1.74178

>  <SCORE.INTRA>
0

>  <SCORE.INTRA.DIHEDRAL>
0

>  <SCORE.INTRA.DIHEDRAL.0>
0

>  <SCORE.INTRA.POLAR>
0

>  <SCORE.INTRA.POLAR.0>
0

>  <SCORE.INTRA.REPUL>
0

>  <SCORE.INTRA.REPUL.0>
0

>  <SCORE.INTRA.SOLV>
0

>  <SCORE.INTRA.SOLV.lig_0>
-4.26631

>  <SCORE.INTRA.VDW>
0

>  <SCORE.INTRA.VDW.0>
0

>  <SCORE.INTRA.norm>
0

>  <SCORE.RESTR>
0

>  <SCORE.RESTR.CAVITY>
0

>  <SCORE.RESTR.norm>
0

>  <SCORE.SYSTEM>
0

>  <SCORE.SYSTEM.CONST>
0

>  <SCORE.SYSTEM.DIHEDRAL>
0

>  <SCORE.SYSTEM.SOLV>
0

>  <SCORE.SYSTEM.norm>
0

>  <SCORE.heavy>
10

>  <SCORE.norm>
-1.74178

>  <RMSD>
2.410

$$$$
ligand
 OpenBabel11021811493D
libRbt.so/2013.1/901 2013/11/27
 10 11  0  0  0  0  0  0  0  0999 V2000
   11.8603   10.8580    8.7570 N   0  0  0  0  0  0  0  0  0  0  0  0
   12.0179    9.6945    8.0472 C   0  0  0  0  0  0  0  0  0  0  0  0
   11.8557    9.6581    6.7147 N   0  0  0  0  0  0  0  0  0  0  0  0
   11.5334   10.8523    6.1760 C   0  0  0  0  0  0  0  0  0  0  0  0
   11.3608   12.0509    6.8325 C   0  0  0  0  0  0  0  0  0  0  0  0
   11.5288   12.1104    8.2304 C   0  0  0  0  0  0  0  0  0  0  0  0
   11.4227   13.0631    8.9905 O   0  0  0  0  0  0  0  0  0  0  0  0
   11.0425   13.0109    5.9172 N   0  0  0  0  0  0  0  0  0  0  0  0
   11.0198   12.3998    4.7140 C   0  0  0  0  0  0  0  0  0  0  0  0
   11.3169   11.0672    4.8424 N   0  0  0  0  0  0  0  0  0  0  0  0
  1  2  1  0  0  0  0
  1  6  1  0  0  0  0
  2  3  2  0  0  0  0
  3  4  1  0  0  0  0
  4  5  2  0  0  0  0
  4 10  1  0  0  0  0
  5  6  1  0  0  0  0
  5  8  1  0  0  0  0
  6  7  2  0  0  0  0
  8  9  1  0  0  0  0
  9 10  2  0  0  0  0
M  END
>  <CHROM.1>
11.49504127,11.50461826,6.96261694,-0.94906836,1.32818514,-2.11142130

>  <Name>
ligand

>  <RI>
0

>  <Rbt.Current_Directory>
/home/itssahil/PROJECTS/Mol_Feturizer/New_Systems/rnas/4FEJ

>  <Rbt.Executable>
rbdock ($Id: //depot/dev/client3/rdock/2013.1/src/exe/rbdock.cxx#4 $)

>  <Rbt.Library>
libRbt.so (2013.1, Build901 2013/11/27)

>  <Rbt.Parameter_File>
/export/apps/rDock/src/rDock_2013.1_src/data/scripts/dock_solv.prm

>  <Rbt.Receptor>
prm/pocket_docking_3.prm

>  <SCORE>
-17.4767

>  <SCORE.INTER>
-17.4767

>  <SCORE.INTER.CONST>
1

>  <SCORE.INTER.POLAR>
0

>  <SCORE.INTER.ROT>
0

>  <SCORE.INTER.SOLV>
3.93991

>  <SCORE.INTER.VDW>
-16.5644

>  <SCORE.INTER.norm>
-1.74767

>  <SCORE.INTRA>
0

>  <SCORE.INTRA.DIHEDRAL>
0

>  <SCORE.INTRA.DIHEDRAL.0>
0

>  <SCORE.INTRA.POLAR>
0

>  <SCORE.INTRA.POLAR.0>
0

>  <SCORE.INTRA.REPUL>
0

>  <SCORE.INTRA.REPUL.0>
0

>  <SCORE.INTRA.SOLV>
0

>  <SCORE.INTRA.SOLV.lig_0>
-4.26631

>  <SCORE.INTRA.VDW>
0

>  <SCORE.INTRA.VDW.0>
0

>  <SCORE.INTRA.norm>
0

>  <SCORE.RESTR>
0

>  <SCORE.RESTR.CAVITY>
0

>  <SCORE.RESTR.norm>
0

>  <SCORE.SYSTEM>
0

>  <SCORE.SYSTEM.CONST>
0

>  <SCORE.SYSTEM.DIHEDRAL>
0

>  <SCORE.SYSTEM.SOLV>
0

>  <SCORE.SYSTEM.norm>
0

>  <SCORE.heavy>
10

>  <SCORE.norm>
-1.74767

>  <RMSD>
2.410

$$$$
ligand
 OpenBabel11021811493D
libRbt.so/2013.1/901 2013/11/27
 10 11  0  0  0  0  0  0  0  0999 V2000
   11.8631   10.8608    8.7567 N   0  0  0  0  0  0  0  0  0  0  0  0
   12.0228    9.6973    8.0472 C   0  0  0  0  0  0  0  0  0  0  0  0
   11.8578    9.6595    6.7151 N   0  0  0  0  0  0  0  0  0  0  0  0
   11.5306   10.8524    6.1764 C   0  0  0  0  0  0  0  0  0  0  0  0
   11.3556   12.0508    6.8326 C   0  0  0  0  0  0  0  0  0  0  0  0
   11.5265   12.1117    8.2300 C   0  0  0  0  0  0  0  0  0  0  0  0
   11.4190   13.0646    8.9897 O   0  0  0  0  0  0  0  0  0  0  0  0
   11.0323   13.0092    5.9173 N   0  0  0  0  0  0  0  0  0  0  0  0
   11.0090   12.3973    4.7145 C   0  0  0  0  0  0  0  0  0  0  0  0
   11.3105   11.0657    4.8431 N   0  0  0  0  0  0  0  0  0  0  0  0
  1  2  1  0  0  0  0
  1  6  1  0  0  0  0
  2  3  2  0  0  0  0
  3  4  1  0  0  0  0
  4  5  2  0  0  0  0
  4 10  1  0  0  0  0
  5  6  1  0  0  0  0
  5  8  1  0  0  0  0
  6  7  2  0  0  0  0
  8  9  1  0  0  0  0
  9 10  2  0  0  0  0
M  END
>  <CHROM.1>
11.49188376,11.50505871,6.96267912,-0.94811867,1.32434088,-2.11297572

>  <Name>
ligand

>  <RI>
0

>  <Rbt.Current_Directory>
/home/itssahil/PROJECTS/Mol_Feturizer/New_Systems/rnas/4FEJ

>  <Rbt.Executable>
rbdock ($Id: //depot/dev/client3/rdock/2013.1/src/exe/rbdock.cxx#4 $)

>  <Rbt.Library>
libRbt.so (2013.1, Build901 2013/11/27)

>  <Rbt.Parameter_File>
/export/apps/rDock/src/rDock_2013.1_src/data/scripts/dock_solv.prm

>  <Rbt.Receptor>
prm/pocket_docking_3.prm

>  <SCORE>
-17.4756

>  <SCORE.INTER>
-17.4756

>  <SCORE.INTER.CONST>
1

>  <SCORE.INTER.POLAR>
0

>  <SCORE.INTER.ROT>
0

>  <SCORE.INTER.SOLV>
3.93552

>  <SCORE.INTER.VDW>
-16.5622

>  <SCORE.INTER.norm>
-1.74756

>  <SCORE.INTRA>
0

>  <SCORE.INTRA.DIHEDRAL>
0

>  <SCORE.INTRA.DIHEDRAL.0>
0

>  <SCORE.INTRA.POLAR>
0

>  <SCORE.INTRA.POLAR.0>
0

>  <SCORE.INTRA.REPUL>
0

>  <SCORE.INTRA.REPUL.0>
0

>  <SCORE.INTRA.SOLV>
0

>  <SCORE.INTRA.SOLV.lig_0>
-4.26631

>  <SCORE.INTRA.VDW>
0

>  <SCORE.INTRA.VDW.0>
0

>  <SCORE.INTRA.norm>
0

>  <SCORE.RESTR>
0

>  <SCORE.RESTR.CAVITY>
0

>  <SCORE.RESTR.norm>
0

>  <SCORE.SYSTEM>
0

>  <SCORE.SYSTEM.CONST>
0

>  <SCORE.SYSTEM.DIHEDRAL>
0

>  <SCORE.SYSTEM.SOLV>
0

>  <SCORE.SYSTEM.norm>
0

>  <SCORE.heavy>
10

>  <SCORE.norm>
-1.74756

>  <RMSD>
2.410

$$$$
ligand
 OpenBabel11021811493D
libRbt.so/2013.1/901 2013/11/27
 10 11  0  0  0  0  0  0  0  0999 V2000
   11.8634   10.8606    8.7553 N   0  0  0  0  0  0  0  0  0  0  0  0
   12.0217    9.6968    8.0461 C   0  0  0  0  0  0  0  0  0  0  0  0
   11.8561    9.6589    6.7141 N   0  0  0  0  0  0  0  0  0  0  0  0
   11.5300   10.8520    6.1752 C   0  0  0  0  0  0  0  0  0  0  0  0
   11.3566   12.0507    6.8311 C   0  0  0  0  0  0  0  0  0  0  0  0
   11.5280   12.1118    8.2284 C   0  0  0  0  0  0  0  0  0  0  0  0
   11.4219   13.0650    8.9879 O   0  0  0  0  0  0  0  0  0  0  0  0
   11.0339   13.0092    5.9156 N   0  0  0  0  0  0  0  0  0  0  0  0
   11.0095   12.3971    4.7131 C   0  0  0  0  0  0  0  0  0  0  0  0
   11.3096   11.0651    4.8419 N   0  0  0  0  0  0  0  0  0  0  0  0
  1  2  1  0  0  0  0
  1  6  1  0  0  0  0
  2  3  2  0  0  0  0
  3  4  1  0  0  0  0
  4  5  2  0  0  0  0
  4 10  1  0  0  0  0
  5  6  1  0  0  0  0
  5  8  1  0  0  0  0
  6  7  2  0  0  0  0
  8  9  1  0  0  0  0
  9 10  2  0  0  0  0
M  END
>  <CHROM.1>
11.49229994,11.50486385,6.96127571,-0.94445835,1.32507823,-2.11679609

>  <Name>
ligand

>  <RI>
0

>  <Rbt.Current_Directory>
/home/itssahil/PROJECTS/Mol_Feturizer/New_Systems/rnas/4FEJ

>  <Rbt.Executable>
rbdock ($Id: //depot/dev/client3/rdock/2013.1/src/exe/rbdock.cxx#4 $)

>  <Rbt.Library>
libRbt.so (2013.1, Build901 2013/11/27)

>  <Rbt.Parameter_File>
/export/apps/rDock/src/rDock_2013.1_src/data/scripts/dock_solv.prm

>  <Rbt.Receptor>
prm/pocket_docking_3.prm

>  <SCORE>
-17.4769

>  <SCORE.INTER>
-17.4769

>  <SCORE.INTER.CONST>
1

>  <SCORE.INTER.POLAR>
0

>  <SCORE.INTER.ROT>
0

>  <SCORE.INTER.SOLV>
3.93717

>  <SCORE.INTER.VDW>
-16.5636

>  <SCORE.INTER.norm>
-1.74769

>  <SCORE.INTRA>
0

>  <SCORE.INTRA.DIHEDRAL>
0

>  <SCORE.INTRA.DIHEDRAL.0>
0

>  <SCORE.INTRA.POLAR>
0

>  <SCORE.INTRA.POLAR.0>
0

>  <SCORE.INTRA.REPUL>
0

>  <SCORE.INTRA.REPUL.0>
0

>  <SCORE.INTRA.SOLV>
0

>  <SCORE.INTRA.SOLV.lig_0>
-4.26631

>  <SCORE.INTRA.VDW>
0

>  <SCORE.INTRA.VDW.0>
0

>  <SCORE.INTRA.norm>
0

>  <SCORE.RESTR>
0

>  <SCORE.RESTR.CAVITY>
0

>  <SCORE.RESTR.norm>
0

>  <SCORE.SYSTEM>
0

>  <SCORE.SYSTEM.CONST>
0

>  <SCORE.SYSTEM.DIHEDRAL>
0

>  <SCORE.SYSTEM.SOLV>
0

>  <SCORE.SYSTEM.norm>
0

>  <SCORE.heavy>
10

>  <SCORE.norm>
-1.74769

>  <RMSD>
2.410

$$$$
ligand
 OpenBabel11021811493D
libRbt.so/2013.1/901 2013/11/27
 10 11  0  0  0  0  0  0  0  0999 V2000
   11.8716   10.8563    8.7684 N   0  0  0  0  0  0  0  0  0  0  0  0
   12.0744    9.7067    8.0474 C   0  0  0  0  0  0  0  0  0  0  0  0
   11.9279    9.6805    6.7129 N   0  0  0  0  0  0  0  0  0  0  0  0
   11.5732   10.8698    6.1840 C   0  0  0  0  0  0  0  0  0  0  0  0
   11.3549   12.0546    6.8519 C   0  0  0  0  0  0  0  0  0  0  0  0
   11.5057   12.1033    8.2520 C   0  0  0  0  0  0  0  0  0  0  0  0
   11.3606   13.0434    9.0215 O   0  0  0  0  0  0  0  0  0  0  0  0
   11.0157   13.0143    5.9437 N   0  0  0  0  0  0  0  0  0  0  0  0
   11.0258   12.4167    4.7336 C   0  0  0  0  0  0  0  0  0  0  0  0
   11.3643   11.0929    4.8505 N   0  0  0  0  0  0  0  0  0  0  0  0
  1  2  1  0  0  0  0
  1  6  1  0  0  0  0
  2  3  2  0  0  0  0
  3  4  1  0  0  0  0
  4  5  2  0  0  0  0
  4 10  1  0  0  0  0
  5  6  1  0  0  0  0
  5  8  1  0  0  0  0
  6  7  2  0  0  0  0
  8  9  1  0  0  0  0
  9 10  2  0  0  0  0
M  END
>  <CHROM.1>
11.50524073,11.51143661,6.97732252,-1.04782003,1.30485791,-2.00449442

>  <Name>
ligand

>  <RI>
0

>  <Rbt.Current_Directory>
/home/itssahil/PROJECTS/Mol_Feturizer/New_Systems/rnas/4FEJ

>  <Rbt.Executable>
rbdock ($Id: //depot/dev/client3/rdock/2013.1/src/exe/rbdock.cxx#4 $)

>  <Rbt.Library>
libRbt.so (2013.1, Build901 2013/11/27)

>  <Rbt.Parameter_File>
/export/apps/rDock/src/rDock_2013.1_src/data/scripts/dock_solv.prm

>  <Rbt.Receptor>
prm/pocket_docking_3.prm

>  <SCORE>
-17.54

>  <SCORE.INTER>
-17.54

>  <SCORE.INTER.CONST>
1

>  <SCORE.INTER.POLAR>
0

>  <SCORE.INTER.ROT>
0

>  <SCORE.INTER.SOLV>
3.89475

>  <SCORE.INTER.VDW>
-16.5916

>  <SCORE.INTER.norm>
-1.754

>  <SCORE.INTRA>
0

>  <SCORE.INTRA.DIHEDRAL>
0

>  <SCORE.INTRA.DIHEDRAL.0>
0

>  <SCORE.INTRA.POLAR>
0

>  <SCORE.INTRA.POLAR.0>
0

>  <SCORE.INTRA.REPUL>
0

>  <SCORE.INTRA.REPUL.0>
0

>  <SCORE.INTRA.SOLV>
0

>  <SCORE.INTRA.SOLV.lig_0>
-4.26631

>  <SCORE.INTRA.VDW>
0

>  <SCORE.INTRA.VDW.0>
0

>  <SCORE.INTRA.norm>
0

>  <SCORE.RESTR>
0

>  <SCORE.RESTR.CAVITY>
0

>  <SCORE.RESTR.norm>
0

>  <SCORE.SYSTEM>
0

>  <SCORE.SYSTEM.CONST>
0

>  <SCORE.SYSTEM.DIHEDRAL>
0

>  <SCORE.SYSTEM.SOLV>
0

>  <SCORE.SYSTEM.norm>
0

>  <SCORE.heavy>
10

>  <SCORE.norm>
-1.754

>  <RMSD>
2.410

$$$$
ligand
 OpenBabel11021811493D
libRbt.so/2013.1/901 2013/11/27
 10 11  0  0  0  0  0  0  0  0999 V2000
   11.8477   10.8768    8.7819 N   0  0  0  0  0  0  0  0  0  0  0  0
   11.9991    9.7032    8.0875 C   0  0  0  0  0  0  0  0  0  0  0  0
   11.8361    9.6500    6.7557 N   0  0  0  0  0  0  0  0  0  0  0  0
   11.5197   10.8387    6.2014 C   0  0  0  0  0  0  0  0  0  0  0  0
   11.3535   12.0466    6.8421 C   0  0  0  0  0  0  0  0  0  0  0  0
   11.5224   12.1237    8.2389 C   0  0  0  0  0  0  0  0  0  0  0  0
   11.4215   13.0870    8.9864 O   0  0  0  0  0  0  0  0  0  0  0  0
   11.0396   12.9961    5.9142 N   0  0  0  0  0  0  0  0  0  0  0  0
   11.0133   12.3693    4.7192 C   0  0  0  0  0  0  0  0  0  0  0  0
   11.3036   11.0370    4.8651 N   0  0  0  0  0  0  0  0  0  0  0  0
  1  2  1  0  0  0  0
  1  6  1  0  0  0  0
  2  3  2  0  0  0  0
  3  4  1  0  0  0  0
  4  5  2  0  0  0  0
  4 10  1  0  0  0  0
  5  6  1  0  0  0  0
  5  8  1  0  0  0  0
  6  7  2  0  0  0  0
  8  9  1  0  0  0  0
  9 10  2  0  0  0  0
M  END
>  <CHROM.1>
11.48499704,11.50146162,6.97930833,-0.93632456,1.33228714,-2.13700960

>  <Name>
ligand

>  <RI>
0

>  <Rbt.Current_Directory>
/home/itssahil/PROJECTS/Mol_Feturizer/New_Systems/rnas/4FEJ

>  <Rbt.Executable>
rbdock ($Id: //depot/dev/client3/rdock/2013.1/src/exe/rbdock.cxx#4 $)

>  <Rbt.Library>
libRbt.so (2013.1, Build901 2013/11/27)

>  <Rbt.Parameter_File>
/export/apps/rDock/src/rDock_2013.1_src/data/scripts/dock_solv.prm

>  <Rbt.Receptor>
prm/pocket_docking_4.prm

>  <SCORE>
-17.4192

>  <SCORE.INTER>
-17.4192

>  <SCORE.INTER.CONST>
1

>  <SCORE.INTER.POLAR>
0

>  <SCORE.INTER.ROT>
0

>  <SCORE.INTER.SOLV>
3.973

>  <SCORE.INTER.VDW>
-16.5372

>  <SCORE.INTER.norm>
-1.74192

>  <SCORE.INTRA>
0

>  <SCORE.INTRA.DIHEDRAL>
0

>  <SCORE.INTRA.DIHEDRAL.0>
0

>  <SCORE.INTRA.POLAR>
0

>  <SCORE.INTRA.POLAR.0>
0

>  <SCORE.INTRA.REPUL>
0

>  <SCORE.INTRA.REPUL.0>
0

>  <SCORE.INTRA.SOLV>
0

>  <SCORE.INTRA.SOLV.lig_0>
-4.26631

>  <SCORE.INTRA.VDW>
0

>  <SCORE.INTRA.VDW.0>
0

>  <SCORE.INTRA.norm>
0

>  <SCORE.RESTR>
0

>  <SCORE.RESTR.CAVITY>
0

>  <SCORE.RESTR.norm>
0

>  <SCORE.SYSTEM>
0

>  <SCORE.SYSTEM.CONST>
0

>  <SCORE.SYSTEM.DIHEDRAL>
0

>  <SCORE.SYSTEM.SOLV>
0

>  <SCORE.SYSTEM.norm>
0

>  <SCORE.heavy>
10

>  <SCORE.norm>
-1.74192

>  <RMSD>
2.410

$$$$
ligand
 OpenBabel11021811493D
libRbt.so/2013.1/901 2013/11/27
 10 11  0  0  0  0  0  0  0  0999 V2000
   11.8596   10.8590    8.7567 N   0  0  0  0  0  0  0  0  0  0  0  0
   12.0205    9.6957    8.0472 C   0  0  0  0  0  0  0  0  0  0  0  0
   11.8584    9.6585    6.7147 N   0  0  0  0  0  0  0  0  0  0  0  0
   11.5329   10.8517    6.1757 C   0  0  0  0  0  0  0  0  0  0  0  0
   11.3570   12.0500    6.8319 C   0  0  0  0  0  0  0  0  0  0  0  0
   11.5247   12.1103    8.2297 C   0  0  0  0  0  0  0  0  0  0  0  0
   11.4160   13.0629    8.9896 O   0  0  0  0  0  0  0  0  0  0  0  0
   11.0360   13.0089    5.9163 N   0  0  0  0  0  0  0  0  0  0  0  0
   11.0151   12.3974    4.7133 C   0  0  0  0  0  0  0  0  0  0  0  0
   11.3158   11.0657    4.8421 N   0  0  0  0  0  0  0  0  0  0  0  0
  1  2  1  0  0  0  0
  1  6  1  0  0  0  0
  2  3  2  0  0  0  0
  3  4  1  0  0  0  0
  4  5  2  0  0  0  0
  4 10  1  0  0  0  0
  5  6  1  0  0  0  0
  5  8  1  0  0  0  0
  6  7  2  0  0  0  0
  8  9  1  0  0  0  0
  9 10  2  0  0  0  0
M  END
>  <CHROM.1>
11.49269277,11.50410285,6.96215471,-0.95501545,1.32582966,-2.10589746

>  <Name>
ligand

>  <RI>
0

>  <Rbt.Current_Directory>
/home/itssahil/PROJECTS/Mol_Feturizer/New_Systems/rnas/4FEJ

>  <Rbt.Executable>
rbdock ($Id: //depot/dev/client3/rdock/2013.1/src/exe/rbdock.cxx#4 $)

>  <Rbt.Library>
libRbt.so (2013.1, Build901 2013/11/27)

>  <Rbt.Parameter_File>
/export/apps/rDock/src/rDock_2013.1_src/data/scripts/dock_solv.prm

>  <Rbt.Receptor>
prm/pocket_docking_5.prm

>  <SCORE>
-17.4765

>  <SCORE.INTER>
-17.4765

>  <SCORE.INTER.CONST>
1

>  <SCORE.INTER.POLAR>
0

>  <SCORE.INTER.ROT>
0

>  <SCORE.INTER.SOLV>
3.93596

>  <SCORE.INTER.VDW>
-16.563

>  <SCORE.INTER.norm>
-1.74765

>  <SCORE.INTRA>
0

>  <SCORE.INTRA.DIHEDRAL>
0

>  <SCORE.INTRA.DIHEDRAL.0>
0

>  <SCORE.INTRA.POLAR>
0

>  <SCORE.INTRA.POLAR.0>
0

>  <SCORE.INTRA.REPUL>
0

>  <SCORE.INTRA.REPUL.0>
0

>  <SCORE.INTRA.SOLV>
0

>  <SCORE.INTRA.SOLV.lig_0>
-4.26631

>  <SCORE.INTRA.VDW>
0

>  <SCORE.INTRA.VDW.0>
0

>  <SCORE.INTRA.norm>
0

>  <SCORE.RESTR>
0

>  <SCORE.RESTR.CAVITY>
0

>  <SCORE.RESTR.norm>
0

>  <SCORE.SYSTEM>
0

>  <SCORE.SYSTEM.CONST>
0

>  <SCORE.SYSTEM.DIHEDRAL>
0

>  <SCORE.SYSTEM.SOLV>
0

>  <SCORE.SYSTEM.norm>
0

>  <SCORE.heavy>
10

>  <SCORE.norm>
-1.74765

>  <RMSD>
2.410

$$$$
ligand
 OpenBabel11021811493D
libRbt.so/2013.1/901 2013/11/27
 10 11  0  0  0  0  0  0  0  0999 V2000
   11.8566   10.8569    8.7576 N   0  0  0  0  0  0  0  0  0  0  0  0
   12.0172    9.6938    8.0478 C   0  0  0  0  0  0  0  0  0  0  0  0
   11.8552    9.6569    6.7154 N   0  0  0  0  0  0  0  0  0  0  0  0
   11.5299   10.8502    6.1766 C   0  0  0  0  0  0  0  0  0  0  0  0
   11.3542   12.0484    6.8330 C   0  0  0  0  0  0  0  0  0  0  0  0
   11.5220   12.1084    8.2308 C   0  0  0  0  0  0  0  0  0  0  0  0
   11.4134   13.0609    8.9909 O   0  0  0  0  0  0  0  0  0  0  0  0
   11.0336   13.0075    5.9175 N   0  0  0  0  0  0  0  0  0  0  0  0
   11.0125   12.3963    4.7144 C   0  0  0  0  0  0  0  0  0  0  0  0
   11.3129   11.0645    4.8430 N   0  0  0  0  0  0  0  0  0  0  0  0
  1  2  1  0  0  0  0
  1  6  1  0  0  0  0
  2  3  2  0  0  0  0
  3  4  1  0  0  0  0
  4  5  2  0  0  0  0
  4 10  1  0  0  0  0
  5  6  1  0  0  0  0
  5  8  1  0  0  0  0
  6  7  2  0  0  0  0
  8  9  1  0  0  0  0
  9 10  2  0  0  0  0
M  END
>  <CHROM.1>
11.48984688,11.50247156,6.96313698,-0.95469470,1.32604925,-2.10602547

>  <Name>
ligand

>  <RI>
0

>  <Rbt.Current_Directory>
/home/itssahil/PROJECTS/Mol_Feturizer/New_Systems/rnas/4FEJ

>  <Rbt.Executable>
rbdock ($Id: //depot/dev/client3/rdock/2013.1/src/exe/rbdock.cxx#4 $)

>  <Rbt.Library>
libRbt.so (2013.1, Build901 2013/11/27)

>  <Rbt.Parameter_File>
/export/apps/rDock/src/rDock_2013.1_src/data/scripts/dock_solv.prm

>  <Rbt.Receptor>
prm/pocket_docking_5.prm

>  <SCORE>
-17.4759

>  <SCORE.INTER>
-17.4759

>  <SCORE.INTER.CONST>
1

>  <SCORE.INTER.POLAR>
0

>  <SCORE.INTER.ROT>
0

>  <SCORE.INTER.SOLV>
3.93504

>  <SCORE.INTER.VDW>
-16.5623

>  <SCORE.INTER.norm>
-1.74759

>  <SCORE.INTRA>
0

>  <SCORE.INTRA.DIHEDRAL>
0

>  <SCORE.INTRA.DIHEDRAL.0>
0

>  <SCORE.INTRA.POLAR>
0

>  <SCORE.INTRA.POLAR.0>
0

>  <SCORE.INTRA.REPUL>
0

>  <SCORE.INTRA.REPUL.0>
0

>  <SCORE.INTRA.SOLV>
0

>  <SCORE.INTRA.SOLV.lig_0>
-4.26631

>  <SCORE.INTRA.VDW>
0

>  <SCORE.INTRA.VDW.0>
0

>  <SCORE.INTRA.norm>
0

>  <SCORE.RESTR>
0

>  <SCORE.RESTR.CAVITY>
0

>  <SCORE.RESTR.norm>
0

>  <SCORE.SYSTEM>
0

>  <SCORE.SYSTEM.CONST>
0

>  <SCORE.SYSTEM.DIHEDRAL>
0

>  <SCORE.SYSTEM.SOLV>
0

>  <SCORE.SYSTEM.norm>
0

>  <SCORE.heavy>
10

>  <SCORE.norm>
-1.74759

>  <RMSD>
2.410

$$$$
ligand
 OpenBabel11021811493D
libRbt.so/2013.1/901 2013/11/27
 10 11  0  0  0  0  0  0  0  0999 V2000
   11.8618   10.8521    8.7577 N   0  0  0  0  0  0  0  0  0  0  0  0
   12.0252    9.6912    8.0451 C   0  0  0  0  0  0  0  0  0  0  0  0
   11.8627    9.6571    6.7126 N   0  0  0  0  0  0  0  0  0  0  0  0
   11.5339   10.8509    6.1769 C   0  0  0  0  0  0  0  0  0  0  0  0
   11.3553   12.0469    6.8363 C   0  0  0  0  0  0  0  0  0  0  0  0
   11.5235   12.1040    8.2342 C   0  0  0  0  0  0  0  0  0  0  0  0
   11.4127   13.0543    8.9966 O   0  0  0  0  0  0  0  0  0  0  0  0
   11.0315   13.0074    5.9233 N   0  0  0  0  0  0  0  0  0  0  0  0
   11.0116   12.3991    4.7187 C   0  0  0  0  0  0  0  0  0  0  0  0
   11.3157   11.0677    4.8439 N   0  0  0  0  0  0  0  0  0  0  0  0
  1  2  1  0  0  0  0
  1  6  1  0  0  0  0
  2  3  2  0  0  0  0
  3  4  1  0  0  0  0
  4  5  2  0  0  0  0
  4 10  1  0  0  0  0
  5  6  1  0  0  0  0
  5  8  1  0  0  0  0
  6  7  2  0  0  0  0
  8  9  1  0  0  0  0
  9 10  2  0  0  0  0
M  END
>  <CHROM.1>
11.49245173,11.50106122,6.96504771,-0.95868003,1.32344480,-2.09972466

>  <Name>
ligand

>  <RI>
0

>  <Rbt.Current_Directory>
/home/itssahil/PROJECTS/Mol_Feturizer/New_Systems/rnas/4FEJ

>  <Rbt.Executable>
rbdock ($Id: //depot/dev/client3/rdock/2013.1/src/exe/rbdock.cxx#4 $)

>  <Rbt.Library>
libRbt.so (2013.1, Build901 2013/11/27)

>  <Rbt.Parameter_File>
/export/apps/rDock/src/rDock_2013.1_src/data/scripts/dock_solv.prm

>  <Rbt.Receptor>
prm/pocket_docking_5.prm

>  <SCORE>
-17.4741

>  <SCORE.INTER>
-17.4741

>  <SCORE.INTER.CONST>
1

>  <SCORE.INTER.POLAR>
0

>  <SCORE.INTER.ROT>
0

>  <SCORE.INTER.SOLV>
3.92524

>  <SCORE.INTER.VDW>
-16.5578

>  <SCORE.INTER.norm>
-1.74741

>  <SCORE.INTRA>
0

>  <SCORE.INTRA.DIHEDRAL>
0

>  <SCORE.INTRA.DIHEDRAL.0>
0

>  <SCORE.INTRA.POLAR>
0

>  <SCORE.INTRA.POLAR.0>
0

>  <SCORE.INTRA.REPUL>
0

>  <SCORE.INTRA.REPUL.0>
0

>  <SCORE.INTRA.SOLV>
0

>  <SCORE.INTRA.SOLV.lig_0>
-4.26631

>  <SCORE.INTRA.VDW>
0

>  <SCORE.INTRA.VDW.0>
0

>  <SCORE.INTRA.norm>
0

>  <SCORE.RESTR>
0

>  <SCORE.RESTR.CAVITY>
0

>  <SCORE.RESTR.norm>
0

>  <SCORE.SYSTEM>
0

>  <SCORE.SYSTEM.CONST>
0

>  <SCORE.SYSTEM.DIHEDRAL>
0

>  <SCORE.SYSTEM.SOLV>
0

>  <SCORE.SYSTEM.norm>
0

>  <SCORE.heavy>
10

>  <SCORE.norm>
-1.74741

>  <RMSD>
2.410

$$$$
ligand
 OpenBabel11021811493D
libRbt.so/2013.1/901 2013/11/27
 10 11  0  0  0  0  0  0  0  0999 V2000
   11.8568   10.8609    8.7558 N   0  0  0  0  0  0  0  0  0  0  0  0
   12.0244    9.6984    8.0466 C   0  0  0  0  0  0  0  0  0  0  0  0
   11.8649    9.6603    6.7139 N   0  0  0  0  0  0  0  0  0  0  0  0
   11.5346   10.8519    6.1742 C   0  0  0  0  0  0  0  0  0  0  0  0
   11.3519   12.0494    6.8300 C   0  0  0  0  0  0  0  0  0  0  0  0
   11.5169   12.1106    8.2281 C   0  0  0  0  0  0  0  0  0  0  0  0
   11.4023   13.0628    8.9877 O   0  0  0  0  0  0  0  0  0  0  0  0
   11.0280   13.0067    5.9137 N   0  0  0  0  0  0  0  0  0  0  0  0
   11.0121   12.3950    4.7107 C   0  0  0  0  0  0  0  0  0  0  0  0
   11.3189   11.0647    4.8402 N   0  0  0  0  0  0  0  0  0  0  0  0
  1  2  1  0  0  0  0
  1  6  1  0  0  0  0
  2  3  2  0  0  0  0
  3  4  1  0  0  0  0
  4  5  2  0  0  0  0
  4 10  1  0  0  0  0
  5  6  1  0  0  0  0
  5  8  1  0  0  0  0
  6  7  2  0  0  0  0
  8  9  1  0  0  0  0
  9 10  2  0  0  0  0
M  END
>  <CHROM.1>
11.48998777,11.50417277,6.96051008,-0.97099501,1.32261851,-2.09049659

>  <Name>
ligand

>  <RI>
0

>  <Rbt.Current_Directory>
/home/itssahil/PROJECTS/Mol_Feturizer/New_Systems/rnas/4FEJ

>  <Rbt.Executable>
rbdock ($Id: //depot/dev/client3/rdock/2013.1/src/exe/rbdock.cxx#4 $)

>  <Rbt.Library>
libRbt.so (2013.1, Build901 2013/11/27)

>  <Rbt.Parameter_File>
/export/apps/rDock/src/rDock_2013.1_src/data/scripts/dock_solv.prm

>  <Rbt.Receptor>
prm/pocket_docking_6.prm

>  <SCORE>
-17.4754

>  <SCORE.INTER>
-17.4754

>  <SCORE.INTER.CONST>
1

>  <SCORE.INTER.POLAR>
0

>  <SCORE.INTER.ROT>
0

>  <SCORE.INTER.SOLV>
3.93012

>  <SCORE.INTER.VDW>
-16.5603

>  <SCORE.INTER.norm>
-1.74754

>  <SCORE.INTRA>
0

>  <SCORE.INTRA.DIHEDRAL>
0

>  <SCORE.INTRA.DIHEDRAL.0>
0

>  <SCORE.INTRA.POLAR>
0

>  <SCORE.INTRA.POLAR.0>
0

>  <SCORE.INTRA.REPUL>
0

>  <SCORE.INTRA.REPUL.0>
0

>  <SCORE.INTRA.SOLV>
0

>  <SCORE.INTRA.SOLV.lig_0>
-4.26631

>  <SCORE.INTRA.VDW>
0

>  <SCORE.INTRA.VDW.0>
0

>  <SCORE.INTRA.norm>
0

>  <SCORE.RESTR>
0

>  <SCORE.RESTR.CAVITY>
0

>  <SCORE.RESTR.norm>
0

>  <SCORE.SYSTEM>
0

>  <SCORE.SYSTEM.CONST>
0

>  <SCORE.SYSTEM.DIHEDRAL>
0

>  <SCORE.SYSTEM.SOLV>
0

>  <SCORE.SYSTEM.norm>
0

>  <SCORE.heavy>
10

>  <SCORE.norm>
-1.74754

>  <RMSD>
2.410

$$$$
ligand
 OpenBabel11021811493D
libRbt.so/2013.1/901 2013/11/27
 10 11  0  0  0  0  0  0  0  0999 V2000
   11.8421   10.8222    8.7791 N   0  0  0  0  0  0  0  0  0  0  0  0
   12.0321    9.6771    8.0476 C   0  0  0  0  0  0  0  0  0  0  0  0
   11.8893    9.6657    6.7125 N   0  0  0  0  0  0  0  0  0  0  0  0
   11.5516   10.8647    6.1942 C   0  0  0  0  0  0  0  0  0  0  0  0
   11.3467   12.0456    6.8730 C   0  0  0  0  0  0  0  0  0  0  0  0
   11.4939   12.0788    8.2740 C   0  0  0  0  0  0  0  0  0  0  0  0
   11.3587   13.0131    9.0522 O   0  0  0  0  0  0  0  0  0  0  0  0
   11.0227   13.0185    5.9733 N   0  0  0  0  0  0  0  0  0  0  0  0
   11.0287   12.4326    4.7574 C   0  0  0  0  0  0  0  0  0  0  0  0
   11.3496   11.1035    4.8624 N   0  0  0  0  0  0  0  0  0  0  0  0
  1  2  1  0  0  0  0
  1  6  1  0  0  0  0
  2  3  2  0  0  0  0
  3  4  1  0  0  0  0
  4  5  2  0  0  0  0
  4 10  1  0  0  0  0
  5  6  1  0  0  0  0
  5  8  1  0  0  0  0
  6  7  2  0  0  0  0
  8  9  1  0  0  0  0
  9 10  2  0  0  0  0
M  END
>  <CHROM.1>
11.48961865,11.49939764,6.99355199,-1.03690436,1.31786057,-2.00530188

>  <Name>
ligand

>  <RI>
0

>  <Rbt.Current_Directory>
/home/itssahil/PROJECTS/Mol_Feturizer/New_Systems/rnas/4FEJ

>  <Rbt.Executable>
rbdock ($Id: //depot/dev/client3/rdock/2013.1/src/exe/rbdock.cxx#4 $)

>  <Rbt.Library>
libRbt.so (2013.1, Build901 2013/11/27)

>  <Rbt.Parameter_File>
/export/apps/rDock/src/rDock_2013.1_src/data/scripts/dock_solv.prm

>  <Rbt.Receptor>
prm/pocket_docking_6.prm

>  <SCORE>
-17.4886

>  <SCORE.INTER>
-17.4886

>  <SCORE.INTER.CONST>
1

>  <SCORE.INTER.POLAR>
0

>  <SCORE.INTER.ROT>
0

>  <SCORE.INTER.SOLV>
3.89274

>  <SCORE.INTER.VDW>
-16.5566

>  <SCORE.INTER.norm>
-1.74886

>  <SCORE.INTRA>
0

>  <SCORE.INTRA.DIHEDRAL>
0

>  <SCORE.INTRA.DIHEDRAL.0>
0

>  <SCORE.INTRA.POLAR>
0

>  <SCORE.INTRA.POLAR.0>
0

>  <SCORE.INTRA.REPUL>
0

>  <SCORE.INTRA.REPUL.0>
0

>  <SCORE.INTRA.SOLV>
0

>  <SCORE.INTRA.SOLV.lig_0>
-4.26631

>  <SCORE.INTRA.VDW>
0

>  <SCORE.INTRA.VDW.0>
0

>  <SCORE.INTRA.norm>
0

>  <SCORE.RESTR>
0

>  <SCORE.RESTR.CAVITY>
0

>  <SCORE.RESTR.norm>
0

>  <SCORE.SYSTEM>
0

>  <SCORE.SYSTEM.CONST>
0

>  <SCORE.SYSTEM.DIHEDRAL>
0

>  <SCORE.SYSTEM.SOLV>
0

>  <SCORE.SYSTEM.norm>
0

>  <SCORE.heavy>
10

>  <SCORE.norm>
-1.74886

>  <RMSD>
2.410

$$$$
ligand
 OpenBabel11021811493D
libRbt.so/2013.1/901 2013/11/27
 10 11  0  0  0  0  0  0  0  0999 V2000
   11.9068   10.7746    8.7645 N   0  0  0  0  0  0  0  0  0  0  0  0
   12.0911    9.6223    8.0429 C   0  0  0  0  0  0  0  0  0  0  0  0
   11.9202    9.5935    6.7113 N   0  0  0  0  0  0  0  0  0  0  0  0
   11.5613   10.7832    6.1860 C   0  0  0  0  0  0  0  0  0  0  0  0
   11.3607   11.9705    6.8547 C   0  0  0  0  0  0  0  0  0  0  0  0
   11.5372   12.0220    8.2518 C   0  0  0  0  0  0  0  0  0  0  0  0
   11.4105   12.9646    9.0213 O   0  0  0  0  0  0  0  0  0  0  0  0
   11.0094   12.9296    5.9504 N   0  0  0  0  0  0  0  0  0  0  0  0
   10.9948   12.3290    4.7419 C   0  0  0  0  0  0  0  0  0  0  0  0
   11.3292   11.0040    4.8560 N   0  0  0  0  0  0  0  0  0  0  0  0
  1  2  1  0  0  0  0
  1  6  1  0  0  0  0
  2  3  2  0  0  0  0
  3  4  1  0  0  0  0
  4  5  2  0  0  0  0
  4 10  1  0  0  0  0
  5  6  1  0  0  0  0
  5  8  1  0  0  0  0
  6  7  2  0  0  0  0
  8  9  1  0  0  0  0
  9 10  2  0  0  0  0
M  END
>  <CHROM.1>
11.51084517,11.42702275,6.97878551,-0.97854824,1.30074134,-2.07379746

>  <Name>
ligand

>  <RI>
0

>  <Rbt.Current_Directory>
/home/itssahil/PROJECTS/Mol_Feturizer/New_Systems/rnas/4FEJ

>  <Rbt.Executable>
rbdock ($Id: //depot/dev/client3/rdock/2013.1/src/exe/rbdock.cxx#4 $)

>  <Rbt.Library>
libRbt.so (2013.1, Build901 2013/11/27)

>  <Rbt.Parameter_File>
/export/apps/rDock/src/rDock_2013.1_src/data/scripts/dock_solv.prm

>  <Rbt.Receptor>
prm/pocket_docking_6.prm

>  <SCORE>
-17.4377

>  <SCORE.INTER>
-17.4377

>  <SCORE.INTER.CONST>
1

>  <SCORE.INTER.POLAR>
0

>  <SCORE.INTER.ROT>
0

>  <SCORE.INTER.SOLV>
3.83885

>  <SCORE.INTER.VDW>
-16.5047

>  <SCORE.INTER.norm>
-1.74377

>  <SCORE.INTRA>
0

>  <SCORE.INTRA.DIHEDRAL>
0

>  <SCORE.INTRA.DIHEDRAL.0>
0

>  <SCORE.INTRA.POLAR>
0

>  <SCORE.INTRA.POLAR.0>
0

>  <SCORE.INTRA.REPUL>
0

>  <SCORE.INTRA.REPUL.0>
0

>  <SCORE.INTRA.SOLV>
0

>  <SCORE.INTRA.SOLV.lig_0>
-4.26631

>  <SCORE.INTRA.VDW>
0

>  <SCORE.INTRA.VDW.0>
0

>  <SCORE.INTRA.norm>
0

>  <SCORE.RESTR>
0

>  <SCORE.RESTR.CAVITY>
0

>  <SCORE.RESTR.norm>
0

>  <SCORE.SYSTEM>
0

>  <SCORE.SYSTEM.CONST>
0

>  <SCORE.SYSTEM.DIHEDRAL>
0

>  <SCORE.SYSTEM.SOLV>
0

>  <SCORE.SYSTEM.norm>
0

>  <SCORE.heavy>
10

>  <SCORE.norm>
-1.74377

>  <RMSD>
2.410

$$$$
ligand
 OpenBabel11021811493D
libRbt.so/2013.1/901 2013/11/27
 10 11  0  0  0  0  0  0  0  0999 V2000
   11.8613   10.8641    8.7558 N   0  0  0  0  0  0  0  0  0  0  0  0
   12.0201    9.6996    8.0480 C   0  0  0  0  0  0  0  0  0  0  0  0
   11.8583    9.6607    6.7156 N   0  0  0  0  0  0  0  0  0  0  0  0
   11.5350   10.8537    6.1748 C   0  0  0  0  0  0  0  0  0  0  0  0
   11.3611   12.0532    6.8292 C   0  0  0  0  0  0  0  0  0  0  0  0
   11.5287   12.1153    8.2270 C   0  0  0  0  0  0  0  0  0  0  0  0
   11.4215   13.0692    8.9854 O   0  0  0  0  0  0  0  0  0  0  0  0
   11.0421   13.0113    5.9121 N   0  0  0  0  0  0  0  0  0  0  0  0
   11.0203   12.3982    4.7100 C   0  0  0  0  0  0  0  0  0  0  0  0
   11.3186   11.0661    4.8408 N   0  0  0  0  0  0  0  0  0  0  0  0
  1  2  1  0  0  0  0
  1  6  1  0  0  0  0
  2  3  2  0  0  0  0
  3  4  1  0  0  0  0
  4  5  2  0  0  0  0
  4 10  1  0  0  0  0
  5  6  1  0  0  0  0
  5  8  1  0  0  0  0
  6  7  2  0  0  0  0
  8  9  1  0  0  0  0
  9 10  2  0  0  0  0
M  END
>  <CHROM.1>
11.49583371,11.50731178,6.96027228,-0.95193213,1.32748103,-2.11035769

>  <Name>
ligand

>  <RI>
0

>  <Rbt.Current_Directory>
/home/itssahil/PROJECTS/Mol_Feturizer/New_Systems/rnas/4FEJ

>  <Rbt.Executable>
rbdock ($Id: //depot/dev/client3/rdock/2013.1/src/exe/rbdock.cxx#4 $)

>  <Rbt.Library>
libRbt.so (2013.1, Build901 2013/11/27)

>  <Rbt.Parameter_File>
/export/apps/rDock/src/rDock_2013.1_src/data/scripts/dock_solv.prm

>  <Rbt.Receptor>
prm/pocket_docking_6.prm

>  <SCORE>
-17.4772

>  <SCORE.INTER>
-17.4772

>  <SCORE.INTER.CONST>
1

>  <SCORE.INTER.POLAR>
0

>  <SCORE.INTER.ROT>
0

>  <SCORE.INTER.SOLV>
3.94369

>  <SCORE.INTER.VDW>
-16.566

>  <SCORE.INTER.norm>
-1.74772

>  <SCORE.INTRA>
0

>  <SCORE.INTRA.DIHEDRAL>
0

>  <SCORE.INTRA.DIHEDRAL.0>
0

>  <SCORE.INTRA.POLAR>
0

>  <SCORE.INTRA.POLAR.0>
0

>  <SCORE.INTRA.REPUL>
0

>  <SCORE.INTRA.REPUL.0>
0

>  <SCORE.INTRA.SOLV>
0

>  <SCORE.INTRA.SOLV.lig_0>
-4.26631

>  <SCORE.INTRA.VDW>
0

>  <SCORE.INTRA.VDW.0>
0

>  <SCORE.INTRA.norm>
0

>  <SCORE.RESTR>
0

>  <SCORE.RESTR.CAVITY>
0

>  <SCORE.RESTR.norm>
0

>  <SCORE.SYSTEM>
0

>  <SCORE.SYSTEM.CONST>
0

>  <SCORE.SYSTEM.DIHEDRAL>
0

>  <SCORE.SYSTEM.SOLV>
0

>  <SCORE.SYSTEM.norm>
0

>  <SCORE.heavy>
10

>  <SCORE.norm>
-1.74772

>  <RMSD>
2.410

$$$$
ligand
 OpenBabel11021811493D
libRbt.so/2013.1/901 2013/11/27
 10 11  0  0  0  0  0  0  0  0999 V2000
   11.8164   10.8855    8.8110 N   0  0  0  0  0  0  0  0  0  0  0  0
   11.9566    9.7076    8.1215 C   0  0  0  0  0  0  0  0  0  0  0  0
   11.8089    9.6534    6.7880 N   0  0  0  0  0  0  0  0  0  0  0  0
   11.5191   10.8455    6.2267 C   0  0  0  0  0  0  0  0  0  0  0  0
   11.3653   12.0579    6.8621 C   0  0  0  0  0  0  0  0  0  0  0  0
   11.5186   12.1362    8.2607 C   0  0  0  0  0  0  0  0  0  0  0  0
   11.4247   13.1031    9.0044 O   0  0  0  0  0  0  0  0  0  0  0  0
   11.0787   13.0098    5.9280 N   0  0  0  0  0  0  0  0  0  0  0  0
   11.0564   12.3801    4.7344 C   0  0  0  0  0  0  0  0  0  0  0  0
   11.3226   11.0436    4.8874 N   0  0  0  0  0  0  0  0  0  0  0  0
  1  2  1  0  0  0  0
  1  6  1  0  0  0  0
  2  3  2  0  0  0  0
  3  4  1  0  0  0  0
  4  5  2  0  0  0  0
  4 10  1  0  0  0  0
  5  6  1  0  0  0  0
  5  8  1  0  0  0  0
  6  7  2  0  0  0  0
  8  9  1  0  0  0  0
  9 10  2  0  0  0  0
M  END
>  <CHROM.1>
11.48605562,11.51102884,7.00240988,-0.94215487,1.35289012,-2.13409821

>  <Name>
ligand

>  <RI>
0

>  <Rbt.Current_Directory>
/home/itssahil/PROJECTS/Mol_Feturizer/New_Systems/rnas/4FEJ

>  <Rbt.Executable>
rbdock ($Id: //depot/dev/client3/rdock/2013.1/src/exe/rbdock.cxx#4 $)

>  <Rbt.Library>
libRbt.so (2013.1, Build901 2013/11/27)

>  <Rbt.Parameter_File>
/export/apps/rDock/src/rDock_2013.1_src/data/scripts/dock_solv.prm

>  <Rbt.Receptor>
prm/pocket_docking_6.prm

>  <SCORE>
-17.4162

>  <SCORE.INTER>
-17.4162

>  <SCORE.INTER.CONST>
1

>  <SCORE.INTER.POLAR>
0

>  <SCORE.INTER.ROT>
0

>  <SCORE.INTER.SOLV>
4.01796

>  <SCORE.INTER.VDW>
-16.5501

>  <SCORE.INTER.norm>
-1.74162

>  <SCORE.INTRA>
0

>  <SCORE.INTRA.DIHEDRAL>
0

>  <SCORE.INTRA.DIHEDRAL.0>
0

>  <SCORE.INTRA.POLAR>
0

>  <SCORE.INTRA.POLAR.0>
0

>  <SCORE.INTRA.REPUL>
0

>  <SCORE.INTRA.REPUL.0>
0

>  <SCORE.INTRA.SOLV>
0

>  <SCORE.INTRA.SOLV.lig_0>
-4.26631

>  <SCORE.INTRA.VDW>
0

>  <SCORE.INTRA.VDW.0>
0

>  <SCORE.INTRA.norm>
0

>  <SCORE.RESTR>
0

>  <SCORE.RESTR.CAVITY>
0

>  <SCORE.RESTR.norm>
0

>  <SCORE.SYSTEM>
0

>  <SCORE.SYSTEM.CONST>
0

>  <SCORE.SYSTEM.DIHEDRAL>
0

>  <SCORE.SYSTEM.SOLV>
0

>  <SCORE.SYSTEM.norm>
0

>  <SCORE.heavy>
10

>  <SCORE.norm>
-1.74162

>  <RMSD>
2.410

$$$$
ligand
 OpenBabel11021811493D
libRbt.so/2013.1/901 2013/11/27
 10 11  0  0  0  0  0  0  0  0999 V2000
   11.8608   10.8579    8.7590 N   0  0  0  0  0  0  0  0  0  0  0  0
   12.0214    9.6948    8.0492 C   0  0  0  0  0  0  0  0  0  0  0  0
   11.8602    9.6581    6.7166 N   0  0  0  0  0  0  0  0  0  0  0  0
   11.5358   10.8516    6.1778 C   0  0  0  0  0  0  0  0  0  0  0  0
   11.3602   12.0498    6.8342 C   0  0  0  0  0  0  0  0  0  0  0  0
   11.5270   12.1096    8.2321 C   0  0  0  0  0  0  0  0  0  0  0  0
   11.4183   13.0621    8.9922 O   0  0  0  0  0  0  0  0  0  0  0  0
   11.0405   13.0091    5.9186 N   0  0  0  0  0  0  0  0  0  0  0  0
   11.0200   12.3980    4.7154 C   0  0  0  0  0  0  0  0  0  0  0  0
   11.3198   11.0660    4.8440 N   0  0  0  0  0  0  0  0  0  0  0  0
  1  2  1  0  0  0  0
  1  6  1  0  0  0  0
  2  3  2  0  0  0  0
  3  4  1  0  0  0  0
  4  5  2  0  0  0  0
  4 10  1  0  0  0  0
  5  6  1  0  0  0  0
  5  8  1  0  0  0  0
  6  7  2  0  0  0  0
  8  9  1  0  0  0  0
  9 10  2  0  0  0  0
M  END
>  <CHROM.1>
11.49547266,11.50378856,6.96434730,-0.95623492,1.32671702,-2.10444278

>  <Name>
ligand

>  <RI>
0

>  <Rbt.Current_Directory>
/home/itssahil/PROJECTS/Mol_Feturizer/New_Systems/rnas/4FEJ

>  <Rbt.Executable>
rbdock ($Id: //depot/dev/client3/rdock/2013.1/src/exe/rbdock.cxx#4 $)

>  <Rbt.Library>
libRbt.so (2013.1, Build901 2013/11/27)

>  <Rbt.Parameter_File>
/export/apps/rDock/src/rDock_2013.1_src/data/scripts/dock_solv.prm

>  <Rbt.Receptor>
prm/pocket_docking_6.prm

>  <SCORE>
-17.4751

>  <SCORE.INTER>
-17.4751

>  <SCORE.INTER.CONST>
1

>  <SCORE.INTER.POLAR>
0

>  <SCORE.INTER.ROT>
0

>  <SCORE.INTER.SOLV>
3.93684

>  <SCORE.INTER.VDW>
-16.5623

>  <SCORE.INTER.norm>
-1.74751

>  <SCORE.INTRA>
0

>  <SCORE.INTRA.DIHEDRAL>
0

>  <SCORE.INTRA.DIHEDRAL.0>
0

>  <SCORE.INTRA.POLAR>
0

>  <SCORE.INTRA.POLAR.0>
0

>  <SCORE.INTRA.REPUL>
0

>  <SCORE.INTRA.REPUL.0>
0

>  <SCORE.INTRA.SOLV>
0

>  <SCORE.INTRA.SOLV.lig_0>
-4.26631

>  <SCORE.INTRA.VDW>
0

>  <SCORE.INTRA.VDW.0>
0

>  <SCORE.INTRA.norm>
0

>  <SCORE.RESTR>
0

>  <SCORE.RESTR.CAVITY>
0

>  <SCORE.RESTR.norm>
0

>  <SCORE.SYSTEM>
0

>  <SCORE.SYSTEM.CONST>
0

>  <SCORE.SYSTEM.DIHEDRAL>
0

>  <SCORE.SYSTEM.SOLV>
0

>  <SCORE.SYSTEM.norm>
0

>  <SCORE.heavy>
10

>  <SCORE.norm>
-1.74751

>  <RMSD>
2.410

$$$$
ligand
 OpenBabel11021811493D
libRbt.so/2013.1/901 2013/11/27
 10 11  0  0  0  0  0  0  0  0999 V2000
   11.8643   10.8602    8.7570 N   0  0  0  0  0  0  0  0  0  0  0  0
   12.0253    9.6967    8.0479 C   0  0  0  0  0  0  0  0  0  0  0  0
   11.8603    9.6584    6.7158 N   0  0  0  0  0  0  0  0  0  0  0  0
   11.5317   10.8507    6.1768 C   0  0  0  0  0  0  0  0  0  0  0  0
   11.3554   12.0491    6.8326 C   0  0  0  0  0  0  0  0  0  0  0  0
   11.5263   12.1106    8.2299 C   0  0  0  0  0  0  0  0  0  0  0  0
   11.4177   13.0636    8.9894 O   0  0  0  0  0  0  0  0  0  0  0  0
   11.0309   13.0069    5.9170 N   0  0  0  0  0  0  0  0  0  0  0  0
   11.0082   12.3946    4.7144 C   0  0  0  0  0  0  0  0  0  0  0  0
   11.3112   11.0634    4.8435 N   0  0  0  0  0  0  0  0  0  0  0  0
  1  2  1  0  0  0  0
  1  6  1  0  0  0  0
  2  3  2  0  0  0  0
  3  4  1  0  0  0  0
  4  5  2  0  0  0  0
  4 10  1  0  0  0  0
  5  6  1  0  0  0  0
  5  8  1  0  0  0  0
  6  7  2  0  0  0  0
  8  9  1  0  0  0  0
  9 10  2  0  0  0  0
M  END
>  <CHROM.1>
11.49225819,11.50354615,6.96284133,-0.95024122,1.32334362,-2.11121989

>  <Name>
ligand

>  <RI>
0

>  <Rbt.Current_Directory>
/home/itssahil/PROJECTS/Mol_Feturizer/New_Systems/rnas/4FEJ

>  <Rbt.Executable>
rbdock ($Id: //depot/dev/client3/rdock/2013.1/src/exe/rbdock.cxx#4 $)

>  <Rbt.Library>
libRbt.so (2013.1, Build901 2013/11/27)

>  <Rbt.Parameter_File>
/export/apps/rDock/src/rDock_2013.1_src/data/scripts/dock_solv.prm

>  <Rbt.Receptor>
prm/pocket_docking_7.prm

>  <SCORE>
-17.4754

>  <SCORE.INTER>
-17.4754

>  <SCORE.INTER.CONST>
1

>  <SCORE.INTER.POLAR>
0

>  <SCORE.INTER.ROT>
0

>  <SCORE.INTER.SOLV>
3.93353

>  <SCORE.INTER.VDW>
-16.5615

>  <SCORE.INTER.norm>
-1.74754

>  <SCORE.INTRA>
0

>  <SCORE.INTRA.DIHEDRAL>
0

>  <SCORE.INTRA.DIHEDRAL.0>
0

>  <SCORE.INTRA.POLAR>
0

>  <SCORE.INTRA.POLAR.0>
0

>  <SCORE.INTRA.REPUL>
0

>  <SCORE.INTRA.REPUL.0>
0

>  <SCORE.INTRA.SOLV>
0

>  <SCORE.INTRA.SOLV.lig_0>
-4.26631

>  <SCORE.INTRA.VDW>
0

>  <SCORE.INTRA.VDW.0>
0

>  <SCORE.INTRA.norm>
0

>  <SCORE.RESTR>
0

>  <SCORE.RESTR.CAVITY>
0

>  <SCORE.RESTR.norm>
0

>  <SCORE.SYSTEM>
0

>  <SCORE.SYSTEM.CONST>
0

>  <SCORE.SYSTEM.DIHEDRAL>
0

>  <SCORE.SYSTEM.SOLV>
0

>  <SCORE.SYSTEM.norm>
0

>  <SCORE.heavy>
10

>  <SCORE.norm>
-1.74754

>  <RMSD>
2.410

$$$$
ligand
 OpenBabel11021811493D
libRbt.so/2013.1/901 2013/11/27
 10 11  0  0  0  0  0  0  0  0999 V2000
   11.8572   10.8612    8.7571 N   0  0  0  0  0  0  0  0  0  0  0  0
   12.0154    9.6971    8.0483 C   0  0  0  0  0  0  0  0  0  0  0  0
   11.8537    9.6596    6.7158 N   0  0  0  0  0  0  0  0  0  0  0  0
   11.5314   10.8533    6.1760 C   0  0  0  0  0  0  0  0  0  0  0  0
   11.3583   12.0523    6.8314 C   0  0  0  0  0  0  0  0  0  0  0  0
   11.5257   12.1130    8.2293 C   0  0  0  0  0  0  0  0  0  0  0  0
   11.4191   13.0664    8.9885 O   0  0  0  0  0  0  0  0  0  0  0  0
   11.0401   13.0115    5.9151 N   0  0  0  0  0  0  0  0  0  0  0  0
   11.0181   12.3994    4.7124 C   0  0  0  0  0  0  0  0  0  0  0  0
   11.3154   11.0670    4.8421 N   0  0  0  0  0  0  0  0  0  0  0  0
  1  2  1  0  0  0  0
  1  6  1  0  0  0  0
  2  3  2  0  0  0  0
  3  4  1  0  0  0  0
  4  5  2  0  0  0  0
  4 10  1  0  0  0  0
  5  6  1  0  0  0  0
  5  8  1  0  0  0  0
  6  7  2  0  0  0  0
  8  9  1  0  0  0  0
  9 10  2  0  0  0  0
M  END
>  <CHROM.1>
11.49259317,11.50620125,6.96202008,-0.95099274,1.32820272,-2.11038110

>  <Name>
ligand

>  <RI>
0

>  <Rbt.Current_Directory>
/home/itssahil/PROJECTS/Mol_Feturizer/New_Systems/rnas/4FEJ

>  <Rbt.Executable>
rbdock ($Id: //depot/dev/client3/rdock/2013.1/src/exe/rbdock.cxx#4 $)

>  <Rbt.Library>
libRbt.so (2013.1, Build901 2013/11/27)

>  <Rbt.Parameter_File>
/export/apps/rDock/src/rDock_2013.1_src/data/scripts/dock_solv.prm

>  <Rbt.Receptor>
prm/pocket_docking_7.prm

>  <SCORE>
-17.4767

>  <SCORE.INTER>
-17.4767

>  <SCORE.INTER.CONST>
1

>  <SCORE.INTER.POLAR>
0

>  <SCORE.INTER.ROT>
0

>  <SCORE.INTER.SOLV>
3.94229

>  <SCORE.INTER.VDW>
-16.5652

>  <SCORE.INTER.norm>
-1.74767

>  <SCORE.INTRA>
0

>  <SCORE.INTRA.DIHEDRAL>
0

>  <SCORE.INTRA.DIHEDRAL.0>
0

>  <SCORE.INTRA.POLAR>
0

>  <SCORE.INTRA.POLAR.0>
0

>  <SCORE.INTRA.REPUL>
0

>  <SCORE.INTRA.REPUL.0>
0

>  <SCORE.INTRA.SOLV>
0

>  <SCORE.INTRA.SOLV.lig_0>
-4.26631

>  <SCORE.INTRA.VDW>
0

>  <SCORE.INTRA.VDW.0>
0

>  <SCORE.INTRA.norm>
0

>  <SCORE.RESTR>
0

>  <SCORE.RESTR.CAVITY>
0

>  <SCORE.RESTR.norm>
0

>  <SCORE.SYSTEM>
0

>  <SCORE.SYSTEM.CONST>
0

>  <SCORE.SYSTEM.DIHEDRAL>
0

>  <SCORE.SYSTEM.SOLV>
0

>  <SCORE.SYSTEM.norm>
0

>  <SCORE.heavy>
10

>  <SCORE.norm>
-1.74767

>  <RMSD>
2.410

$$$$
ligand
 OpenBabel11021811493D
libRbt.so/2013.1/901 2013/11/27
 10 11  0  0  0  0  0  0  0  0999 V2000
   11.8581   10.8627    8.7569 N   0  0  0  0  0  0  0  0  0  0  0  0
   12.0186    9.6990    8.0480 C   0  0  0  0  0  0  0  0  0  0  0  0
   11.8583    9.6614    6.7154 N   0  0  0  0  0  0  0  0  0  0  0  0
   11.5349   10.8547    6.1754 C   0  0  0  0  0  0  0  0  0  0  0  0
   11.3595   12.0534    6.8309 C   0  0  0  0  0  0  0  0  0  0  0  0
   11.5254   12.1142    8.2289 C   0  0  0  0  0  0  0  0  0  0  0  0
   11.4167   13.0672    8.9882 O   0  0  0  0  0  0  0  0  0  0  0  0
   11.0409   13.0123    5.9144 N   0  0  0  0  0  0  0  0  0  0  0  0
   11.0209   12.4004    4.7116 C   0  0  0  0  0  0  0  0  0  0  0  0
   11.3199   11.0683    4.8414 N   0  0  0  0  0  0  0  0  0  0  0  0
  1  2  1  0  0  0  0
  1  6  1  0  0  0  0
  2  3  2  0  0  0  0
  3  4  1  0  0  0  0
  4  5  2  0  0  0  0
  4 10  1  0  0  0  0
  5  6  1  0  0  0  0
  5  8  1  0  0  0  0
  6  7  2  0  0  0  0
  8  9  1  0  0  0  0
  9 10  2  0  0  0  0
M  END
>  <CHROM.1>
11.49438596,11.50747214,6.96152355,-0.95751109,1.32753039,-2.10391502

>  <Name>
ligand

>  <RI>
0

>  <Rbt.Current_Directory>
/home/itssahil/PROJECTS/Mol_Feturizer/New_Systems/rnas/4FEJ

>  <Rbt.Executable>
rbdock ($Id: //depot/dev/client3/rdock/2013.1/src/exe/rbdock.cxx#4 $)

>  <Rbt.Library>
libRbt.so (2013.1, Build901 2013/11/27)

>  <Rbt.Parameter_File>
/export/apps/rDock/src/rDock_2013.1_src/data/scripts/dock_solv.prm

>  <Rbt.Receptor>
prm/pocket_docking_7.prm

>  <SCORE>
-17.476

>  <SCORE.INTER>
-17.476

>  <SCORE.INTER.CONST>
1

>  <SCORE.INTER.POLAR>
0

>  <SCORE.INTER.ROT>
0

>  <SCORE.INTER.SOLV>
3.94165

>  <SCORE.INTER.VDW>
-16.5646

>  <SCORE.INTER.norm>
-1.7476

>  <SCORE.INTRA>
0

>  <SCORE.INTRA.DIHEDRAL>
0

>  <SCORE.INTRA.DIHEDRAL.0>
0

>  <SCORE.INTRA.POLAR>
0

>  <SCORE.INTRA.POLAR.0>
0

>  <SCORE.INTRA.REPUL>
0

>  <SCORE.INTRA.REPUL.0>
0

>  <SCORE.INTRA.SOLV>
0

>  <SCORE.INTRA.SOLV.lig_0>
-4.26631

>  <SCORE.INTRA.VDW>
0

>  <SCORE.INTRA.VDW.0>
0

>  <SCORE.INTRA.norm>
0

>  <SCORE.RESTR>
0

>  <SCORE.RESTR.CAVITY>
0

>  <SCORE.RESTR.norm>
0

>  <SCORE.SYSTEM>
0

>  <SCORE.SYSTEM.CONST>
0

>  <SCORE.SYSTEM.DIHEDRAL>
0

>  <SCORE.SYSTEM.SOLV>
0

>  <SCORE.SYSTEM.norm>
0

>  <SCORE.heavy>
10

>  <SCORE.norm>
-1.7476

>  <RMSD>
2.410

$$$$
ligand
 OpenBabel11021811493D
libRbt.so/2013.1/901 2013/11/27
 10 11  0  0  0  0  0  0  0  0999 V2000
   11.8653   10.8639    8.7763 N   0  0  0  0  0  0  0  0  0  0  0  0
   12.0585    9.7051    8.0675 C   0  0  0  0  0  0  0  0  0  0  0  0
   11.9085    9.6653    6.7337 N   0  0  0  0  0  0  0  0  0  0  0  0
   11.5604   10.8511    6.1927 C   0  0  0  0  0  0  0  0  0  0  0  0
   11.3517   12.0445    6.8480 C   0  0  0  0  0  0  0  0  0  0  0  0
   11.5064   12.1076    8.2472 C   0  0  0  0  0  0  0  0  0  0  0  0
   11.3696   13.0570    9.0067 O   0  0  0  0  0  0  0  0  0  0  0  0
   11.0167   12.9966    5.9303 N   0  0  0  0  0  0  0  0  0  0  0  0
   11.0197   12.3857    4.7268 C   0  0  0  0  0  0  0  0  0  0  0  0
   11.3496   11.0610    4.8573 N   0  0  0  0  0  0  0  0  0  0  0  0
  1  2  1  0  0  0  0
  1  6  1  0  0  0  0
  2  3  2  0  0  0  0
  3  4  1  0  0  0  0
  4  5  2  0  0  0  0
  4 10  1  0  0  0  0
  5  6  1  0  0  0  0
  5  8  1  0  0  0  0
  6  7  2  0  0  0  0
  8  9  1  0  0  0  0
  9 10  2  0  0  0  0
M  END
>  <CHROM.1>
11.49874854,11.50183000,6.97907186,-1.02802024,1.30982551,-2.03456364

>  <Name>
ligand

>  <RI>
0

>  <Rbt.Current_Directory>
/home/itssahil/PROJECTS/Mol_Feturizer/New_Systems/rnas/4FEJ

>  <Rbt.Executable>
rbdock ($Id: //depot/dev/client3/rdock/2013.1/src/exe/rbdock.cxx#4 $)

>  <Rbt.Library>
libRbt.so (2013.1, Build901 2013/11/27)

>  <Rbt.Parameter_File>
/export/apps/rDock/src/rDock_2013.1_src/data/scripts/dock_solv.prm

>  <Rbt.Receptor>
prm/pocket_docking_7.prm

>  <SCORE>
-17.4673

>  <SCORE.INTER>
-17.4673

>  <SCORE.INTER.CONST>
1

>  <SCORE.INTER.POLAR>
0

>  <SCORE.INTER.ROT>
0

>  <SCORE.INTER.SOLV>
3.91378

>  <SCORE.INTER.VDW>
-16.5494

>  <SCORE.INTER.norm>
-1.74673

>  <SCORE.INTRA>
0

>  <SCORE.INTRA.DIHEDRAL>
0

>  <SCORE.INTRA.DIHEDRAL.0>
0

>  <SCORE.INTRA.POLAR>
0

>  <SCORE.INTRA.POLAR.0>
0

>  <SCORE.INTRA.REPUL>
0

>  <SCORE.INTRA.REPUL.0>
0

>  <SCORE.INTRA.SOLV>
0

>  <SCORE.INTRA.SOLV.lig_0>
-4.26631

>  <SCORE.INTRA.VDW>
0

>  <SCORE.INTRA.VDW.0>
0

>  <SCORE.INTRA.norm>
0

>  <SCORE.RESTR>
0

>  <SCORE.RESTR.CAVITY>
0

>  <SCORE.RESTR.norm>
0

>  <SCORE.SYSTEM>
0

>  <SCORE.SYSTEM.CONST>
0

>  <SCORE.SYSTEM.DIHEDRAL>
0

>  <SCORE.SYSTEM.SOLV>
0

>  <SCORE.SYSTEM.norm>
0

>  <SCORE.heavy>
10

>  <SCORE.norm>
-1.74673

>  <RMSD>
2.410

$$$$
ligand
 OpenBabel11021811493D
libRbt.so/2013.1/901 2013/11/27
 10 11  0  0  0  0  0  0  0  0999 V2000
   11.8659   10.8508    8.7693 N   0  0  0  0  0  0  0  0  0  0  0  0
   12.0700    9.7020    8.0476 C   0  0  0  0  0  0  0  0  0  0  0  0
   11.9270    9.6772    6.7127 N   0  0  0  0  0  0  0  0  0  0  0  0
   11.5743   10.8674    6.1842 C   0  0  0  0  0  0  0  0  0  0  0  0
   11.3549   12.0515    6.8528 C   0  0  0  0  0  0  0  0  0  0  0  0
   11.5019   12.0986    8.2534 C   0  0  0  0  0  0  0  0  0  0  0  0
   11.3553   13.0379    9.0235 O   0  0  0  0  0  0  0  0  0  0  0  0
   11.0186   13.0124    5.9448 N   0  0  0  0  0  0  0  0  0  0  0  0
   11.0316   12.4161    4.7340 C   0  0  0  0  0  0  0  0  0  0  0  0
   11.3691   11.0920    4.8504 N   0  0  0  0  0  0  0  0  0  0  0  0
  1  2  1  0  0  0  0
  1  6  1  0  0  0  0
  2  3  2  0  0  0  0
  3  4  1  0  0  0  0
  4  5  2  0  0  0  0
  4 10  1  0  0  0  0
  5  6  1  0  0  0  0
  5  8  1  0  0  0  0
  6  7  2  0  0  0  0
  8  9  1  0  0  0  0
  9 10  2  0  0  0  0
M  END
>  <CHROM.1>
11.50460171,11.50813658,6.97802918,-1.05624568,1.30643819,-1.99527125

>  <Name>
ligand

>  <RI>
0

>  <Rbt.Current_Directory>
/home/itssahil/PROJECTS/Mol_Feturizer/New_Systems/rnas/4FEJ

>  <Rbt.Executable>
rbdock ($Id: //depot/dev/client3/rdock/2013.1/src/exe/rbdock.cxx#4 $)

>  <Rbt.Library>
libRbt.so (2013.1, Build901 2013/11/27)

>  <Rbt.Parameter_File>
/export/apps/rDock/src/rDock_2013.1_src/data/scripts/dock_solv.prm

>  <Rbt.Receptor>
prm/pocket_docking_7.prm

>  <SCORE>
-17.5376

>  <SCORE.INTER>
-17.5376

>  <SCORE.INTER.CONST>
1

>  <SCORE.INTER.POLAR>
0

>  <SCORE.INTER.ROT>
0

>  <SCORE.INTER.SOLV>
3.89486

>  <SCORE.INTER.VDW>
-16.59

>  <SCORE.INTER.norm>
-1.75376

>  <SCORE.INTRA>
0

>  <SCORE.INTRA.DIHEDRAL>
0

>  <SCORE.INTRA.DIHEDRAL.0>
0

>  <SCORE.INTRA.POLAR>
0

>  <SCORE.INTRA.POLAR.0>
0

>  <SCORE.INTRA.REPUL>
0

>  <SCORE.INTRA.REPUL.0>
0

>  <SCORE.INTRA.SOLV>
0

>  <SCORE.INTRA.SOLV.lig_0>
-4.26631

>  <SCORE.INTRA.VDW>
0

>  <SCORE.INTRA.VDW.0>
0

>  <SCORE.INTRA.norm>
0

>  <SCORE.RESTR>
0

>  <SCORE.RESTR.CAVITY>
0

>  <SCORE.RESTR.norm>
0

>  <SCORE.SYSTEM>
0

>  <SCORE.SYSTEM.CONST>
0

>  <SCORE.SYSTEM.DIHEDRAL>
0

>  <SCORE.SYSTEM.SOLV>
0

>  <SCORE.SYSTEM.norm>
0

>  <SCORE.heavy>
10

>  <SCORE.norm>
-1.75376

>  <RMSD>
2.410

$$$$
ligand
 OpenBabel11021811493D
libRbt.so/2013.1/901 2013/11/27
 10 11  0  0  0  0  0  0  0  0999 V2000
   11.8737   10.8737    8.7675 N   0  0  0  0  0  0  0  0  0  0  0  0
   12.0775    9.7222    8.0500 C   0  0  0  0  0  0  0  0  0  0  0  0
   11.9286    9.6912    6.7158 N   0  0  0  0  0  0  0  0  0  0  0  0
   11.5704   10.8781    6.1837 C   0  0  0  0  0  0  0  0  0  0  0  0
   11.3509   12.0646    6.8480 C   0  0  0  0  0  0  0  0  0  0  0  0
   11.5042   12.1183    8.2478 C   0  0  0  0  0  0  0  0  0  0  0  0
   11.3586   13.0605    9.0144 O   0  0  0  0  0  0  0  0  0  0  0  0
   11.0081   13.0207    5.9374 N   0  0  0  0  0  0  0  0  0  0  0  0
   11.0172   12.4191    4.7292 C   0  0  0  0  0  0  0  0  0  0  0  0
   11.3587   11.0964    4.8498 N   0  0  0  0  0  0  0  0  0  0  0  0
  1  2  1  0  0  0  0
  1  6  1  0  0  0  0
  2  3  2  0  0  0  0
  3  4  1  0  0  0  0
  4  5  2  0  0  0  0
  4 10  1  0  0  0  0
  5  6  1  0  0  0  0
  5  8  1  0  0  0  0
  6  7  2  0  0  0  0
  8  9  1  0  0  0  0
  9 10  2  0  0  0  0
M  END
>  <CHROM.1>
11.50264187,11.52220130,6.97500142,-1.04481633,1.30220957,-2.01068624

>  <Name>
ligand

>  <RI>
0

>  <Rbt.Current_Directory>
/home/itssahil/PROJECTS/Mol_Feturizer/New_Systems/rnas/4FEJ

>  <Rbt.Executable>
rbdock ($Id: //depot/dev/client3/rdock/2013.1/src/exe/rbdock.cxx#4 $)

>  <Rbt.Library>
libRbt.so (2013.1, Build901 2013/11/27)

>  <Rbt.Parameter_File>
/export/apps/rDock/src/rDock_2013.1_src/data/scripts/dock_solv.prm

>  <Rbt.Receptor>
prm/pocket_docking_7.prm

>  <SCORE>
-17.5361

>  <SCORE.INTER>
-17.5361

>  <SCORE.INTER.CONST>
1

>  <SCORE.INTER.POLAR>
0

>  <SCORE.INTER.ROT>
0

>  <SCORE.INTER.SOLV>
3.90376

>  <SCORE.INTER.VDW>
-16.592

>  <SCORE.INTER.norm>
-1.75361

>  <SCORE.INTRA>
0

>  <SCORE.INTRA.DIHEDRAL>
0

>  <SCORE.INTRA.DIHEDRAL.0>
0

>  <SCORE.INTRA.POLAR>
0

>  <SCORE.INTRA.POLAR.0>
0

>  <SCORE.INTRA.REPUL>
0

>  <SCORE.INTRA.REPUL.0>
0

>  <SCORE.INTRA.SOLV>
0

>  <SCORE.INTRA.SOLV.lig_0>
-4.26631

>  <SCORE.INTRA.VDW>
0

>  <SCORE.INTRA.VDW.0>
0

>  <SCORE.INTRA.norm>
0

>  <SCORE.RESTR>
0

>  <SCORE.RESTR.CAVITY>
0

>  <SCORE.RESTR.norm>
0

>  <SCORE.SYSTEM>
0

>  <SCORE.SYSTEM.CONST>
0

>  <SCORE.SYSTEM.DIHEDRAL>
0

>  <SCORE.SYSTEM.SOLV>
0

>  <SCORE.SYSTEM.norm>
0

>  <SCORE.heavy>
10

>  <SCORE.norm>
-1.75361

>  <RMSD>
2.410

$$$$
ligand
 OpenBabel11021811493D
libRbt.so/2013.1/901 2013/11/27
 10 11  0  0  0  0  0  0  0  0999 V2000
   11.8606   10.8639    8.7557 N   0  0  0  0  0  0  0  0  0  0  0  0
   12.0178    9.6993    8.0476 C   0  0  0  0  0  0  0  0  0  0  0  0
   11.8546    9.6607    6.7153 N   0  0  0  0  0  0  0  0  0  0  0  0
   11.5319   10.8541    6.1750 C   0  0  0  0  0  0  0  0  0  0  0  0
   11.3597   12.0536    6.8298 C   0  0  0  0  0  0  0  0  0  0  0  0
   11.5287   12.1154    8.2273 C   0  0  0  0  0  0  0  0  0  0  0  0
   11.4230   13.0693    8.9860 O   0  0  0  0  0  0  0  0  0  0  0  0
   11.0406   13.0122    5.9131 N   0  0  0  0  0  0  0  0  0  0  0  0
   11.0171   12.3992    4.7109 C   0  0  0  0  0  0  0  0  0  0  0  0
   11.3143   11.0668    4.8412 N   0  0  0  0  0  0  0  0  0  0  0  0
  1  2  1  0  0  0  0
  1  6  1  0  0  0  0
  2  3  2  0  0  0  0
  3  4  1  0  0  0  0
  4  5  2  0  0  0  0
  4 10  1  0  0  0  0
  5  6  1  0  0  0  0
  5  8  1  0  0  0  0
  6  7  2  0  0  0  0
  8  9  1  0  0  0  0
  9 10  2  0  0  0  0
M  END
>  <CHROM.1>
11.49404021,11.50759700,6.96058571,-0.94661440,1.32773157,-2.11537694

>  <Name>
ligand

>  <RI>
0

>  <Rbt.Current_Directory>
/home/itssahil/PROJECTS/Mol_Feturizer/New_Systems/rnas/4FEJ

>  <Rbt.Executable>
rbdock ($Id: //depot/dev/client3/rdock/2013.1/src/exe/rbdock.cxx#4 $)

>  <Rbt.Library>
libRbt.so (2013.1, Build901 2013/11/27)

>  <Rbt.Parameter_File>
/export/apps/rDock/src/rDock_2013.1_src/data/scripts/dock_solv.prm

>  <Rbt.Receptor>
prm/pocket_docking_8.prm

>  <SCORE>
-17.4775

>  <SCORE.INTER>
-17.4775

>  <SCORE.INTER.CONST>
1

>  <SCORE.INTER.POLAR>
0

>  <SCORE.INTER.ROT>
0

>  <SCORE.INTER.SOLV>
3.94415

>  <SCORE.INTER.VDW>
-16.5664

>  <SCORE.INTER.norm>
-1.74775

>  <SCORE.INTRA>
0

>  <SCORE.INTRA.DIHEDRAL>
0

>  <SCORE.INTRA.DIHEDRAL.0>
0

>  <SCORE.INTRA.POLAR>
0

>  <SCORE.INTRA.POLAR.0>
0

>  <SCORE.INTRA.REPUL>
0

>  <SCORE.INTRA.REPUL.0>
0

>  <SCORE.INTRA.SOLV>
0

>  <SCORE.INTRA.SOLV.lig_0>
-4.26631

>  <SCORE.INTRA.VDW>
0

>  <SCORE.INTRA.VDW.0>
0

>  <SCORE.INTRA.norm>
0

>  <SCORE.RESTR>
0

>  <SCORE.RESTR.CAVITY>
0

>  <SCORE.RESTR.norm>
0

>  <SCORE.SYSTEM>
0

>  <SCORE.SYSTEM.CONST>
0

>  <SCORE.SYSTEM.DIHEDRAL>
0

>  <SCORE.SYSTEM.SOLV>
0

>  <SCORE.SYSTEM.norm>
0

>  <SCORE.heavy>
10

>  <SCORE.norm>
-1.74775

>  <RMSD>
2.410

$$$$
ligand
 OpenBabel11021811493D
libRbt.so/2013.1/901 2013/11/27
 10 11  0  0  0  0  0  0  0  0999 V2000
   11.8521   10.8563    8.7569 N   0  0  0  0  0  0  0  0  0  0  0  0
   12.0147    9.6937    8.0466 C   0  0  0  0  0  0  0  0  0  0  0  0
   11.8546    9.6575    6.7139 N   0  0  0  0  0  0  0  0  0  0  0  0
   11.5292   10.8510    6.1754 C   0  0  0  0  0  0  0  0  0  0  0  0
   11.3516   12.0486    6.8323 C   0  0  0  0  0  0  0  0  0  0  0  0
   11.5173   12.1078    8.2304 C   0  0  0  0  0  0  0  0  0  0  0  0
   11.4068   13.0598    8.9909 O   0  0  0  0  0  0  0  0  0  0  0  0
   11.0315   13.0080    5.9170 N   0  0  0  0  0  0  0  0  0  0  0  0
   11.0127   12.3976    4.7134 C   0  0  0  0  0  0  0  0  0  0  0  0
   11.3140   11.0658    4.8416 N   0  0  0  0  0  0  0  0  0  0  0  0
  1  2  1  0  0  0  0
  1  6  1  0  0  0  0
  2  3  2  0  0  0  0
  3  4  1  0  0  0  0
  4  5  2  0  0  0  0
  4 10  1  0  0  0  0
  5  6  1  0  0  0  0
  5  8  1  0  0  0  0
  6  7  2  0  0  0  0
  8  9  1  0  0  0  0
  9 10  2  0  0  0  0
M  END
>  <CHROM.1>
11.48746807,11.50268051,6.96229250,-0.96156640,1.32608311,-2.09873702

>  <Name>
ligand

>  <RI>
0

>  <Rbt.Current_Directory>
/home/itssahil/PROJECTS/Mol_Feturizer/New_Systems/rnas/4FEJ

>  <Rbt.Executable>
rbdock ($Id: //depot/dev/client3/rdock/2013.1/src/exe/rbdock.cxx#4 $)

>  <Rbt.Library>
libRbt.so (2013.1, Build901 2013/11/27)

>  <Rbt.Parameter_File>
/export/apps/rDock/src/rDock_2013.1_src/data/scripts/dock_solv.prm

>  <Rbt.Receptor>
prm/pocket_docking_8.prm

>  <SCORE>
-17.4758

>  <SCORE.INTER>
-17.4758

>  <SCORE.INTER.CONST>
1

>  <SCORE.INTER.POLAR>
0

>  <SCORE.INTER.ROT>
0

>  <SCORE.INTER.SOLV>
3.93341

>  <SCORE.INTER.VDW>
-16.5617

>  <SCORE.INTER.norm>
-1.74758

>  <SCORE.INTRA>
0

>  <SCORE.INTRA.DIHEDRAL>
0

>  <SCORE.INTRA.DIHEDRAL.0>
0

>  <SCORE.INTRA.POLAR>
0

>  <SCORE.INTRA.POLAR.0>
0

>  <SCORE.INTRA.REPUL>
0

>  <SCORE.INTRA.REPUL.0>
0

>  <SCORE.INTRA.SOLV>
0

>  <SCORE.INTRA.SOLV.lig_0>
-4.26631

>  <SCORE.INTRA.VDW>
0

>  <SCORE.INTRA.VDW.0>
0

>  <SCORE.INTRA.norm>
0

>  <SCORE.RESTR>
0

>  <SCORE.RESTR.CAVITY>
0

>  <SCORE.RESTR.norm>
0

>  <SCORE.SYSTEM>
0

>  <SCORE.SYSTEM.CONST>
0

>  <SCORE.SYSTEM.DIHEDRAL>
0

>  <SCORE.SYSTEM.SOLV>
0

>  <SCORE.SYSTEM.norm>
0

>  <SCORE.heavy>
10

>  <SCORE.norm>
-1.74758

>  <RMSD>
2.410

$$$$
ligand
 OpenBabel11021811493D
libRbt.so/2013.1/901 2013/11/27
 10 11  0  0  0  0  0  0  0  0999 V2000
   11.8500   10.8531    8.7587 N   0  0  0  0  0  0  0  0  0  0  0  0
   12.0155    9.6914    8.0478 C   0  0  0  0  0  0  0  0  0  0  0  0
   11.8553    9.6555    6.7151 N   0  0  0  0  0  0  0  0  0  0  0  0
   11.5264   10.8484    6.1774 C   0  0  0  0  0  0  0  0  0  0  0  0
   11.3457   12.0451    6.8350 C   0  0  0  0  0  0  0  0  0  0  0  0
   11.5116   12.1040    8.2331 C   0  0  0  0  0  0  0  0  0  0  0  0
   11.3987   13.0552    8.9941 O   0  0  0  0  0  0  0  0  0  0  0  0
   11.0228   13.0042    5.9203 N   0  0  0  0  0  0  0  0  0  0  0  0
   11.0053   12.3944    4.7164 C   0  0  0  0  0  0  0  0  0  0  0  0
   11.3103   11.0634    4.8437 N   0  0  0  0  0  0  0  0  0  0  0  0
  1  2  1  0  0  0  0
  1  6  1  0  0  0  0
  2  3  2  0  0  0  0
  3  4  1  0  0  0  0
  4  5  2  0  0  0  0
  4 10  1  0  0  0  0
  5  6  1  0  0  0  0
  5  8  1  0  0  0  0
  6  7  2  0  0  0  0
  8  9  1  0  0  0  0
  9 10  2  0  0  0  0
M  END
>  <CHROM.1>
11.48311828,11.49950239,6.96463323,-0.96626763,1.32359326,-2.09360356

>  <Name>
ligand

>  <RI>
0

>  <Rbt.Current_Directory>
/home/itssahil/PROJECTS/Mol_Feturizer/New_Systems/rnas/4FEJ

>  <Rbt.Executable>
rbdock ($Id: //depot/dev/client3/rdock/2013.1/src/exe/rbdock.cxx#4 $)

>  <Rbt.Library>
libRbt.so (2013.1, Build901 2013/11/27)

>  <Rbt.Parameter_File>
/export/apps/rDock/src/rDock_2013.1_src/data/scripts/dock_solv.prm

>  <Rbt.Receptor>
prm/pocket_docking_8.prm

>  <SCORE>
-17.4725

>  <SCORE.INTER>
-17.4725

>  <SCORE.INTER.CONST>
1

>  <SCORE.INTER.POLAR>
0

>  <SCORE.INTER.ROT>
0

>  <SCORE.INTER.SOLV>
3.92631

>  <SCORE.INTER.VDW>
-16.5571

>  <SCORE.INTER.norm>
-1.74725

>  <SCORE.INTRA>
0

>  <SCORE.INTRA.DIHEDRAL>
0

>  <SCORE.INTRA.DIHEDRAL.0>
0

>  <SCORE.INTRA.POLAR>
0

>  <SCORE.INTRA.POLAR.0>
0

>  <SCORE.INTRA.REPUL>
0

>  <SCORE.INTRA.REPUL.0>
0

>  <SCORE.INTRA.SOLV>
0

>  <SCORE.INTRA.SOLV.lig_0>
-4.26631

>  <SCORE.INTRA.VDW>
0

>  <SCORE.INTRA.VDW.0>
0

>  <SCORE.INTRA.norm>
0

>  <SCORE.RESTR>
0

>  <SCORE.RESTR.CAVITY>
0

>  <SCORE.RESTR.norm>
0

>  <SCORE.SYSTEM>
0

>  <SCORE.SYSTEM.CONST>
0

>  <SCORE.SYSTEM.DIHEDRAL>
0

>  <SCORE.SYSTEM.SOLV>
0

>  <SCORE.SYSTEM.norm>
0

>  <SCORE.heavy>
10

>  <SCORE.norm>
-1.74725

>  <RMSD>
2.410

$$$$
ligand
 OpenBabel11021811493D
libRbt.so/2013.1/901 2013/11/27
 10 11  0  0  0  0  0  0  0  0999 V2000
   11.8660   10.8647    8.7544 N   0  0  0  0  0  0  0  0  0  0  0  0
   12.0307    9.7013    8.0460 C   0  0  0  0  0  0  0  0  0  0  0  0
   11.8664    9.6618    6.7139 N   0  0  0  0  0  0  0  0  0  0  0  0
   11.5347   10.8529    6.1740 C   0  0  0  0  0  0  0  0  0  0  0  0
   11.3547   12.0511    6.8291 C   0  0  0  0  0  0  0  0  0  0  0  0
   11.5247   12.1139    8.2265 C   0  0  0  0  0  0  0  0  0  0  0  0
   11.4131   13.0670    8.9854 O   0  0  0  0  0  0  0  0  0  0  0  0
   11.0279   13.0075    5.9129 N   0  0  0  0  0  0  0  0  0  0  0  0
   11.0075   12.3945    4.7106 C   0  0  0  0  0  0  0  0  0  0  0  0
   11.3143   11.0642    4.8405 N   0  0  0  0  0  0  0  0  0  0  0  0
  1  2  1  0  0  0  0
  1  6  1  0  0  0  0
  2  3  2  0  0  0  0
  3  4  1  0  0  0  0
  4  5  2  0  0  0  0
  4 10  1  0  0  0  0
  5  6  1  0  0  0  0
  5  8  1  0  0  0  0
  6  7  2  0  0  0  0
  8  9  1  0  0  0  0
  9 10  2  0  0  0  0
M  END
>  <CHROM.1>
11.49301895,11.50604309,6.95972390,-0.95789579,1.32114334,-2.10432373

>  <Name>
ligand

>  <RI>
0

>  <Rbt.Current_Directory>
/home/itssahil/PROJECTS/Mol_Feturizer/New_Systems/rnas/4FEJ

>  <Rbt.Executable>
rbdock ($Id: //depot/dev/client3/rdock/2013.1/src/exe/rbdock.cxx#4 $)

>  <Rbt.Library>
libRbt.so (2013.1, Build901 2013/11/27)

>  <Rbt.Parameter_File>
/export/apps/rDock/src/rDock_2013.1_src/data/scripts/dock_solv.prm

>  <Rbt.Receptor>
prm/pocket_docking_8.prm

>  <SCORE>
-17.4756

>  <SCORE.INTER>
-17.4756

>  <SCORE.INTER.CONST>
1

>  <SCORE.INTER.POLAR>
0

>  <SCORE.INTER.ROT>
0

>  <SCORE.INTER.SOLV>
3.93208

>  <SCORE.INTER.VDW>
-16.5611

>  <SCORE.INTER.norm>
-1.74756

>  <SCORE.INTRA>
0

>  <SCORE.INTRA.DIHEDRAL>
0

>  <SCORE.INTRA.DIHEDRAL.0>
0

>  <SCORE.INTRA.POLAR>
0

>  <SCORE.INTRA.POLAR.0>
0

>  <SCORE.INTRA.REPUL>
0

>  <SCORE.INTRA.REPUL.0>
0

>  <SCORE.INTRA.SOLV>
0

>  <SCORE.INTRA.SOLV.lig_0>
-4.26631

>  <SCORE.INTRA.VDW>
0

>  <SCORE.INTRA.VDW.0>
0

>  <SCORE.INTRA.norm>
0

>  <SCORE.RESTR>
0

>  <SCORE.RESTR.CAVITY>
0

>  <SCORE.RESTR.norm>
0

>  <SCORE.SYSTEM>
0

>  <SCORE.SYSTEM.CONST>
0

>  <SCORE.SYSTEM.DIHEDRAL>
0

>  <SCORE.SYSTEM.SOLV>
0

>  <SCORE.SYSTEM.norm>
0

>  <SCORE.heavy>
10

>  <SCORE.norm>
-1.74756

>  <RMSD>
2.410

$$$$
ligand
 OpenBabel11021811493D
libRbt.so/2013.1/901 2013/11/27
 10 11  0  0  0  0  0  0  0  0999 V2000
   11.8593   10.8630    8.7562 N   0  0  0  0  0  0  0  0  0  0  0  0
   12.0219    9.6994    8.0478 C   0  0  0  0  0  0  0  0  0  0  0  0
   11.8607    9.6607    6.7153 N   0  0  0  0  0  0  0  0  0  0  0  0
   11.5341   10.8531    6.1751 C   0  0  0  0  0  0  0  0  0  0  0  0
   11.3563   12.0517    6.8301 C   0  0  0  0  0  0  0  0  0  0  0  0
   11.5232   12.1135    8.2279 C   0  0  0  0  0  0  0  0  0  0  0  0
   11.4129   13.0667    8.9868 O   0  0  0  0  0  0  0  0  0  0  0  0
   11.0348   13.0093    5.9133 N   0  0  0  0  0  0  0  0  0  0  0  0
   11.0153   12.3968    4.7109 C   0  0  0  0  0  0  0  0  0  0  0  0
   11.3175   11.0655    4.8411 N   0  0  0  0  0  0  0  0  0  0  0  0
  1  2  1  0  0  0  0
  1  6  1  0  0  0  0
  2  3  2  0  0  0  0
  3  4  1  0  0  0  0
  4  5  2  0  0  0  0
  4 10  1  0  0  0  0
  5  6  1  0  0  0  0
  5  8  1  0  0  0  0
  6  7  2  0  0  0  0
  8  9  1  0  0  0  0
  9 10  2  0  0  0  0
M  END
>  <CHROM.1>
11.49263923,11.50609874,6.96085483,-0.95961114,1.32512000,-2.10236501

>  <Name>
ligand

>  <RI>
0

>  <Rbt.Current_Directory>
/home/itssahil/PROJECTS/Mol_Feturizer/New_Systems/rnas/4FEJ

>  <Rbt.Executable>
rbdock ($Id: //depot/dev/client3/rdock/2013.1/src/exe/rbdock.cxx#4 $)

>  <Rbt.Library>
libRbt.so (2013.1, Build901 2013/11/27)

>  <Rbt.Parameter_File>
/export/apps/rDock/src/rDock_2013.1_src/data/scripts/dock_solv.prm

>  <Rbt.Receptor>
prm/pocket_docking_8.prm

>  <SCORE>
-17.4765

>  <SCORE.INTER>
-17.4765

>  <SCORE.INTER.CONST>
1

>  <SCORE.INTER.POLAR>
0

>  <SCORE.INTER.ROT>
0

>  <SCORE.INTER.SOLV>
3.93765

>  <SCORE.INTER.VDW>
-16.5635

>  <SCORE.INTER.norm>
-1.74765

>  <SCORE.INTRA>
0

>  <SCORE.INTRA.DIHEDRAL>
0

>  <SCORE.INTRA.DIHEDRAL.0>
0

>  <SCORE.INTRA.POLAR>
0

>  <SCORE.INTRA.POLAR.0>
0

>  <SCORE.INTRA.REPUL>
0

>  <SCORE.INTRA.REPUL.0>
0

>  <SCORE.INTRA.SOLV>
0

>  <SCORE.INTRA.SOLV.lig_0>
-4.26631

>  <SCORE.INTRA.VDW>
0

>  <SCORE.INTRA.VDW.0>
0

>  <SCORE.INTRA.norm>
0

>  <SCORE.RESTR>
0

>  <SCORE.RESTR.CAVITY>
0

>  <SCORE.RESTR.norm>
0

>  <SCORE.SYSTEM>
0

>  <SCORE.SYSTEM.CONST>
0

>  <SCORE.SYSTEM.DIHEDRAL>
0

>  <SCORE.SYSTEM.SOLV>
0

>  <SCORE.SYSTEM.norm>
0

>  <SCORE.heavy>
10

>  <SCORE.norm>
-1.74765

>  <RMSD>
2.410

$$$$
ligand
 OpenBabel11021811493D
libRbt.so/2013.1/901 2013/11/27
 10 11  0  0  0  0  0  0  0  0999 V2000
   11.8381   10.8713    8.7802 N   0  0  0  0  0  0  0  0  0  0  0  0
   11.9822    9.6987    8.0826 C   0  0  0  0  0  0  0  0  0  0  0  0
   11.8208    9.6504    6.7505 N   0  0  0  0  0  0  0  0  0  0  0  0
   11.5137   10.8429    6.1991 C   0  0  0  0  0  0  0  0  0  0  0  0
   11.3551   12.0502    6.8430 C   0  0  0  0  0  0  0  0  0  0  0  0
   11.5225   12.1221    8.2403 C   0  0  0  0  0  0  0  0  0  0  0  0
   11.4272   13.0839    8.9904 O   0  0  0  0  0  0  0  0  0  0  0  0
   11.0495   13.0044    5.9174 N   0  0  0  0  0  0  0  0  0  0  0  0
   11.0205   12.3813    4.7206 C   0  0  0  0  0  0  0  0  0  0  0  0
   11.3011   11.0465    4.8631 N   0  0  0  0  0  0  0  0  0  0  0  0
  1  2  1  0  0  0  0
  1  6  1  0  0  0  0
  2  3  2  0  0  0  0
  3  4  1  0  0  0  0
  4  5  2  0  0  0  0
  4 10  1  0  0  0  0
  5  6  1  0  0  0  0
  5  8  1  0  0  0  0
  6  7  2  0  0  0  0
  8  9  1  0  0  0  0
  9 10  2  0  0  0  0
M  END
>  <CHROM.1>
11.48255850,11.50368271,6.97886756,-0.92534809,1.33909284,-2.14482992

>  <Name>
ligand

>  <RI>
0

>  <Rbt.Current_Directory>
/home/itssahil/PROJECTS/Mol_Feturizer/New_Systems/rnas/4FEJ

>  <Rbt.Executable>
rbdock ($Id: //depot/dev/client3/rdock/2013.1/src/exe/rbdock.cxx#4 $)

>  <Rbt.Library>
libRbt.so (2013.1, Build901 2013/11/27)

>  <Rbt.Parameter_File>
/export/apps/rDock/src/rDock_2013.1_src/data/scripts/dock_solv.prm

>  <Rbt.Receptor>
prm/pocket_docking_8.prm

>  <SCORE>
-17.4174

>  <SCORE.INTER>
-17.4174

>  <SCORE.INTER.CONST>
1

>  <SCORE.INTER.POLAR>
0

>  <SCORE.INTER.ROT>
0

>  <SCORE.INTER.SOLV>
3.97956

>  <SCORE.INTER.VDW>
-16.5381

>  <SCORE.INTER.norm>
-1.74174

>  <SCORE.INTRA>
0

>  <SCORE.INTRA.DIHEDRAL>
0

>  <SCORE.INTRA.DIHEDRAL.0>
0

>  <SCORE.INTRA.POLAR>
0

>  <SCORE.INTRA.POLAR.0>
0

>  <SCORE.INTRA.REPUL>
0

>  <SCORE.INTRA.REPUL.0>
0

>  <SCORE.INTRA.SOLV>
0

>  <SCORE.INTRA.SOLV.lig_0>
-4.26631

>  <SCORE.INTRA.VDW>
0

>  <SCORE.INTRA.VDW.0>
0

>  <SCORE.INTRA.norm>
0

>  <SCORE.RESTR>
0

>  <SCORE.RESTR.CAVITY>
0

>  <SCORE.RESTR.norm>
0

>  <SCORE.SYSTEM>
0

>  <SCORE.SYSTEM.CONST>
0

>  <SCORE.SYSTEM.DIHEDRAL>
0

>  <SCORE.SYSTEM.SOLV>
0

>  <SCORE.SYSTEM.norm>
0

>  <SCORE.heavy>
10

>  <SCORE.norm>
-1.74174

>  <RMSD>
2.410

$$$$
ligand
 OpenBabel11021811493D
libRbt.so/2013.1/901 2013/11/27
 10 11  0  0  0  0  0  0  0  0999 V2000
   11.8509   10.8516    8.7587 N   0  0  0  0  0  0  0  0  0  0  0  0
   12.0206    9.6916    8.0459 C   0  0  0  0  0  0  0  0  0  0  0  0
   11.8638    9.6579    6.7128 N   0  0  0  0  0  0  0  0  0  0  0  0
   11.5339   10.8512    6.1765 C   0  0  0  0  0  0  0  0  0  0  0  0
   11.3492   12.0463    6.8359 C   0  0  0  0  0  0  0  0  0  0  0  0
   11.5113   12.1029    8.2346 C   0  0  0  0  0  0  0  0  0  0  0  0
   11.3946   13.0524    8.9971 O   0  0  0  0  0  0  0  0  0  0  0  0
   11.0266   13.0065    5.9222 N   0  0  0  0  0  0  0  0  0  0  0  0
   11.0135   12.3989    4.7171 C   0  0  0  0  0  0  0  0  0  0  0  0
   11.3208   11.0683    4.8427 N   0  0  0  0  0  0  0  0  0  0  0  0
  1  2  1  0  0  0  0
  1  6  1  0  0  0  0
  2  3  2  0  0  0  0
  3  4  1  0  0  0  0
  4  5  2  0  0  0  0
  4 10  1  0  0  0  0
  5  6  1  0  0  0  0
  5  8  1  0  0  0  0
  6  7  2  0  0  0  0
  8  9  1  0  0  0  0
  9 10  2  0  0  0  0
M  END
>  <CHROM.1>
11.48729668,11.50071456,6.96487561,-0.97937630,1.32311466,-2.07898700

>  <Name>
ligand

>  <RI>
0

>  <Rbt.Current_Directory>
/home/itssahil/PROJECTS/Mol_Feturizer/New_Systems/rnas/4FEJ

>  <Rbt.Executable>
rbdock ($Id: //depot/dev/client3/rdock/2013.1/src/exe/rbdock.cxx#4 $)

>  <Rbt.Library>
libRbt.so (2013.1, Build901 2013/11/27)

>  <Rbt.Parameter_File>
/export/apps/rDock/src/rDock_2013.1_src/data/scripts/dock_solv.prm

>  <Rbt.Receptor>
prm/blind_docking_100.prm

>  <SCORE>
-17.4721

>  <SCORE.INTER>
-17.4721

>  <SCORE.INTER.CONST>
1

>  <SCORE.INTER.POLAR>
0

>  <SCORE.INTER.ROT>
0

>  <SCORE.INTER.SOLV>
3.92227

>  <SCORE.INTER.VDW>
-16.5555

>  <SCORE.INTER.norm>
-1.74721

>  <SCORE.INTRA>
0

>  <SCORE.INTRA.DIHEDRAL>
0

>  <SCORE.INTRA.DIHEDRAL.0>
0

>  <SCORE.INTRA.POLAR>
0

>  <SCORE.INTRA.POLAR.0>
0

>  <SCORE.INTRA.REPUL>
0

>  <SCORE.INTRA.REPUL.0>
0

>  <SCORE.INTRA.SOLV>
0

>  <SCORE.INTRA.SOLV.lig_0>
-4.26631

>  <SCORE.INTRA.VDW>
0

>  <SCORE.INTRA.VDW.0>
0

>  <SCORE.INTRA.norm>
0

>  <SCORE.RESTR>
0

>  <SCORE.RESTR.CAVITY>
0

>  <SCORE.RESTR.norm>
0

>  <SCORE.SYSTEM>
0

>  <SCORE.SYSTEM.CONST>
0

>  <SCORE.SYSTEM.DIHEDRAL>
0

>  <SCORE.SYSTEM.SOLV>
0

>  <SCORE.SYSTEM.norm>
0

>  <SCORE.heavy>
10

>  <SCORE.norm>
-1.74721

>  <RMSD>
2.411

$$$$
ligand
 OpenBabel11021811493D
libRbt.so/2013.1/901 2013/11/27
 10 11  0  0  0  0  0  0  0  0999 V2000
   11.8467   10.8741    8.7830 N   0  0  0  0  0  0  0  0  0  0  0  0
   12.0466    9.7175    8.0725 C   0  0  0  0  0  0  0  0  0  0  0  0
   11.9100    9.6820    6.7371 N   0  0  0  0  0  0  0  0  0  0  0  0
   11.5678   10.8698    6.1964 C   0  0  0  0  0  0  0  0  0  0  0  0
   11.3530   12.0612    6.8535 C   0  0  0  0  0  0  0  0  0  0  0  0
   11.4936   12.1197    8.2544 C   0  0  0  0  0  0  0  0  0  0  0  0
   11.3496   13.0666    9.0155 O   0  0  0  0  0  0  0  0  0  0  0  0
   11.0277   13.0163    5.9355 N   0  0  0  0  0  0  0  0  0  0  0  0
   11.0426   12.4093    4.7301 C   0  0  0  0  0  0  0  0  0  0  0  0
   11.3706   11.0841    4.8597 N   0  0  0  0  0  0  0  0  0  0  0  0
  1  2  1  0  0  0  0
  1  6  1  0  0  0  0
  2  3  2  0  0  0  0
  3  4  1  0  0  0  0
  4  5  2  0  0  0  0
  4 10  1  0  0  0  0
  5  6  1  0  0  0  0
  5  8  1  0  0  0  0
  6  7  2  0  0  0  0
  8  9  1  0  0  0  0
  9 10  2  0  0  0  0
M  END
>  <CHROM.1>
11.49854419,11.51796043,6.98430022,-1.06287339,1.31454288,-1.99764726

>  <Name>
ligand

>  <RI>
0

>  <Rbt.Current_Directory>
/home/itssahil/PROJECTS/Mol_Feturizer/New_Systems/rnas/4FEJ

>  <Rbt.Executable>
rbdock ($Id: //depot/dev/client3/rdock/2013.1/src/exe/rbdock.cxx#4 $)

>  <Rbt.Library>
libRbt.so (2013.1, Build901 2013/11/27)

>  <Rbt.Parameter_File>
/export/apps/rDock/src/rDock_2013.1_src/data/scripts/dock_solv.prm

>  <Rbt.Receptor>
prm/blind_docking_40.prm

>  <SCORE>
-17.5107

>  <SCORE.INTER>
-17.5107

>  <SCORE.INTER.CONST>
1

>  <SCORE.INTER.POLAR>
0

>  <SCORE.INTER.ROT>
0

>  <SCORE.INTER.SOLV>
3.93218

>  <SCORE.INTER.VDW>
-16.5845

>  <SCORE.INTER.norm>
-1.75107

>  <SCORE.INTRA>
0

>  <SCORE.INTRA.DIHEDRAL>
0

>  <SCORE.INTRA.DIHEDRAL.0>
0

>  <SCORE.INTRA.POLAR>
0

>  <SCORE.INTRA.POLAR.0>
0

>  <SCORE.INTRA.REPUL>
0

>  <SCORE.INTRA.REPUL.0>
0

>  <SCORE.INTRA.SOLV>
0

>  <SCORE.INTRA.SOLV.lig_0>
-4.26631

>  <SCORE.INTRA.VDW>
0

>  <SCORE.INTRA.VDW.0>
0

>  <SCORE.INTRA.norm>
0

>  <SCORE.RESTR>
0

>  <SCORE.RESTR.CAVITY>
0

>  <SCORE.RESTR.norm>
0

>  <SCORE.SYSTEM>
0

>  <SCORE.SYSTEM.CONST>
0

>  <SCORE.SYSTEM.DIHEDRAL>
0

>  <SCORE.SYSTEM.SOLV>
0

>  <SCORE.SYSTEM.norm>
0

>  <SCORE.heavy>
10

>  <SCORE.norm>
-1.75107

>  <RMSD>
2.411

$$$$
ligand
 OpenBabel11021811493D
libRbt.so/2013.1/901 2013/11/27
 10 11  0  0  0  0  0  0  0  0999 V2000
   11.8487   10.8580    8.7578 N   0  0  0  0  0  0  0  0  0  0  0  0
   12.0125    9.6951    8.0484 C   0  0  0  0  0  0  0  0  0  0  0  0
   11.8553    9.6585    6.7153 N   0  0  0  0  0  0  0  0  0  0  0  0
   11.5315   10.8518    6.1756 C   0  0  0  0  0  0  0  0  0  0  0  0
   11.3528   12.0497    6.8317 C   0  0  0  0  0  0  0  0  0  0  0  0
   11.5155   12.1095    8.2301 C   0  0  0  0  0  0  0  0  0  0  0  0
   11.4037   13.0618    8.9900 O   0  0  0  0  0  0  0  0  0  0  0  0
   11.0350   13.0089    5.9153 N   0  0  0  0  0  0  0  0  0  0  0  0
   11.0187   12.3980    4.7119 C   0  0  0  0  0  0  0  0  0  0  0  0
   11.3192   11.0662    4.8413 N   0  0  0  0  0  0  0  0  0  0  0  0
  1  2  1  0  0  0  0
  1  6  1  0  0  0  0
  2  3  2  0  0  0  0
  3  4  1  0  0  0  0
  4  5  2  0  0  0  0
  4 10  1  0  0  0  0
  5  6  1  0  0  0  0
  5  8  1  0  0  0  0
  6  7  2  0  0  0  0
  8  9  1  0  0  0  0
  9 10  2  0  0  0  0
M  END
>  <CHROM.1>
11.48823171,11.50382615,6.96217230,-0.96863979,1.32746594,-2.09226920

>  <Name>
ligand

>  <RI>
0

>  <Rbt.Current_Directory>
/home/itssahil/PROJECTS/Mol_Feturizer/New_Systems/rnas/4FEJ

>  <Rbt.Executable>
rbdock ($Id: //depot/dev/client3/rdock/2013.1/src/exe/rbdock.cxx#4 $)

>  <Rbt.Library>
libRbt.so (2013.1, Build901 2013/11/27)

>  <Rbt.Parameter_File>
/export/apps/rDock/src/rDock_2013.1_src/data/scripts/dock_solv.prm

>  <Rbt.Receptor>
prm/blind_docking_40.prm

>  <SCORE>
-17.4755

>  <SCORE.INTER>
-17.4755

>  <SCORE.INTER.CONST>
1

>  <SCORE.INTER.POLAR>
0

>  <SCORE.INTER.ROT>
0

>  <SCORE.INTER.SOLV>
3.93659

>  <SCORE.INTER.VDW>
-16.5625

>  <SCORE.INTER.norm>
-1.74755

>  <SCORE.INTRA>
0

>  <SCORE.INTRA.DIHEDRAL>
0

>  <SCORE.INTRA.DIHEDRAL.0>
0

>  <SCORE.INTRA.POLAR>
0

>  <SCORE.INTRA.POLAR.0>
0

>  <SCORE.INTRA.REPUL>
0

>  <SCORE.INTRA.REPUL.0>
0

>  <SCORE.INTRA.SOLV>
0

>  <SCORE.INTRA.SOLV.lig_0>
-4.26631

>  <SCORE.INTRA.VDW>
0

>  <SCORE.INTRA.VDW.0>
0

>  <SCORE.INTRA.norm>
0

>  <SCORE.RESTR>
0

>  <SCORE.RESTR.CAVITY>
0

>  <SCORE.RESTR.norm>
0

>  <SCORE.SYSTEM>
0

>  <SCORE.SYSTEM.CONST>
0

>  <SCORE.SYSTEM.DIHEDRAL>
0

>  <SCORE.SYSTEM.SOLV>
0

>  <SCORE.SYSTEM.norm>
0

>  <SCORE.heavy>
10

>  <SCORE.norm>
-1.74755

>  <RMSD>
2.411

$$$$
ligand
 OpenBabel11021811493D
libRbt.so/2013.1/901 2013/11/27
 10 11  0  0  0  0  0  0  0  0999 V2000
   11.8561   10.8629    8.7774 N   0  0  0  0  0  0  0  0  0  0  0  0
   12.0518    9.7026    8.0718 C   0  0  0  0  0  0  0  0  0  0  0  0
   11.9042    9.6592    6.7378 N   0  0  0  0  0  0  0  0  0  0  0  0
   11.5558   10.8434    6.1932 C   0  0  0  0  0  0  0  0  0  0  0  0
   11.3448   12.0382    6.8453 C   0  0  0  0  0  0  0  0  0  0  0  0
   11.4969   12.1050    8.2446 C   0  0  0  0  0  0  0  0  0  0  0  0
   11.3577   13.0560    9.0014 O   0  0  0  0  0  0  0  0  0  0  0  0
   11.0105   12.9876    5.9245 N   0  0  0  0  0  0  0  0  0  0  0  0
   11.0163   12.3738    4.7226 C   0  0  0  0  0  0  0  0  0  0  0  0
   11.3473   11.0498    4.8570 N   0  0  0  0  0  0  0  0  0  0  0  0
  1  2  1  0  0  0  0
  1  6  1  0  0  0  0
  2  3  2  0  0  0  0
  3  4  1  0  0  0  0
  4  5  2  0  0  0  0
  4 10  1  0  0  0  0
  5  6  1  0  0  0  0
  5  8  1  0  0  0  0
  6  7  2  0  0  0  0
  8  9  1  0  0  0  0
  9 10  2  0  0  0  0
M  END
>  <CHROM.1>
11.49216143,11.49599596,6.97791401,-1.03602578,1.30972140,-2.02931821

>  <Name>
ligand

>  <RI>
0

>  <Rbt.Current_Directory>
/home/itssahil/PROJECTS/Mol_Feturizer/New_Systems/rnas/4FEJ

>  <Rbt.Executable>
rbdock ($Id: //depot/dev/client3/rdock/2013.1/src/exe/rbdock.cxx#4 $)

>  <Rbt.Library>
libRbt.so (2013.1, Build901 2013/11/27)

>  <Rbt.Parameter_File>
/export/apps/rDock/src/rDock_2013.1_src/data/scripts/dock_solv.prm

>  <Rbt.Receptor>
prm/blind_docking_60.prm

>  <SCORE>
-17.4668

>  <SCORE.INTER>
-17.4668

>  <SCORE.INTER.CONST>
1

>  <SCORE.INTER.POLAR>
0

>  <SCORE.INTER.ROT>
0

>  <SCORE.INTER.SOLV>
3.91801

>  <SCORE.INTER.VDW>
-16.5505

>  <SCORE.INTER.norm>
-1.74668

>  <SCORE.INTRA>
0

>  <SCORE.INTRA.DIHEDRAL>
0

>  <SCORE.INTRA.DIHEDRAL.0>
0

>  <SCORE.INTRA.POLAR>
0

>  <SCORE.INTRA.POLAR.0>
0

>  <SCORE.INTRA.REPUL>
0

>  <SCORE.INTRA.REPUL.0>
0

>  <SCORE.INTRA.SOLV>
0

>  <SCORE.INTRA.SOLV.lig_0>
-4.26631

>  <SCORE.INTRA.VDW>
0

>  <SCORE.INTRA.VDW.0>
0

>  <SCORE.INTRA.norm>
0

>  <SCORE.RESTR>
0

>  <SCORE.RESTR.CAVITY>
0

>  <SCORE.RESTR.norm>
0

>  <SCORE.SYSTEM>
0

>  <SCORE.SYSTEM.CONST>
0

>  <SCORE.SYSTEM.DIHEDRAL>
0

>  <SCORE.SYSTEM.SOLV>
0

>  <SCORE.SYSTEM.norm>
0

>  <SCORE.heavy>
10

>  <SCORE.norm>
-1.74668

>  <RMSD>
2.411

$$$$
ligand
 OpenBabel11021811493D
libRbt.so/2013.1/901 2013/11/27
 10 11  0  0  0  0  0  0  0  0999 V2000
   11.8718   10.8285    8.7395 N   0  0  0  0  0  0  0  0  0  0  0  0
   12.0178    9.6594    8.0364 C   0  0  0  0  0  0  0  0  0  0  0  0
   11.8469    9.6153    6.7053 N   0  0  0  0  0  0  0  0  0  0  0  0
   11.5285   10.8079    6.1608 C   0  0  0  0  0  0  0  0  0  0  0  0
   11.3674   12.0117    6.8105 C   0  0  0  0  0  0  0  0  0  0  0  0
   11.5446   12.0794    8.2068 C   0  0  0  0  0  0  0  0  0  0  0  0
   11.4491   13.0377    8.9612 O   0  0  0  0  0  0  0  0  0  0  0  0
   11.0491   12.9677    5.8908 N   0  0  0  0  0  0  0  0  0  0  0  0
   11.0150   12.3489    4.6918 C   0  0  0  0  0  0  0  0  0  0  0  0
   11.3048   11.0153    4.8272 N   0  0  0  0  0  0  0  0  0  0  0  0
  1  2  1  0  0  0  0
  1  6  1  0  0  0  0
  2  3  2  0  0  0  0
  3  4  1  0  0  0  0
  4  5  2  0  0  0  0
  4 10  1  0  0  0  0
  5  6  1  0  0  0  0
  5  8  1  0  0  0  0
  6  7  2  0  0  0  0
  8  9  1  0  0  0  0
  9 10  2  0  0  0  0
M  END
>  <CHROM.1>
11.49911597,11.46554656,6.94327947,-0.91305483,1.32996171,-2.15296239

>  <Name>
ligand

>  <RI>
0

>  <Rbt.Current_Directory>
/home/itssahil/PROJECTS/Mol_Feturizer/New_Systems/rnas/4FEJ

>  <Rbt.Executable>
rbdock ($Id: //depot/dev/client3/rdock/2013.1/src/exe/rbdock.cxx#4 $)

>  <Rbt.Library>
libRbt.so (2013.1, Build901 2013/11/27)

>  <Rbt.Parameter_File>
/export/apps/rDock/src/rDock_2013.1_src/data/scripts/dock_solv.prm

>  <Rbt.Receptor>
prm/blind_docking_60.prm

>  <SCORE>
-17.4075

>  <SCORE.INTER>
-17.4075

>  <SCORE.INTER.CONST>
1

>  <SCORE.INTER.POLAR>
0

>  <SCORE.INTER.ROT>
0

>  <SCORE.INTER.SOLV>
3.9326

>  <SCORE.INTER.VDW>
-16.5159

>  <SCORE.INTER.norm>
-1.74075

>  <SCORE.INTRA>
0

>  <SCORE.INTRA.DIHEDRAL>
0

>  <SCORE.INTRA.DIHEDRAL.0>
0

>  <SCORE.INTRA.POLAR>
0

>  <SCORE.INTRA.POLAR.0>
0

>  <SCORE.INTRA.REPUL>
0

>  <SCORE.INTRA.REPUL.0>
0

>  <SCORE.INTRA.SOLV>
0

>  <SCORE.INTRA.SOLV.lig_0>
-4.26631

>  <SCORE.INTRA.VDW>
0

>  <SCORE.INTRA.VDW.0>
0

>  <SCORE.INTRA.norm>
0

>  <SCORE.RESTR>
0

>  <SCORE.RESTR.CAVITY>
0

>  <SCORE.RESTR.norm>
0

>  <SCORE.SYSTEM>
0

>  <SCORE.SYSTEM.CONST>
0

>  <SCORE.SYSTEM.DIHEDRAL>
0

>  <SCORE.SYSTEM.SOLV>
0

>  <SCORE.SYSTEM.norm>
0

>  <SCORE.heavy>
10

>  <SCORE.norm>
-1.74075

>  <RMSD>
2.411

$$$$
ligand
 OpenBabel11021811493D
libRbt.so/2013.1/901 2013/11/27
 10 11  0  0  0  0  0  0  0  0999 V2000
   11.8599   10.8284    8.7847 N   0  0  0  0  0  0  0  0  0  0  0  0
   12.0724    9.6821    8.0614 C   0  0  0  0  0  0  0  0  0  0  0  0
   11.9356    9.6597    6.7257 N   0  0  0  0  0  0  0  0  0  0  0  0
   11.5800   10.8495    6.1983 C   0  0  0  0  0  0  0  0  0  0  0  0
   11.3522   12.0311    6.8685 C   0  0  0  0  0  0  0  0  0  0  0  0
   11.4928   12.0758    8.2699 C   0  0  0  0  0  0  0  0  0  0  0  0
   11.3385   13.0126    9.0414 O   0  0  0  0  0  0  0  0  0  0  0  0
   11.0158   12.9926    5.9611 N   0  0  0  0  0  0  0  0  0  0  0  0
   11.0370   12.3991    4.7491 C   0  0  0  0  0  0  0  0  0  0  0  0
   11.3798   11.0762    4.8641 N   0  0  0  0  0  0  0  0  0  0  0  0
  1  2  1  0  0  0  0
  1  6  1  0  0  0  0
  2  3  2  0  0  0  0
  3  4  1  0  0  0  0
  4  5  2  0  0  0  0
  4 10  1  0  0  0  0
  5  6  1  0  0  0  0
  5  8  1  0  0  0  0
  6  7  2  0  0  0  0
  8  9  1  0  0  0  0
  9 10  2  0  0  0  0
M  END
>  <CHROM.1>
11.50383784,11.48814749,6.99321224,-1.07885837,1.30419572,-1.97121273

>  <Name>
ligand

>  <RI>
0

>  <Rbt.Current_Directory>
/home/itssahil/PROJECTS/Mol_Feturizer/New_Systems/rnas/4FEJ

>  <Rbt.Executable>
rbdock ($Id: //depot/dev/client3/rdock/2013.1/src/exe/rbdock.cxx#4 $)

>  <Rbt.Library>
libRbt.so (2013.1, Build901 2013/11/27)

>  <Rbt.Parameter_File>
/export/apps/rDock/src/rDock_2013.1_src/data/scripts/dock_solv.prm

>  <Rbt.Receptor>
prm/blind_docking_80.prm

>  <SCORE>
-17.4911

>  <SCORE.INTER>
-17.4911

>  <SCORE.INTER.CONST>
1

>  <SCORE.INTER.POLAR>
0

>  <SCORE.INTER.ROT>
0

>  <SCORE.INTER.SOLV>
3.88165

>  <SCORE.INTER.VDW>
-16.5546

>  <SCORE.INTER.norm>
-1.74911

>  <SCORE.INTRA>
0

>  <SCORE.INTRA.DIHEDRAL>
0

>  <SCORE.INTRA.DIHEDRAL.0>
0

>  <SCORE.INTRA.POLAR>
0

>  <SCORE.INTRA.POLAR.0>
0

>  <SCORE.INTRA.REPUL>
0

>  <SCORE.INTRA.REPUL.0>
0

>  <SCORE.INTRA.SOLV>
0

>  <SCORE.INTRA.SOLV.lig_0>
-4.26631

>  <SCORE.INTRA.VDW>
0

>  <SCORE.INTRA.VDW.0>
0

>  <SCORE.INTRA.norm>
0

>  <SCORE.RESTR>
0

>  <SCORE.RESTR.CAVITY>
0

>  <SCORE.RESTR.norm>
0

>  <SCORE.SYSTEM>
0

>  <SCORE.SYSTEM.CONST>
0

>  <SCORE.SYSTEM.DIHEDRAL>
0

>  <SCORE.SYSTEM.SOLV>
0

>  <SCORE.SYSTEM.norm>
0

>  <SCORE.heavy>
10

>  <SCORE.norm>
-1.74911

>  <RMSD>
2.411

$$$$
ligand
 OpenBabel11021811493D
libRbt.so/2013.1/901 2013/11/27
 10 11  0  0  0  0  0  0  0  0999 V2000
   11.8477   10.8488    8.7598 N   0  0  0  0  0  0  0  0  0  0  0  0
   12.0161    9.6891    8.0463 C   0  0  0  0  0  0  0  0  0  0  0  0
   11.8594    9.6565    6.7131 N   0  0  0  0  0  0  0  0  0  0  0  0
   11.5311   10.8505    6.1775 C   0  0  0  0  0  0  0  0  0  0  0  0
   11.3476   12.0453    6.8378 C   0  0  0  0  0  0  0  0  0  0  0  0
   11.5097   12.1008    8.2365 C   0  0  0  0  0  0  0  0  0  0  0  0
   11.3940   13.0499    8.9997 O   0  0  0  0  0  0  0  0  0  0  0  0
   11.0263   13.0066    5.9247 N   0  0  0  0  0  0  0  0  0  0  0  0
   11.0127   12.3998    4.7192 C   0  0  0  0  0  0  0  0  0  0  0  0
   11.3184   11.0688    4.8439 N   0  0  0  0  0  0  0  0  0  0  0  0
  1  2  1  0  0  0  0
  1  6  1  0  0  0  0
  2  3  2  0  0  0  0
  3  4  1  0  0  0  0
  4  5  2  0  0  0  0
  4 10  1  0  0  0  0
  5  6  1  0  0  0  0
  5  8  1  0  0  0  0
  6  7  2  0  0  0  0
  8  9  1  0  0  0  0
  9 10  2  0  0  0  0
M  END
>  <CHROM.1>
11.48512267,11.49954530,6.96638394,-0.97752031,1.32421336,-2.08010065

>  <Name>
ligand

>  <RI>
0

>  <Rbt.Current_Directory>
/home/itssahil/PROJECTS/Mol_Feturizer/New_Systems/rnas/4FEJ

>  <Rbt.Executable>
rbdock ($Id: //depot/dev/client3/rdock/2013.1/src/exe/rbdock.cxx#4 $)

>  <Rbt.Library>
libRbt.so (2013.1, Build901 2013/11/27)

>  <Rbt.Parameter_File>
/export/apps/rDock/src/rDock_2013.1_src/data/scripts/dock_solv.prm

>  <Rbt.Receptor>
prm/blind_docking_80.prm

>  <SCORE>
-17.4713

>  <SCORE.INTER>
-17.4713

>  <SCORE.INTER.CONST>
1

>  <SCORE.INTER.POLAR>
0

>  <SCORE.INTER.ROT>
0

>  <SCORE.INTER.SOLV>
3.922

>  <SCORE.INTER.VDW>
-16.5549

>  <SCORE.INTER.norm>
-1.74713

>  <SCORE.INTRA>
0

>  <SCORE.INTRA.DIHEDRAL>
0

>  <SCORE.INTRA.DIHEDRAL.0>
0

>  <SCORE.INTRA.POLAR>
0

>  <SCORE.INTRA.POLAR.0>
0

>  <SCORE.INTRA.REPUL>
0

>  <SCORE.INTRA.REPUL.0>
0

>  <SCORE.INTRA.SOLV>
0

>  <SCORE.INTRA.SOLV.lig_0>
-4.26631

>  <SCORE.INTRA.VDW>
0

>  <SCORE.INTRA.VDW.0>
0

>  <SCORE.INTRA.norm>
0

>  <SCORE.RESTR>
0

>  <SCORE.RESTR.CAVITY>
0

>  <SCORE.RESTR.norm>
0

>  <SCORE.SYSTEM>
0

>  <SCORE.SYSTEM.CONST>
0

>  <SCORE.SYSTEM.DIHEDRAL>
0

>  <SCORE.SYSTEM.SOLV>
0

>  <SCORE.SYSTEM.norm>
0

>  <SCORE.heavy>
10

>  <SCORE.norm>
-1.74713

>  <RMSD>
2.411

$$$$
ligand
 OpenBabel11021811493D
libRbt.so/2013.1/901 2013/11/27
 10 11  0  0  0  0  0  0  0  0999 V2000
   11.8335   10.7940    8.7661 N   0  0  0  0  0  0  0  0  0  0  0  0
   11.9890    9.6353    8.0479 C   0  0  0  0  0  0  0  0  0  0  0  0
   11.8276    9.6088    6.7152 N   0  0  0  0  0  0  0  0  0  0  0  0
   11.5083   10.8076    6.1849 C   0  0  0  0  0  0  0  0  0  0  0  0
   11.3379   12.0018    6.8499 C   0  0  0  0  0  0  0  0  0  0  0  0
   11.5051   12.0508    8.2482 C   0  0  0  0  0  0  0  0  0  0  0  0
   11.4006   12.9983    9.0151 O   0  0  0  0  0  0  0  0  0  0  0  0
   11.0223   12.9690    5.9413 N   0  0  0  0  0  0  0  0  0  0  0  0
   10.9990   12.3667    4.7337 C   0  0  0  0  0  0  0  0  0  0  0  0
   11.2931   11.0325    4.8528 N   0  0  0  0  0  0  0  0  0  0  0  0
  1  2  1  0  0  0  0
  1  6  1  0  0  0  0
  2  3  2  0  0  0  0
  3  4  1  0  0  0  0
  4  5  2  0  0  0  0
  4 10  1  0  0  0  0
  5  6  1  0  0  0  0
  5  8  1  0  0  0  0
  6  7  2  0  0  0  0
  8  9  1  0  0  0  0
  9 10  2  0  0  0  0
M  END
>  <CHROM.1>
11.47085163,11.45427707,6.97615776,-0.94661674,1.33038826,-2.10659807

>  <Name>
ligand

>  <RI>
0

>  <Rbt.Current_Directory>
/home/itssahil/PROJECTS/Mol_Feturizer/New_Systems/rnas/4FEJ

>  <Rbt.Executable>
rbdock ($Id: //depot/dev/client3/rdock/2013.1/src/exe/rbdock.cxx#4 $)

>  <Rbt.Library>
libRbt.so (2013.1, Build901 2013/11/27)

>  <Rbt.Parameter_File>
/export/apps/rDock/src/rDock_2013.1_src/data/scripts/dock_solv.prm

>  <Rbt.Receptor>
prm/blind_docking_80.prm

>  <SCORE>
-17.4287

>  <SCORE.INTER>
-17.4287

>  <SCORE.INTER.CONST>
1

>  <SCORE.INTER.POLAR>
0

>  <SCORE.INTER.ROT>
0

>  <SCORE.INTER.SOLV>
3.90606

>  <SCORE.INTER.VDW>
-16.5212

>  <SCORE.INTER.norm>
-1.74287

>  <SCORE.INTRA>
0

>  <SCORE.INTRA.DIHEDRAL>
0

>  <SCORE.INTRA.DIHEDRAL.0>
0

>  <SCORE.INTRA.POLAR>
0

>  <SCORE.INTRA.POLAR.0>
0

>  <SCORE.INTRA.REPUL>
0

>  <SCORE.INTRA.REPUL.0>
0

>  <SCORE.INTRA.SOLV>
0

>  <SCORE.INTRA.SOLV.lig_0>
-4.26631

>  <SCORE.INTRA.VDW>
0

>  <SCORE.INTRA.VDW.0>
0

>  <SCORE.INTRA.norm>
0

>  <SCORE.RESTR>
0

>  <SCORE.RESTR.CAVITY>
0

>  <SCORE.RESTR.norm>
0

>  <SCORE.SYSTEM>
0

>  <SCORE.SYSTEM.CONST>
0

>  <SCORE.SYSTEM.DIHEDRAL>
0

>  <SCORE.SYSTEM.SOLV>
0

>  <SCORE.SYSTEM.norm>
0

>  <SCORE.heavy>
10

>  <SCORE.norm>
-1.74287

>  <RMSD>
2.411

$$$$
ligand
 OpenBabel11021811493D
libRbt.so/2013.1/901 2013/11/27
 10 11  0  0  0  0  0  0  0  0999 V2000
   11.8441   10.8604    8.7572 N   0  0  0  0  0  0  0  0  0  0  0  0
   12.0116    9.6977    8.0484 C   0  0  0  0  0  0  0  0  0  0  0  0
   11.8565    9.6602    6.7152 N   0  0  0  0  0  0  0  0  0  0  0  0
   11.5305   10.8525    6.1746 C   0  0  0  0  0  0  0  0  0  0  0  0
   11.3480   12.0502    6.8300 C   0  0  0  0  0  0  0  0  0  0  0  0
   11.5085   12.1109    8.2286 C   0  0  0  0  0  0  0  0  0  0  0  0
   11.3933   13.0632    8.9880 O   0  0  0  0  0  0  0  0  0  0  0  0
   11.0291   13.0083    5.9128 N   0  0  0  0  0  0  0  0  0  0  0  0
   11.0160   12.3969    4.7096 C   0  0  0  0  0  0  0  0  0  0  0  0
   11.3196   11.0659    4.8399 N   0  0  0  0  0  0  0  0  0  0  0  0
  1  2  1  0  0  0  0
  1  6  1  0  0  0  0
  2  3  2  0  0  0  0
  3  4  1  0  0  0  0
  4  5  2  0  0  0  0
  4 10  1  0  0  0  0
  5  6  1  0  0  0  0
  5  8  1  0  0  0  0
  6  7  2  0  0  0  0
  8  9  1  0  0  0  0
  9 10  2  0  0  0  0
M  END
>  <CHROM.1>
11.48451896,11.50472850,6.96085172,-0.97879051,1.32603906,-2.08276896

>  <Name>
ligand

>  <RI>
0

>  <Rbt.Current_Directory>
/home/itssahil/PROJECTS/Mol_Feturizer/New_Systems/rnas/4FEJ

>  <Rbt.Executable>
rbdock ($Id: //depot/dev/client3/rdock/2013.1/src/exe/rbdock.cxx#4 $)

>  <Rbt.Library>
libRbt.so (2013.1, Build901 2013/11/27)

>  <Rbt.Parameter_File>
/export/apps/rDock/src/rDock_2013.1_src/data/scripts/dock_solv.prm

>  <Rbt.Receptor>
prm/blind_docking_80.prm

>  <SCORE>
-17.4737

>  <SCORE.INTER>
-17.4737

>  <SCORE.INTER.CONST>
1

>  <SCORE.INTER.POLAR>
0

>  <SCORE.INTER.ROT>
0

>  <SCORE.INTER.SOLV>
3.93667

>  <SCORE.INTER.VDW>
-16.5614

>  <SCORE.INTER.norm>
-1.74737

>  <SCORE.INTRA>
0

>  <SCORE.INTRA.DIHEDRAL>
0

>  <SCORE.INTRA.DIHEDRAL.0>
0

>  <SCORE.INTRA.POLAR>
0

>  <SCORE.INTRA.POLAR.0>
0

>  <SCORE.INTRA.REPUL>
0

>  <SCORE.INTRA.REPUL.0>
0

>  <SCORE.INTRA.SOLV>
0

>  <SCORE.INTRA.SOLV.lig_0>
-4.26631

>  <SCORE.INTRA.VDW>
0

>  <SCORE.INTRA.VDW.0>
0

>  <SCORE.INTRA.norm>
0

>  <SCORE.RESTR>
0

>  <SCORE.RESTR.CAVITY>
0

>  <SCORE.RESTR.norm>
0

>  <SCORE.SYSTEM>
0

>  <SCORE.SYSTEM.CONST>
0

>  <SCORE.SYSTEM.DIHEDRAL>
0

>  <SCORE.SYSTEM.SOLV>
0

>  <SCORE.SYSTEM.norm>
0

>  <SCORE.heavy>
10

>  <SCORE.norm>
-1.74737

>  <RMSD>
2.411

$$$$
ligand
 OpenBabel11021811493D
libRbt.so/2013.1/901 2013/11/27
 10 11  0  0  0  0  0  0  0  0999 V2000
   11.8682   10.8709    8.7735 N   0  0  0  0  0  0  0  0  0  0  0  0
   12.0589    9.7090    8.0693 C   0  0  0  0  0  0  0  0  0  0  0  0
   11.9065    9.6636    6.7359 N   0  0  0  0  0  0  0  0  0  0  0  0
   11.5587   10.8476    6.1905 C   0  0  0  0  0  0  0  0  0  0  0  0
   11.3526   12.0440    6.8411 C   0  0  0  0  0  0  0  0  0  0  0  0
   11.5098   12.1128    8.2398 C   0  0  0  0  0  0  0  0  0  0  0  0
   11.3754   13.0656    8.9954 O   0  0  0  0  0  0  0  0  0  0  0  0
   11.0170   12.9925    5.9199 N   0  0  0  0  0  0  0  0  0  0  0  0
   11.0173   12.3766    4.7190 C   0  0  0  0  0  0  0  0  0  0  0  0
   11.3459   11.0521    4.8546 N   0  0  0  0  0  0  0  0  0  0  0  0
  1  2  1  0  0  0  0
  1  6  1  0  0  0  0
  2  3  2  0  0  0  0
  3  4  1  0  0  0  0
  4  5  2  0  0  0  0
  4 10  1  0  0  0  0
  5  6  1  0  0  0  0
  5  8  1  0  0  0  0
  6  7  2  0  0  0  0
  8  9  1  0  0  0  0
  9 10  2  0  0  0  0
M  END
>  <CHROM.1>
11.49925705,11.50167392,6.97423398,-1.01994257,1.31005477,-2.04661487

>  <Name>
ligand

>  <RI>
0

>  <Rbt.Current_Directory>
/home/itssahil/PROJECTS/Mol_Feturizer/New_Systems/rnas/4FEJ

>  <Rbt.Executable>
rbdock ($Id: //depot/dev/client3/rdock/2013.1/src/exe/rbdock.cxx#4 $)

>  <Rbt.Library>
libRbt.so (2013.1, Build901 2013/11/27)

>  <Rbt.Parameter_File>
/export/apps/rDock/src/rDock_2013.1_src/data/scripts/dock_solv.prm

>  <Rbt.Receptor>
prm/pocket_docking_3.prm

>  <SCORE>
-17.4735

>  <SCORE.INTER>
-17.4735

>  <SCORE.INTER.CONST>
1

>  <SCORE.INTER.POLAR>
0

>  <SCORE.INTER.ROT>
0

>  <SCORE.INTER.SOLV>
3.92018

>  <SCORE.INTER.VDW>
-16.5557

>  <SCORE.INTER.norm>
-1.74735

>  <SCORE.INTRA>
0

>  <SCORE.INTRA.DIHEDRAL>
0

>  <SCORE.INTRA.DIHEDRAL.0>
0

>  <SCORE.INTRA.POLAR>
0

>  <SCORE.INTRA.POLAR.0>
0

>  <SCORE.INTRA.REPUL>
0

>  <SCORE.INTRA.REPUL.0>
0

>  <SCORE.INTRA.SOLV>
0

>  <SCORE.INTRA.SOLV.lig_0>
-4.26631

>  <SCORE.INTRA.VDW>
0

>  <SCORE.INTRA.VDW.0>
0

>  <SCORE.INTRA.norm>
0

>  <SCORE.RESTR>
0

>  <SCORE.RESTR.CAVITY>
0

>  <SCORE.RESTR.norm>
0

>  <SCORE.SYSTEM>
0

>  <SCORE.SYSTEM.CONST>
0

>  <SCORE.SYSTEM.DIHEDRAL>
0

>  <SCORE.SYSTEM.SOLV>
0

>  <SCORE.SYSTEM.norm>
0

>  <SCORE.heavy>
10

>  <SCORE.norm>
-1.74735

>  <RMSD>
2.411

$$$$
ligand
 OpenBabel11021811493D
libRbt.so/2013.1/901 2013/11/27
 10 11  0  0  0  0  0  0  0  0999 V2000
   11.8535   10.8663    8.7804 N   0  0  0  0  0  0  0  0  0  0  0  0
   12.0544    9.7133    8.0643 C   0  0  0  0  0  0  0  0  0  0  0  0
   11.9162    9.6837    6.7290 N   0  0  0  0  0  0  0  0  0  0  0  0
   11.5713   10.8733    6.1942 C   0  0  0  0  0  0  0  0  0  0  0  0
   11.3553   12.0613    6.8570 C   0  0  0  0  0  0  0  0  0  0  0  0
   11.4977   12.1137    8.2579 C   0  0  0  0  0  0  0  0  0  0  0  0
   11.3530   13.0569    9.0235 O   0  0  0  0  0  0  0  0  0  0  0  0
   11.0271   13.0200    5.9438 N   0  0  0  0  0  0  0  0  0  0  0  0
   11.0415   12.4186    4.7356 C   0  0  0  0  0  0  0  0  0  0  0  0
   11.3720   11.0933    4.8587 N   0  0  0  0  0  0  0  0  0  0  0  0
  1  2  1  0  0  0  0
  1  6  1  0  0  0  0
  2  3  2  0  0  0  0
  3  4  1  0  0  0  0
  4  5  2  0  0  0  0
  4 10  1  0  0  0  0
  5  6  1  0  0  0  0
  5  8  1  0  0  0  0
  6  7  2  0  0  0  0
  8  9  1  0  0  0  0
  9 10  2  0  0  0  0
M  END
>  <CHROM.1>
11.50193418,11.51775609,6.98507557,-1.06094992,1.31245772,-1.99494330

>  <Name>
ligand

>  <RI>
0

>  <Rbt.Current_Directory>
/home/itssahil/PROJECTS/Mol_Feturizer/New_Systems/rnas/4FEJ

>  <Rbt.Executable>
rbdock ($Id: //depot/dev/client3/rdock/2013.1/src/exe/rbdock.cxx#4 $)

>  <Rbt.Library>
libRbt.so (2013.1, Build901 2013/11/27)

>  <Rbt.Parameter_File>
/export/apps/rDock/src/rDock_2013.1_src/data/scripts/dock_solv.prm

>  <Rbt.Receptor>
prm/pocket_docking_3.prm

>  <SCORE>
-17.5336

>  <SCORE.INTER>
-17.5336

>  <SCORE.INTER.CONST>
1

>  <SCORE.INTER.POLAR>
0

>  <SCORE.INTER.ROT>
0

>  <SCORE.INTER.SOLV>
3.91965

>  <SCORE.INTER.VDW>
-16.5956

>  <SCORE.INTER.norm>
-1.75336

>  <SCORE.INTRA>
0

>  <SCORE.INTRA.DIHEDRAL>
0

>  <SCORE.INTRA.DIHEDRAL.0>
0

>  <SCORE.INTRA.POLAR>
0

>  <SCORE.INTRA.POLAR.0>
0

>  <SCORE.INTRA.REPUL>
0

>  <SCORE.INTRA.REPUL.0>
0

>  <SCORE.INTRA.SOLV>
0

>  <SCORE.INTRA.SOLV.lig_0>
-4.26631

>  <SCORE.INTRA.VDW>
0

>  <SCORE.INTRA.VDW.0>
0

>  <SCORE.INTRA.norm>
0

>  <SCORE.RESTR>
0

>  <SCORE.RESTR.CAVITY>
0

>  <SCORE.RESTR.norm>
0

>  <SCORE.SYSTEM>
0

>  <SCORE.SYSTEM.CONST>
0

>  <SCORE.SYSTEM.DIHEDRAL>
0

>  <SCORE.SYSTEM.SOLV>
0

>  <SCORE.SYSTEM.norm>
0

>  <SCORE.heavy>
10

>  <SCORE.norm>
-1.75336

>  <RMSD>
2.411

$$$$
ligand
 OpenBabel11021811493D
libRbt.so/2013.1/901 2013/11/27
 10 11  0  0  0  0  0  0  0  0999 V2000
   11.8428   10.8458    8.7583 N   0  0  0  0  0  0  0  0  0  0  0  0
   12.0111    9.6856    8.0455 C   0  0  0  0  0  0  0  0  0  0  0  0
   11.8524    9.6518    6.7125 N   0  0  0  0  0  0  0  0  0  0  0  0
   11.5221   10.8451    6.1766 C   0  0  0  0  0  0  0  0  0  0  0  0
   11.3386   12.0403    6.8362 C   0  0  0  0  0  0  0  0  0  0  0  0
   11.5029   12.0970    8.2345 C   0  0  0  0  0  0  0  0  0  0  0  0
   11.3875   13.0467    8.9972 O   0  0  0  0  0  0  0  0  0  0  0  0
   11.0150   13.0005    5.9228 N   0  0  0  0  0  0  0  0  0  0  0  0
   10.9999   12.3928    4.7178 C   0  0  0  0  0  0  0  0  0  0  0  0
   11.3070   11.0622    4.8431 N   0  0  0  0  0  0  0  0  0  0  0  0
  1  2  1  0  0  0  0
  1  6  1  0  0  0  0
  2  3  2  0  0  0  0
  3  4  1  0  0  0  0
  4  5  2  0  0  0  0
  4 10  1  0  0  0  0
  5  6  1  0  0  0  0
  5  8  1  0  0  0  0
  6  7  2  0  0  0  0
  8  9  1  0  0  0  0
  9 10  2  0  0  0  0
M  END
>  <CHROM.1>
11.47679377,11.49475024,6.96496699,-0.97359075,1.32264992,-2.08471376

>  <Name>
ligand

>  <RI>
0

>  <Rbt.Current_Directory>
/home/itssahil/PROJECTS/Mol_Feturizer/New_Systems/rnas/4FEJ

>  <Rbt.Executable>
rbdock ($Id: //depot/dev/client3/rdock/2013.1/src/exe/rbdock.cxx#4 $)

>  <Rbt.Library>
libRbt.so (2013.1, Build901 2013/11/27)

>  <Rbt.Parameter_File>
/export/apps/rDock/src/rDock_2013.1_src/data/scripts/dock_solv.prm

>  <Rbt.Receptor>
prm/pocket_docking_4.prm

>  <SCORE>
-17.4679

>  <SCORE.INTER>
-17.4679

>  <SCORE.INTER.CONST>
1

>  <SCORE.INTER.POLAR>
0

>  <SCORE.INTER.ROT>
0

>  <SCORE.INTER.SOLV>
3.92002

>  <SCORE.INTER.VDW>
-16.5519

>  <SCORE.INTER.norm>
-1.74679

>  <SCORE.INTRA>
0

>  <SCORE.INTRA.DIHEDRAL>
0

>  <SCORE.INTRA.DIHEDRAL.0>
0

>  <SCORE.INTRA.POLAR>
0

>  <SCORE.INTRA.POLAR.0>
0

>  <SCORE.INTRA.REPUL>
0

>  <SCORE.INTRA.REPUL.0>
0

>  <SCORE.INTRA.SOLV>
0

>  <SCORE.INTRA.SOLV.lig_0>
-4.26631

>  <SCORE.INTRA.VDW>
0

>  <SCORE.INTRA.VDW.0>
0

>  <SCORE.INTRA.norm>
0

>  <SCORE.RESTR>
0

>  <SCORE.RESTR.CAVITY>
0

>  <SCORE.RESTR.norm>
0

>  <SCORE.SYSTEM>
0

>  <SCORE.SYSTEM.CONST>
0

>  <SCORE.SYSTEM.DIHEDRAL>
0

>  <SCORE.SYSTEM.SOLV>
0

>  <SCORE.SYSTEM.norm>
0

>  <SCORE.heavy>
10

>  <SCORE.norm>
-1.74679

>  <RMSD>
2.411

$$$$
ligand
 OpenBabel11021811493D
libRbt.so/2013.1/901 2013/11/27
 10 11  0  0  0  0  0  0  0  0999 V2000
   11.8198   10.7931    8.7541 N   0  0  0  0  0  0  0  0  0  0  0  0
   11.9863    9.6495    8.0145 C   0  0  0  0  0  0  0  0  0  0  0  0
   11.8477    9.6514    6.6789 N   0  0  0  0  0  0  0  0  0  0  0  0
   11.5388   10.8615    6.1686 C   0  0  0  0  0  0  0  0  0  0  0  0
   11.3584   12.0416    6.8557 C   0  0  0  0  0  0  0  0  0  0  0  0
   11.5017   12.0610    8.2573 C   0  0  0  0  0  0  0  0  0  0  0  0
   11.3852   12.9923    9.0421 O   0  0  0  0  0  0  0  0  0  0  0  0
   11.0594   13.0283    5.9623 N   0  0  0  0  0  0  0  0  0  0  0  0
   11.0562   12.4515    4.7421 C   0  0  0  0  0  0  0  0  0  0  0  0
   11.3467   11.1147    4.8380 N   0  0  0  0  0  0  0  0  0  0  0  0
  1  2  1  0  0  0  0
  1  6  1  0  0  0  0
  2  3  2  0  0  0  0
  3  4  1  0  0  0  0
  4  5  2  0  0  0  0
  4 10  1  0  0  0  0
  5  6  1  0  0  0  0
  5  8  1  0  0  0  0
  6  7  2  0  0  0  0
  8  9  1  0  0  0  0
  9 10  2  0  0  0  0
M  END
>  <CHROM.1>
11.48856568,11.49144603,6.97255922,-1.00838997,1.33963747,-2.02547402

>  <Name>
ligand

>  <RI>
0

>  <Rbt.Current_Directory>
/home/itssahil/PROJECTS/Mol_Feturizer/New_Systems/rnas/4FEJ

>  <Rbt.Executable>
rbdock ($Id: //depot/dev/client3/rdock/2013.1/src/exe/rbdock.cxx#4 $)

>  <Rbt.Library>
libRbt.so (2013.1, Build901 2013/11/27)

>  <Rbt.Parameter_File>
/export/apps/rDock/src/rDock_2013.1_src/data/scripts/dock_solv.prm

>  <Rbt.Receptor>
prm/pocket_docking_4.prm

>  <SCORE>
-17.4237

>  <SCORE.INTER>
-17.4237

>  <SCORE.INTER.CONST>
1

>  <SCORE.INTER.POLAR>
0

>  <SCORE.INTER.ROT>
0

>  <SCORE.INTER.SOLV>
3.8993

>  <SCORE.INTER.VDW>
-16.5156

>  <SCORE.INTER.norm>
-1.74237

>  <SCORE.INTRA>
0

>  <SCORE.INTRA.DIHEDRAL>
0

>  <SCORE.INTRA.DIHEDRAL.0>
0

>  <SCORE.INTRA.POLAR>
0

>  <SCORE.INTRA.POLAR.0>
0

>  <SCORE.INTRA.REPUL>
0

>  <SCORE.INTRA.REPUL.0>
0

>  <SCORE.INTRA.SOLV>
0

>  <SCORE.INTRA.SOLV.lig_0>
-4.26631

>  <SCORE.INTRA.VDW>
0

>  <SCORE.INTRA.VDW.0>
0

>  <SCORE.INTRA.norm>
0

>  <SCORE.RESTR>
0

>  <SCORE.RESTR.CAVITY>
0

>  <SCORE.RESTR.norm>
0

>  <SCORE.SYSTEM>
0

>  <SCORE.SYSTEM.CONST>
0

>  <SCORE.SYSTEM.DIHEDRAL>
0

>  <SCORE.SYSTEM.SOLV>
0

>  <SCORE.SYSTEM.norm>
0

>  <SCORE.heavy>
10

>  <SCORE.norm>
-1.74237

>  <RMSD>
2.411

$$$$
ligand
 OpenBabel11021811493D
libRbt.so/2013.1/901 2013/11/27
 10 11  0  0  0  0  0  0  0  0999 V2000
   11.8280   10.8511    8.7759 N   0  0  0  0  0  0  0  0  0  0  0  0
   12.0186    9.6991    8.0555 C   0  0  0  0  0  0  0  0  0  0  0  0
   11.8816    9.6760    6.7199 N   0  0  0  0  0  0  0  0  0  0  0  0
   11.5489   10.8710    6.1894 C   0  0  0  0  0  0  0  0  0  0  0  0
   11.3437   12.0585    6.8566 C   0  0  0  0  0  0  0  0  0  0  0  0
   11.4849   12.1039    8.2579 C   0  0  0  0  0  0  0  0  0  0  0  0
   11.3484   13.0455    9.0271 O   0  0  0  0  0  0  0  0  0  0  0  0
   11.0259   13.0239    5.9468 N   0  0  0  0  0  0  0  0  0  0  0  0
   11.0359   12.4271    4.7363 C   0  0  0  0  0  0  0  0  0  0  0  0
   11.3534   11.0982    4.8546 N   0  0  0  0  0  0  0  0  0  0  0  0
  1  2  1  0  0  0  0
  1  6  1  0  0  0  0
  2  3  2  0  0  0  0
  3  4  1  0  0  0  0
  4  5  2  0  0  0  0
  4 10  1  0  0  0  0
  5  6  1  0  0  0  0
  5  8  1  0  0  0  0
  6  7  2  0  0  0  0
  8  9  1  0  0  0  0
  9 10  2  0  0  0  0
M  END
>  <CHROM.1>
11.48488147,11.51302081,6.98273892,-1.04919545,1.32176642,-2.00238820

>  <Name>
ligand

>  <RI>
0

>  <Rbt.Current_Directory>
/home/itssahil/PROJECTS/Mol_Feturizer/New_Systems/rnas/4FEJ

>  <Rbt.Executable>
rbdock ($Id: //depot/dev/client3/rdock/2013.1/src/exe/rbdock.cxx#4 $)

>  <Rbt.Library>
libRbt.so (2013.1, Build901 2013/11/27)

>  <Rbt.Parameter_File>
/export/apps/rDock/src/rDock_2013.1_src/data/scripts/dock_solv.prm

>  <Rbt.Receptor>
prm/pocket_docking_5.prm

>  <SCORE>
-17.488

>  <SCORE.INTER>
-17.488

>  <SCORE.INTER.CONST>
1

>  <SCORE.INTER.POLAR>
0

>  <SCORE.INTER.ROT>
0

>  <SCORE.INTER.SOLV>
3.92587

>  <SCORE.INTER.VDW>
-16.5673

>  <SCORE.INTER.norm>
-1.7488

>  <SCORE.INTRA>
0

>  <SCORE.INTRA.DIHEDRAL>
0

>  <SCORE.INTRA.DIHEDRAL.0>
0

>  <SCORE.INTRA.POLAR>
0

>  <SCORE.INTRA.POLAR.0>
0

>  <SCORE.INTRA.REPUL>
0

>  <SCORE.INTRA.REPUL.0>
0

>  <SCORE.INTRA.SOLV>
0

>  <SCORE.INTRA.SOLV.lig_0>
-4.26631

>  <SCORE.INTRA.VDW>
0

>  <SCORE.INTRA.VDW.0>
0

>  <SCORE.INTRA.norm>
0

>  <SCORE.RESTR>
0

>  <SCORE.RESTR.CAVITY>
0

>  <SCORE.RESTR.norm>
0

>  <SCORE.SYSTEM>
0

>  <SCORE.SYSTEM.CONST>
0

>  <SCORE.SYSTEM.DIHEDRAL>
0

>  <SCORE.SYSTEM.SOLV>
0

>  <SCORE.SYSTEM.norm>
0

>  <SCORE.heavy>
10

>  <SCORE.norm>
-1.7488

>  <RMSD>
2.411

$$$$
ligand
 OpenBabel11021811493D
libRbt.so/2013.1/901 2013/11/27
 10 11  0  0  0  0  0  0  0  0999 V2000
   11.8259   10.8705    8.7947 N   0  0  0  0  0  0  0  0  0  0  0  0
   11.9902    9.7035    8.0922 C   0  0  0  0  0  0  0  0  0  0  0  0
   11.8411    9.6605    6.7584 N   0  0  0  0  0  0  0  0  0  0  0  0
   11.5244   10.8521    6.2107 C   0  0  0  0  0  0  0  0  0  0  0  0
   11.3456   12.0539    6.8596 C   0  0  0  0  0  0  0  0  0  0  0  0
   11.4998   12.1203    8.2586 C   0  0  0  0  0  0  0  0  0  0  0  0
   11.3864   13.0768    9.0130 O   0  0  0  0  0  0  0  0  0  0  0  0
   11.0364   13.0094    5.9363 N   0  0  0  0  0  0  0  0  0  0  0  0
   11.0255   12.3924    4.7360 C   0  0  0  0  0  0  0  0  0  0  0  0
   11.3210   11.0604    4.8740 N   0  0  0  0  0  0  0  0  0  0  0  0
  1  2  1  0  0  0  0
  1  6  1  0  0  0  0
  2  3  2  0  0  0  0
  3  4  1  0  0  0  0
  4  5  2  0  0  0  0
  4 10  1  0  0  0  0
  5  6  1  0  0  0  0
  5  8  1  0  0  0  0
  6  7  2  0  0  0  0
  8  9  1  0  0  0  0
  9 10  2  0  0  0  0
M  END
>  <CHROM.1>
11.47841903,11.50826260,6.99363118,-0.98446363,1.33324846,-2.08197727

>  <Name>
ligand

>  <RI>
0

>  <Rbt.Current_Directory>
/home/itssahil/PROJECTS/Mol_Feturizer/New_Systems/rnas/4FEJ

>  <Rbt.Executable>
rbdock ($Id: //depot/dev/client3/rdock/2013.1/src/exe/rbdock.cxx#4 $)

>  <Rbt.Library>
libRbt.so (2013.1, Build901 2013/11/27)

>  <Rbt.Parameter_File>
/export/apps/rDock/src/rDock_2013.1_src/data/scripts/dock_solv.prm

>  <Rbt.Receptor>
prm/pocket_docking_5.prm

>  <SCORE>
-17.4048

>  <SCORE.INTER>
-17.4048

>  <SCORE.INTER.CONST>
1

>  <SCORE.INTER.POLAR>
0

>  <SCORE.INTER.ROT>
0

>  <SCORE.INTER.SOLV>
3.96397

>  <SCORE.INTER.VDW>
-16.5245

>  <SCORE.INTER.norm>
-1.74048

>  <SCORE.INTRA>
0

>  <SCORE.INTRA.DIHEDRAL>
0

>  <SCORE.INTRA.DIHEDRAL.0>
0

>  <SCORE.INTRA.POLAR>
0

>  <SCORE.INTRA.POLAR.0>
0

>  <SCORE.INTRA.REPUL>
0

>  <SCORE.INTRA.REPUL.0>
0

>  <SCORE.INTRA.SOLV>
0

>  <SCORE.INTRA.SOLV.lig_0>
-4.26631

>  <SCORE.INTRA.VDW>
0

>  <SCORE.INTRA.VDW.0>
0

>  <SCORE.INTRA.norm>
0

>  <SCORE.RESTR>
0

>  <SCORE.RESTR.CAVITY>
0

>  <SCORE.RESTR.norm>
0

>  <SCORE.SYSTEM>
0

>  <SCORE.SYSTEM.CONST>
0

>  <SCORE.SYSTEM.DIHEDRAL>
0

>  <SCORE.SYSTEM.SOLV>
0

>  <SCORE.SYSTEM.norm>
0

>  <SCORE.heavy>
10

>  <SCORE.norm>
-1.74048

>  <RMSD>
2.411

$$$$
ligand
 OpenBabel11021811493D
libRbt.so/2013.1/901 2013/11/27
 10 11  0  0  0  0  0  0  0  0999 V2000
   11.8473   10.8598    8.7595 N   0  0  0  0  0  0  0  0  0  0  0  0
   12.0127    9.6969    8.0506 C   0  0  0  0  0  0  0  0  0  0  0  0
   11.8570    9.6597    6.7174 N   0  0  0  0  0  0  0  0  0  0  0  0
   11.5327   10.8527    6.1770 C   0  0  0  0  0  0  0  0  0  0  0  0
   11.3525   12.0506    6.8326 C   0  0  0  0  0  0  0  0  0  0  0  0
   11.5136   12.1109    8.2312 C   0  0  0  0  0  0  0  0  0  0  0  0
   11.4002   13.0633    8.9907 O   0  0  0  0  0  0  0  0  0  0  0  0
   11.0348   13.0093    5.9156 N   0  0  0  0  0  0  0  0  0  0  0  0
   11.0202   12.3980    4.7124 C   0  0  0  0  0  0  0  0  0  0  0  0
   11.3217   11.0665    4.8424 N   0  0  0  0  0  0  0  0  0  0  0  0
  1  2  1  0  0  0  0
  1  6  1  0  0  0  0
  2  3  2  0  0  0  0
  3  4  1  0  0  0  0
  4  5  2  0  0  0  0
  4 10  1  0  0  0  0
  5  6  1  0  0  0  0
  5  8  1  0  0  0  0
  6  7  2  0  0  0  0
  8  9  1  0  0  0  0
  9 10  2  0  0  0  0
M  END
>  <CHROM.1>
11.48816377,11.50485931,6.96335570,-0.97409206,1.32727847,-2.08723928

>  <Name>
ligand

>  <RI>
0

>  <Rbt.Current_Directory>
/home/itssahil/PROJECTS/Mol_Feturizer/New_Systems/rnas/4FEJ

>  <Rbt.Executable>
rbdock ($Id: //depot/dev/client3/rdock/2013.1/src/exe/rbdock.cxx#4 $)

>  <Rbt.Library>
libRbt.so (2013.1, Build901 2013/11/27)

>  <Rbt.Parameter_File>
/export/apps/rDock/src/rDock_2013.1_src/data/scripts/dock_solv.prm

>  <Rbt.Receptor>
prm/pocket_docking_5.prm

>  <SCORE>
-17.474

>  <SCORE.INTER>
-17.474

>  <SCORE.INTER.CONST>
1

>  <SCORE.INTER.POLAR>
0

>  <SCORE.INTER.ROT>
0

>  <SCORE.INTER.SOLV>
3.93725

>  <SCORE.INTER.VDW>
-16.5617

>  <SCORE.INTER.norm>
-1.7474

>  <SCORE.INTRA>
0

>  <SCORE.INTRA.DIHEDRAL>
0

>  <SCORE.INTRA.DIHEDRAL.0>
0

>  <SCORE.INTRA.POLAR>
0

>  <SCORE.INTRA.POLAR.0>
0

>  <SCORE.INTRA.REPUL>
0

>  <SCORE.INTRA.REPUL.0>
0

>  <SCORE.INTRA.SOLV>
0

>  <SCORE.INTRA.SOLV.lig_0>
-4.26631

>  <SCORE.INTRA.VDW>
0

>  <SCORE.INTRA.VDW.0>
0

>  <SCORE.INTRA.norm>
0

>  <SCORE.RESTR>
0

>  <SCORE.RESTR.CAVITY>
0

>  <SCORE.RESTR.norm>
0

>  <SCORE.SYSTEM>
0

>  <SCORE.SYSTEM.CONST>
0

>  <SCORE.SYSTEM.DIHEDRAL>
0

>  <SCORE.SYSTEM.SOLV>
0

>  <SCORE.SYSTEM.norm>
0

>  <SCORE.heavy>
10

>  <SCORE.norm>
-1.7474

>  <RMSD>
2.411

$$$$
ligand
 OpenBabel11021811493D
libRbt.so/2013.1/901 2013/11/27
 10 11  0  0  0  0  0  0  0  0999 V2000
   11.8288   10.7985    8.7537 N   0  0  0  0  0  0  0  0  0  0  0  0
   12.0040    9.6532    8.0188 C   0  0  0  0  0  0  0  0  0  0  0  0
   11.8600    9.6472    6.6838 N   0  0  0  0  0  0  0  0  0  0  0  0
   11.5366   10.8517    6.1691 C   0  0  0  0  0  0  0  0  0  0  0  0
   11.3469   12.0332    6.8512 C   0  0  0  0  0  0  0  0  0  0  0  0
   11.4957   12.0608    8.2522 C   0  0  0  0  0  0  0  0  0  0  0  0
   11.3727   12.9945    9.0330 O   0  0  0  0  0  0  0  0  0  0  0  0
   11.0342   13.0124    5.9545 N   0  0  0  0  0  0  0  0  0  0  0  0
   11.0319   12.4299    4.7370 C   0  0  0  0  0  0  0  0  0  0  0  0
   11.3365   11.0966    4.8381 N   0  0  0  0  0  0  0  0  0  0  0  0
  1  2  1  0  0  0  0
  1  6  1  0  0  0  0
  2  3  2  0  0  0  0
  3  4  1  0  0  0  0
  4  5  2  0  0  0  0
  4 10  1  0  0  0  0
  5  6  1  0  0  0  0
  5  8  1  0  0  0  0
  6  7  2  0  0  0  0
  8  9  1  0  0  0  0
  9 10  2  0  0  0  0
M  END
>  <CHROM.1>
11.48318482,11.48492681,6.97021612,-1.01204411,1.32863709,-2.02668892

>  <Name>
ligand

>  <RI>
0

>  <Rbt.Current_Directory>
/home/itssahil/PROJECTS/Mol_Feturizer/New_Systems/rnas/4FEJ

>  <Rbt.Executable>
rbdock ($Id: //depot/dev/client3/rdock/2013.1/src/exe/rbdock.cxx#4 $)

>  <Rbt.Library>
libRbt.so (2013.1, Build901 2013/11/27)

>  <Rbt.Parameter_File>
/export/apps/rDock/src/rDock_2013.1_src/data/scripts/dock_solv.prm

>  <Rbt.Receptor>
prm/pocket_docking_6.prm

>  <SCORE>
-17.4792

>  <SCORE.INTER>
-17.4792

>  <SCORE.INTER.CONST>
1

>  <SCORE.INTER.POLAR>
0

>  <SCORE.INTER.ROT>
0

>  <SCORE.INTER.SOLV>
3.88671

>  <SCORE.INTER.VDW>
-16.5484

>  <SCORE.INTER.norm>
-1.74792

>  <SCORE.INTRA>
0

>  <SCORE.INTRA.DIHEDRAL>
0

>  <SCORE.INTRA.DIHEDRAL.0>
0

>  <SCORE.INTRA.POLAR>
0

>  <SCORE.INTRA.POLAR.0>
0

>  <SCORE.INTRA.REPUL>
0

>  <SCORE.INTRA.REPUL.0>
0

>  <SCORE.INTRA.SOLV>
0

>  <SCORE.INTRA.SOLV.lig_0>
-4.26631

>  <SCORE.INTRA.VDW>
0

>  <SCORE.INTRA.VDW.0>
0

>  <SCORE.INTRA.norm>
0

>  <SCORE.RESTR>
0

>  <SCORE.RESTR.CAVITY>
0

>  <SCORE.RESTR.norm>
0

>  <SCORE.SYSTEM>
0

>  <SCORE.SYSTEM.CONST>
0

>  <SCORE.SYSTEM.DIHEDRAL>
0

>  <SCORE.SYSTEM.SOLV>
0

>  <SCORE.SYSTEM.norm>
0

>  <SCORE.heavy>
10

>  <SCORE.norm>
-1.74792

>  <RMSD>
2.411

$$$$
ligand
 OpenBabel11021811493D
libRbt.so/2013.1/901 2013/11/27
 10 11  0  0  0  0  0  0  0  0999 V2000
   11.8418   10.8182    8.7861 N   0  0  0  0  0  0  0  0  0  0  0  0
   12.0411    9.6699    8.0620 C   0  0  0  0  0  0  0  0  0  0  0  0
   11.9117    9.6518    6.7256 N   0  0  0  0  0  0  0  0  0  0  0  0
   11.5770   10.8476    6.1982 C   0  0  0  0  0  0  0  0  0  0  0  0
   11.3632   12.0314    6.8691 C   0  0  0  0  0  0  0  0  0  0  0  0
   11.4964   12.0717    8.2713 C   0  0  0  0  0  0  0  0  0  0  0  0
   11.3518   13.0095    9.0435 O   0  0  0  0  0  0  0  0  0  0  0  0
   11.0464   12.9993    5.9614 N   0  0  0  0  0  0  0  0  0  0  0  0
   11.0656   12.4075    4.7486 C   0  0  0  0  0  0  0  0  0  0  0  0
   11.3878   11.0794    4.8632 N   0  0  0  0  0  0  0  0  0  0  0  0
  1  2  1  0  0  0  0
  1  6  1  0  0  0  0
  2  3  2  0  0  0  0
  3  4  1  0  0  0  0
  4  5  2  0  0  0  0
  4 10  1  0  0  0  0
  5  6  1  0  0  0  0
  5  8  1  0  0  0  0
  6  7  2  0  0  0  0
  8  9  1  0  0  0  0
  9 10  2  0  0  0  0
M  END
>  <CHROM.1>
11.50587616,11.48602942,6.99374659,-1.07644158,1.32022803,-1.97190094

>  <Name>
ligand

>  <RI>
0

>  <Rbt.Current_Directory>
/home/itssahil/PROJECTS/Mol_Feturizer/New_Systems/rnas/4FEJ

>  <Rbt.Executable>
rbdock ($Id: //depot/dev/client3/rdock/2013.1/src/exe/rbdock.cxx#4 $)

>  <Rbt.Library>
libRbt.so (2013.1, Build901 2013/11/27)

>  <Rbt.Parameter_File>
/export/apps/rDock/src/rDock_2013.1_src/data/scripts/dock_solv.prm

>  <Rbt.Receptor>
prm/pocket_docking_6.prm

>  <SCORE>
-17.496

>  <SCORE.INTER>
-17.496

>  <SCORE.INTER.CONST>
1

>  <SCORE.INTER.POLAR>
0

>  <SCORE.INTER.ROT>
0

>  <SCORE.INTER.SOLV>
3.89826

>  <SCORE.INTER.VDW>
-16.5634

>  <SCORE.INTER.norm>
-1.7496

>  <SCORE.INTRA>
0

>  <SCORE.INTRA.DIHEDRAL>
0

>  <SCORE.INTRA.DIHEDRAL.0>
0

>  <SCORE.INTRA.POLAR>
0

>  <SCORE.INTRA.POLAR.0>
0

>  <SCORE.INTRA.REPUL>
0

>  <SCORE.INTRA.REPUL.0>
0

>  <SCORE.INTRA.SOLV>
0

>  <SCORE.INTRA.SOLV.lig_0>
-4.26631

>  <SCORE.INTRA.VDW>
0

>  <SCORE.INTRA.VDW.0>
0

>  <SCORE.INTRA.norm>
0

>  <SCORE.RESTR>
0

>  <SCORE.RESTR.CAVITY>
0

>  <SCORE.RESTR.norm>
0

>  <SCORE.SYSTEM>
0

>  <SCORE.SYSTEM.CONST>
0

>  <SCORE.SYSTEM.DIHEDRAL>
0

>  <SCORE.SYSTEM.SOLV>
0

>  <SCORE.SYSTEM.norm>
0

>  <SCORE.heavy>
10

>  <SCORE.norm>
-1.7496

>  <RMSD>
2.411

$$$$
ligand
 OpenBabel11021811493D
libRbt.so/2013.1/901 2013/11/27
 10 11  0  0  0  0  0  0  0  0999 V2000
   11.8485   10.8768    8.7890 N   0  0  0  0  0  0  0  0  0  0  0  0
   12.0448    9.7195    8.0786 C   0  0  0  0  0  0  0  0  0  0  0  0
   11.9054    9.6835    6.7436 N   0  0  0  0  0  0  0  0  0  0  0  0
   11.5643   10.8716    6.2030 C   0  0  0  0  0  0  0  0  0  0  0  0
   11.3531   12.0637    6.8598 C   0  0  0  0  0  0  0  0  0  0  0  0
   11.4967   12.1227    8.2604 C   0  0  0  0  0  0  0  0  0  0  0  0
   11.3559   13.0704    9.0212 O   0  0  0  0  0  0  0  0  0  0  0  0
   11.0276   13.0189    5.9419 N   0  0  0  0  0  0  0  0  0  0  0  0
   11.0389   12.4112    4.7369 C   0  0  0  0  0  0  0  0  0  0  0  0
   11.3648   11.0855    4.8665 N   0  0  0  0  0  0  0  0  0  0  0  0
  1  2  1  0  0  0  0
  1  6  1  0  0  0  0
  2  3  2  0  0  0  0
  3  4  1  0  0  0  0
  4  5  2  0  0  0  0
  4 10  1  0  0  0  0
  5  6  1  0  0  0  0
  5  8  1  0  0  0  0
  6  7  2  0  0  0  0
  8  9  1  0  0  0  0
  9 10  2  0  0  0  0
M  END
>  <CHROM.1>
11.49785402,11.52030824,6.99058030,-1.05242917,1.31535945,-2.00831644

>  <Name>
ligand

>  <RI>
0

>  <Rbt.Current_Directory>
/home/itssahil/PROJECTS/Mol_Feturizer/New_Systems/rnas/4FEJ

>  <Rbt.Executable>
rbdock ($Id: //depot/dev/client3/rdock/2013.1/src/exe/rbdock.cxx#4 $)

>  <Rbt.Library>
libRbt.so (2013.1, Build901 2013/11/27)

>  <Rbt.Parameter_File>
/export/apps/rDock/src/rDock_2013.1_src/data/scripts/dock_solv.prm

>  <Rbt.Receptor>
prm/pocket_docking_6.prm

>  <SCORE>
-17.5131

>  <SCORE.INTER>
-17.5131

>  <SCORE.INTER.CONST>
1

>  <SCORE.INTER.POLAR>
0

>  <SCORE.INTER.ROT>
0

>  <SCORE.INTER.SOLV>
3.93495

>  <SCORE.INTER.VDW>
-16.5871

>  <SCORE.INTER.norm>
-1.75131

>  <SCORE.INTRA>
0

>  <SCORE.INTRA.DIHEDRAL>
0

>  <SCORE.INTRA.DIHEDRAL.0>
0

>  <SCORE.INTRA.POLAR>
0

>  <SCORE.INTRA.POLAR.0>
0

>  <SCORE.INTRA.REPUL>
0

>  <SCORE.INTRA.REPUL.0>
0

>  <SCORE.INTRA.SOLV>
0

>  <SCORE.INTRA.SOLV.lig_0>
-4.26631

>  <SCORE.INTRA.VDW>
0

>  <SCORE.INTRA.VDW.0>
0

>  <SCORE.INTRA.norm>
0

>  <SCORE.RESTR>
0

>  <SCORE.RESTR.CAVITY>
0

>  <SCORE.RESTR.norm>
0

>  <SCORE.SYSTEM>
0

>  <SCORE.SYSTEM.CONST>
0

>  <SCORE.SYSTEM.DIHEDRAL>
0

>  <SCORE.SYSTEM.SOLV>
0

>  <SCORE.SYSTEM.norm>
0

>  <SCORE.heavy>
10

>  <SCORE.norm>
-1.75131

>  <RMSD>
2.411

$$$$
ligand
 OpenBabel11021811493D
libRbt.so/2013.1/901 2013/11/27
 10 11  0  0  0  0  0  0  0  0999 V2000
   11.8537   10.8731    8.7792 N   0  0  0  0  0  0  0  0  0  0  0  0
   12.0569    9.7193    8.0652 C   0  0  0  0  0  0  0  0  0  0  0  0
   11.9161    9.6863    6.7302 N   0  0  0  0  0  0  0  0  0  0  0  0
   11.5663   10.8737    6.1936 C   0  0  0  0  0  0  0  0  0  0  0  0
   11.3479   12.0624    6.8542 C   0  0  0  0  0  0  0  0  0  0  0  0
   11.4928   12.1182    8.2548 C   0  0  0  0  0  0  0  0  0  0  0  0
   11.3466   13.0626    9.0186 O   0  0  0  0  0  0  0  0  0  0  0  0
   11.0148   13.0181    5.9396 N   0  0  0  0  0  0  0  0  0  0  0  0
   11.0288   12.4141    4.7327 C   0  0  0  0  0  0  0  0  0  0  0  0
   11.3637   11.0902    4.8580 N   0  0  0  0  0  0  0  0  0  0  0  0
  1  2  1  0  0  0  0
  1  6  1  0  0  0  0
  2  3  2  0  0  0  0
  3  4  1  0  0  0  0
  4  5  2  0  0  0  0
  4 10  1  0  0  0  0
  5  6  1  0  0  0  0
  5  8  1  0  0  0  0
  6  7  2  0  0  0  0
  8  9  1  0  0  0  0
  9 10  2  0  0  0  0
M  END
>  <CHROM.1>
11.49650169,11.51961848,6.98320747,-1.05908647,1.30871987,-1.99889999

>  <Name>
ligand

>  <RI>
0

>  <Rbt.Current_Directory>
/home/itssahil/PROJECTS/Mol_Feturizer/New_Systems/rnas/4FEJ

>  <Rbt.Executable>
rbdock ($Id: //depot/dev/client3/rdock/2013.1/src/exe/rbdock.cxx#4 $)

>  <Rbt.Library>
libRbt.so (2013.1, Build901 2013/11/27)

>  <Rbt.Parameter_File>
/export/apps/rDock/src/rDock_2013.1_src/data/scripts/dock_solv.prm

>  <Rbt.Receptor>
prm/pocket_docking_7.prm

>  <SCORE>
-17.5103

>  <SCORE.INTER>
-17.5103

>  <SCORE.INTER.CONST>
1

>  <SCORE.INTER.POLAR>
0

>  <SCORE.INTER.ROT>
0

>  <SCORE.INTER.SOLV>
3.92063

>  <SCORE.INTER.VDW>
-16.5804

>  <SCORE.INTER.norm>
-1.75103

>  <SCORE.INTRA>
0

>  <SCORE.INTRA.DIHEDRAL>
0

>  <SCORE.INTRA.DIHEDRAL.0>
0

>  <SCORE.INTRA.POLAR>
0

>  <SCORE.INTRA.POLAR.0>
0

>  <SCORE.INTRA.REPUL>
0

>  <SCORE.INTRA.REPUL.0>
0

>  <SCORE.INTRA.SOLV>
0

>  <SCORE.INTRA.SOLV.lig_0>
-4.26631

>  <SCORE.INTRA.VDW>
0

>  <SCORE.INTRA.VDW.0>
0

>  <SCORE.INTRA.norm>
0

>  <SCORE.RESTR>
0

>  <SCORE.RESTR.CAVITY>
0

>  <SCORE.RESTR.norm>
0

>  <SCORE.SYSTEM>
0

>  <SCORE.SYSTEM.CONST>
0

>  <SCORE.SYSTEM.DIHEDRAL>
0

>  <SCORE.SYSTEM.SOLV>
0

>  <SCORE.SYSTEM.norm>
0

>  <SCORE.heavy>
10

>  <SCORE.norm>
-1.75103

>  <RMSD>
2.411

$$$$
ligand
 OpenBabel11021811493D
libRbt.so/2013.1/901 2013/11/27
 10 11  0  0  0  0  0  0  0  0999 V2000
   11.8377   10.8194    8.7750 N   0  0  0  0  0  0  0  0  0  0  0  0
   12.0342    9.6735    8.0464 C   0  0  0  0  0  0  0  0  0  0  0  0
   11.8992    9.6598    6.7104 N   0  0  0  0  0  0  0  0  0  0  0  0
   11.5621   10.8572    6.1883 C   0  0  0  0  0  0  0  0  0  0  0  0
   11.3510   12.0388    6.8640 C   0  0  0  0  0  0  0  0  0  0  0  0
   11.4900   12.0746    8.2658 C   0  0  0  0  0  0  0  0  0  0  0  0
   11.3485   13.0098    9.0416 O   0  0  0  0  0  0  0  0  0  0  0  0
   11.0304   13.0096    5.9608 N   0  0  0  0  0  0  0  0  0  0  0  0
   11.0446   12.4218    4.7460 C   0  0  0  0  0  0  0  0  0  0  0  0
   11.3675   11.0935    4.8549 N   0  0  0  0  0  0  0  0  0  0  0  0
  1  2  1  0  0  0  0
  1  6  1  0  0  0  0
  2  3  2  0  0  0  0
  3  4  1  0  0  0  0
  4  5  2  0  0  0  0
  4 10  1  0  0  0  0
  5  6  1  0  0  0  0
  5  8  1  0  0  0  0
  6  7  2  0  0  0  0
  8  9  1  0  0  0  0
  9 10  2  0  0  0  0
M  END
>  <CHROM.1>
11.49428939,11.49308186,6.98626428,-1.06137498,1.31849085,-1.98320821

>  <Name>
ligand

>  <RI>
0

>  <Rbt.Current_Directory>
/home/itssahil/PROJECTS/Mol_Feturizer/New_Systems/rnas/4FEJ

>  <Rbt.Executable>
rbdock ($Id: //depot/dev/client3/rdock/2013.1/src/exe/rbdock.cxx#4 $)

>  <Rbt.Library>
libRbt.so (2013.1, Build901 2013/11/27)

>  <Rbt.Parameter_File>
/export/apps/rDock/src/rDock_2013.1_src/data/scripts/dock_solv.prm

>  <Rbt.Receptor>
prm/pocket_docking_7.prm

>  <SCORE>
-17.516

>  <SCORE.INTER>
-17.516

>  <SCORE.INTER.CONST>
1

>  <SCORE.INTER.POLAR>
0

>  <SCORE.INTER.ROT>
0

>  <SCORE.INTER.SOLV>
3.89456

>  <SCORE.INTER.VDW>
-16.5755

>  <SCORE.INTER.norm>
-1.7516

>  <SCORE.INTRA>
0

>  <SCORE.INTRA.DIHEDRAL>
0

>  <SCORE.INTRA.DIHEDRAL.0>
0

>  <SCORE.INTRA.POLAR>
0

>  <SCORE.INTRA.POLAR.0>
0

>  <SCORE.INTRA.REPUL>
0

>  <SCORE.INTRA.REPUL.0>
0

>  <SCORE.INTRA.SOLV>
0

>  <SCORE.INTRA.SOLV.lig_0>
-4.26631

>  <SCORE.INTRA.VDW>
0

>  <SCORE.INTRA.VDW.0>
0

>  <SCORE.INTRA.norm>
0

>  <SCORE.RESTR>
0

>  <SCORE.RESTR.CAVITY>
0

>  <SCORE.RESTR.norm>
0

>  <SCORE.SYSTEM>
0

>  <SCORE.SYSTEM.CONST>
0

>  <SCORE.SYSTEM.DIHEDRAL>
0

>  <SCORE.SYSTEM.SOLV>
0

>  <SCORE.SYSTEM.norm>
0

>  <SCORE.heavy>
10

>  <SCORE.norm>
-1.7516

>  <RMSD>
2.411

$$$$
ligand
 OpenBabel11021811493D
libRbt.so/2013.1/901 2013/11/27
 10 11  0  0  0  0  0  0  0  0999 V2000
   11.8480   10.8604    8.7590 N   0  0  0  0  0  0  0  0  0  0  0  0
   12.0114    9.6967    8.0509 C   0  0  0  0  0  0  0  0  0  0  0  0
   11.8558    9.6589    6.7177 N   0  0  0  0  0  0  0  0  0  0  0  0
   11.5338   10.8521    6.1765 C   0  0  0  0  0  0  0  0  0  0  0  0
   11.3555   12.0508    6.8313 C   0  0  0  0  0  0  0  0  0  0  0  0
   11.5166   12.1117    8.2298 C   0  0  0  0  0  0  0  0  0  0  0  0
   11.4048   13.0648    8.9887 O   0  0  0  0  0  0  0  0  0  0  0  0
   11.0397   13.0095    5.9136 N   0  0  0  0  0  0  0  0  0  0  0  0
   11.0242   12.3975    4.7108 C   0  0  0  0  0  0  0  0  0  0  0  0
   11.3233   11.0655    4.8417 N   0  0  0  0  0  0  0  0  0  0  0  0
  1  2  1  0  0  0  0
  1  6  1  0  0  0  0
  2  3  2  0  0  0  0
  3  4  1  0  0  0  0
  4  5  2  0  0  0  0
  4 10  1  0  0  0  0
  5  6  1  0  0  0  0
  5  8  1  0  0  0  0
  6  7  2  0  0  0  0
  8  9  1  0  0  0  0
  9 10  2  0  0  0  0
M  END
>  <CHROM.1>
11.49023530,11.50490462,6.96241236,-0.97089883,1.32890427,-2.09098627

>  <Name>
ligand

>  <RI>
0

>  <Rbt.Current_Directory>
/home/itssahil/PROJECTS/Mol_Feturizer/New_Systems/rnas/4FEJ

>  <Rbt.Executable>
rbdock ($Id: //depot/dev/client3/rdock/2013.1/src/exe/rbdock.cxx#4 $)

>  <Rbt.Library>
libRbt.so (2013.1, Build901 2013/11/27)

>  <Rbt.Parameter_File>
/export/apps/rDock/src/rDock_2013.1_src/data/scripts/dock_solv.prm

>  <Rbt.Receptor>
prm/pocket_docking_8.prm

>  <SCORE>
-17.4748

>  <SCORE.INTER>
-17.4748

>  <SCORE.INTER.CONST>
1

>  <SCORE.INTER.POLAR>
0

>  <SCORE.INTER.ROT>
0

>  <SCORE.INTER.SOLV>
3.94122

>  <SCORE.INTER.VDW>
-16.5636

>  <SCORE.INTER.norm>
-1.74748

>  <SCORE.INTRA>
0

>  <SCORE.INTRA.DIHEDRAL>
0

>  <SCORE.INTRA.DIHEDRAL.0>
0

>  <SCORE.INTRA.POLAR>
0

>  <SCORE.INTRA.POLAR.0>
0

>  <SCORE.INTRA.REPUL>
0

>  <SCORE.INTRA.REPUL.0>
0

>  <SCORE.INTRA.SOLV>
0

>  <SCORE.INTRA.SOLV.lig_0>
-4.26631

>  <SCORE.INTRA.VDW>
0

>  <SCORE.INTRA.VDW.0>
0

>  <SCORE.INTRA.norm>
0

>  <SCORE.RESTR>
0

>  <SCORE.RESTR.CAVITY>
0

>  <SCORE.RESTR.norm>
0

>  <SCORE.SYSTEM>
0

>  <SCORE.SYSTEM.CONST>
0

>  <SCORE.SYSTEM.DIHEDRAL>
0

>  <SCORE.SYSTEM.SOLV>
0

>  <SCORE.SYSTEM.norm>
0

>  <SCORE.heavy>
10

>  <SCORE.norm>
-1.74748

>  <RMSD>
2.411

$$$$
ligand
 OpenBabel11021811493D
libRbt.so/2013.1/901 2013/11/27
 10 11  0  0  0  0  0  0  0  0999 V2000
   11.8442   10.8514    8.7444 N   0  0  0  0  0  0  0  0  0  0  0  0
   12.0051    9.6915    8.0294 C   0  0  0  0  0  0  0  0  0  0  0  0
   11.8472    9.6615    6.6963 N   0  0  0  0  0  0  0  0  0  0  0  0
   11.5256   10.8580    6.1624 C   0  0  0  0  0  0  0  0  0  0  0  0
   11.3499   12.0532    6.8242 C   0  0  0  0  0  0  0  0  0  0  0  0
   11.5134   12.1060    8.2228 C   0  0  0  0  0  0  0  0  0  0  0  0
   11.4040   13.0549    8.9872 O   0  0  0  0  0  0  0  0  0  0  0  0
   11.0336   13.0174    5.9125 N   0  0  0  0  0  0  0  0  0  0  0  0
   11.0153   12.4122    4.7063 C   0  0  0  0  0  0  0  0  0  0  0  0
   11.3131   11.0792    4.8292 N   0  0  0  0  0  0  0  0  0  0  0  0
  1  2  1  0  0  0  0
  1  6  1  0  0  0  0
  2  3  2  0  0  0  0
  3  4  1  0  0  0  0
  4  5  2  0  0  0  0
  4 10  1  0  0  0  0
  5  6  1  0  0  0  0
  5  8  1  0  0  0  0
  6  7  2  0  0  0  0
  8  9  1  0  0  0  0
  9 10  2  0  0  0  0
M  END
>  <CHROM.1>
11.48414984,11.50643172,6.95206165,-0.96229764,1.32904332,-2.09369765

>  <Name>
ligand

>  <RI>
0

>  <Rbt.Current_Directory>
/home/itssahil/PROJECTS/Mol_Feturizer/New_Systems/rnas/4FEJ

>  <Rbt.Executable>
rbdock ($Id: //depot/dev/client3/rdock/2013.1/src/exe/rbdock.cxx#4 $)

>  <Rbt.Library>
libRbt.so (2013.1, Build901 2013/11/27)

>  <Rbt.Parameter_File>
/export/apps/rDock/src/rDock_2013.1_src/data/scripts/dock_solv.prm

>  <Rbt.Receptor>
prm/pocket_docking_8.prm

>  <SCORE>
-17.4426

>  <SCORE.INTER>
-17.4426

>  <SCORE.INTER.CONST>
1

>  <SCORE.INTER.POLAR>
0

>  <SCORE.INTER.ROT>
0

>  <SCORE.INTER.SOLV>
3.93106

>  <SCORE.INTER.VDW>
-16.5388

>  <SCORE.INTER.norm>
-1.74426

>  <SCORE.INTRA>
0

>  <SCORE.INTRA.DIHEDRAL>
0

>  <SCORE.INTRA.DIHEDRAL.0>
0

>  <SCORE.INTRA.POLAR>
0

>  <SCORE.INTRA.POLAR.0>
0

>  <SCORE.INTRA.REPUL>
0

>  <SCORE.INTRA.REPUL.0>
0

>  <SCORE.INTRA.SOLV>
0

>  <SCORE.INTRA.SOLV.lig_0>
-4.26631

>  <SCORE.INTRA.VDW>
0

>  <SCORE.INTRA.VDW.0>
0

>  <SCORE.INTRA.norm>
0

>  <SCORE.RESTR>
0

>  <SCORE.RESTR.CAVITY>
0

>  <SCORE.RESTR.norm>
0

>  <SCORE.SYSTEM>
0

>  <SCORE.SYSTEM.CONST>
0

>  <SCORE.SYSTEM.DIHEDRAL>
0

>  <SCORE.SYSTEM.SOLV>
0

>  <SCORE.SYSTEM.norm>
0

>  <SCORE.heavy>
10

>  <SCORE.norm>
-1.74426

>  <RMSD>
2.411

$$$$
ligand
 OpenBabel11021811493D
libRbt.so/2013.1/901 2013/11/27
 10 11  0  0  0  0  0  0  0  0999 V2000
   11.8471   10.8793    8.7839 N   0  0  0  0  0  0  0  0  0  0  0  0
   12.0447    9.7208    8.0758 C   0  0  0  0  0  0  0  0  0  0  0  0
   11.9088    9.6828    6.7405 N   0  0  0  0  0  0  0  0  0  0  0  0
   11.5698   10.8703    6.1971 C   0  0  0  0  0  0  0  0  0  0  0  0
   11.3575   12.0635    6.8516 C   0  0  0  0  0  0  0  0  0  0  0  0
   11.4974   12.1246    8.2524 C   0  0  0  0  0  0  0  0  0  0  0  0
   11.3551   13.0735    9.0115 O   0  0  0  0  0  0  0  0  0  0  0  0
   11.0349   13.0175    5.9314 N   0  0  0  0  0  0  0  0  0  0  0  0
   11.0491   12.4080    4.7273 C   0  0  0  0  0  0  0  0  0  0  0  0
   11.3739   11.0823    4.8599 N   0  0  0  0  0  0  0  0  0  0  0  0
  1  2  1  0  0  0  0
  1  6  1  0  0  0  0
  2  3  2  0  0  0  0
  3  4  1  0  0  0  0
  4  5  2  0  0  0  0
  4 10  1  0  0  0  0
  5  6  1  0  0  0  0
  5  8  1  0  0  0  0
  6  7  2  0  0  0  0
  8  9  1  0  0  0  0
  9 10  2  0  0  0  0
M  END
>  <CHROM.1>
11.50158777,11.52025478,6.98358205,-1.06105315,1.31696531,-2.00148437

>  <Name>
ligand

>  <RI>
0

>  <Rbt.Current_Directory>
/home/itssahil/PROJECTS/Mol_Feturizer/New_Systems/rnas/4FEJ

>  <Rbt.Executable>
rbdock ($Id: //depot/dev/client3/rdock/2013.1/src/exe/rbdock.cxx#4 $)

>  <Rbt.Library>
libRbt.so (2013.1, Build901 2013/11/27)

>  <Rbt.Parameter_File>
/export/apps/rDock/src/rDock_2013.1_src/data/scripts/dock_solv.prm

>  <Rbt.Receptor>
prm/pocket_docking_8.prm

>  <SCORE>
-17.5091

>  <SCORE.INTER>
-17.5091

>  <SCORE.INTER.CONST>
1

>  <SCORE.INTER.POLAR>
0

>  <SCORE.INTER.ROT>
0

>  <SCORE.INTER.SOLV>
3.93952

>  <SCORE.INTER.VDW>
-16.5859

>  <SCORE.INTER.norm>
-1.75091

>  <SCORE.INTRA>
0

>  <SCORE.INTRA.DIHEDRAL>
0

>  <SCORE.INTRA.DIHEDRAL.0>
0

>  <SCORE.INTRA.POLAR>
0

>  <SCORE.INTRA.POLAR.0>
0

>  <SCORE.INTRA.REPUL>
0

>  <SCORE.INTRA.REPUL.0>
0

>  <SCORE.INTRA.SOLV>
0

>  <SCORE.INTRA.SOLV.lig_0>
-4.26631

>  <SCORE.INTRA.VDW>
0

>  <SCORE.INTRA.VDW.0>
0

>  <SCORE.INTRA.norm>
0

>  <SCORE.RESTR>
0

>  <SCORE.RESTR.CAVITY>
0

>  <SCORE.RESTR.norm>
0

>  <SCORE.SYSTEM>
0

>  <SCORE.SYSTEM.CONST>
0

>  <SCORE.SYSTEM.DIHEDRAL>
0

>  <SCORE.SYSTEM.SOLV>
0

>  <SCORE.SYSTEM.norm>
0

>  <SCORE.heavy>
10

>  <SCORE.norm>
-1.75091

>  <RMSD>
2.411

$$$$
ligand
 OpenBabel11021811493D
libRbt.so/2013.1/901 2013/11/27
 10 11  0  0  0  0  0  0  0  0999 V2000
   11.8482   10.8579    8.7571 N   0  0  0  0  0  0  0  0  0  0  0  0
   12.0115    9.6951    8.0474 C   0  0  0  0  0  0  0  0  0  0  0  0
   11.8545    9.6588    6.7143 N   0  0  0  0  0  0  0  0  0  0  0  0
   11.5312   10.8524    6.1749 C   0  0  0  0  0  0  0  0  0  0  0  0
   11.3529   12.0502    6.8312 C   0  0  0  0  0  0  0  0  0  0  0  0
   11.5154   12.1096    8.2297 C   0  0  0  0  0  0  0  0  0  0  0  0
   11.4039   13.0617    8.9898 O   0  0  0  0  0  0  0  0  0  0  0  0
   11.0356   13.0098    5.9150 N   0  0  0  0  0  0  0  0  0  0  0  0
   11.0191   12.3992    4.7115 C   0  0  0  0  0  0  0  0  0  0  0  0
   11.3191   11.0672    4.8406 N   0  0  0  0  0  0  0  0  0  0  0  0
  1  2  1  0  0  0  0
  1  6  1  0  0  0  0
  2  3  2  0  0  0  0
  3  4  1  0  0  0  0
  4  5  2  0  0  0  0
  4 10  1  0  0  0  0
  5  6  1  0  0  0  0
  5  8  1  0  0  0  0
  6  7  2  0  0  0  0
  8  9  1  0  0  0  0
  9 10  2  0  0  0  0
M  END
>  <CHROM.1>
11.48809169,11.50427810,6.96159112,-0.96825381,1.32783983,-2.09239301

>  <Name>
ligand

>  <RI>
0

>  <Rbt.Current_Directory>
/home/itssahil/PROJECTS/Mol_Feturizer/New_Systems/rnas/4FEJ

>  <Rbt.Executable>
rbdock ($Id: //depot/dev/client3/rdock/2013.1/src/exe/rbdock.cxx#4 $)

>  <Rbt.Library>
libRbt.so (2013.1, Build901 2013/11/27)

>  <Rbt.Parameter_File>
/export/apps/rDock/src/rDock_2013.1_src/data/scripts/dock_solv.prm

>  <Rbt.Receptor>
prm/pocket_docking_8.prm

>  <SCORE>
-17.4758

>  <SCORE.INTER>
-17.4758

>  <SCORE.INTER.CONST>
1

>  <SCORE.INTER.POLAR>
0

>  <SCORE.INTER.ROT>
0

>  <SCORE.INTER.SOLV>
3.9369

>  <SCORE.INTER.VDW>
-16.5628

>  <SCORE.INTER.norm>
-1.74758

>  <SCORE.INTRA>
0

>  <SCORE.INTRA.DIHEDRAL>
0

>  <SCORE.INTRA.DIHEDRAL.0>
0

>  <SCORE.INTRA.POLAR>
0

>  <SCORE.INTRA.POLAR.0>
0

>  <SCORE.INTRA.REPUL>
0

>  <SCORE.INTRA.REPUL.0>
0

>  <SCORE.INTRA.SOLV>
0

>  <SCORE.INTRA.SOLV.lig_0>
-4.26631

>  <SCORE.INTRA.VDW>
0

>  <SCORE.INTRA.VDW.0>
0

>  <SCORE.INTRA.norm>
0

>  <SCORE.RESTR>
0

>  <SCORE.RESTR.CAVITY>
0

>  <SCORE.RESTR.norm>
0

>  <SCORE.SYSTEM>
0

>  <SCORE.SYSTEM.CONST>
0

>  <SCORE.SYSTEM.DIHEDRAL>
0

>  <SCORE.SYSTEM.SOLV>
0

>  <SCORE.SYSTEM.norm>
0

>  <SCORE.heavy>
10

>  <SCORE.norm>
-1.74758

>  <RMSD>
2.411

$$$$
ligand
 OpenBabel11021811493D
libRbt.so/2013.1/901 2013/11/27
 10 11  0  0  0  0  0  0  0  0999 V2000
   11.8362   10.8403    8.7670 N   0  0  0  0  0  0  0  0  0  0  0  0
   11.9839    9.6673    8.0707 C   0  0  0  0  0  0  0  0  0  0  0  0
   11.8214    9.6169    6.7387 N   0  0  0  0  0  0  0  0  0  0  0  0
   11.5093   10.8075    6.1862 C   0  0  0  0  0  0  0  0  0  0  0  0
   11.3470   12.0150    6.8288 C   0  0  0  0  0  0  0  0  0  0  0  0
   11.5154   12.0892    8.2258 C   0  0  0  0  0  0  0  0  0  0  0  0
   11.4174   13.0516    8.9748 O   0  0  0  0  0  0  0  0  0  0  0  0
   11.0368   12.9670    5.9023 N   0  0  0  0  0  0  0  0  0  0  0  0
   11.0090   12.3422    4.7063 C   0  0  0  0  0  0  0  0  0  0  0  0
   11.2947   11.0087    4.8502 N   0  0  0  0  0  0  0  0  0  0  0  0
  1  2  1  0  0  0  0
  1  6  1  0  0  0  0
  2  3  2  0  0  0  0
  3  4  1  0  0  0  0
  4  5  2  0  0  0  0
  4 10  1  0  0  0  0
  5  6  1  0  0  0  0
  5  8  1  0  0  0  0
  6  7  2  0  0  0  0
  8  9  1  0  0  0  0
  9 10  2  0  0  0  0
M  END
>  <CHROM.1>
11.47653011,11.46912899,6.96516927,-0.93030145,1.33545359,-2.14124013

>  <Name>
ligand

>  <RI>
0

>  <Rbt.Current_Directory>
/home/itssahil/PROJECTS/Mol_Feturizer/New_Systems/rnas/4FEJ

>  <Rbt.Executable>
rbdock ($Id: //depot/dev/client3/rdock/2013.1/src/exe/rbdock.cxx#4 $)

>  <Rbt.Library>
libRbt.so (2013.1, Build901 2013/11/27)

>  <Rbt.Parameter_File>
/export/apps/rDock/src/rDock_2013.1_src/data/scripts/dock_solv.prm

>  <Rbt.Receptor>
prm/blind_docking_80.prm

>  <SCORE>
-17.408

>  <SCORE.INTER>
-17.408

>  <SCORE.INTER.CONST>
1

>  <SCORE.INTER.POLAR>
0

>  <SCORE.INTER.ROT>
0

>  <SCORE.INTER.SOLV>
3.95556

>  <SCORE.INTER.VDW>
-16.5239

>  <SCORE.INTER.norm>
-1.7408

>  <SCORE.INTRA>
0

>  <SCORE.INTRA.DIHEDRAL>
0

>  <SCORE.INTRA.DIHEDRAL.0>
0

>  <SCORE.INTRA.POLAR>
0

>  <SCORE.INTRA.POLAR.0>
0

>  <SCORE.INTRA.REPUL>
0

>  <SCORE.INTRA.REPUL.0>
0

>  <SCORE.INTRA.SOLV>
0

>  <SCORE.INTRA.SOLV.lig_0>
-4.26631

>  <SCORE.INTRA.VDW>
0

>  <SCORE.INTRA.VDW.0>
0

>  <SCORE.INTRA.norm>
0

>  <SCORE.RESTR>
0

>  <SCORE.RESTR.CAVITY>
0

>  <SCORE.RESTR.norm>
0

>  <SCORE.SYSTEM>
0

>  <SCORE.SYSTEM.CONST>
0

>  <SCORE.SYSTEM.DIHEDRAL>
0

>  <SCORE.SYSTEM.SOLV>
0

>  <SCORE.SYSTEM.norm>
0

>  <SCORE.heavy>
10

>  <SCORE.norm>
-1.7408

>  <RMSD>
2.412

$$$$
ligand
 OpenBabel11021811493D
libRbt.so/2013.1/901 2013/11/27
 10 11  0  0  0  0  0  0  0  0999 V2000
   11.8706   10.7799    8.7424 N   0  0  0  0  0  0  0  0  0  0  0  0
   12.0397    9.6236    8.0236 C   0  0  0  0  0  0  0  0  0  0  0  0
   11.8633    9.5925    6.6928 N   0  0  0  0  0  0  0  0  0  0  0  0
   11.5152   10.7844    6.1652 C   0  0  0  0  0  0  0  0  0  0  0  0
   11.3299   11.9759    6.8310 C   0  0  0  0  0  0  0  0  0  0  0  0
   11.5124   12.0297    8.2272 C   0  0  0  0  0  0  0  0  0  0  0  0
   11.3988   12.9759    8.9944 O   0  0  0  0  0  0  0  0  0  0  0  0
   10.9853   12.9359    5.9252 N   0  0  0  0  0  0  0  0  0  0  0  0
   10.9595   12.3319    4.7186 C   0  0  0  0  0  0  0  0  0  0  0  0
   11.2802   11.0036    4.8354 N   0  0  0  0  0  0  0  0  0  0  0  0
  1  2  1  0  0  0  0
  1  6  1  0  0  0  0
  2  3  2  0  0  0  0
  3  4  1  0  0  0  0
  4  5  2  0  0  0  0
  4 10  1  0  0  0  0
  5  6  1  0  0  0  0
  5  8  1  0  0  0  0
  6  7  2  0  0  0  0
  8  9  1  0  0  0  0
  9 10  2  0  0  0  0
M  END
>  <CHROM.1>
11.47465990,11.43115807,6.95619940,-0.94546667,1.30809819,-2.10876007

>  <Name>
ligand

>  <RI>
0

>  <Rbt.Current_Directory>
/home/itssahil/PROJECTS/Mol_Feturizer/New_Systems/rnas/4FEJ

>  <Rbt.Executable>
rbdock ($Id: //depot/dev/client3/rdock/2013.1/src/exe/rbdock.cxx#4 $)

>  <Rbt.Library>
libRbt.so (2013.1, Build901 2013/11/27)

>  <Rbt.Parameter_File>
/export/apps/rDock/src/rDock_2013.1_src/data/scripts/dock_solv.prm

>  <Rbt.Receptor>
prm/pocket_docking_3.prm

>  <SCORE>
-17.4304

>  <SCORE.INTER>
-17.4304

>  <SCORE.INTER.CONST>
1

>  <SCORE.INTER.POLAR>
0

>  <SCORE.INTER.ROT>
0

>  <SCORE.INTER.SOLV>
3.8592

>  <SCORE.INTER.VDW>
-16.5066

>  <SCORE.INTER.norm>
-1.74304

>  <SCORE.INTRA>
0

>  <SCORE.INTRA.DIHEDRAL>
0

>  <SCORE.INTRA.DIHEDRAL.0>
0

>  <SCORE.INTRA.POLAR>
0

>  <SCORE.INTRA.POLAR.0>
0

>  <SCORE.INTRA.REPUL>
0

>  <SCORE.INTRA.REPUL.0>
0

>  <SCORE.INTRA.SOLV>
0

>  <SCORE.INTRA.SOLV.lig_0>
-4.26631

>  <SCORE.INTRA.VDW>
0

>  <SCORE.INTRA.VDW.0>
0

>  <SCORE.INTRA.norm>
0

>  <SCORE.RESTR>
0

>  <SCORE.RESTR.CAVITY>
0

>  <SCORE.RESTR.norm>
0

>  <SCORE.SYSTEM>
0

>  <SCORE.SYSTEM.CONST>
0

>  <SCORE.SYSTEM.DIHEDRAL>
0

>  <SCORE.SYSTEM.SOLV>
0

>  <SCORE.SYSTEM.norm>
0

>  <SCORE.heavy>
10

>  <SCORE.norm>
-1.74304

>  <RMSD>
2.412

$$$$
ligand
 OpenBabel11021811493D
libRbt.so/2013.1/901 2013/11/27
 10 11  0  0  0  0  0  0  0  0999 V2000
   11.8496   10.7788    8.7480 N   0  0  0  0  0  0  0  0  0  0  0  0
   12.0166    9.6260    8.0230 C   0  0  0  0  0  0  0  0  0  0  0  0
   11.8581    9.6064    6.6898 N   0  0  0  0  0  0  0  0  0  0  0  0
   11.5295   10.8057    6.1663 C   0  0  0  0  0  0  0  0  0  0  0  0
   11.3474   11.9942    6.8384 C   0  0  0  0  0  0  0  0  0  0  0  0
   11.5114   12.0360    8.2373 C   0  0  0  0  0  0  0  0  0  0  0  0
   11.3971   12.9777    9.0098 O   0  0  0  0  0  0  0  0  0  0  0  0
   11.0253   12.9643    5.9351 N   0  0  0  0  0  0  0  0  0  0  0  0
   11.0097   12.3693    4.7237 C   0  0  0  0  0  0  0  0  0  0  0  0
   11.3150   11.0370    4.8351 N   0  0  0  0  0  0  0  0  0  0  0  0
  1  2  1  0  0  0  0
  1  6  1  0  0  0  0
  2  3  2  0  0  0  0
  3  4  1  0  0  0  0
  4  5  2  0  0  0  0
  4 10  1  0  0  0  0
  5  6  1  0  0  0  0
  5  8  1  0  0  0  0
  6  7  2  0  0  0  0
  8  9  1  0  0  0  0
  9 10  2  0  0  0  0
M  END
>  <CHROM.1>
11.48484925,11.44708145,6.96146196,-0.97184226,1.32390337,-2.07591363

>  <Name>
ligand

>  <RI>
0

>  <Rbt.Current_Directory>
/home/itssahil/PROJECTS/Mol_Feturizer/New_Systems/rnas/4FEJ

>  <Rbt.Executable>
rbdock ($Id: //depot/dev/client3/rdock/2013.1/src/exe/rbdock.cxx#4 $)

>  <Rbt.Library>
libRbt.so (2013.1, Build901 2013/11/27)

>  <Rbt.Parameter_File>
/export/apps/rDock/src/rDock_2013.1_src/data/scripts/dock_solv.prm

>  <Rbt.Receptor>
prm/pocket_docking_3.prm

>  <SCORE>
-17.4209

>  <SCORE.INTER>
-17.4209

>  <SCORE.INTER.CONST>
1

>  <SCORE.INTER.POLAR>
0

>  <SCORE.INTER.ROT>
0

>  <SCORE.INTER.SOLV>
3.87432

>  <SCORE.INTER.VDW>
-16.5054

>  <SCORE.INTER.norm>
-1.74209

>  <SCORE.INTRA>
0

>  <SCORE.INTRA.DIHEDRAL>
0

>  <SCORE.INTRA.DIHEDRAL.0>
0

>  <SCORE.INTRA.POLAR>
0

>  <SCORE.INTRA.POLAR.0>
0

>  <SCORE.INTRA.REPUL>
0

>  <SCORE.INTRA.REPUL.0>
0

>  <SCORE.INTRA.SOLV>
0

>  <SCORE.INTRA.SOLV.lig_0>
-4.26631

>  <SCORE.INTRA.VDW>
0

>  <SCORE.INTRA.VDW.0>
0

>  <SCORE.INTRA.norm>
0

>  <SCORE.RESTR>
0

>  <SCORE.RESTR.CAVITY>
0

>  <SCORE.RESTR.norm>
0

>  <SCORE.SYSTEM>
0

>  <SCORE.SYSTEM.CONST>
0

>  <SCORE.SYSTEM.DIHEDRAL>
0

>  <SCORE.SYSTEM.SOLV>
0

>  <SCORE.SYSTEM.norm>
0

>  <SCORE.heavy>
10

>  <SCORE.norm>
-1.74209

>  <RMSD>
2.412

$$$$
ligand
 OpenBabel11021811493D
libRbt.so/2013.1/901 2013/11/27
 10 11  0  0  0  0  0  0  0  0999 V2000
   11.8159   10.8082    8.7588 N   0  0  0  0  0  0  0  0  0  0  0  0
   12.0005    9.6629    8.0263 C   0  0  0  0  0  0  0  0  0  0  0  0
   11.8680    9.6557    6.6900 N   0  0  0  0  0  0  0  0  0  0  0  0
   11.5459   10.8589    6.1717 C   0  0  0  0  0  0  0  0  0  0  0  0
   11.3472   12.0404    6.8514 C   0  0  0  0  0  0  0  0  0  0  0  0
   11.4838   12.0693    8.2536 C   0  0  0  0  0  0  0  0  0  0  0  0
   11.3516   13.0032    9.0327 O   0  0  0  0  0  0  0  0  0  0  0  0
   11.0396   13.0182    5.9513 N   0  0  0  0  0  0  0  0  0  0  0  0
   11.0494   12.4348    4.7343 C   0  0  0  0  0  0  0  0  0  0  0  0
   11.3567   11.1024    4.8389 N   0  0  0  0  0  0  0  0  0  0  0  0
  1  2  1  0  0  0  0
  1  6  1  0  0  0  0
  2  3  2  0  0  0  0
  3  4  1  0  0  0  0
  4  5  2  0  0  0  0
  4 10  1  0  0  0  0
  5  6  1  0  0  0  0
  5  8  1  0  0  0  0
  6  7  2  0  0  0  0
  8  9  1  0  0  0  0
  9 10  2  0  0  0  0
M  END
>  <CHROM.1>
11.48386244,11.49254304,6.97193166,-1.04948519,1.32990314,-1.99100471

>  <Name>
ligand

>  <RI>
0

>  <Rbt.Current_Directory>
/home/itssahil/PROJECTS/Mol_Feturizer/New_Systems/rnas/4FEJ

>  <Rbt.Executable>
rbdock ($Id: //depot/dev/client3/rdock/2013.1/src/exe/rbdock.cxx#4 $)

>  <Rbt.Library>
libRbt.so (2013.1, Build901 2013/11/27)

>  <Rbt.Parameter_File>
/export/apps/rDock/src/rDock_2013.1_src/data/scripts/dock_solv.prm

>  <Rbt.Receptor>
prm/pocket_docking_6.prm

>  <SCORE>
-17.4584

>  <SCORE.INTER>
-17.4584

>  <SCORE.INTER.CONST>
1

>  <SCORE.INTER.POLAR>
0

>  <SCORE.INTER.ROT>
0

>  <SCORE.INTER.SOLV>
3.90147

>  <SCORE.INTER.VDW>
-16.5395

>  <SCORE.INTER.norm>
-1.74584

>  <SCORE.INTRA>
0

>  <SCORE.INTRA.DIHEDRAL>
0

>  <SCORE.INTRA.DIHEDRAL.0>
0

>  <SCORE.INTRA.POLAR>
0

>  <SCORE.INTRA.POLAR.0>
0

>  <SCORE.INTRA.REPUL>
0

>  <SCORE.INTRA.REPUL.0>
0

>  <SCORE.INTRA.SOLV>
0

>  <SCORE.INTRA.SOLV.lig_0>
-4.26631

>  <SCORE.INTRA.VDW>
0

>  <SCORE.INTRA.VDW.0>
0

>  <SCORE.INTRA.norm>
0

>  <SCORE.RESTR>
0

>  <SCORE.RESTR.CAVITY>
0

>  <SCORE.RESTR.norm>
0

>  <SCORE.SYSTEM>
0

>  <SCORE.SYSTEM.CONST>
0

>  <SCORE.SYSTEM.DIHEDRAL>
0

>  <SCORE.SYSTEM.SOLV>
0

>  <SCORE.SYSTEM.norm>
0

>  <SCORE.heavy>
10

>  <SCORE.norm>
-1.74584

>  <RMSD>
2.412

$$$$
ligand
 OpenBabel11021811493D
libRbt.so/2013.1/901 2013/11/27
 10 11  0  0  0  0  0  0  0  0999 V2000
   11.8363   10.8212    8.7791 N   0  0  0  0  0  0  0  0  0  0  0  0
   12.0310    9.6711    8.0568 C   0  0  0  0  0  0  0  0  0  0  0  0
   11.8946    9.6498    6.7211 N   0  0  0  0  0  0  0  0  0  0  0  0
   11.5581   10.8447    6.1926 C   0  0  0  0  0  0  0  0  0  0  0  0
   11.3487   12.0303    6.8618 C   0  0  0  0  0  0  0  0  0  0  0  0
   11.4892   12.0738    8.2632 C   0  0  0  0  0  0  0  0  0  0  0  0
   11.3494   13.0135    9.0339 O   0  0  0  0  0  0  0  0  0  0  0  0
   11.0281   12.9962    5.9535 N   0  0  0  0  0  0  0  0  0  0  0  0
   11.0405   12.4016    4.7420 C   0  0  0  0  0  0  0  0  0  0  0  0
   11.3623   11.0736    4.8581 N   0  0  0  0  0  0  0  0  0  0  0  0
  1  2  1  0  0  0  0
  1  6  1  0  0  0  0
  2  3  2  0  0  0  0
  3  4  1  0  0  0  0
  4  5  2  0  0  0  0
  4 10  1  0  0  0  0
  5  6  1  0  0  0  0
  5  8  1  0  0  0  0
  6  7  2  0  0  0  0
  8  9  1  0  0  0  0
  9 10  2  0  0  0  0
M  END
>  <CHROM.1>
11.49166970,11.48507704,6.98699247,-1.05602842,1.31890072,-1.99403696

>  <Name>
ligand

>  <RI>
0

>  <Rbt.Current_Directory>
/home/itssahil/PROJECTS/Mol_Feturizer/New_Systems/rnas/4FEJ

>  <Rbt.Executable>
rbdock ($Id: //depot/dev/client3/rdock/2013.1/src/exe/rbdock.cxx#4 $)

>  <Rbt.Library>
libRbt.so (2013.1, Build901 2013/11/27)

>  <Rbt.Parameter_File>
/export/apps/rDock/src/rDock_2013.1_src/data/scripts/dock_solv.prm

>  <Rbt.Receptor>
prm/pocket_docking_7.prm

>  <SCORE>
-17.4616

>  <SCORE.INTER>
-17.4616

>  <SCORE.INTER.CONST>
1

>  <SCORE.INTER.POLAR>
0

>  <SCORE.INTER.ROT>
0

>  <SCORE.INTER.SOLV>
3.9005

>  <SCORE.INTER.VDW>
-16.5412

>  <SCORE.INTER.norm>
-1.74616

>  <SCORE.INTRA>
0

>  <SCORE.INTRA.DIHEDRAL>
0

>  <SCORE.INTRA.DIHEDRAL.0>
0

>  <SCORE.INTRA.POLAR>
0

>  <SCORE.INTRA.POLAR.0>
0

>  <SCORE.INTRA.REPUL>
0

>  <SCORE.INTRA.REPUL.0>
0

>  <SCORE.INTRA.SOLV>
0

>  <SCORE.INTRA.SOLV.lig_0>
-4.26631

>  <SCORE.INTRA.VDW>
0

>  <SCORE.INTRA.VDW.0>
0

>  <SCORE.INTRA.norm>
0

>  <SCORE.RESTR>
0

>  <SCORE.RESTR.CAVITY>
0

>  <SCORE.RESTR.norm>
0

>  <SCORE.SYSTEM>
0

>  <SCORE.SYSTEM.CONST>
0

>  <SCORE.SYSTEM.DIHEDRAL>
0

>  <SCORE.SYSTEM.SOLV>
0

>  <SCORE.SYSTEM.norm>
0

>  <SCORE.heavy>
10

>  <SCORE.norm>
-1.74616

>  <RMSD>
2.412

$$$$
ligand
 OpenBabel11021811493D
libRbt.so/2013.1/901 2013/11/27
 10 11  0  0  0  0  0  0  0  0999 V2000
   11.6374   10.9631    8.5095 N   0  0  0  0  0  0  0  0  0  0  0  0
   11.9387    9.7857    7.8728 C   0  0  0  0  0  0  0  0  0  0  0  0
   11.8665    9.6722    6.5368 N   0  0  0  0  0  0  0  0  0  0  0  0
   11.4795   10.8066    5.9175 C   0  0  0  0  0  0  0  0  0  0  0  0
   11.1639   12.0150    6.4983 C   0  0  0  0  0  0  0  0  0  0  0  0
   11.2356   12.1551    7.8986 C   0  0  0  0  0  0  0  0  0  0  0  0
   11.0002   13.1297    8.5997 O   0  0  0  0  0  0  0  0  0  0  0  0
   10.8250   12.8989    5.5161 N   0  0  0  0  0  0  0  0  0  0  0  0
   10.9320   12.2320    4.3476 C   0  0  0  0  0  0  0  0  0  0  0  0
   11.3321   10.9382    4.5638 N   0  0  0  0  0  0  0  0  0  0  0  0
  1  2  1  0  0  0  0
  1  6  1  0  0  0  0
  2  3  2  0  0  0  0
  3  4  1  0  0  0  0
  4  5  2  0  0  0  0
  4 10  1  0  0  0  0
  5  6  1  0  0  0  0
  5  8  1  0  0  0  0
  6  7  2  0  0  0  0
  8  9  1  0  0  0  0
  9 10  2  0  0  0  0
M  END
>  <CHROM.1>
11.33527240,11.48943521,6.66484722,-1.29212564,1.27199134,-1.83067930

>  <Name>
ligand

>  <RI>
0

>  <Rbt.Current_Directory>
/home/itssahil/PROJECTS/Mol_Feturizer/New_Systems/rnas/4FEJ

>  <Rbt.Executable>
rbdock ($Id: //depot/dev/client3/rdock/2013.1/src/exe/rbdock.cxx#4 $)

>  <Rbt.Library>
libRbt.so (2013.1, Build901 2013/11/27)

>  <Rbt.Parameter_File>
/export/apps/rDock/src/rDock_2013.1_src/data/scripts/dock_solv.prm

>  <Rbt.Receptor>
prm/blind_docking_20.prm

>  <SCORE>
-16.6125

>  <SCORE.INTER>
-16.6125

>  <SCORE.INTER.CONST>
1

>  <SCORE.INTER.POLAR>
0

>  <SCORE.INTER.ROT>
0

>  <SCORE.INTER.SOLV>
4.06907

>  <SCORE.INTER.VDW>
-16.0314

>  <SCORE.INTER.norm>
-1.66125

>  <SCORE.INTRA>
0

>  <SCORE.INTRA.DIHEDRAL>
0

>  <SCORE.INTRA.DIHEDRAL.0>
0

>  <SCORE.INTRA.POLAR>
0

>  <SCORE.INTRA.POLAR.0>
0

>  <SCORE.INTRA.REPUL>
0

>  <SCORE.INTRA.REPUL.0>
0

>  <SCORE.INTRA.SOLV>
0

>  <SCORE.INTRA.SOLV.lig_0>
-4.26631

>  <SCORE.INTRA.VDW>
0

>  <SCORE.INTRA.VDW.0>
0

>  <SCORE.INTRA.norm>
0

>  <SCORE.RESTR>
0

>  <SCORE.RESTR.CAVITY>
0

>  <SCORE.RESTR.norm>
0

>  <SCORE.SYSTEM>
0

>  <SCORE.SYSTEM.CONST>
0

>  <SCORE.SYSTEM.DIHEDRAL>
0

>  <SCORE.SYSTEM.SOLV>
0

>  <SCORE.SYSTEM.norm>
0

>  <SCORE.heavy>
10

>  <SCORE.norm>
-1.66125

>  <RMSD>
2.468

$$$$
ligand
 OpenBabel11021811493D
libRbt.so/2013.1/901 2013/11/27
 10 11  0  0  0  0  0  0  0  0999 V2000
   11.6354   10.9581    8.5113 N   0  0  0  0  0  0  0  0  0  0  0  0
   11.9384    9.7808    7.8753 C   0  0  0  0  0  0  0  0  0  0  0  0
   11.8714    9.6678    6.5390 N   0  0  0  0  0  0  0  0  0  0  0  0
   11.4876   10.8027    5.9186 C   0  0  0  0  0  0  0  0  0  0  0  0
   11.1705   12.0111    6.4986 C   0  0  0  0  0  0  0  0  0  0  0  0
   11.2369   12.1507    7.8992 C   0  0  0  0  0  0  0  0  0  0  0  0
   10.9994   13.1252    8.5997 O   0  0  0  0  0  0  0  0  0  0  0  0
   10.8362   12.8956    5.5154 N   0  0  0  0  0  0  0  0  0  0  0  0
   10.9473   12.2291    4.3471 C   0  0  0  0  0  0  0  0  0  0  0  0
   11.3456   10.9349    4.5644 N   0  0  0  0  0  0  0  0  0  0  0  0
  1  2  1  0  0  0  0
  1  6  1  0  0  0  0
  2  3  2  0  0  0  0
  3  4  1  0  0  0  0
  4  5  2  0  0  0  0
  4 10  1  0  0  0  0
  5  6  1  0  0  0  0
  5  8  1  0  0  0  0
  6  7  2  0  0  0  0
  8  9  1  0  0  0  0
  9 10  2  0  0  0  0
M  END
>  <CHROM.1>
11.34092194,11.48536528,6.66562100,-1.30445490,1.27366098,-1.81852061

>  <Name>
ligand

>  <RI>
0

>  <Rbt.Current_Directory>
/home/itssahil/PROJECTS/Mol_Feturizer/New_Systems/rnas/4FEJ

>  <Rbt.Executable>
rbdock ($Id: //depot/dev/client3/rdock/2013.1/src/exe/rbdock.cxx#4 $)

>  <Rbt.Library>
libRbt.so (2013.1, Build901 2013/11/27)

>  <Rbt.Parameter_File>
/export/apps/rDock/src/rDock_2013.1_src/data/scripts/dock_solv.prm

>  <Rbt.Receptor>
prm/blind_docking_20.prm

>  <SCORE>
-16.6094

>  <SCORE.INTER>
-16.6094

>  <SCORE.INTER.CONST>
1

>  <SCORE.INTER.POLAR>
0

>  <SCORE.INTER.ROT>
0

>  <SCORE.INTER.SOLV>
4.07094

>  <SCORE.INTER.VDW>
-16.0299

>  <SCORE.INTER.norm>
-1.66094

>  <SCORE.INTRA>
0

>  <SCORE.INTRA.DIHEDRAL>
0

>  <SCORE.INTRA.DIHEDRAL.0>
0

>  <SCORE.INTRA.POLAR>
0

>  <SCORE.INTRA.POLAR.0>
0

>  <SCORE.INTRA.REPUL>
0

>  <SCORE.INTRA.REPUL.0>
0

>  <SCORE.INTRA.SOLV>
0

>  <SCORE.INTRA.SOLV.lig_0>
-4.26631

>  <SCORE.INTRA.VDW>
0

>  <SCORE.INTRA.VDW.0>
0

>  <SCORE.INTRA.norm>
0

>  <SCORE.RESTR>
0

>  <SCORE.RESTR.CAVITY>
0

>  <SCORE.RESTR.norm>
0

>  <SCORE.SYSTEM>
0

>  <SCORE.SYSTEM.CONST>
0

>  <SCORE.SYSTEM.DIHEDRAL>
0

>  <SCORE.SYSTEM.SOLV>
0

>  <SCORE.SYSTEM.norm>
0

>  <SCORE.heavy>
10

>  <SCORE.norm>
-1.66094

>  <RMSD>
2.468

$$$$
ligand
 OpenBabel11021811493D
libRbt.so/2013.1/901 2013/11/27
 10 11  0  0  0  0  0  0  0  0999 V2000
   11.6381   10.9624    8.5113 N   0  0  0  0  0  0  0  0  0  0  0  0
   11.9347    9.7820    7.8779 C   0  0  0  0  0  0  0  0  0  0  0  0
   11.8566    9.6633    6.5426 N   0  0  0  0  0  0  0  0  0  0  0  0
   11.4688   10.7959    5.9206 C   0  0  0  0  0  0  0  0  0  0  0  0
   11.1576   12.0071    6.4980 C   0  0  0  0  0  0  0  0  0  0  0  0
   11.2356   12.1526    7.8974 C   0  0  0  0  0  0  0  0  0  0  0  0
   11.0048   13.1304    8.5956 O   0  0  0  0  0  0  0  0  0  0  0  0
   10.8160   12.8877    5.5138 N   0  0  0  0  0  0  0  0  0  0  0  0
   10.9169   12.2161    4.3475 C   0  0  0  0  0  0  0  0  0  0  0  0
   11.3158   10.9225    4.5670 N   0  0  0  0  0  0  0  0  0  0  0  0
  1  2  1  0  0  0  0
  1  6  1  0  0  0  0
  2  3  2  0  0  0  0
  3  4  1  0  0  0  0
  4  5  2  0  0  0  0
  4 10  1  0  0  0  0
  5  6  1  0  0  0  0
  5  8  1  0  0  0  0
  6  7  2  0  0  0  0
  8  9  1  0  0  0  0
  9 10  2  0  0  0  0
M  END
>  <CHROM.1>
11.32890592,11.48196325,6.66585331,-1.27653242,1.27241339,-1.84950589

>  <Name>
ligand

>  <RI>
0

>  <Rbt.Current_Directory>
/home/itssahil/PROJECTS/Mol_Feturizer/New_Systems/rnas/4FEJ

>  <Rbt.Executable>
rbdock ($Id: //depot/dev/client3/rdock/2013.1/src/exe/rbdock.cxx#4 $)

>  <Rbt.Library>
libRbt.so (2013.1, Build901 2013/11/27)

>  <Rbt.Parameter_File>
/export/apps/rDock/src/rDock_2013.1_src/data/scripts/dock_solv.prm

>  <Rbt.Receptor>
prm/blind_docking_20.prm

>  <SCORE>
-16.6161

>  <SCORE.INTER>
-16.6161

>  <SCORE.INTER.CONST>
1

>  <SCORE.INTER.POLAR>
0

>  <SCORE.INTER.ROT>
0

>  <SCORE.INTER.SOLV>
4.07395

>  <SCORE.INTER.VDW>
-16.0354

>  <SCORE.INTER.norm>
-1.66161

>  <SCORE.INTRA>
0

>  <SCORE.INTRA.DIHEDRAL>
0

>  <SCORE.INTRA.DIHEDRAL.0>
0

>  <SCORE.INTRA.POLAR>
0

>  <SCORE.INTRA.POLAR.0>
0

>  <SCORE.INTRA.REPUL>
0

>  <SCORE.INTRA.REPUL.0>
0

>  <SCORE.INTRA.SOLV>
0

>  <SCORE.INTRA.SOLV.lig_0>
-4.26631

>  <SCORE.INTRA.VDW>
0

>  <SCORE.INTRA.VDW.0>
0

>  <SCORE.INTRA.norm>
0

>  <SCORE.RESTR>
0

>  <SCORE.RESTR.CAVITY>
0

>  <SCORE.RESTR.norm>
0

>  <SCORE.SYSTEM>
0

>  <SCORE.SYSTEM.CONST>
0

>  <SCORE.SYSTEM.DIHEDRAL>
0

>  <SCORE.SYSTEM.SOLV>
0

>  <SCORE.SYSTEM.norm>
0

>  <SCORE.heavy>
10

>  <SCORE.norm>
-1.66161

>  <RMSD>
2.469

$$$$
ligand
 OpenBabel11021811493D
libRbt.so/2013.1/901 2013/11/27
 10 11  0  0  0  0  0  0  0  0999 V2000
   11.6910   10.9927    8.5003 N   0  0  0  0  0  0  0  0  0  0  0  0
   11.9796    9.8012    7.8843 C   0  0  0  0  0  0  0  0  0  0  0  0
   11.8720    9.6550    6.5539 N   0  0  0  0  0  0  0  0  0  0  0  0
   11.4640   10.7728    5.9180 C   0  0  0  0  0  0  0  0  0  0  0  0
   11.1594   11.9939    6.4778 C   0  0  0  0  0  0  0  0  0  0  0  0
   11.2682   12.1682    7.8718 C   0  0  0  0  0  0  0  0  0  0  0  0
   11.0479   13.1588    8.5552 O   0  0  0  0  0  0  0  0  0  0  0  0
   10.7907   12.8526    5.4840 N   0  0  0  0  0  0  0  0  0  0  0  0
   10.8688   12.1579    4.3295 C   0  0  0  0  0  0  0  0  0  0  0  0
   11.2797   10.8711    4.5660 N   0  0  0  0  0  0  0  0  0  0  0  0
  1  2  1  0  0  0  0
  1  6  1  0  0  0  0
  2  3  2  0  0  0  0
  3  4  1  0  0  0  0
  4  5  2  0  0  0  0
  4 10  1  0  0  0  0
  5  6  1  0  0  0  0
  5  8  1  0  0  0  0
  6  7  2  0  0  0  0
  8  9  1  0  0  0  0
  9 10  2  0  0  0  0
M  END
>  <CHROM.1>
11.33724260,11.47313645,6.65227836,-1.21019484,1.26030548,-1.93306364

>  <Name>
ligand

>  <RI>
0

>  <Rbt.Current_Directory>
/home/itssahil/PROJECTS/Mol_Feturizer/New_Systems/rnas/4FEJ

>  <Rbt.Executable>
rbdock ($Id: //depot/dev/client3/rdock/2013.1/src/exe/rbdock.cxx#4 $)

>  <Rbt.Library>
libRbt.so (2013.1, Build901 2013/11/27)

>  <Rbt.Parameter_File>
/export/apps/rDock/src/rDock_2013.1_src/data/scripts/dock_solv.prm

>  <Rbt.Receptor>
prm/blind_docking_20.prm

>  <SCORE>
-16.5645

>  <SCORE.INTER>
-16.5645

>  <SCORE.INTER.CONST>
1

>  <SCORE.INTER.POLAR>
0

>  <SCORE.INTER.ROT>
0

>  <SCORE.INTER.SOLV>
4.07528

>  <SCORE.INTER.VDW>
-16.0014

>  <SCORE.INTER.norm>
-1.65645

>  <SCORE.INTRA>
0

>  <SCORE.INTRA.DIHEDRAL>
0

>  <SCORE.INTRA.DIHEDRAL.0>
0

>  <SCORE.INTRA.POLAR>
0

>  <SCORE.INTRA.POLAR.0>
0

>  <SCORE.INTRA.REPUL>
0

>  <SCORE.INTRA.REPUL.0>
0

>  <SCORE.INTRA.SOLV>
0

>  <SCORE.INTRA.SOLV.lig_0>
-4.26631

>  <SCORE.INTRA.VDW>
0

>  <SCORE.INTRA.VDW.0>
0

>  <SCORE.INTRA.norm>
0

>  <SCORE.RESTR>
3.8452e-05

>  <SCORE.RESTR.CAVITY>
3.8452e-05

>  <SCORE.RESTR.norm>
3.8452e-06

>  <SCORE.SYSTEM>
0

>  <SCORE.SYSTEM.CONST>
0

>  <SCORE.SYSTEM.DIHEDRAL>
0

>  <SCORE.SYSTEM.SOLV>
0

>  <SCORE.SYSTEM.norm>
0

>  <SCORE.heavy>
10

>  <SCORE.norm>
-1.65645

>  <RMSD>
2.469

$$$$
ligand
 OpenBabel11021811493D
libRbt.so/2013.1/901 2013/11/27
 10 11  0  0  0  0  0  0  0  0999 V2000
   11.6263   10.9675    8.5108 N   0  0  0  0  0  0  0  0  0  0  0  0
   11.9226    9.7886    7.8746 C   0  0  0  0  0  0  0  0  0  0  0  0
   11.8522    9.6753    6.5385 N   0  0  0  0  0  0  0  0  0  0  0  0
   11.4722   10.8117    5.9185 C   0  0  0  0  0  0  0  0  0  0  0  0
   11.1617   12.0218    6.4987 C   0  0  0  0  0  0  0  0  0  0  0  0
   11.2317   12.1616    7.8991 C   0  0  0  0  0  0  0  0  0  0  0  0
   11.0001   13.1374    8.5998 O   0  0  0  0  0  0  0  0  0  0  0  0
   10.8292   12.9074    5.5159 N   0  0  0  0  0  0  0  0  0  0  0  0
   10.9348   12.2399    4.3476 C   0  0  0  0  0  0  0  0  0  0  0  0
   11.3278   10.9441    4.5645 N   0  0  0  0  0  0  0  0  0  0  0  0
  1  2  1  0  0  0  0
  1  6  1  0  0  0  0
  2  3  2  0  0  0  0
  3  4  1  0  0  0  0
  4  5  2  0  0  0  0
  4 10  1  0  0  0  0
  5  6  1  0  0  0  0
  5  8  1  0  0  0  0
  6  7  2  0  0  0  0
  8  9  1  0  0  0  0
  9 10  2  0  0  0  0
M  END
>  <CHROM.1>
11.33013244,11.49533664,6.66557253,-1.29337933,1.27742472,-1.82951020

>  <Name>
ligand

>  <RI>
0

>  <Rbt.Current_Directory>
/home/itssahil/PROJECTS/Mol_Feturizer/New_Systems/rnas/4FEJ

>  <Rbt.Executable>
rbdock ($Id: //depot/dev/client3/rdock/2013.1/src/exe/rbdock.cxx#4 $)

>  <Rbt.Library>
libRbt.so (2013.1, Build901 2013/11/27)

>  <Rbt.Parameter_File>
/export/apps/rDock/src/rDock_2013.1_src/data/scripts/dock_solv.prm

>  <Rbt.Receptor>
prm/blind_docking_20.prm

>  <SCORE>
-16.5963

>  <SCORE.INTER>
-16.5963

>  <SCORE.INTER.CONST>
1

>  <SCORE.INTER.POLAR>
0

>  <SCORE.INTER.ROT>
0

>  <SCORE.INTER.SOLV>
4.08282

>  <SCORE.INTER.VDW>
-16.0251

>  <SCORE.INTER.norm>
-1.65963

>  <SCORE.INTRA>
0

>  <SCORE.INTRA.DIHEDRAL>
0

>  <SCORE.INTRA.DIHEDRAL.0>
0

>  <SCORE.INTRA.POLAR>
0

>  <SCORE.INTRA.POLAR.0>
0

>  <SCORE.INTRA.REPUL>
0

>  <SCORE.INTRA.REPUL.0>
0

>  <SCORE.INTRA.SOLV>
0

>  <SCORE.INTRA.SOLV.lig_0>
-4.26631

>  <SCORE.INTRA.VDW>
0

>  <SCORE.INTRA.VDW.0>
0

>  <SCORE.INTRA.norm>
0

>  <SCORE.RESTR>
0

>  <SCORE.RESTR.CAVITY>
0

>  <SCORE.RESTR.norm>
0

>  <SCORE.SYSTEM>
0

>  <SCORE.SYSTEM.CONST>
0

>  <SCORE.SYSTEM.DIHEDRAL>
0

>  <SCORE.SYSTEM.SOLV>
0

>  <SCORE.SYSTEM.norm>
0

>  <SCORE.heavy>
10

>  <SCORE.norm>
-1.65963

>  <RMSD>
2.469

$$$$
ligand
 OpenBabel11021811493D
libRbt.so/2013.1/901 2013/11/27
 10 11  0  0  0  0  0  0  0  0999 V2000
   11.6400   10.9750    8.5063 N   0  0  0  0  0  0  0  0  0  0  0  0
   11.9225    9.7853    7.8840 C   0  0  0  0  0  0  0  0  0  0  0  0
   11.8423    9.6550    6.5499 N   0  0  0  0  0  0  0  0  0  0  0  0
   11.4675   10.7861    5.9174 C   0  0  0  0  0  0  0  0  0  0  0  0
   11.1708   12.0063    6.4835 C   0  0  0  0  0  0  0  0  0  0  0  0
   11.2512   12.1640    7.8814 C   0  0  0  0  0  0  0  0  0  0  0  0
   11.0322   13.1509    8.5705 O   0  0  0  0  0  0  0  0  0  0  0  0
   10.8390   12.8815    5.4911 N   0  0  0  0  0  0  0  0  0  0  0  0
   10.9314   12.1978    4.3311 C   0  0  0  0  0  0  0  0  0  0  0  0
   11.3153   10.9017    4.5627 N   0  0  0  0  0  0  0  0  0  0  0  0
  1  2  1  0  0  0  0
  1  6  1  0  0  0  0
  2  3  2  0  0  0  0
  3  4  1  0  0  0  0
  4  5  2  0  0  0  0
  4 10  1  0  0  0  0
  5  6  1  0  0  0  0
  5  8  1  0  0  0  0
  6  7  2  0  0  0  0
  8  9  1  0  0  0  0
  9 10  2  0  0  0  0
M  END
>  <CHROM.1>
11.33600289,11.48074191,6.65618983,-1.26349662,1.28352072,-1.87141403

>  <Name>
ligand

>  <RI>
0

>  <Rbt.Current_Directory>
/home/itssahil/PROJECTS/Mol_Feturizer/New_Systems/rnas/4FEJ

>  <Rbt.Executable>
rbdock ($Id: //depot/dev/client3/rdock/2013.1/src/exe/rbdock.cxx#4 $)

>  <Rbt.Library>
libRbt.so (2013.1, Build901 2013/11/27)

>  <Rbt.Parameter_File>
/export/apps/rDock/src/rDock_2013.1_src/data/scripts/dock_solv.prm

>  <Rbt.Receptor>
prm/blind_docking_20.prm

>  <SCORE>
-16.6317

>  <SCORE.INTER>
-16.6317

>  <SCORE.INTER.CONST>
1

>  <SCORE.INTER.POLAR>
0

>  <SCORE.INTER.ROT>
0

>  <SCORE.INTER.SOLV>
4.10498

>  <SCORE.INTER.VDW>
-16.0561

>  <SCORE.INTER.norm>
-1.66317

>  <SCORE.INTRA>
0

>  <SCORE.INTRA.DIHEDRAL>
0

>  <SCORE.INTRA.DIHEDRAL.0>
0

>  <SCORE.INTRA.POLAR>
0

>  <SCORE.INTRA.POLAR.0>
0

>  <SCORE.INTRA.REPUL>
0

>  <SCORE.INTRA.REPUL.0>
0

>  <SCORE.INTRA.SOLV>
0

>  <SCORE.INTRA.SOLV.lig_0>
-4.26631

>  <SCORE.INTRA.VDW>
0

>  <SCORE.INTRA.VDW.0>
0

>  <SCORE.INTRA.norm>
0

>  <SCORE.RESTR>
0

>  <SCORE.RESTR.CAVITY>
0

>  <SCORE.RESTR.norm>
0

>  <SCORE.SYSTEM>
0

>  <SCORE.SYSTEM.CONST>
0

>  <SCORE.SYSTEM.DIHEDRAL>
0

>  <SCORE.SYSTEM.SOLV>
0

>  <SCORE.SYSTEM.norm>
0

>  <SCORE.heavy>
10

>  <SCORE.norm>
-1.66317

>  <RMSD>
2.470

$$$$
ligand
 OpenBabel11021811493D
libRbt.so/2013.1/901 2013/11/27
 10 11  0  0  0  0  0  0  0  0999 V2000
   11.6475   10.9656    8.5013 N   0  0  0  0  0  0  0  0  0  0  0  0
   11.9382    9.7801    7.8748 C   0  0  0  0  0  0  0  0  0  0  0  0
   11.8619    9.6546    6.5401 N   0  0  0  0  0  0  0  0  0  0  0  0
   11.4819   10.7861    5.9112 C   0  0  0  0  0  0  0  0  0  0  0  0
   11.1769   12.0023    6.4814 C   0  0  0  0  0  0  0  0  0  0  0  0
   11.2532   12.1549    7.8802 C   0  0  0  0  0  0  0  0  0  0  0  0
   11.0269   13.1377    8.5727 O   0  0  0  0  0  0  0  0  0  0  0  0
   10.8422   12.8795    5.4918 N   0  0  0  0  0  0  0  0  0  0  0  0
   10.9413   12.2009    4.3294 C   0  0  0  0  0  0  0  0  0  0  0  0
   11.3321   10.9062    4.5566 N   0  0  0  0  0  0  0  0  0  0  0  0
  1  2  1  0  0  0  0
  1  6  1  0  0  0  0
  2  3  2  0  0  0  0
  3  4  1  0  0  0  0
  4  5  2  0  0  0  0
  4 10  1  0  0  0  0
  5  6  1  0  0  0  0
  5  8  1  0  0  0  0
  6  7  2  0  0  0  0
  8  9  1  0  0  0  0
  9 10  2  0  0  0  0
M  END
>  <CHROM.1>
11.34471996,11.47699380,6.65245616,-1.27693137,1.27862372,-1.85455290

>  <Name>
ligand

>  <RI>
0

>  <Rbt.Current_Directory>
/home/itssahil/PROJECTS/Mol_Feturizer/New_Systems/rnas/4FEJ

>  <Rbt.Executable>
rbdock ($Id: //depot/dev/client3/rdock/2013.1/src/exe/rbdock.cxx#4 $)

>  <Rbt.Library>
libRbt.so (2013.1, Build901 2013/11/27)

>  <Rbt.Parameter_File>
/export/apps/rDock/src/rDock_2013.1_src/data/scripts/dock_solv.prm

>  <Rbt.Receptor>
prm/blind_docking_20.prm

>  <SCORE>
-16.5778

>  <SCORE.INTER>
-16.5778

>  <SCORE.INTER.CONST>
1

>  <SCORE.INTER.POLAR>
0

>  <SCORE.INTER.ROT>
0

>  <SCORE.INTER.SOLV>
4.08806

>  <SCORE.INTER.VDW>
-16.0145

>  <SCORE.INTER.norm>
-1.65778

>  <SCORE.INTRA>
0

>  <SCORE.INTRA.DIHEDRAL>
0

>  <SCORE.INTRA.DIHEDRAL.0>
0

>  <SCORE.INTRA.POLAR>
0

>  <SCORE.INTRA.POLAR.0>
0

>  <SCORE.INTRA.REPUL>
0

>  <SCORE.INTRA.REPUL.0>
0

>  <SCORE.INTRA.SOLV>
0

>  <SCORE.INTRA.SOLV.lig_0>
-4.26631

>  <SCORE.INTRA.VDW>
0

>  <SCORE.INTRA.VDW.0>
0

>  <SCORE.INTRA.norm>
0

>  <SCORE.RESTR>
0

>  <SCORE.RESTR.CAVITY>
0

>  <SCORE.RESTR.norm>
0

>  <SCORE.SYSTEM>
0

>  <SCORE.SYSTEM.CONST>
0

>  <SCORE.SYSTEM.DIHEDRAL>
0

>  <SCORE.SYSTEM.SOLV>
0

>  <SCORE.SYSTEM.norm>
0

>  <SCORE.heavy>
10

>  <SCORE.norm>
-1.65778

>  <RMSD>
2.470

$$$$
ligand
 OpenBabel11021811493D
libRbt.so/2013.1/901 2013/11/27
 10 11  0  0  0  0  0  0  0  0999 V2000
   11.6359   10.9721    8.5038 N   0  0  0  0  0  0  0  0  0  0  0  0
   11.9209    9.7854    7.8771 C   0  0  0  0  0  0  0  0  0  0  0  0
   11.8450    9.6609    6.5422 N   0  0  0  0  0  0  0  0  0  0  0  0
   11.4716   10.7947    5.9135 C   0  0  0  0  0  0  0  0  0  0  0  0
   11.1725   12.0122    6.4841 C   0  0  0  0  0  0  0  0  0  0  0  0
   11.2484   12.1638    7.8830 C   0  0  0  0  0  0  0  0  0  0  0  0
   11.0266   13.1475    8.5757 O   0  0  0  0  0  0  0  0  0  0  0  0
   10.8433   12.8917    5.4946 N   0  0  0  0  0  0  0  0  0  0  0  0
   10.9398   12.2131    4.3319 C   0  0  0  0  0  0  0  0  0  0  0  0
   11.3236   10.9163    4.5589 N   0  0  0  0  0  0  0  0  0  0  0  0
  1  2  1  0  0  0  0
  1  6  1  0  0  0  0
  2  3  2  0  0  0  0
  3  4  1  0  0  0  0
  4  5  2  0  0  0  0
  4 10  1  0  0  0  0
  5  6  1  0  0  0  0
  5  8  1  0  0  0  0
  6  7  2  0  0  0  0
  8  9  1  0  0  0  0
  9 10  2  0  0  0  0
M  END
>  <CHROM.1>
11.33738370,11.48596682,6.65500115,-1.27467980,1.28392283,-1.85623425

>  <Name>
ligand

>  <RI>
0

>  <Rbt.Current_Directory>
/home/itssahil/PROJECTS/Mol_Feturizer/New_Systems/rnas/4FEJ

>  <Rbt.Executable>
rbdock ($Id: //depot/dev/client3/rdock/2013.1/src/exe/rbdock.cxx#4 $)

>  <Rbt.Library>
libRbt.so (2013.1, Build901 2013/11/27)

>  <Rbt.Parameter_File>
/export/apps/rDock/src/rDock_2013.1_src/data/scripts/dock_solv.prm

>  <Rbt.Receptor>
prm/blind_docking_20.prm

>  <SCORE>
-16.6364

>  <SCORE.INTER>
-16.6364

>  <SCORE.INTER.CONST>
1

>  <SCORE.INTER.POLAR>
0

>  <SCORE.INTER.ROT>
0

>  <SCORE.INTER.SOLV>
4.10089

>  <SCORE.INTER.VDW>
-16.0579

>  <SCORE.INTER.norm>
-1.66364

>  <SCORE.INTRA>
0

>  <SCORE.INTRA.DIHEDRAL>
0

>  <SCORE.INTRA.DIHEDRAL.0>
0

>  <SCORE.INTRA.POLAR>
0

>  <SCORE.INTRA.POLAR.0>
0

>  <SCORE.INTRA.REPUL>
0

>  <SCORE.INTRA.REPUL.0>
0

>  <SCORE.INTRA.SOLV>
0

>  <SCORE.INTRA.SOLV.lig_0>
-4.26631

>  <SCORE.INTRA.VDW>
0

>  <SCORE.INTRA.VDW.0>
0

>  <SCORE.INTRA.norm>
0

>  <SCORE.RESTR>
1.08982e-05

>  <SCORE.RESTR.CAVITY>
1.08982e-05

>  <SCORE.RESTR.norm>
1.08982e-06

>  <SCORE.SYSTEM>
0

>  <SCORE.SYSTEM.CONST>
0

>  <SCORE.SYSTEM.DIHEDRAL>
0

>  <SCORE.SYSTEM.SOLV>
0

>  <SCORE.SYSTEM.norm>
0

>  <SCORE.heavy>
10

>  <SCORE.norm>
-1.66364

>  <RMSD>
2.471

$$$$
ligand
 OpenBabel11021811493D
libRbt.so/2013.1/901 2013/11/27
 10 11  0  0  0  0  0  0  0  0999 V2000
   11.6648   10.9332    8.4870 N   0  0  0  0  0  0  0  0  0  0  0  0
   11.9584    9.7528    7.8522 C   0  0  0  0  0  0  0  0  0  0  0  0
   11.8685    9.6326    6.5178 N   0  0  0  0  0  0  0  0  0  0  0  0
   11.4724   10.7637    5.8981 C   0  0  0  0  0  0  0  0  0  0  0  0
   11.1636   11.9748    6.4771 C   0  0  0  0  0  0  0  0  0  0  0  0
   11.2539   12.1219    7.8757 C   0  0  0  0  0  0  0  0  0  0  0  0
   11.0272   13.0998    8.5750 O   0  0  0  0  0  0  0  0  0  0  0  0
   10.8110   12.8535    5.4952 N   0  0  0  0  0  0  0  0  0  0  0  0
   10.9028   12.1809    4.3287 C   0  0  0  0  0  0  0  0  0  0  0  0
   11.3068   10.8885    4.5459 N   0  0  0  0  0  0  0  0  0  0  0  0
  1  2  1  0  0  0  0
  1  6  1  0  0  0  0
  2  3  2  0  0  0  0
  3  4  1  0  0  0  0
  4  5  2  0  0  0  0
  4 10  1  0  0  0  0
  5  6  1  0  0  0  0
  5  8  1  0  0  0  0
  6  7  2  0  0  0  0
  8  9  1  0  0  0  0
  9 10  2  0  0  0  0
M  END
>  <CHROM.1>
11.33761308,11.45014502,6.64397072,-1.24948417,1.26756281,-1.87635475

>  <Name>
ligand

>  <RI>
0

>  <Rbt.Current_Directory>
/home/itssahil/PROJECTS/Mol_Feturizer/New_Systems/rnas/4FEJ

>  <Rbt.Executable>
rbdock ($Id: //depot/dev/client3/rdock/2013.1/src/exe/rbdock.cxx#4 $)

>  <Rbt.Library>
libRbt.so (2013.1, Build901 2013/11/27)

>  <Rbt.Parameter_File>
/export/apps/rDock/src/rDock_2013.1_src/data/scripts/dock_solv.prm

>  <Rbt.Receptor>
prm/blind_docking_20.prm

>  <SCORE>
-16.5429

>  <SCORE.INTER>
-16.5429

>  <SCORE.INTER.CONST>
1

>  <SCORE.INTER.POLAR>
0

>  <SCORE.INTER.ROT>
0

>  <SCORE.INTER.SOLV>
4.05143

>  <SCORE.INTER.VDW>
-15.9791

>  <SCORE.INTER.norm>
-1.65429

>  <SCORE.INTRA>
0

>  <SCORE.INTRA.DIHEDRAL>
0

>  <SCORE.INTRA.DIHEDRAL.0>
0

>  <SCORE.INTRA.POLAR>
0

>  <SCORE.INTRA.POLAR.0>
0

>  <SCORE.INTRA.REPUL>
0

>  <SCORE.INTRA.REPUL.0>
0

>  <SCORE.INTRA.SOLV>
0

>  <SCORE.INTRA.SOLV.lig_0>
-4.26631

>  <SCORE.INTRA.VDW>
0

>  <SCORE.INTRA.VDW.0>
0

>  <SCORE.INTRA.norm>
0

>  <SCORE.RESTR>
0

>  <SCORE.RESTR.CAVITY>
0

>  <SCORE.RESTR.norm>
0

>  <SCORE.SYSTEM>
0

>  <SCORE.SYSTEM.CONST>
0

>  <SCORE.SYSTEM.DIHEDRAL>
0

>  <SCORE.SYSTEM.SOLV>
0

>  <SCORE.SYSTEM.norm>
0

>  <SCORE.heavy>
10

>  <SCORE.norm>
-1.65429

>  <RMSD>
2.472

$$$$
ligand
 OpenBabel11021811493D
libRbt.so/2013.1/901 2013/11/27
 10 11  0  0  0  0  0  0  0  0999 V2000
   11.6171   10.9735    8.5054 N   0  0  0  0  0  0  0  0  0  0  0  0
   11.8934    9.7823    7.8834 C   0  0  0  0  0  0  0  0  0  0  0  0
   11.8190    9.6538    6.5488 N   0  0  0  0  0  0  0  0  0  0  0  0
   11.4562   10.7884    5.9154 C   0  0  0  0  0  0  0  0  0  0  0  0
   11.1660   12.0103    6.4812 C   0  0  0  0  0  0  0  0  0  0  0  0
   11.2406   12.1661    7.8797 C   0  0  0  0  0  0  0  0  0  0  0  0
   11.0257   13.1541    8.5685 O   0  0  0  0  0  0  0  0  0  0  0  0
   10.8460   12.8889    5.4880 N   0  0  0  0  0  0  0  0  0  0  0  0
   10.9390   12.2055    4.3279 C   0  0  0  0  0  0  0  0  0  0  0  0
   11.3117   10.9064    4.5601 N   0  0  0  0  0  0  0  0  0  0  0  0
  1  2  1  0  0  0  0
  1  6  1  0  0  0  0
  2  3  2  0  0  0  0
  3  4  1  0  0  0  0
  4  5  2  0  0  0  0
  4 10  1  0  0  0  0
  5  6  1  0  0  0  0
  5  8  1  0  0  0  0
  6  7  2  0  0  0  0
  8  9  1  0  0  0  0
  9 10  2  0  0  0  0
M  END
>  <CHROM.1>
11.32627445,11.48330533,6.65424834,-1.27273623,1.29236748,-1.86161919

>  <Name>
ligand

>  <RI>
0

>  <Rbt.Current_Directory>
/home/itssahil/PROJECTS/Mol_Feturizer/New_Systems/rnas/4FEJ

>  <Rbt.Executable>
rbdock ($Id: //depot/dev/client3/rdock/2013.1/src/exe/rbdock.cxx#4 $)

>  <Rbt.Library>
libRbt.so (2013.1, Build901 2013/11/27)

>  <Rbt.Parameter_File>
/export/apps/rDock/src/rDock_2013.1_src/data/scripts/dock_solv.prm

>  <Rbt.Receptor>
prm/blind_docking_20.prm

>  <SCORE>
-16.5939

>  <SCORE.INTER>
-16.5939

>  <SCORE.INTER.CONST>
1

>  <SCORE.INTER.POLAR>
0

>  <SCORE.INTER.ROT>
0

>  <SCORE.INTER.SOLV>
4.12434

>  <SCORE.INTER.VDW>
-16.0374

>  <SCORE.INTER.norm>
-1.65939

>  <SCORE.INTRA>
0

>  <SCORE.INTRA.DIHEDRAL>
0

>  <SCORE.INTRA.DIHEDRAL.0>
0

>  <SCORE.INTRA.POLAR>
0

>  <SCORE.INTRA.POLAR.0>
0

>  <SCORE.INTRA.REPUL>
0

>  <SCORE.INTRA.REPUL.0>
0

>  <SCORE.INTRA.SOLV>
0

>  <SCORE.INTRA.SOLV.lig_0>
-4.26631

>  <SCORE.INTRA.VDW>
0

>  <SCORE.INTRA.VDW.0>
0

>  <SCORE.INTRA.norm>
0

>  <SCORE.RESTR>
0

>  <SCORE.RESTR.CAVITY>
0

>  <SCORE.RESTR.norm>
0

>  <SCORE.SYSTEM>
0

>  <SCORE.SYSTEM.CONST>
0

>  <SCORE.SYSTEM.DIHEDRAL>
0

>  <SCORE.SYSTEM.SOLV>
0

>  <SCORE.SYSTEM.norm>
0

>  <SCORE.heavy>
10

>  <SCORE.norm>
-1.65939

>  <RMSD>
2.473

$$$$
ligand
 OpenBabel11021811493D
libRbt.so/2013.1/901 2013/11/27
 10 11  0  0  0  0  0  0  0  0999 V2000
   11.6680   10.9209    8.4796 N   0  0  0  0  0  0  0  0  0  0  0  0
   11.9538    9.7374    7.8471 C   0  0  0  0  0  0  0  0  0  0  0  0
   11.8572    9.6134    6.5136 N   0  0  0  0  0  0  0  0  0  0  0  0
   11.4628   10.7441    5.8922 C   0  0  0  0  0  0  0  0  0  0  0  0
   11.1617   11.9582    6.4688 C   0  0  0  0  0  0  0  0  0  0  0  0
   11.2591   12.1093    7.8664 C   0  0  0  0  0  0  0  0  0  0  0  0
   11.0395   13.0903    8.5637 O   0  0  0  0  0  0  0  0  0  0  0  0
   10.8080   12.8354    5.4858 N   0  0  0  0  0  0  0  0  0  0  0  0
   10.8918   12.1588    4.3210 C   0  0  0  0  0  0  0  0  0  0  0  0
   11.2915   10.8654    4.5403 N   0  0  0  0  0  0  0  0  0  0  0  0
  1  2  1  0  0  0  0
  1  6  1  0  0  0  0
  2  3  2  0  0  0  0
  3  4  1  0  0  0  0
  4  5  2  0  0  0  0
  4 10  1  0  0  0  0
  5  6  1  0  0  0  0
  5  8  1  0  0  0  0
  6  7  2  0  0  0  0
  8  9  1  0  0  0  0
  9 10  2  0  0  0  0
M  END
>  <CHROM.1>
11.33431659,11.43343957,6.63649674,-1.23042689,1.26997989,-1.89766878

>  <Name>
ligand

>  <RI>
0

>  <Rbt.Current_Directory>
/home/itssahil/PROJECTS/Mol_Feturizer/New_Systems/rnas/4FEJ

>  <Rbt.Executable>
rbdock ($Id: //depot/dev/client3/rdock/2013.1/src/exe/rbdock.cxx#4 $)

>  <Rbt.Library>
libRbt.so (2013.1, Build901 2013/11/27)

>  <Rbt.Parameter_File>
/export/apps/rDock/src/rDock_2013.1_src/data/scripts/dock_solv.prm

>  <Rbt.Receptor>
prm/blind_docking_20.prm

>  <SCORE>
-16.5534

>  <SCORE.INTER>
-16.5537

>  <SCORE.INTER.CONST>
1

>  <SCORE.INTER.POLAR>
0

>  <SCORE.INTER.ROT>
0

>  <SCORE.INTER.SOLV>
4.05328

>  <SCORE.INTER.VDW>
-15.9869

>  <SCORE.INTER.norm>
-1.65537

>  <SCORE.INTRA>
0

>  <SCORE.INTRA.DIHEDRAL>
0

>  <SCORE.INTRA.DIHEDRAL.0>
0

>  <SCORE.INTRA.POLAR>
0

>  <SCORE.INTRA.POLAR.0>
0

>  <SCORE.INTRA.REPUL>
0

>  <SCORE.INTRA.REPUL.0>
0

>  <SCORE.INTRA.SOLV>
0

>  <SCORE.INTRA.SOLV.lig_0>
-4.26631

>  <SCORE.INTRA.VDW>
0

>  <SCORE.INTRA.VDW.0>
0

>  <SCORE.INTRA.norm>
0

>  <SCORE.RESTR>
0.000307416

>  <SCORE.RESTR.CAVITY>
0.000307416

>  <SCORE.RESTR.norm>
3.07416e-05

>  <SCORE.SYSTEM>
0

>  <SCORE.SYSTEM.CONST>
0

>  <SCORE.SYSTEM.DIHEDRAL>
0

>  <SCORE.SYSTEM.SOLV>
0

>  <SCORE.SYSTEM.norm>
0

>  <SCORE.heavy>
10

>  <SCORE.norm>
-1.65534

>  <RMSD>
2.474

$$$$
ligand
 OpenBabel11021811493D
libRbt.so/2013.1/901 2013/11/27
 10 11  0  0  0  0  0  0  0  0999 V2000
   11.6932   10.9249    8.4521 N   0  0  0  0  0  0  0  0  0  0  0  0
   11.9684    9.7371    7.8229 C   0  0  0  0  0  0  0  0  0  0  0  0
   11.8547    9.6055    6.4914 N   0  0  0  0  0  0  0  0  0  0  0  0
   11.4550   10.7335    5.8685 C   0  0  0  0  0  0  0  0  0  0  0  0
   11.1638   11.9516    6.4418 C   0  0  0  0  0  0  0  0  0  0  0  0
   11.2793   12.1107    7.8371 C   0  0  0  0  0  0  0  0  0  0  0  0
   11.0708   13.0962    8.5314 O   0  0  0  0  0  0  0  0  0  0  0  0
   10.7997   12.8239    5.4581 N   0  0  0  0  0  0  0  0  0  0  0  0
   10.8672   12.1403    4.2964 C   0  0  0  0  0  0  0  0  0  0  0  0
   11.2668   10.8473    4.5182 N   0  0  0  0  0  0  0  0  0  0  0  0
  1  2  1  0  0  0  0
  1  6  1  0  0  0  0
  2  3  2  0  0  0  0
  3  4  1  0  0  0  0
  4  5  2  0  0  0  0
  4 10  1  0  0  0  0
  5  6  1  0  0  0  0
  5  8  1  0  0  0  0
  6  7  2  0  0  0  0
  8  9  1  0  0  0  0
  9 10  2  0  0  0  0
M  END
>  <CHROM.1>
11.33743301,11.42744135,6.61031493,-1.18783071,1.26775627,-1.94418621

>  <Name>
ligand

>  <RI>
0

>  <Rbt.Current_Directory>
/home/itssahil/PROJECTS/Mol_Feturizer/New_Systems/rnas/4FEJ

>  <Rbt.Executable>
rbdock ($Id: //depot/dev/client3/rdock/2013.1/src/exe/rbdock.cxx#4 $)

>  <Rbt.Library>
libRbt.so (2013.1, Build901 2013/11/27)

>  <Rbt.Parameter_File>
/export/apps/rDock/src/rDock_2013.1_src/data/scripts/dock_solv.prm

>  <Rbt.Receptor>
prm/blind_docking_20.prm

>  <SCORE>
-16.5735

>  <SCORE.INTER>
-16.5735

>  <SCORE.INTER.CONST>
1

>  <SCORE.INTER.POLAR>
0

>  <SCORE.INTER.ROT>
0

>  <SCORE.INTER.SOLV>
4.04713

>  <SCORE.INTER.VDW>
-15.998

>  <SCORE.INTER.norm>
-1.65735

>  <SCORE.INTRA>
0

>  <SCORE.INTRA.DIHEDRAL>
0

>  <SCORE.INTRA.DIHEDRAL.0>
0

>  <SCORE.INTRA.POLAR>
0

>  <SCORE.INTRA.POLAR.0>
0

>  <SCORE.INTRA.REPUL>
0

>  <SCORE.INTRA.REPUL.0>
0

>  <SCORE.INTRA.SOLV>
0

>  <SCORE.INTRA.SOLV.lig_0>
-4.26631

>  <SCORE.INTRA.VDW>
0

>  <SCORE.INTRA.VDW.0>
0

>  <SCORE.INTRA.norm>
0

>  <SCORE.RESTR>
0

>  <SCORE.RESTR.CAVITY>
0

>  <SCORE.RESTR.norm>
0

>  <SCORE.SYSTEM>
0

>  <SCORE.SYSTEM.CONST>
0

>  <SCORE.SYSTEM.DIHEDRAL>
0

>  <SCORE.SYSTEM.SOLV>
0

>  <SCORE.SYSTEM.norm>
0

>  <SCORE.heavy>
10

>  <SCORE.norm>
-1.65735

>  <RMSD>
2.477

$$$$
ligand
 OpenBabel11021811493D
libRbt.so/2013.1/901 2013/11/27
 10 11  0  0  0  0  0  0  0  0999 V2000
   11.6945   10.9085    8.4410 N   0  0  0  0  0  0  0  0  0  0  0  0
   11.9773    9.7282    7.8012 C   0  0  0  0  0  0  0  0  0  0  0  0
   11.8683    9.6092    6.4681 N   0  0  0  0  0  0  0  0  0  0  0  0
   11.4652   10.7414    5.8550 C   0  0  0  0  0  0  0  0  0  0  0  0
   11.1665   11.9525    6.4393 C   0  0  0  0  0  0  0  0  0  0  0  0
   11.2769   12.0983    7.8365 C   0  0  0  0  0  0  0  0  0  0  0  0
   11.0616   13.0760    8.5397 O   0  0  0  0  0  0  0  0  0  0  0  0
   10.8014   12.8326    5.4630 N   0  0  0  0  0  0  0  0  0  0  0  0
   10.8757   12.1607    4.2949 C   0  0  0  0  0  0  0  0  0  0  0  0
   11.2807   10.8675    4.5053 N   0  0  0  0  0  0  0  0  0  0  0  0
  1  2  1  0  0  0  0
  1  6  1  0  0  0  0
  2  3  2  0  0  0  0
  3  4  1  0  0  0  0
  4  5  2  0  0  0  0
  4 10  1  0  0  0  0
  5  6  1  0  0  0  0
  5  8  1  0  0  0  0
  6  7  2  0  0  0  0
  8  9  1  0  0  0  0
  9 10  2  0  0  0  0
M  END
>  <CHROM.1>
11.34208285,11.42744329,6.60318649,-1.20312779,1.26446927,-1.91978947

>  <Name>
ligand

>  <RI>
0

>  <Rbt.Current_Directory>
/home/itssahil/PROJECTS/Mol_Feturizer/New_Systems/rnas/4FEJ

>  <Rbt.Executable>
rbdock ($Id: //depot/dev/client3/rdock/2013.1/src/exe/rbdock.cxx#4 $)

>  <Rbt.Library>
libRbt.so (2013.1, Build901 2013/11/27)

>  <Rbt.Parameter_File>
/export/apps/rDock/src/rDock_2013.1_src/data/scripts/dock_solv.prm

>  <Rbt.Receptor>
prm/blind_docking_20.prm

>  <SCORE>
-16.5536

>  <SCORE.INTER>
-16.5536

>  <SCORE.INTER.CONST>
1

>  <SCORE.INTER.POLAR>
0

>  <SCORE.INTER.ROT>
0

>  <SCORE.INTER.SOLV>
4.02604

>  <SCORE.INTER.VDW>
-15.9777

>  <SCORE.INTER.norm>
-1.65536

>  <SCORE.INTRA>
0

>  <SCORE.INTRA.DIHEDRAL>
0

>  <SCORE.INTRA.DIHEDRAL.0>
0

>  <SCORE.INTRA.POLAR>
0

>  <SCORE.INTRA.POLAR.0>
0

>  <SCORE.INTRA.REPUL>
0

>  <SCORE.INTRA.REPUL.0>
0

>  <SCORE.INTRA.SOLV>
0

>  <SCORE.INTRA.SOLV.lig_0>
-4.26631

>  <SCORE.INTRA.VDW>
0

>  <SCORE.INTRA.VDW.0>
0

>  <SCORE.INTRA.norm>
0

>  <SCORE.RESTR>
0

>  <SCORE.RESTR.CAVITY>
0

>  <SCORE.RESTR.norm>
0

>  <SCORE.SYSTEM>
0

>  <SCORE.SYSTEM.CONST>
0

>  <SCORE.SYSTEM.DIHEDRAL>
0

>  <SCORE.SYSTEM.SOLV>
0

>  <SCORE.SYSTEM.norm>
0

>  <SCORE.heavy>
10

>  <SCORE.norm>
-1.65536

>  <RMSD>
2.478

$$$$
ligand
 OpenBabel11021811493D
libRbt.so/2013.1/901 2013/11/27
 10 11  0  0  0  0  0  0  0  0999 V2000
   11.6670   10.9056    8.4505 N   0  0  0  0  0  0  0  0  0  0  0  0
   11.9399    9.7213    7.8138 C   0  0  0  0  0  0  0  0  0  0  0  0
   11.8398    9.6025    6.4800 N   0  0  0  0  0  0  0  0  0  0  0  0
   11.4559   10.7391    5.8628 C   0  0  0  0  0  0  0  0  0  0  0  0
   11.1679   11.9544    6.4438 C   0  0  0  0  0  0  0  0  0  0  0  0
   11.2692   12.1001    7.8417 C   0  0  0  0  0  0  0  0  0  0  0  0
   11.0607   13.0810    8.5424 O   0  0  0  0  0  0  0  0  0  0  0  0
   10.8215   12.8382    5.4641 N   0  0  0  0  0  0  0  0  0  0  0  0
   10.8965   12.1644    4.2970 C   0  0  0  0  0  0  0  0  0  0  0  0
   11.2835   10.8664    4.5117 N   0  0  0  0  0  0  0  0  0  0  0  0
  1  2  1  0  0  0  0
  1  6  1  0  0  0  0
  2  3  2  0  0  0  0
  3  4  1  0  0  0  0
  4  5  2  0  0  0  0
  4 10  1  0  0  0  0
  5  6  1  0  0  0  0
  5  8  1  0  0  0  0
  6  7  2  0  0  0  0
  8  9  1  0  0  0  0
  9 10  2  0  0  0  0
M  END
>  <CHROM.1>
11.33554866,11.42735599,6.60951158,-1.21371991,1.27896620,-1.91049605

>  <Name>
ligand

>  <RI>
0

>  <Rbt.Current_Directory>
/home/itssahil/PROJECTS/Mol_Feturizer/New_Systems/rnas/4FEJ

>  <Rbt.Executable>
rbdock ($Id: //depot/dev/client3/rdock/2013.1/src/exe/rbdock.cxx#4 $)

>  <Rbt.Library>
libRbt.so (2013.1, Build901 2013/11/27)

>  <Rbt.Parameter_File>
/export/apps/rDock/src/rDock_2013.1_src/data/scripts/dock_solv.prm

>  <Rbt.Receptor>
prm/blind_docking_20.prm

>  <SCORE>
-16.5693

>  <SCORE.INTER>
-16.5694

>  <SCORE.INTER.CONST>
1

>  <SCORE.INTER.POLAR>
0

>  <SCORE.INTER.ROT>
0

>  <SCORE.INTER.SOLV>
4.05575

>  <SCORE.INTER.VDW>
-15.9982

>  <SCORE.INTER.norm>
-1.65694

>  <SCORE.INTRA>
0

>  <SCORE.INTRA.DIHEDRAL>
0

>  <SCORE.INTRA.DIHEDRAL.0>
0

>  <SCORE.INTRA.POLAR>
0

>  <SCORE.INTRA.POLAR.0>
0

>  <SCORE.INTRA.REPUL>
0

>  <SCORE.INTRA.REPUL.0>
0

>  <SCORE.INTRA.SOLV>
0

>  <SCORE.INTRA.SOLV.lig_0>
-4.26631

>  <SCORE.INTRA.VDW>
0

>  <SCORE.INTRA.VDW.0>
0

>  <SCORE.INTRA.norm>
0

>  <SCORE.RESTR>
0.000102817

>  <SCORE.RESTR.CAVITY>
0.000102817

>  <SCORE.RESTR.norm>
1.02817e-05

>  <SCORE.SYSTEM>
0

>  <SCORE.SYSTEM.CONST>
0

>  <SCORE.SYSTEM.DIHEDRAL>
0

>  <SCORE.SYSTEM.SOLV>
0

>  <SCORE.SYSTEM.norm>
0

>  <SCORE.heavy>
10

>  <SCORE.norm>
-1.65693

>  <RMSD>
2.479

$$$$
ligand
 OpenBabel11021811493D
libRbt.so/2013.1/901 2013/11/27
 10 11  0  0  0  0  0  0  0  0999 V2000
   11.6600   10.8176    8.4054 N   0  0  0  0  0  0  0  0  0  0  0  0
   11.9461    9.6583    7.7296 C   0  0  0  0  0  0  0  0  0  0  0  0
   11.8517    9.5842    6.3922 N   0  0  0  0  0  0  0  0  0  0  0  0
   11.4593   10.7377    5.8128 C   0  0  0  0  0  0  0  0  0  0  0  0
   11.1581   11.9297    6.4338 C   0  0  0  0  0  0  0  0  0  0  0  0
   11.2532   12.0285    7.8362 C   0  0  0  0  0  0  0  0  0  0  0  0
   11.0331   12.9829    8.5692 O   0  0  0  0  0  0  0  0  0  0  0  0
   10.8068   12.8432    5.4835 N   0  0  0  0  0  0  0  0  0  0  0  0
   10.8921   12.2104    4.2944 C   0  0  0  0  0  0  0  0  0  0  0  0
   11.2904   10.9095    4.4661 N   0  0  0  0  0  0  0  0  0  0  0  0
  1  2  1  0  0  0  0
  1  6  1  0  0  0  0
  2  3  2  0  0  0  0
  3  4  1  0  0  0  0
  4  5  2  0  0  0  0
  4 10  1  0  0  0  0
  5  6  1  0  0  0  0
  5  8  1  0  0  0  0
  6  7  2  0  0  0  0
  8  9  1  0  0  0  0
  9 10  2  0  0  0  0
M  END
>  <CHROM.1>
11.33002536,11.39886488,6.58204037,-1.23522669,1.27126488,-1.85577033

>  <Name>
ligand

>  <RI>
0

>  <Rbt.Current_Directory>
/home/itssahil/PROJECTS/Mol_Feturizer/New_Systems/rnas/4FEJ

>  <Rbt.Executable>
rbdock ($Id: //depot/dev/client3/rdock/2013.1/src/exe/rbdock.cxx#4 $)

>  <Rbt.Library>
libRbt.so (2013.1, Build901 2013/11/27)

>  <Rbt.Parameter_File>
/export/apps/rDock/src/rDock_2013.1_src/data/scripts/dock_solv.prm

>  <Rbt.Receptor>
prm/blind_docking_20.prm

>  <SCORE>
-16.592

>  <SCORE.INTER>
-16.592

>  <SCORE.INTER.CONST>
1

>  <SCORE.INTER.POLAR>
0

>  <SCORE.INTER.ROT>
0

>  <SCORE.INTER.SOLV>
3.98136

>  <SCORE.INTER.VDW>
-15.9885

>  <SCORE.INTER.norm>
-1.6592

>  <SCORE.INTRA>
0

>  <SCORE.INTRA.DIHEDRAL>
0

>  <SCORE.INTRA.DIHEDRAL.0>
0

>  <SCORE.INTRA.POLAR>
0

>  <SCORE.INTRA.POLAR.0>
0

>  <SCORE.INTRA.REPUL>
0

>  <SCORE.INTRA.REPUL.0>
0

>  <SCORE.INTRA.SOLV>
0

>  <SCORE.INTRA.SOLV.lig_0>
-4.26631

>  <SCORE.INTRA.VDW>
0

>  <SCORE.INTRA.VDW.0>
0

>  <SCORE.INTRA.norm>
0

>  <SCORE.RESTR>
0

>  <SCORE.RESTR.CAVITY>
0

>  <SCORE.RESTR.norm>
0

>  <SCORE.SYSTEM>
0

>  <SCORE.SYSTEM.CONST>
0

>  <SCORE.SYSTEM.DIHEDRAL>
0

>  <SCORE.SYSTEM.SOLV>
0

>  <SCORE.SYSTEM.norm>
0

>  <SCORE.heavy>
10

>  <SCORE.norm>
-1.6592

>  <RMSD>
2.485

$$$$
ligand
 OpenBabel11021811493D
libRbt.so/2013.1/901 2013/11/27
 10 11  0  0  0  0  0  0  0  0999 V2000
   11.3504   13.3490    7.8566 N   0  0  0  0  0  0  0  0  0  0  0  0
   11.5351   12.8688    9.1285 C   0  0  0  0  0  0  0  0  0  0  0  0
   11.8246   11.5775    9.3557 N   0  0  0  0  0  0  0  0  0  0  0  0
   11.9105   10.8363    8.2317 C   0  0  0  0  0  0  0  0  0  0  0  0
   11.7358   11.2580    6.9321 C   0  0  0  0  0  0  0  0  0  0  0  0
   11.4337   12.6096    6.6726 C   0  0  0  0  0  0  0  0  0  0  0  0
   11.2438   13.1771    5.6055 O   0  0  0  0  0  0  0  0  0  0  0  0
   11.9114   10.1931    6.0978 N   0  0  0  0  0  0  0  0  0  0  0  0
   12.1887    9.1322    6.8846 C   0  0  0  0  0  0  0  0  0  0  0  0
   12.1930    9.4980    8.2063 N   0  0  0  0  0  0  0  0  0  0  0  0
  1  2  1  0  0  0  0
  1  6  1  0  0  0  0
  2  3  2  0  0  0  0
  3  4  1  0  0  0  0
  4  5  2  0  0  0  0
  4 10  1  0  0  0  0
  5  6  1  0  0  0  0
  5  8  1  0  0  0  0
  6  7  2  0  0  0  0
  8  9  1  0  0  0  0
  9 10  2  0  0  0  0
M  END
>  <CHROM.1>
11.72320297,11.48424832,7.46309824,-2.93176445,1.35188791,-1.86199825

>  <Name>
ligand

>  <RI>
0

>  <Rbt.Current_Directory>
/home/itssahil/PROJECTS/Mol_Feturizer/New_Systems/rnas/4FEJ

>  <Rbt.Executable>
rbdock ($Id: //depot/dev/client3/rdock/2013.1/src/exe/rbdock.cxx#4 $)

>  <Rbt.Library>
libRbt.so (2013.1, Build901 2013/11/27)

>  <Rbt.Parameter_File>
/export/apps/rDock/src/rDock_2013.1_src/data/scripts/dock_solv.prm

>  <Rbt.Receptor>
prm/blind_docking_100.prm

>  <SCORE>
-15.0689

>  <SCORE.INTER>
-15.0689

>  <SCORE.INTER.CONST>
1

>  <SCORE.INTER.POLAR>
0

>  <SCORE.INTER.ROT>
0

>  <SCORE.INTER.SOLV>
4.3791

>  <SCORE.INTER.VDW>
-15.1056

>  <SCORE.INTER.norm>
-1.50689

>  <SCORE.INTRA>
0

>  <SCORE.INTRA.DIHEDRAL>
0

>  <SCORE.INTRA.DIHEDRAL.0>
0

>  <SCORE.INTRA.POLAR>
0

>  <SCORE.INTRA.POLAR.0>
0

>  <SCORE.INTRA.REPUL>
0

>  <SCORE.INTRA.REPUL.0>
0

>  <SCORE.INTRA.SOLV>
0

>  <SCORE.INTRA.SOLV.lig_0>
-4.26631

>  <SCORE.INTRA.VDW>
0

>  <SCORE.INTRA.VDW.0>
0

>  <SCORE.INTRA.norm>
0

>  <SCORE.RESTR>
0

>  <SCORE.RESTR.CAVITY>
0

>  <SCORE.RESTR.norm>
0

>  <SCORE.SYSTEM>
0

>  <SCORE.SYSTEM.CONST>
0

>  <SCORE.SYSTEM.DIHEDRAL>
0

>  <SCORE.SYSTEM.SOLV>
0

>  <SCORE.SYSTEM.norm>
0

>  <SCORE.heavy>
10

>  <SCORE.norm>
-1.50689

>  <RMSD>
2.847

$$$$
ligand
 OpenBabel11021811493D
libRbt.so/2013.1/901 2013/11/27
 10 11  0  0  0  0  0  0  0  0999 V2000
   11.4232   10.7440    5.2430 N   0  0  0  0  0  0  0  0  0  0  0  0
   10.9729   12.0237    5.0379 C   0  0  0  0  0  0  0  0  0  0  0  0
   10.8277   12.8879    6.0553 N   0  0  0  0  0  0  0  0  0  0  0  0
   11.1640   12.3719    7.2557 C   0  0  0  0  0  0  0  0  0  0  0  0
   11.6198   11.1004    7.5255 C   0  0  0  0  0  0  0  0  0  0  0  0
   11.7811   10.1795    6.4713 C   0  0  0  0  0  0  0  0  0  0  0  0
   12.1679    9.0191    6.4994 O   0  0  0  0  0  0  0  0  0  0  0  0
   11.8438   10.9899    8.8666 N   0  0  0  0  0  0  0  0  0  0  0  0
   11.5246   12.1845    9.4076 C   0  0  0  0  0  0  0  0  0  0  0  0
   11.1000   13.0567    8.4383 N   0  0  0  0  0  0  0  0  0  0  0  0
  1  2  1  0  0  0  0
  1  6  1  0  0  0  0
  2  3  2  0  0  0  0
  3  4  1  0  0  0  0
  4  5  2  0  0  0  0
  4 10  1  0  0  0  0
  5  6  1  0  0  0  0
  5  8  1  0  0  0  0
  6  7  2  0  0  0  0
  8  9  1  0  0  0  0
  9 10  2  0  0  0  0
M  END
>  <CHROM.1>
11.45570680,11.41021623,7.06680440,1.34041406,1.22667594,-1.96690693

>  <Name>
ligand

>  <RI>
0

>  <Rbt.Current_Directory>
/home/itssahil/PROJECTS/Mol_Feturizer/New_Systems/rnas/4FEJ

>  <Rbt.Executable>
rbdock ($Id: //depot/dev/client3/rdock/2013.1/src/exe/rbdock.cxx#4 $)

>  <Rbt.Library>
libRbt.so (2013.1, Build901 2013/11/27)

>  <Rbt.Parameter_File>
/export/apps/rDock/src/rDock_2013.1_src/data/scripts/dock_solv.prm

>  <Rbt.Receptor>
prm/blind_docking_20.prm

>  <SCORE>
-15.3935

>  <SCORE.INTER>
-15.8034

>  <SCORE.INTER.CONST>
1

>  <SCORE.INTER.POLAR>
0

>  <SCORE.INTER.ROT>
0

>  <SCORE.INTER.SOLV>
3.77309

>  <SCORE.INTER.VDW>
-15.3933

>  <SCORE.INTER.norm>
-1.58034

>  <SCORE.INTRA>
0

>  <SCORE.INTRA.DIHEDRAL>
0

>  <SCORE.INTRA.DIHEDRAL.0>
0

>  <SCORE.INTRA.POLAR>
0

>  <SCORE.INTRA.POLAR.0>
0

>  <SCORE.INTRA.REPUL>
0

>  <SCORE.INTRA.REPUL.0>
0

>  <SCORE.INTRA.SOLV>
0

>  <SCORE.INTRA.SOLV.lig_0>
-4.26631

>  <SCORE.INTRA.VDW>
0

>  <SCORE.INTRA.VDW.0>
0

>  <SCORE.INTRA.norm>
0

>  <SCORE.RESTR>
0.409917

>  <SCORE.RESTR.CAVITY>
0.409917

>  <SCORE.RESTR.norm>
0.0409917

>  <SCORE.SYSTEM>
0

>  <SCORE.SYSTEM.CONST>
0

>  <SCORE.SYSTEM.DIHEDRAL>
0

>  <SCORE.SYSTEM.SOLV>
0

>  <SCORE.SYSTEM.norm>
0

>  <SCORE.heavy>
10

>  <SCORE.norm>
-1.53935

>  <RMSD>
2.855

$$$$
ligand
 OpenBabel11021811493D
libRbt.so/2013.1/901 2013/11/27
 10 11  0  0  0  0  0  0  0  0999 V2000
   11.5406   10.8756    5.4169 N   0  0  0  0  0  0  0  0  0  0  0  0
   11.1581   12.1734    5.1894 C   0  0  0  0  0  0  0  0  0  0  0  0
   11.0624   13.0626    6.1911 N   0  0  0  0  0  0  0  0  0  0  0  0
   11.3751   12.5515    7.3999 C   0  0  0  0  0  0  0  0  0  0  0  0
   11.7638   11.2628    7.6921 C   0  0  0  0  0  0  0  0  0  0  0  0
   11.8724   10.3154    6.6546 C   0  0  0  0  0  0  0  0  0  0  0  0
   12.1972    9.1369    6.7031 O   0  0  0  0  0  0  0  0  0  0  0  0
   11.9863   11.1650    9.0344 N   0  0  0  0  0  0  0  0  0  0  0  0
   11.7328   12.3845    9.5541 C   0  0  0  0  0  0  0  0  0  0  0  0
   11.3516   13.2602    8.5699 N   0  0  0  0  0  0  0  0  0  0  0  0
  1  2  1  0  0  0  0
  1  6  1  0  0  0  0
  2  3  2  0  0  0  0
  3  4  1  0  0  0  0
  4  5  2  0  0  0  0
  4 10  1  0  0  0  0
  5  6  1  0  0  0  0
  5  8  1  0  0  0  0
  6  7  2  0  0  0  0
  8  9  1  0  0  0  0
  9 10  2  0  0  0  0
M  END
>  <CHROM.1>
11.61475244,11.57238151,7.22809723,1.42126575,1.27332622,-2.06202261

>  <Name>
ligand

>  <RI>
0

>  <Rbt.Current_Directory>
/home/itssahil/PROJECTS/Mol_Feturizer/New_Systems/rnas/4FEJ

>  <Rbt.Executable>
rbdock ($Id: //depot/dev/client3/rdock/2013.1/src/exe/rbdock.cxx#4 $)

>  <Rbt.Library>
libRbt.so (2013.1, Build901 2013/11/27)

>  <Rbt.Parameter_File>
/export/apps/rDock/src/rDock_2013.1_src/data/scripts/dock_solv.prm

>  <Rbt.Receptor>
prm/blind_docking_100.prm

>  <SCORE>
-16.6109

>  <SCORE.INTER>
-16.6109

>  <SCORE.INTER.CONST>
1

>  <SCORE.INTER.POLAR>
0

>  <SCORE.INTER.ROT>
0

>  <SCORE.INTER.SOLV>
3.68651

>  <SCORE.INTER.VDW>
-15.9028

>  <SCORE.INTER.norm>
-1.66109

>  <SCORE.INTRA>
0

>  <SCORE.INTRA.DIHEDRAL>
0

>  <SCORE.INTRA.DIHEDRAL.0>
0

>  <SCORE.INTRA.POLAR>
0

>  <SCORE.INTRA.POLAR.0>
0

>  <SCORE.INTRA.REPUL>
0

>  <SCORE.INTRA.REPUL.0>
0

>  <SCORE.INTRA.SOLV>
0

>  <SCORE.INTRA.SOLV.lig_0>
-4.26631

>  <SCORE.INTRA.VDW>
0

>  <SCORE.INTRA.VDW.0>
0

>  <SCORE.INTRA.norm>
0

>  <SCORE.RESTR>
0

>  <SCORE.RESTR.CAVITY>
0

>  <SCORE.RESTR.norm>
0

>  <SCORE.SYSTEM>
0

>  <SCORE.SYSTEM.CONST>
0

>  <SCORE.SYSTEM.DIHEDRAL>
0

>  <SCORE.SYSTEM.SOLV>
0

>  <SCORE.SYSTEM.norm>
0

>  <SCORE.heavy>
10

>  <SCORE.norm>
-1.66109

>  <RMSD>
2.857

$$$$
ligand
 OpenBabel11021811493D
libRbt.so/2013.1/901 2013/11/27
 10 11  0  0  0  0  0  0  0  0999 V2000
   11.4931   10.8626    5.3902 N   0  0  0  0  0  0  0  0  0  0  0  0
   11.1520   12.1699    5.1515 C   0  0  0  0  0  0  0  0  0  0  0  0
   11.0903   13.0714    6.1448 N   0  0  0  0  0  0  0  0  0  0  0  0
   11.3921   12.5623    7.3571 C   0  0  0  0  0  0  0  0  0  0  0  0
   11.7399   11.2644    7.6603 C   0  0  0  0  0  0  0  0  0  0  0  0
   11.8125   10.3039    6.6317 C   0  0  0  0  0  0  0  0  0  0  0  0
   12.0989    9.1160    6.6905 O   0  0  0  0  0  0  0  0  0  0  0  0
   11.9658   11.1726    9.0025 N   0  0  0  0  0  0  0  0  0  0  0  0
   11.7547   12.4048    9.5112 C   0  0  0  0  0  0  0  0  0  0  0  0
   11.3975   13.2827    8.5201 N   0  0  0  0  0  0  0  0  0  0  0  0
  1  2  1  0  0  0  0
  1  6  1  0  0  0  0
  2  3  2  0  0  0  0
  3  4  1  0  0  0  0
  4  5  2  0  0  0  0
  4 10  1  0  0  0  0
  5  6  1  0  0  0  0
  5  8  1  0  0  0  0
  6  7  2  0  0  0  0
  8  9  1  0  0  0  0
  9 10  2  0  0  0  0
M  END
>  <CHROM.1>
11.59883316,11.57418660,7.19394720,1.49485263,1.29910043,-2.14252048

>  <Name>
ligand

>  <RI>
0

>  <Rbt.Current_Directory>
/home/itssahil/PROJECTS/Mol_Feturizer/New_Systems/rnas/4FEJ

>  <Rbt.Executable>
rbdock ($Id: //depot/dev/client3/rdock/2013.1/src/exe/rbdock.cxx#4 $)

>  <Rbt.Library>
libRbt.so (2013.1, Build901 2013/11/27)

>  <Rbt.Parameter_File>
/export/apps/rDock/src/rDock_2013.1_src/data/scripts/dock_solv.prm

>  <Rbt.Receptor>
prm/pocket_docking_7.prm

>  <SCORE>
-16.5943

>  <SCORE.INTER>
-16.5943

>  <SCORE.INTER.CONST>
1

>  <SCORE.INTER.POLAR>
0

>  <SCORE.INTER.ROT>
0

>  <SCORE.INTER.SOLV>
3.80117

>  <SCORE.INTER.VDW>
-15.9299

>  <SCORE.INTER.norm>
-1.65943

>  <SCORE.INTRA>
0

>  <SCORE.INTRA.DIHEDRAL>
0

>  <SCORE.INTRA.DIHEDRAL.0>
0

>  <SCORE.INTRA.POLAR>
0

>  <SCORE.INTRA.POLAR.0>
0

>  <SCORE.INTRA.REPUL>
0

>  <SCORE.INTRA.REPUL.0>
0

>  <SCORE.INTRA.SOLV>
0

>  <SCORE.INTRA.SOLV.lig_0>
-4.26631

>  <SCORE.INTRA.VDW>
0

>  <SCORE.INTRA.VDW.0>
0

>  <SCORE.INTRA.norm>
0

>  <SCORE.RESTR>
0

>  <SCORE.RESTR.CAVITY>
0

>  <SCORE.RESTR.norm>
0

>  <SCORE.SYSTEM>
0

>  <SCORE.SYSTEM.CONST>
0

>  <SCORE.SYSTEM.DIHEDRAL>
0

>  <SCORE.SYSTEM.SOLV>
0

>  <SCORE.SYSTEM.norm>
0

>  <SCORE.heavy>
10

>  <SCORE.norm>
-1.65943

>  <RMSD>
2.857

$$$$
ligand
 OpenBabel11021811493D
libRbt.so/2013.1/901 2013/11/27
 10 11  0  0  0  0  0  0  0  0999 V2000
   11.4920   10.8331    5.3964 N   0  0  0  0  0  0  0  0  0  0  0  0
   11.1383   12.1406    5.1780 C   0  0  0  0  0  0  0  0  0  0  0  0
   11.0583   13.0237    6.1864 N   0  0  0  0  0  0  0  0  0  0  0  0
   11.3557   12.4965    7.3921 C   0  0  0  0  0  0  0  0  0  0  0  0
   11.7155   11.1974    7.6753 C   0  0  0  0  0  0  0  0  0  0  0  0
   11.8073   10.2562    6.6307 C   0  0  0  0  0  0  0  0  0  0  0  0
   12.1064    9.0706    6.6709 O   0  0  0  0  0  0  0  0  0  0  0  0
   11.9312   11.0844    9.0175 N   0  0  0  0  0  0  0  0  0  0  0  0
   11.7023   12.3049    9.5460 C   0  0  0  0  0  0  0  0  0  0  0  0
   11.3435   13.1963    8.5676 N   0  0  0  0  0  0  0  0  0  0  0  0
  1  2  1  0  0  0  0
  1  6  1  0  0  0  0
  2  3  2  0  0  0  0
  3  4  1  0  0  0  0
  4  5  2  0  0  0  0
  4 10  1  0  0  0  0
  5  6  1  0  0  0  0
  5  8  1  0  0  0  0
  6  7  2  0  0  0  0
  8  9  1  0  0  0  0
  9 10  2  0  0  0  0
M  END
>  <CHROM.1>
11.57483993,11.51385080,7.21330363,1.44730940,1.29390509,-2.07910389

>  <Name>
ligand

>  <RI>
0

>  <Rbt.Current_Directory>
/home/itssahil/PROJECTS/Mol_Feturizer/New_Systems/rnas/4FEJ

>  <Rbt.Executable>
rbdock ($Id: //depot/dev/client3/rdock/2013.1/src/exe/rbdock.cxx#4 $)

>  <Rbt.Library>
libRbt.so (2013.1, Build901 2013/11/27)

>  <Rbt.Parameter_File>
/export/apps/rDock/src/rDock_2013.1_src/data/scripts/dock_solv.prm

>  <Rbt.Receptor>
prm/blind_docking_40.prm

>  <SCORE>
-16.5724

>  <SCORE.INTER>
-16.5724

>  <SCORE.INTER.CONST>
1

>  <SCORE.INTER.POLAR>
0

>  <SCORE.INTER.ROT>
0

>  <SCORE.INTER.SOLV>
3.81193

>  <SCORE.INTER.VDW>
-15.9189

>  <SCORE.INTER.norm>
-1.65724

>  <SCORE.INTRA>
0

>  <SCORE.INTRA.DIHEDRAL>
0

>  <SCORE.INTRA.DIHEDRAL.0>
0

>  <SCORE.INTRA.POLAR>
0

>  <SCORE.INTRA.POLAR.0>
0

>  <SCORE.INTRA.REPUL>
0

>  <SCORE.INTRA.REPUL.0>
0

>  <SCORE.INTRA.SOLV>
0

>  <SCORE.INTRA.SOLV.lig_0>
-4.26631

>  <SCORE.INTRA.VDW>
0

>  <SCORE.INTRA.VDW.0>
0

>  <SCORE.INTRA.norm>
0

>  <SCORE.RESTR>
0

>  <SCORE.RESTR.CAVITY>
0

>  <SCORE.RESTR.norm>
0

>  <SCORE.SYSTEM>
0

>  <SCORE.SYSTEM.CONST>
0

>  <SCORE.SYSTEM.DIHEDRAL>
0

>  <SCORE.SYSTEM.SOLV>
0

>  <SCORE.SYSTEM.norm>
0

>  <SCORE.heavy>
10

>  <SCORE.norm>
-1.65724

>  <RMSD>
2.858

$$$$
ligand
 OpenBabel11021811493D
libRbt.so/2013.1/901 2013/11/27
 10 11  0  0  0  0  0  0  0  0999 V2000
   11.5147   10.8873    5.4101 N   0  0  0  0  0  0  0  0  0  0  0  0
   11.1368   12.1876    5.1893 C   0  0  0  0  0  0  0  0  0  0  0  0
   11.0494   13.0732    6.1949 N   0  0  0  0  0  0  0  0  0  0  0  0
   11.3651   12.5560    7.4003 C   0  0  0  0  0  0  0  0  0  0  0  0
   11.7495   11.2644    7.6857 C   0  0  0  0  0  0  0  0  0  0  0  0
   11.8495   10.3207    6.6440 C   0  0  0  0  0  0  0  0  0  0  0  0
   12.1694    9.1407    6.6865 O   0  0  0  0  0  0  0  0  0  0  0  0
   11.9774   11.1604    9.0266 N   0  0  0  0  0  0  0  0  0  0  0  0
   11.7314   12.3789    9.5522 C   0  0  0  0  0  0  0  0  0  0  0  0
   11.3498   13.2601    8.5732 N   0  0  0  0  0  0  0  0  0  0  0  0
  1  2  1  0  0  0  0
  1  6  1  0  0  0  0
  2  3  2  0  0  0  0
  3  4  1  0  0  0  0
  4  5  2  0  0  0  0
  4 10  1  0  0  0  0
  5  6  1  0  0  0  0
  5  8  1  0  0  0  0
  6  7  2  0  0  0  0
  8  9  1  0  0  0  0
  9 10  2  0  0  0  0
M  END
>  <CHROM.1>
11.59977122,11.57651220,7.22360775,1.44143541,1.27504916,-2.07737253

>  <Name>
ligand

>  <RI>
0

>  <Rbt.Current_Directory>
/home/itssahil/PROJECTS/Mol_Feturizer/New_Systems/rnas/4FEJ

>  <Rbt.Executable>
rbdock ($Id: //depot/dev/client3/rdock/2013.1/src/exe/rbdock.cxx#4 $)

>  <Rbt.Library>
libRbt.so (2013.1, Build901 2013/11/27)

>  <Rbt.Parameter_File>
/export/apps/rDock/src/rDock_2013.1_src/data/scripts/dock_solv.prm

>  <Rbt.Receptor>
prm/blind_docking_80.prm

>  <SCORE>
-16.5923

>  <SCORE.INTER>
-16.5923

>  <SCORE.INTER.CONST>
1

>  <SCORE.INTER.POLAR>
0

>  <SCORE.INTER.ROT>
0

>  <SCORE.INTER.SOLV>
3.71834

>  <SCORE.INTER.VDW>
-15.901

>  <SCORE.INTER.norm>
-1.65923

>  <SCORE.INTRA>
0

>  <SCORE.INTRA.DIHEDRAL>
0

>  <SCORE.INTRA.DIHEDRAL.0>
0

>  <SCORE.INTRA.POLAR>
0

>  <SCORE.INTRA.POLAR.0>
0

>  <SCORE.INTRA.REPUL>
0

>  <SCORE.INTRA.REPUL.0>
0

>  <SCORE.INTRA.SOLV>
0

>  <SCORE.INTRA.SOLV.lig_0>
-4.26631

>  <SCORE.INTRA.VDW>
0

>  <SCORE.INTRA.VDW.0>
0

>  <SCORE.INTRA.norm>
0

>  <SCORE.RESTR>
0

>  <SCORE.RESTR.CAVITY>
0

>  <SCORE.RESTR.norm>
0

>  <SCORE.SYSTEM>
0

>  <SCORE.SYSTEM.CONST>
0

>  <SCORE.SYSTEM.DIHEDRAL>
0

>  <SCORE.SYSTEM.SOLV>
0

>  <SCORE.SYSTEM.norm>
0

>  <SCORE.heavy>
10

>  <SCORE.norm>
-1.65923

>  <RMSD>
2.859

$$$$
ligand
 OpenBabel11021811493D
libRbt.so/2013.1/901 2013/11/27
 10 11  0  0  0  0  0  0  0  0999 V2000
   11.4783   10.8790    5.3987 N   0  0  0  0  0  0  0  0  0  0  0  0
   11.1214   12.1857    5.1804 C   0  0  0  0  0  0  0  0  0  0  0  0
   11.0513   13.0715    6.1871 N   0  0  0  0  0  0  0  0  0  0  0  0
   11.3616   12.5478    7.3911 C   0  0  0  0  0  0  0  0  0  0  0  0
   11.7252   11.2497    7.6741 C   0  0  0  0  0  0  0  0  0  0  0  0
   11.8068   10.3057    6.6312 C   0  0  0  0  0  0  0  0  0  0  0  0
   12.1072    9.1204    6.6716 O   0  0  0  0  0  0  0  0  0  0  0  0
   11.9549   11.1405    9.0144 N   0  0  0  0  0  0  0  0  0  0  0  0
   11.7305   12.3624    9.5419 C   0  0  0  0  0  0  0  0  0  0  0  0
   11.3610   13.2508    8.5647 N   0  0  0  0  0  0  0  0  0  0  0  0
  1  2  1  0  0  0  0
  1  6  1  0  0  0  0
  2  3  2  0  0  0  0
  3  4  1  0  0  0  0
  4  5  2  0  0  0  0
  4 10  1  0  0  0  0
  5  6  1  0  0  0  0
  5  8  1  0  0  0  0
  6  7  2  0  0  0  0
  8  9  1  0  0  0  0
  9 10  2  0  0  0  0
M  END
>  <CHROM.1>
11.57949965,11.56477707,7.21277797,1.47849190,1.28809043,-2.11182855

>  <Name>
ligand

>  <RI>
0

>  <Rbt.Current_Directory>
/home/itssahil/PROJECTS/Mol_Feturizer/New_Systems/rnas/4FEJ

>  <Rbt.Executable>
rbdock ($Id: //depot/dev/client3/rdock/2013.1/src/exe/rbdock.cxx#4 $)

>  <Rbt.Library>
libRbt.so (2013.1, Build901 2013/11/27)

>  <Rbt.Parameter_File>
/export/apps/rDock/src/rDock_2013.1_src/data/scripts/dock_solv.prm

>  <Rbt.Receptor>
prm/blind_docking_60.prm

>  <SCORE>
-16.6238

>  <SCORE.INTER>
-16.6238

>  <SCORE.INTER.CONST>
1

>  <SCORE.INTER.POLAR>
0

>  <SCORE.INTER.ROT>
0

>  <SCORE.INTER.SOLV>
3.79352

>  <SCORE.INTER.VDW>
-15.947

>  <SCORE.INTER.norm>
-1.66238

>  <SCORE.INTRA>
0

>  <SCORE.INTRA.DIHEDRAL>
0

>  <SCORE.INTRA.DIHEDRAL.0>
0

>  <SCORE.INTRA.POLAR>
0

>  <SCORE.INTRA.POLAR.0>
0

>  <SCORE.INTRA.REPUL>
0

>  <SCORE.INTRA.REPUL.0>
0

>  <SCORE.INTRA.SOLV>
0

>  <SCORE.INTRA.SOLV.lig_0>
-4.26631

>  <SCORE.INTRA.VDW>
0

>  <SCORE.INTRA.VDW.0>
0

>  <SCORE.INTRA.norm>
0

>  <SCORE.RESTR>
0

>  <SCORE.RESTR.CAVITY>
0

>  <SCORE.RESTR.norm>
0

>  <SCORE.SYSTEM>
0

>  <SCORE.SYSTEM.CONST>
0

>  <SCORE.SYSTEM.DIHEDRAL>
0

>  <SCORE.SYSTEM.SOLV>
0

>  <SCORE.SYSTEM.norm>
0

>  <SCORE.heavy>
10

>  <SCORE.norm>
-1.66238

>  <RMSD>
2.860

$$$$
ligand
 OpenBabel11021811493D
libRbt.so/2013.1/901 2013/11/27
 10 11  0  0  0  0  0  0  0  0999 V2000
   11.4858   10.8823    5.4053 N   0  0  0  0  0  0  0  0  0  0  0  0
   11.1370   12.1915    5.1890 C   0  0  0  0  0  0  0  0  0  0  0  0
   11.0657   13.0745    6.1981 N   0  0  0  0  0  0  0  0  0  0  0  0
   11.3664   12.5454    7.4023 C   0  0  0  0  0  0  0  0  0  0  0  0
   11.7217   11.2446    7.6832 C   0  0  0  0  0  0  0  0  0  0  0  0
   11.8043   10.3034    6.6378 C   0  0  0  0  0  0  0  0  0  0  0  0
   12.0983    9.1165    6.6761 O   0  0  0  0  0  0  0  0  0  0  0  0
   11.9432   11.1300    9.0243 N   0  0  0  0  0  0  0  0  0  0  0  0
   11.7222   12.3514    9.5544 C   0  0  0  0  0  0  0  0  0  0  0  0
   11.3628   13.2448    8.5780 N   0  0  0  0  0  0  0  0  0  0  0  0
  1  2  1  0  0  0  0
  1  6  1  0  0  0  0
  2  3  2  0  0  0  0
  3  4  1  0  0  0  0
  4  5  2  0  0  0  0
  4 10  1  0  0  0  0
  5  6  1  0  0  0  0
  5  8  1  0  0  0  0
  6  7  2  0  0  0  0
  8  9  1  0  0  0  0
  9 10  2  0  0  0  0
M  END
>  <CHROM.1>
11.58023691,11.56186297,7.22200692,1.47046856,1.29547494,-2.10095762

>  <Name>
ligand

>  <RI>
0

>  <Rbt.Current_Directory>
/home/itssahil/PROJECTS/Mol_Feturizer/New_Systems/rnas/4FEJ

>  <Rbt.Executable>
rbdock ($Id: //depot/dev/client3/rdock/2013.1/src/exe/rbdock.cxx#4 $)

>  <Rbt.Library>
libRbt.so (2013.1, Build901 2013/11/27)

>  <Rbt.Parameter_File>
/export/apps/rDock/src/rDock_2013.1_src/data/scripts/dock_solv.prm

>  <Rbt.Receptor>
prm/blind_docking_80.prm

>  <SCORE>
-16.6257

>  <SCORE.INTER>
-16.6257

>  <SCORE.INTER.CONST>
1

>  <SCORE.INTER.POLAR>
0

>  <SCORE.INTER.ROT>
0

>  <SCORE.INTER.SOLV>
3.81179

>  <SCORE.INTER.VDW>
-15.9544

>  <SCORE.INTER.norm>
-1.66257

>  <SCORE.INTRA>
0

>  <SCORE.INTRA.DIHEDRAL>
0

>  <SCORE.INTRA.DIHEDRAL.0>
0

>  <SCORE.INTRA.POLAR>
0

>  <SCORE.INTRA.POLAR.0>
0

>  <SCORE.INTRA.REPUL>
0

>  <SCORE.INTRA.REPUL.0>
0

>  <SCORE.INTRA.SOLV>
0

>  <SCORE.INTRA.SOLV.lig_0>
-4.26631

>  <SCORE.INTRA.VDW>
0

>  <SCORE.INTRA.VDW.0>
0

>  <SCORE.INTRA.norm>
0

>  <SCORE.RESTR>
0

>  <SCORE.RESTR.CAVITY>
0

>  <SCORE.RESTR.norm>
0

>  <SCORE.SYSTEM>
0

>  <SCORE.SYSTEM.CONST>
0

>  <SCORE.SYSTEM.DIHEDRAL>
0

>  <SCORE.SYSTEM.SOLV>
0

>  <SCORE.SYSTEM.norm>
0

>  <SCORE.heavy>
10

>  <SCORE.norm>
-1.66257

>  <RMSD>
2.861

$$$$
ligand
 OpenBabel11021811493D
libRbt.so/2013.1/901 2013/11/27
 10 11  0  0  0  0  0  0  0  0999 V2000
   11.4878   10.8878    5.3787 N   0  0  0  0  0  0  0  0  0  0  0  0
   11.1386   12.1982    5.1705 C   0  0  0  0  0  0  0  0  0  0  0  0
   11.0665   13.0748    6.1851 N   0  0  0  0  0  0  0  0  0  0  0  0
   11.3668   12.5383    7.3860 C   0  0  0  0  0  0  0  0  0  0  0  0
   11.7224   11.2358    7.6590 C   0  0  0  0  0  0  0  0  0  0  0  0
   11.8059   10.3013    6.6076 C   0  0  0  0  0  0  0  0  0  0  0  0
   12.1003    9.1142    6.6387 O   0  0  0  0  0  0  0  0  0  0  0  0
   11.9432   11.1129    8.9995 N   0  0  0  0  0  0  0  0  0  0  0  0
   11.7215   12.3308    9.5371 C   0  0  0  0  0  0  0  0  0  0  0  0
   11.3623   13.2302    8.5662 N   0  0  0  0  0  0  0  0  0  0  0  0
  1  2  1  0  0  0  0
  1  6  1  0  0  0  0
  2  3  2  0  0  0  0
  3  4  1  0  0  0  0
  4  5  2  0  0  0  0
  4 10  1  0  0  0  0
  5  6  1  0  0  0  0
  5  8  1  0  0  0  0
  6  7  2  0  0  0  0
  8  9  1  0  0  0  0
  9 10  2  0  0  0  0
M  END
>  <CHROM.1>
11.58104079,11.55594103,7.19970962,1.46814288,1.29541145,-2.09241094

>  <Name>
ligand

>  <RI>
0

>  <Rbt.Current_Directory>
/home/itssahil/PROJECTS/Mol_Feturizer/New_Systems/rnas/4FEJ

>  <Rbt.Executable>
rbdock ($Id: //depot/dev/client3/rdock/2013.1/src/exe/rbdock.cxx#4 $)

>  <Rbt.Library>
libRbt.so (2013.1, Build901 2013/11/27)

>  <Rbt.Parameter_File>
/export/apps/rDock/src/rDock_2013.1_src/data/scripts/dock_solv.prm

>  <Rbt.Receptor>
prm/pocket_docking_6.prm

>  <SCORE>
-16.5903

>  <SCORE.INTER>
-16.5903

>  <SCORE.INTER.CONST>
1

>  <SCORE.INTER.POLAR>
0

>  <SCORE.INTER.ROT>
0

>  <SCORE.INTER.SOLV>
3.82498

>  <SCORE.INTER.VDW>
-15.9352

>  <SCORE.INTER.norm>
-1.65903

>  <SCORE.INTRA>
0

>  <SCORE.INTRA.DIHEDRAL>
0

>  <SCORE.INTRA.DIHEDRAL.0>
0

>  <SCORE.INTRA.POLAR>
0

>  <SCORE.INTRA.POLAR.0>
0

>  <SCORE.INTRA.REPUL>
0

>  <SCORE.INTRA.REPUL.0>
0

>  <SCORE.INTRA.SOLV>
0

>  <SCORE.INTRA.SOLV.lig_0>
-4.26631

>  <SCORE.INTRA.VDW>
0

>  <SCORE.INTRA.VDW.0>
0

>  <SCORE.INTRA.norm>
0

>  <SCORE.RESTR>
0

>  <SCORE.RESTR.CAVITY>
0

>  <SCORE.RESTR.norm>
0

>  <SCORE.SYSTEM>
0

>  <SCORE.SYSTEM.CONST>
0

>  <SCORE.SYSTEM.DIHEDRAL>
0

>  <SCORE.SYSTEM.SOLV>
0

>  <SCORE.SYSTEM.norm>
0

>  <SCORE.heavy>
10

>  <SCORE.norm>
-1.65903

>  <RMSD>
2.861

$$$$
ligand
 OpenBabel11021811493D
libRbt.so/2013.1/901 2013/11/27
 10 11  0  0  0  0  0  0  0  0999 V2000
   11.4631   10.9179    5.3685 N   0  0  0  0  0  0  0  0  0  0  0  0
   11.0958   12.2242    5.1655 C   0  0  0  0  0  0  0  0  0  0  0  0
   11.0255   13.0993    6.1815 N   0  0  0  0  0  0  0  0  0  0  0  0
   11.3464   12.5657    7.3784 C   0  0  0  0  0  0  0  0  0  0  0  0
   11.7207   11.2674    7.6461 C   0  0  0  0  0  0  0  0  0  0  0  0
   11.8028   10.3345    6.5932 C   0  0  0  0  0  0  0  0  0  0  0  0
   12.1116    9.1510    6.6199 O   0  0  0  0  0  0  0  0  0  0  0  0
   11.9590   11.1463    8.9838 N   0  0  0  0  0  0  0  0  0  0  0  0
   11.7293   12.3611    9.5249 C   0  0  0  0  0  0  0  0  0  0  0  0
   11.3478   13.2568    8.5590 N   0  0  0  0  0  0  0  0  0  0  0  0
  1  2  1  0  0  0  0
  1  6  1  0  0  0  0
  2  3  2  0  0  0  0
  3  4  1  0  0  0  0
  4  5  2  0  0  0  0
  4 10  1  0  0  0  0
  5  6  1  0  0  0  0
  5  8  1  0  0  0  0
  6  7  2  0  0  0  0
  8  9  1  0  0  0  0
  9 10  2  0  0  0  0
M  END
>  <CHROM.1>
11.57012454,11.58603411,7.18878593,1.48354540,1.27911798,-2.10656384

>  <Name>
ligand

>  <RI>
0

>  <Rbt.Current_Directory>
/home/itssahil/PROJECTS/Mol_Feturizer/New_Systems/rnas/4FEJ

>  <Rbt.Executable>
rbdock ($Id: //depot/dev/client3/rdock/2013.1/src/exe/rbdock.cxx#4 $)

>  <Rbt.Library>
libRbt.so (2013.1, Build901 2013/11/27)

>  <Rbt.Parameter_File>
/export/apps/rDock/src/rDock_2013.1_src/data/scripts/dock_solv.prm

>  <Rbt.Receptor>
prm/pocket_docking_7.prm

>  <SCORE>
-16.6533

>  <SCORE.INTER>
-16.6533

>  <SCORE.INTER.CONST>
1

>  <SCORE.INTER.POLAR>
0

>  <SCORE.INTER.ROT>
0

>  <SCORE.INTER.SOLV>
3.79787

>  <SCORE.INTER.VDW>
-15.9682

>  <SCORE.INTER.norm>
-1.66533

>  <SCORE.INTRA>
0

>  <SCORE.INTRA.DIHEDRAL>
0

>  <SCORE.INTRA.DIHEDRAL.0>
0

>  <SCORE.INTRA.POLAR>
0

>  <SCORE.INTRA.POLAR.0>
0

>  <SCORE.INTRA.REPUL>
0

>  <SCORE.INTRA.REPUL.0>
0

>  <SCORE.INTRA.SOLV>
0

>  <SCORE.INTRA.SOLV.lig_0>
-4.26631

>  <SCORE.INTRA.VDW>
0

>  <SCORE.INTRA.VDW.0>
0

>  <SCORE.INTRA.norm>
0

>  <SCORE.RESTR>
0

>  <SCORE.RESTR.CAVITY>
0

>  <SCORE.RESTR.norm>
0

>  <SCORE.SYSTEM>
0

>  <SCORE.SYSTEM.CONST>
0

>  <SCORE.SYSTEM.DIHEDRAL>
0

>  <SCORE.SYSTEM.SOLV>
0

>  <SCORE.SYSTEM.norm>
0

>  <SCORE.heavy>
10

>  <SCORE.norm>
-1.66533

>  <RMSD>
2.861

$$$$
ligand
 OpenBabel11021811493D
libRbt.so/2013.1/901 2013/11/27
 10 11  0  0  0  0  0  0  0  0999 V2000
   11.4469   10.9174    5.3680 N   0  0  0  0  0  0  0  0  0  0  0  0
   11.0815   12.2245    5.1668 C   0  0  0  0  0  0  0  0  0  0  0  0
   11.0178   13.0996    6.1832 N   0  0  0  0  0  0  0  0  0  0  0  0
   11.3434   12.5653    7.3785 C   0  0  0  0  0  0  0  0  0  0  0  0
   11.7162   11.2662    7.6443 C   0  0  0  0  0  0  0  0  0  0  0  0
   11.7912   10.3332    6.5910 C   0  0  0  0  0  0  0  0  0  0  0  0
   12.0977    9.1490    6.6161 O   0  0  0  0  0  0  0  0  0  0  0  0
   11.9607   11.1445    8.9808 N   0  0  0  0  0  0  0  0  0  0  0  0
   11.7361   12.3598    9.5232 C   0  0  0  0  0  0  0  0  0  0  0  0
   11.3519   13.2563    8.5591 N   0  0  0  0  0  0  0  0  0  0  0  0
  1  2  1  0  0  0  0
  1  6  1  0  0  0  0
  2  3  2  0  0  0  0
  3  4  1  0  0  0  0
  4  5  2  0  0  0  0
  4 10  1  0  0  0  0
  5  6  1  0  0  0  0
  5  8  1  0  0  0  0
  6  7  2  0  0  0  0
  8  9  1  0  0  0  0
  9 10  2  0  0  0  0
M  END
>  <CHROM.1>
11.56410601,11.58518536,7.18776123,1.50161103,1.27844789,-2.12378960

>  <Name>
ligand

>  <RI>
0

>  <Rbt.Current_Directory>
/home/itssahil/PROJECTS/Mol_Feturizer/New_Systems/rnas/4FEJ

>  <Rbt.Executable>
rbdock ($Id: //depot/dev/client3/rdock/2013.1/src/exe/rbdock.cxx#4 $)

>  <Rbt.Library>
libRbt.so (2013.1, Build901 2013/11/27)

>  <Rbt.Parameter_File>
/export/apps/rDock/src/rDock_2013.1_src/data/scripts/dock_solv.prm

>  <Rbt.Receptor>
prm/blind_docking_100.prm

>  <SCORE>
-16.6578

>  <SCORE.INTER>
-16.6578

>  <SCORE.INTER.CONST>
1

>  <SCORE.INTER.POLAR>
0

>  <SCORE.INTER.ROT>
0

>  <SCORE.INTER.SOLV>
3.80916

>  <SCORE.INTER.VDW>
-15.9749

>  <SCORE.INTER.norm>
-1.66578

>  <SCORE.INTRA>
0

>  <SCORE.INTRA.DIHEDRAL>
0

>  <SCORE.INTRA.DIHEDRAL.0>
0

>  <SCORE.INTRA.POLAR>
0

>  <SCORE.INTRA.POLAR.0>
0

>  <SCORE.INTRA.REPUL>
0

>  <SCORE.INTRA.REPUL.0>
0

>  <SCORE.INTRA.SOLV>
0

>  <SCORE.INTRA.SOLV.lig_0>
-4.26631

>  <SCORE.INTRA.VDW>
0

>  <SCORE.INTRA.VDW.0>
0

>  <SCORE.INTRA.norm>
0

>  <SCORE.RESTR>
0

>  <SCORE.RESTR.CAVITY>
0

>  <SCORE.RESTR.norm>
0

>  <SCORE.SYSTEM>
0

>  <SCORE.SYSTEM.CONST>
0

>  <SCORE.SYSTEM.DIHEDRAL>
0

>  <SCORE.SYSTEM.SOLV>
0

>  <SCORE.SYSTEM.norm>
0

>  <SCORE.heavy>
10

>  <SCORE.norm>
-1.66578

>  <RMSD>
2.862

$$$$
ligand
 OpenBabel11021811493D
libRbt.so/2013.1/901 2013/11/27
 10 11  0  0  0  0  0  0  0  0999 V2000
   11.4959   10.9231    5.3875 N   0  0  0  0  0  0  0  0  0  0  0  0
   11.1287   12.2301    5.1887 C   0  0  0  0  0  0  0  0  0  0  0  0
   11.0563   13.1014    6.2078 N   0  0  0  0  0  0  0  0  0  0  0  0
   11.3754   12.5635    7.4032 C   0  0  0  0  0  0  0  0  0  0  0  0
   11.7496   11.2643    7.6668 C   0  0  0  0  0  0  0  0  0  0  0  0
   11.8337   10.3353    6.6106 C   0  0  0  0  0  0  0  0  0  0  0  0
   12.1428    9.1518    6.6335 O   0  0  0  0  0  0  0  0  0  0  0  0
   11.9856   11.1383    9.0045 N   0  0  0  0  0  0  0  0  0  0  0  0
   11.7546   12.3511    9.5497 C   0  0  0  0  0  0  0  0  0  0  0  0
   11.3746   13.2502    8.5864 N   0  0  0  0  0  0  0  0  0  0  0  0
  1  2  1  0  0  0  0
  1  6  1  0  0  0  0
  2  3  2  0  0  0  0
  3  4  1  0  0  0  0
  4  5  2  0  0  0  0
  4 10  1  0  0  0  0
  5  6  1  0  0  0  0
  5  8  1  0  0  0  0
  6  7  2  0  0  0  0
  8  9  1  0  0  0  0
  9 10  2  0  0  0  0
M  END
>  <CHROM.1>
11.59967297,11.58459743,7.21043711,1.47796548,1.27974476,-2.09753309

>  <Name>
ligand

>  <RI>
0

>  <Rbt.Current_Directory>
/home/itssahil/PROJECTS/Mol_Feturizer/New_Systems/rnas/4FEJ

>  <Rbt.Executable>
rbdock ($Id: //depot/dev/client3/rdock/2013.1/src/exe/rbdock.cxx#4 $)

>  <Rbt.Library>
libRbt.so (2013.1, Build901 2013/11/27)

>  <Rbt.Parameter_File>
/export/apps/rDock/src/rDock_2013.1_src/data/scripts/dock_solv.prm

>  <Rbt.Receptor>
prm/blind_docking_60.prm

>  <SCORE>
-16.6497

>  <SCORE.INTER>
-16.6497

>  <SCORE.INTER.CONST>
1

>  <SCORE.INTER.POLAR>
0

>  <SCORE.INTER.ROT>
0

>  <SCORE.INTER.SOLV>
3.76813

>  <SCORE.INTER.VDW>
-15.9558

>  <SCORE.INTER.norm>
-1.66497

>  <SCORE.INTRA>
0

>  <SCORE.INTRA.DIHEDRAL>
0

>  <SCORE.INTRA.DIHEDRAL.0>
0

>  <SCORE.INTRA.POLAR>
0

>  <SCORE.INTRA.POLAR.0>
0

>  <SCORE.INTRA.REPUL>
0

>  <SCORE.INTRA.REPUL.0>
0

>  <SCORE.INTRA.SOLV>
0

>  <SCORE.INTRA.SOLV.lig_0>
-4.26631

>  <SCORE.INTRA.VDW>
0

>  <SCORE.INTRA.VDW.0>
0

>  <SCORE.INTRA.norm>
0

>  <SCORE.RESTR>
0

>  <SCORE.RESTR.CAVITY>
0

>  <SCORE.RESTR.norm>
0

>  <SCORE.SYSTEM>
0

>  <SCORE.SYSTEM.CONST>
0

>  <SCORE.SYSTEM.DIHEDRAL>
0

>  <SCORE.SYSTEM.SOLV>
0

>  <SCORE.SYSTEM.norm>
0

>  <SCORE.heavy>
10

>  <SCORE.norm>
-1.66497

>  <RMSD>
2.863

$$$$
ligand
 OpenBabel11021811493D
libRbt.so/2013.1/901 2013/11/27
 10 11  0  0  0  0  0  0  0  0999 V2000
   11.4676   10.9093    5.4049 N   0  0  0  0  0  0  0  0  0  0  0  0
   11.1066   12.2166    5.1971 C   0  0  0  0  0  0  0  0  0  0  0  0
   11.0482   13.0976    6.2088 N   0  0  0  0  0  0  0  0  0  0  0  0
   11.3741   12.5686    7.4064 C   0  0  0  0  0  0  0  0  0  0  0  0
   11.7426   11.2697    7.6787 C   0  0  0  0  0  0  0  0  0  0  0  0
   11.8122   10.3306    6.6304 C   0  0  0  0  0  0  0  0  0  0  0  0
   12.1144    9.1455    6.6614 O   0  0  0  0  0  0  0  0  0  0  0  0
   11.9893   11.1544    9.0154 N   0  0  0  0  0  0  0  0  0  0  0  0
   11.7702   12.3735    9.5514 C   0  0  0  0  0  0  0  0  0  0  0  0
   11.3875   13.2661    8.5832 N   0  0  0  0  0  0  0  0  0  0  0  0
  1  2  1  0  0  0  0
  1  6  1  0  0  0  0
  2  3  2  0  0  0  0
  3  4  1  0  0  0  0
  4  5  2  0  0  0  0
  4 10  1  0  0  0  0
  5  6  1  0  0  0  0
  5  8  1  0  0  0  0
  6  7  2  0  0  0  0
  8  9  1  0  0  0  0
  9 10  2  0  0  0  0
M  END
>  <CHROM.1>
11.59083174,11.58669156,7.22069072,1.51411300,1.28053344,-2.14128204

>  <Name>
ligand

>  <RI>
0

>  <Rbt.Current_Directory>
/home/itssahil/PROJECTS/Mol_Feturizer/New_Systems/rnas/4FEJ

>  <Rbt.Executable>
rbdock ($Id: //depot/dev/client3/rdock/2013.1/src/exe/rbdock.cxx#4 $)

>  <Rbt.Library>
libRbt.so (2013.1, Build901 2013/11/27)

>  <Rbt.Parameter_File>
/export/apps/rDock/src/rDock_2013.1_src/data/scripts/dock_solv.prm

>  <Rbt.Receptor>
prm/blind_docking_80.prm

>  <SCORE>
-16.6691

>  <SCORE.INTER>
-16.6691

>  <SCORE.INTER.CONST>
1

>  <SCORE.INTER.POLAR>
0

>  <SCORE.INTER.ROT>
0

>  <SCORE.INTER.SOLV>
3.78009

>  <SCORE.INTER.VDW>
-15.9728

>  <SCORE.INTER.norm>
-1.66691

>  <SCORE.INTRA>
0

>  <SCORE.INTRA.DIHEDRAL>
0

>  <SCORE.INTRA.DIHEDRAL.0>
0

>  <SCORE.INTRA.POLAR>
0

>  <SCORE.INTRA.POLAR.0>
0

>  <SCORE.INTRA.REPUL>
0

>  <SCORE.INTRA.REPUL.0>
0

>  <SCORE.INTRA.SOLV>
0

>  <SCORE.INTRA.SOLV.lig_0>
-4.26631

>  <SCORE.INTRA.VDW>
0

>  <SCORE.INTRA.VDW.0>
0

>  <SCORE.INTRA.norm>
0

>  <SCORE.RESTR>
0

>  <SCORE.RESTR.CAVITY>
0

>  <SCORE.RESTR.norm>
0

>  <SCORE.SYSTEM>
0

>  <SCORE.SYSTEM.CONST>
0

>  <SCORE.SYSTEM.DIHEDRAL>
0

>  <SCORE.SYSTEM.SOLV>
0

>  <SCORE.SYSTEM.norm>
0

>  <SCORE.heavy>
10

>  <SCORE.norm>
-1.66691

>  <RMSD>
2.863

$$$$
ligand
 OpenBabel11021811493D
libRbt.so/2013.1/901 2013/11/27
 10 11  0  0  0  0  0  0  0  0999 V2000
   11.4678   10.9152    5.4077 N   0  0  0  0  0  0  0  0  0  0  0  0
   11.1180   12.2251    5.1971 C   0  0  0  0  0  0  0  0  0  0  0  0
   11.0620   13.1075    6.2077 N   0  0  0  0  0  0  0  0  0  0  0  0
   11.3785   12.5772    7.4072 C   0  0  0  0  0  0  0  0  0  0  0  0
   11.7358   11.2757    7.6823 C   0  0  0  0  0  0  0  0  0  0  0  0
   11.8026   10.3350    6.6352 C   0  0  0  0  0  0  0  0  0  0  0  0
   12.0953    9.1476    6.6687 O   0  0  0  0  0  0  0  0  0  0  0  0
   11.9756   11.1598    9.0202 N   0  0  0  0  0  0  0  0  0  0  0  0
   11.7638   12.3811    9.5541 C   0  0  0  0  0  0  0  0  0  0  0  0
   11.3923   13.2757    8.5834 N   0  0  0  0  0  0  0  0  0  0  0  0
  1  2  1  0  0  0  0
  1  6  1  0  0  0  0
  2  3  2  0  0  0  0
  3  4  1  0  0  0  0
  4  5  2  0  0  0  0
  4 10  1  0  0  0  0
  5  6  1  0  0  0  0
  5  8  1  0  0  0  0
  6  7  2  0  0  0  0
  8  9  1  0  0  0  0
  9 10  2  0  0  0  0
M  END
>  <CHROM.1>
11.58841873,11.59341776,7.22335668,1.51612932,1.28945422,-2.14419680

>  <Name>
ligand

>  <RI>
0

>  <Rbt.Current_Directory>
/home/itssahil/PROJECTS/Mol_Feturizer/New_Systems/rnas/4FEJ

>  <Rbt.Executable>
rbdock ($Id: //depot/dev/client3/rdock/2013.1/src/exe/rbdock.cxx#4 $)

>  <Rbt.Library>
libRbt.so (2013.1, Build901 2013/11/27)

>  <Rbt.Parameter_File>
/export/apps/rDock/src/rDock_2013.1_src/data/scripts/dock_solv.prm

>  <Rbt.Receptor>
prm/blind_docking_40.prm

>  <SCORE>
-16.6688

>  <SCORE.INTER>
-16.6688

>  <SCORE.INTER.CONST>
1

>  <SCORE.INTER.POLAR>
0

>  <SCORE.INTER.ROT>
0

>  <SCORE.INTER.SOLV>
3.80439

>  <SCORE.INTER.VDW>
-15.9807

>  <SCORE.INTER.norm>
-1.66688

>  <SCORE.INTRA>
0

>  <SCORE.INTRA.DIHEDRAL>
0

>  <SCORE.INTRA.DIHEDRAL.0>
0

>  <SCORE.INTRA.POLAR>
0

>  <SCORE.INTRA.POLAR.0>
0

>  <SCORE.INTRA.REPUL>
0

>  <SCORE.INTRA.REPUL.0>
0

>  <SCORE.INTRA.SOLV>
0

>  <SCORE.INTRA.SOLV.lig_0>
-4.26631

>  <SCORE.INTRA.VDW>
0

>  <SCORE.INTRA.VDW.0>
0

>  <SCORE.INTRA.norm>
0

>  <SCORE.RESTR>
0

>  <SCORE.RESTR.CAVITY>
0

>  <SCORE.RESTR.norm>
0

>  <SCORE.SYSTEM>
0

>  <SCORE.SYSTEM.CONST>
0

>  <SCORE.SYSTEM.DIHEDRAL>
0

>  <SCORE.SYSTEM.SOLV>
0

>  <SCORE.SYSTEM.norm>
0

>  <SCORE.heavy>
10

>  <SCORE.norm>
-1.66688

>  <RMSD>
2.864

$$$$
ligand
 OpenBabel11021811493D
libRbt.so/2013.1/901 2013/11/27
 10 11  0  0  0  0  0  0  0  0999 V2000
   11.4753   10.9135    5.4109 N   0  0  0  0  0  0  0  0  0  0  0  0
   11.1240   12.2241    5.2075 C   0  0  0  0  0  0  0  0  0  0  0  0
   11.0613   13.0996    6.2237 N   0  0  0  0  0  0  0  0  0  0  0  0
   11.3730   12.5618    7.4211 C   0  0  0  0  0  0  0  0  0  0  0  0
   11.7313   11.2591    7.6893 C   0  0  0  0  0  0  0  0  0  0  0  0
   11.8050   10.3257    6.6363 C   0  0  0  0  0  0  0  0  0  0  0  0
   12.0999    9.1386    6.6633 O   0  0  0  0  0  0  0  0  0  0  0  0
   11.9648   11.1348    9.0275 N   0  0  0  0  0  0  0  0  0  0  0  0
   11.7480   12.3521    9.5685 C   0  0  0  0  0  0  0  0  0  0  0  0
   11.3795   13.2525    8.6020 N   0  0  0  0  0  0  0  0  0  0  0  0
  1  2  1  0  0  0  0
  1  6  1  0  0  0  0
  2  3  2  0  0  0  0
  3  4  1  0  0  0  0
  4  5  2  0  0  0  0
  4 10  1  0  0  0  0
  5  6  1  0  0  0  0
  5  8  1  0  0  0  0
  6  7  2  0  0  0  0
  8  9  1  0  0  0  0
  9 10  2  0  0  0  0
M  END
>  <CHROM.1>
11.58561370,11.57968734,7.23172884,1.49740697,1.29049434,-2.11949866

>  <Name>
ligand

>  <RI>
0

>  <Rbt.Current_Directory>
/home/itssahil/PROJECTS/Mol_Feturizer/New_Systems/rnas/4FEJ

>  <Rbt.Executable>
rbdock ($Id: //depot/dev/client3/rdock/2013.1/src/exe/rbdock.cxx#4 $)

>  <Rbt.Library>
libRbt.so (2013.1, Build901 2013/11/27)

>  <Rbt.Parameter_File>
/export/apps/rDock/src/rDock_2013.1_src/data/scripts/dock_solv.prm

>  <Rbt.Receptor>
prm/blind_docking_60.prm

>  <SCORE>
-16.6299

>  <SCORE.INTER>
-16.6299

>  <SCORE.INTER.CONST>
1

>  <SCORE.INTER.POLAR>
0

>  <SCORE.INTER.ROT>
0

>  <SCORE.INTER.SOLV>
3.80865

>  <SCORE.INTER.VDW>
-15.9562

>  <SCORE.INTER.norm>
-1.66299

>  <SCORE.INTRA>
0

>  <SCORE.INTRA.DIHEDRAL>
0

>  <SCORE.INTRA.DIHEDRAL.0>
0

>  <SCORE.INTRA.POLAR>
0

>  <SCORE.INTRA.POLAR.0>
0

>  <SCORE.INTRA.REPUL>
0

>  <SCORE.INTRA.REPUL.0>
0

>  <SCORE.INTRA.SOLV>
0

>  <SCORE.INTRA.SOLV.lig_0>
-4.26631

>  <SCORE.INTRA.VDW>
0

>  <SCORE.INTRA.VDW.0>
0

>  <SCORE.INTRA.norm>
0

>  <SCORE.RESTR>
0

>  <SCORE.RESTR.CAVITY>
0

>  <SCORE.RESTR.norm>
0

>  <SCORE.SYSTEM>
0

>  <SCORE.SYSTEM.CONST>
0

>  <SCORE.SYSTEM.DIHEDRAL>
0

>  <SCORE.SYSTEM.SOLV>
0

>  <SCORE.SYSTEM.norm>
0

>  <SCORE.heavy>
10

>  <SCORE.norm>
-1.66299

>  <RMSD>
2.864

$$$$
ligand
 OpenBabel11021811493D
libRbt.so/2013.1/901 2013/11/27
 10 11  0  0  0  0  0  0  0  0999 V2000
   11.4811   10.9045    5.4120 N   0  0  0  0  0  0  0  0  0  0  0  0
   11.1376   12.2165    5.2045 C   0  0  0  0  0  0  0  0  0  0  0  0
   11.0751   13.0942    6.2188 N   0  0  0  0  0  0  0  0  0  0  0  0
   11.3786   12.5570    7.4186 C   0  0  0  0  0  0  0  0  0  0  0  0
   11.7288   11.2529    7.6908 C   0  0  0  0  0  0  0  0  0  0  0  0
   11.8023   10.3172    6.6398 C   0  0  0  0  0  0  0  0  0  0  0  0
   12.0907    9.1287    6.6703 O   0  0  0  0  0  0  0  0  0  0  0  0
   11.9557   11.1298    9.0303 N   0  0  0  0  0  0  0  0  0  0  0  0
   11.7429   12.3492    9.5681 C   0  0  0  0  0  0  0  0  0  0  0  0
   11.3836   13.2498    8.5983 N   0  0  0  0  0  0  0  0  0  0  0  0
  1  2  1  0  0  0  0
  1  6  1  0  0  0  0
  2  3  2  0  0  0  0
  3  4  1  0  0  0  0
  4  5  2  0  0  0  0
  4 10  1  0  0  0  0
  5  6  1  0  0  0  0
  5  8  1  0  0  0  0
  6  7  2  0  0  0  0
  8  9  1  0  0  0  0
  9 10  2  0  0  0  0
M  END
>  <CHROM.1>
11.58686627,11.57342156,7.23199362,1.49361603,1.29731753,-2.11768452

>  <Name>
ligand

>  <RI>
0

>  <Rbt.Current_Directory>
/home/itssahil/PROJECTS/Mol_Feturizer/New_Systems/rnas/4FEJ

>  <Rbt.Executable>
rbdock ($Id: //depot/dev/client3/rdock/2013.1/src/exe/rbdock.cxx#4 $)

>  <Rbt.Library>
libRbt.so (2013.1, Build901 2013/11/27)

>  <Rbt.Parameter_File>
/export/apps/rDock/src/rDock_2013.1_src/data/scripts/dock_solv.prm

>  <Rbt.Receptor>
prm/blind_docking_80.prm

>  <SCORE>
-16.6006

>  <SCORE.INTER>
-16.6006

>  <SCORE.INTER.CONST>
1

>  <SCORE.INTER.POLAR>
0

>  <SCORE.INTER.ROT>
0

>  <SCORE.INTER.SOLV>
3.82265

>  <SCORE.INTER.VDW>
-15.9413

>  <SCORE.INTER.norm>
-1.66006

>  <SCORE.INTRA>
0

>  <SCORE.INTRA.DIHEDRAL>
0

>  <SCORE.INTRA.DIHEDRAL.0>
0

>  <SCORE.INTRA.POLAR>
0

>  <SCORE.INTRA.POLAR.0>
0

>  <SCORE.INTRA.REPUL>
0

>  <SCORE.INTRA.REPUL.0>
0

>  <SCORE.INTRA.SOLV>
0

>  <SCORE.INTRA.SOLV.lig_0>
-4.26631

>  <SCORE.INTRA.VDW>
0

>  <SCORE.INTRA.VDW.0>
0

>  <SCORE.INTRA.norm>
0

>  <SCORE.RESTR>
0

>  <SCORE.RESTR.CAVITY>
0

>  <SCORE.RESTR.norm>
0

>  <SCORE.SYSTEM>
0

>  <SCORE.SYSTEM.CONST>
0

>  <SCORE.SYSTEM.DIHEDRAL>
0

>  <SCORE.SYSTEM.SOLV>
0

>  <SCORE.SYSTEM.norm>
0

>  <SCORE.heavy>
10

>  <SCORE.norm>
-1.66006

>  <RMSD>
2.864

$$$$
ligand
 OpenBabel11021811493D
libRbt.so/2013.1/901 2013/11/27
 10 11  0  0  0  0  0  0  0  0999 V2000
   11.4717   10.9224    5.4063 N   0  0  0  0  0  0  0  0  0  0  0  0
   11.0980   12.2274    5.2067 C   0  0  0  0  0  0  0  0  0  0  0  0
   11.0328   13.1019    6.2236 N   0  0  0  0  0  0  0  0  0  0  0  0
   11.3656   12.5691    7.4176 C   0  0  0  0  0  0  0  0  0  0  0  0
   11.7469   11.2722    7.6818 C   0  0  0  0  0  0  0  0  0  0  0  0
   11.8237   10.3399    6.6279 C   0  0  0  0  0  0  0  0  0  0  0  0
   12.1372    9.1576    6.6517 O   0  0  0  0  0  0  0  0  0  0  0  0
   11.9967   11.1515    9.0174 N   0  0  0  0  0  0  0  0  0  0  0  0
   11.7669   12.3654    9.5608 C   0  0  0  0  0  0  0  0  0  0  0  0
   11.3742   13.2599    8.5984 N   0  0  0  0  0  0  0  0  0  0  0  0
  1  2  1  0  0  0  0
  1  6  1  0  0  0  0
  2  3  2  0  0  0  0
  3  4  1  0  0  0  0
  4  5  2  0  0  0  0
  4 10  1  0  0  0  0
  5  6  1  0  0  0  0
  5  8  1  0  0  0  0
  6  7  2  0  0  0  0
  8  9  1  0  0  0  0
  9 10  2  0  0  0  0
M  END
>  <CHROM.1>
11.59135006,11.59039307,7.22584839,1.50122302,1.27166338,-2.12316103

>  <Name>
ligand

>  <RI>
0

>  <Rbt.Current_Directory>
/home/itssahil/PROJECTS/Mol_Feturizer/New_Systems/rnas/4FEJ

>  <Rbt.Executable>
rbdock ($Id: //depot/dev/client3/rdock/2013.1/src/exe/rbdock.cxx#4 $)

>  <Rbt.Library>
libRbt.so (2013.1, Build901 2013/11/27)

>  <Rbt.Parameter_File>
/export/apps/rDock/src/rDock_2013.1_src/data/scripts/dock_solv.prm

>  <Rbt.Receptor>
prm/pocket_docking_5.prm

>  <SCORE>
-16.6546

>  <SCORE.INTER>
-16.6546

>  <SCORE.INTER.CONST>
1

>  <SCORE.INTER.POLAR>
0

>  <SCORE.INTER.ROT>
0

>  <SCORE.INTER.SOLV>
3.75545

>  <SCORE.INTER.VDW>
-15.9549

>  <SCORE.INTER.norm>
-1.66546

>  <SCORE.INTRA>
0

>  <SCORE.INTRA.DIHEDRAL>
0

>  <SCORE.INTRA.DIHEDRAL.0>
0

>  <SCORE.INTRA.POLAR>
0

>  <SCORE.INTRA.POLAR.0>
0

>  <SCORE.INTRA.REPUL>
0

>  <SCORE.INTRA.REPUL.0>
0

>  <SCORE.INTRA.SOLV>
0

>  <SCORE.INTRA.SOLV.lig_0>
-4.26631

>  <SCORE.INTRA.VDW>
0

>  <SCORE.INTRA.VDW.0>
0

>  <SCORE.INTRA.norm>
0

>  <SCORE.RESTR>
0

>  <SCORE.RESTR.CAVITY>
0

>  <SCORE.RESTR.norm>
0

>  <SCORE.SYSTEM>
0

>  <SCORE.SYSTEM.CONST>
0

>  <SCORE.SYSTEM.DIHEDRAL>
0

>  <SCORE.SYSTEM.SOLV>
0

>  <SCORE.SYSTEM.norm>
0

>  <SCORE.heavy>
10

>  <SCORE.norm>
-1.66546

>  <RMSD>
2.864

$$$$
ligand
 OpenBabel11021811493D
libRbt.so/2013.1/901 2013/11/27
 10 11  0  0  0  0  0  0  0  0999 V2000
   11.5033   10.9107    5.4303 N   0  0  0  0  0  0  0  0  0  0  0  0
   11.1319   12.2149    5.2213 C   0  0  0  0  0  0  0  0  0  0  0  0
   11.0565   13.0938    6.2337 N   0  0  0  0  0  0  0  0  0  0  0  0
   11.3770   12.5661    7.4333 C   0  0  0  0  0  0  0  0  0  0  0  0
   11.7553   11.2702    7.7070 C   0  0  0  0  0  0  0  0  0  0  0  0
   11.8427   10.3334    6.6580 C   0  0  0  0  0  0  0  0  0  0  0  0
   12.1556    9.1511    6.6900 O   0  0  0  0  0  0  0  0  0  0  0  0
   11.9914   11.1553    9.0456 N   0  0  0  0  0  0  0  0  0  0  0  0
   11.7564   12.3715    9.5814 C   0  0  0  0  0  0  0  0  0  0  0  0
   11.3737   13.2620    8.6112 N   0  0  0  0  0  0  0  0  0  0  0  0
  1  2  1  0  0  0  0
  1  6  1  0  0  0  0
  2  3  2  0  0  0  0
  3  4  1  0  0  0  0
  4  5  2  0  0  0  0
  4 10  1  0  0  0  0
  5  6  1  0  0  0  0
  5  8  1  0  0  0  0
  6  7  2  0  0  0  0
  8  9  1  0  0  0  0
  9 10  2  0  0  0  0
M  END
>  <CHROM.1>
11.60446354,11.58652086,7.24811573,1.47160230,1.27708812,-2.09912994

>  <Name>
ligand

>  <RI>
0

>  <Rbt.Current_Directory>
/home/itssahil/PROJECTS/Mol_Feturizer/New_Systems/rnas/4FEJ

>  <Rbt.Executable>
rbdock ($Id: //depot/dev/client3/rdock/2013.1/src/exe/rbdock.cxx#4 $)

>  <Rbt.Library>
libRbt.so (2013.1, Build901 2013/11/27)

>  <Rbt.Parameter_File>
/export/apps/rDock/src/rDock_2013.1_src/data/scripts/dock_solv.prm

>  <Rbt.Receptor>
prm/pocket_docking_5.prm

>  <SCORE>
-16.6099

>  <SCORE.INTER>
-16.6099

>  <SCORE.INTER.CONST>
1

>  <SCORE.INTER.POLAR>
0

>  <SCORE.INTER.ROT>
0

>  <SCORE.INTER.SOLV>
3.73377

>  <SCORE.INTER.VDW>
-15.9178

>  <SCORE.INTER.norm>
-1.66099

>  <SCORE.INTRA>
0

>  <SCORE.INTRA.DIHEDRAL>
0

>  <SCORE.INTRA.DIHEDRAL.0>
0

>  <SCORE.INTRA.POLAR>
0

>  <SCORE.INTRA.POLAR.0>
0

>  <SCORE.INTRA.REPUL>
0

>  <SCORE.INTRA.REPUL.0>
0

>  <SCORE.INTRA.SOLV>
0

>  <SCORE.INTRA.SOLV.lig_0>
-4.26631

>  <SCORE.INTRA.VDW>
0

>  <SCORE.INTRA.VDW.0>
0

>  <SCORE.INTRA.norm>
0

>  <SCORE.RESTR>
0

>  <SCORE.RESTR.CAVITY>
0

>  <SCORE.RESTR.norm>
0

>  <SCORE.SYSTEM>
0

>  <SCORE.SYSTEM.CONST>
0

>  <SCORE.SYSTEM.DIHEDRAL>
0

>  <SCORE.SYSTEM.SOLV>
0

>  <SCORE.SYSTEM.norm>
0

>  <SCORE.heavy>
10

>  <SCORE.norm>
-1.66099

>  <RMSD>
2.864

$$$$
ligand
 OpenBabel11021811493D
libRbt.so/2013.1/901 2013/11/27
 10 11  0  0  0  0  0  0  0  0999 V2000
   11.4574   10.8990    5.4154 N   0  0  0  0  0  0  0  0  0  0  0  0
   11.0836   12.2038    5.2148 C   0  0  0  0  0  0  0  0  0  0  0  0
   11.0236   13.0805    6.2301 N   0  0  0  0  0  0  0  0  0  0  0  0
   11.3615   12.5500    7.4237 C   0  0  0  0  0  0  0  0  0  0  0  0
   11.7432   11.2534    7.6888 C   0  0  0  0  0  0  0  0  0  0  0  0
   11.8146   10.3188    6.6366 C   0  0  0  0  0  0  0  0  0  0  0  0
   12.1273    9.1363    6.6614 O   0  0  0  0  0  0  0  0  0  0  0  0
   11.9990   11.1354    9.0236 N   0  0  0  0  0  0  0  0  0  0  0  0
   11.7725   12.3505    9.5655 C   0  0  0  0  0  0  0  0  0  0  0  0
   11.3760   13.2433    8.6030 N   0  0  0  0  0  0  0  0  0  0  0  0
  1  2  1  0  0  0  0
  1  6  1  0  0  0  0
  2  3  2  0  0  0  0
  3  4  1  0  0  0  0
  4  5  2  0  0  0  0
  4 10  1  0  0  0  0
  5  6  1  0  0  0  0
  5  8  1  0  0  0  0
  6  7  2  0  0  0  0
  8  9  1  0  0  0  0
  9 10  2  0  0  0  0
M  END
>  <CHROM.1>
11.58575062,11.57074281,7.23294091,1.51546943,1.26980639,-2.13887267

>  <Name>
ligand

>  <RI>
0

>  <Rbt.Current_Directory>
/home/itssahil/PROJECTS/Mol_Feturizer/New_Systems/rnas/4FEJ

>  <Rbt.Executable>
rbdock ($Id: //depot/dev/client3/rdock/2013.1/src/exe/rbdock.cxx#4 $)

>  <Rbt.Library>
libRbt.so (2013.1, Build901 2013/11/27)

>  <Rbt.Parameter_File>
/export/apps/rDock/src/rDock_2013.1_src/data/scripts/dock_solv.prm

>  <Rbt.Receptor>
prm/pocket_docking_6.prm

>  <SCORE>
-16.6204

>  <SCORE.INTER>
-16.6204

>  <SCORE.INTER.CONST>
1

>  <SCORE.INTER.POLAR>
0

>  <SCORE.INTER.ROT>
0

>  <SCORE.INTER.SOLV>
3.75774

>  <SCORE.INTER.VDW>
-15.9328

>  <SCORE.INTER.norm>
-1.66204

>  <SCORE.INTRA>
0

>  <SCORE.INTRA.DIHEDRAL>
0

>  <SCORE.INTRA.DIHEDRAL.0>
0

>  <SCORE.INTRA.POLAR>
0

>  <SCORE.INTRA.POLAR.0>
0

>  <SCORE.INTRA.REPUL>
0

>  <SCORE.INTRA.REPUL.0>
0

>  <SCORE.INTRA.SOLV>
0

>  <SCORE.INTRA.SOLV.lig_0>
-4.26631

>  <SCORE.INTRA.VDW>
0

>  <SCORE.INTRA.VDW.0>
0

>  <SCORE.INTRA.norm>
0

>  <SCORE.RESTR>
0

>  <SCORE.RESTR.CAVITY>
0

>  <SCORE.RESTR.norm>
0

>  <SCORE.SYSTEM>
0

>  <SCORE.SYSTEM.CONST>
0

>  <SCORE.SYSTEM.DIHEDRAL>
0

>  <SCORE.SYSTEM.SOLV>
0

>  <SCORE.SYSTEM.norm>
0

>  <SCORE.heavy>
10

>  <SCORE.norm>
-1.66204

>  <RMSD>
2.864

$$$$
ligand
 OpenBabel11021811493D
libRbt.so/2013.1/901 2013/11/27
 10 11  0  0  0  0  0  0  0  0999 V2000
   11.4710   10.8934    5.3869 N   0  0  0  0  0  0  0  0  0  0  0  0
   11.1271   12.2065    5.1870 C   0  0  0  0  0  0  0  0  0  0  0  0
   11.0765   13.0813    6.2044 N   0  0  0  0  0  0  0  0  0  0  0  0
   11.3920   12.5402    7.3994 C   0  0  0  0  0  0  0  0  0  0  0  0
   11.7434   11.2349    7.6640 C   0  0  0  0  0  0  0  0  0  0  0  0
   11.8045   10.3021    6.6096 C   0  0  0  0  0  0  0  0  0  0  0  0
   12.0916    9.1131    6.6336 O   0  0  0  0  0  0  0  0  0  0  0  0
   11.9843   11.1076    9.0007 N   0  0  0  0  0  0  0  0  0  0  0  0
   11.7789   12.3258    9.5442 C   0  0  0  0  0  0  0  0  0  0  0  0
   11.4104   13.2296    8.5809 N   0  0  0  0  0  0  0  0  0  0  0  0
  1  2  1  0  0  0  0
  1  6  1  0  0  0  0
  2  3  2  0  0  0  0
  3  4  1  0  0  0  0
  4  5  2  0  0  0  0
  4 10  1  0  0  0  0
  5  6  1  0  0  0  0
  5  8  1  0  0  0  0
  6  7  2  0  0  0  0
  8  9  1  0  0  0  0
  9 10  2  0  0  0  0
M  END
>  <CHROM.1>
11.59700026,11.55692620,7.20767802,1.52914312,1.29276899,-2.14897639

>  <Name>
ligand

>  <RI>
0

>  <Rbt.Current_Directory>
/home/itssahil/PROJECTS/Mol_Feturizer/New_Systems/rnas/4FEJ

>  <Rbt.Executable>
rbdock ($Id: //depot/dev/client3/rdock/2013.1/src/exe/rbdock.cxx#4 $)

>  <Rbt.Library>
libRbt.so (2013.1, Build901 2013/11/27)

>  <Rbt.Parameter_File>
/export/apps/rDock/src/rDock_2013.1_src/data/scripts/dock_solv.prm

>  <Rbt.Receptor>
prm/pocket_docking_7.prm

>  <SCORE>
-16.5836

>  <SCORE.INTER>
-16.5836

>  <SCORE.INTER.CONST>
1

>  <SCORE.INTER.POLAR>
0

>  <SCORE.INTER.ROT>
0

>  <SCORE.INTER.SOLV>
3.82587

>  <SCORE.INTER.VDW>
-15.931

>  <SCORE.INTER.norm>
-1.65836

>  <SCORE.INTRA>
0

>  <SCORE.INTRA.DIHEDRAL>
0

>  <SCORE.INTRA.DIHEDRAL.0>
0

>  <SCORE.INTRA.POLAR>
0

>  <SCORE.INTRA.POLAR.0>
0

>  <SCORE.INTRA.REPUL>
0

>  <SCORE.INTRA.REPUL.0>
0

>  <SCORE.INTRA.SOLV>
0

>  <SCORE.INTRA.SOLV.lig_0>
-4.26631

>  <SCORE.INTRA.VDW>
0

>  <SCORE.INTRA.VDW.0>
0

>  <SCORE.INTRA.norm>
0

>  <SCORE.RESTR>
0

>  <SCORE.RESTR.CAVITY>
0

>  <SCORE.RESTR.norm>
0

>  <SCORE.SYSTEM>
0

>  <SCORE.SYSTEM.CONST>
0

>  <SCORE.SYSTEM.DIHEDRAL>
0

>  <SCORE.SYSTEM.SOLV>
0

>  <SCORE.SYSTEM.norm>
0

>  <SCORE.heavy>
10

>  <SCORE.norm>
-1.65836

>  <RMSD>
2.864

$$$$
ligand
 OpenBabel11021811493D
libRbt.so/2013.1/901 2013/11/27
 10 11  0  0  0  0  0  0  0  0999 V2000
   11.4961   10.9348    5.3437 N   0  0  0  0  0  0  0  0  0  0  0  0
   11.0872   12.2348    5.1846 C   0  0  0  0  0  0  0  0  0  0  0  0
   10.9873   13.0719    6.2298 N   0  0  0  0  0  0  0  0  0  0  0  0
   11.3237   12.5082    7.4084 C   0  0  0  0  0  0  0  0  0  0  0  0
   11.7393   11.2142    7.6325 C   0  0  0  0  0  0  0  0  0  0  0  0
   11.8528   10.3210    6.5485 C   0  0  0  0  0  0  0  0  0  0  0  0
   12.1996    9.1479    6.5355 O   0  0  0  0  0  0  0  0  0  0  0  0
   11.9797   11.0551    8.9659 N   0  0  0  0  0  0  0  0  0  0  0  0
   11.7102   12.2427    9.5477 C   0  0  0  0  0  0  0  0  0  0  0  0
   11.3014   13.1582    8.6120 N   0  0  0  0  0  0  0  0  0  0  0  0
  1  2  1  0  0  0  0
  1  6  1  0  0  0  0
  2  3  2  0  0  0  0
  3  4  1  0  0  0  0
  4  5  2  0  0  0  0
  4 10  1  0  0  0  0
  5  6  1  0  0  0  0
  5  8  1  0  0  0  0
  6  7  2  0  0  0  0
  8  9  1  0  0  0  0
  9 10  2  0  0  0  0
M  END
>  <CHROM.1>
11.57915923,11.54332392,7.18602193,1.42748488,1.25159994,-2.01884686

>  <Name>
ligand

>  <RI>
0

>  <Rbt.Current_Directory>
/home/itssahil/PROJECTS/Mol_Feturizer/New_Systems/rnas/4FEJ

>  <Rbt.Executable>
rbdock ($Id: //depot/dev/client3/rdock/2013.1/src/exe/rbdock.cxx#4 $)

>  <Rbt.Library>
libRbt.so (2013.1, Build901 2013/11/27)

>  <Rbt.Parameter_File>
/export/apps/rDock/src/rDock_2013.1_src/data/scripts/dock_solv.prm

>  <Rbt.Receptor>
prm/pocket_docking_8.prm

>  <SCORE>
-16.5374

>  <SCORE.INTER>
-16.5374

>  <SCORE.INTER.CONST>
1

>  <SCORE.INTER.POLAR>
0

>  <SCORE.INTER.ROT>
0

>  <SCORE.INTER.SOLV>
3.72812

>  <SCORE.INTER.VDW>
-15.8676

>  <SCORE.INTER.norm>
-1.65374

>  <SCORE.INTRA>
0

>  <SCORE.INTRA.DIHEDRAL>
0

>  <SCORE.INTRA.DIHEDRAL.0>
0

>  <SCORE.INTRA.POLAR>
0

>  <SCORE.INTRA.POLAR.0>
0

>  <SCORE.INTRA.REPUL>
0

>  <SCORE.INTRA.REPUL.0>
0

>  <SCORE.INTRA.SOLV>
0

>  <SCORE.INTRA.SOLV.lig_0>
-4.26631

>  <SCORE.INTRA.VDW>
0

>  <SCORE.INTRA.VDW.0>
0

>  <SCORE.INTRA.norm>
0

>  <SCORE.RESTR>
0

>  <SCORE.RESTR.CAVITY>
0

>  <SCORE.RESTR.norm>
0

>  <SCORE.SYSTEM>
0

>  <SCORE.SYSTEM.CONST>
0

>  <SCORE.SYSTEM.DIHEDRAL>
0

>  <SCORE.SYSTEM.SOLV>
0

>  <SCORE.SYSTEM.norm>
0

>  <SCORE.heavy>
10

>  <SCORE.norm>
-1.65374

>  <RMSD>
2.864

$$$$
ligand
 OpenBabel11021811493D
libRbt.so/2013.1/901 2013/11/27
 10 11  0  0  0  0  0  0  0  0999 V2000
   11.4556   10.9161    5.4157 N   0  0  0  0  0  0  0  0  0  0  0  0
   11.1041   12.2264    5.2110 C   0  0  0  0  0  0  0  0  0  0  0  0
   11.0565   13.1066    6.2240 N   0  0  0  0  0  0  0  0  0  0  0  0
   11.3830   12.5736    7.4196 C   0  0  0  0  0  0  0  0  0  0  0  0
   11.7425   11.2715    7.6889 C   0  0  0  0  0  0  0  0  0  0  0  0
   11.8005   10.3332    6.6392 C   0  0  0  0  0  0  0  0  0  0  0  0
   12.0935    9.1457    6.6677 O   0  0  0  0  0  0  0  0  0  0  0  0
   11.9935   11.1527    9.0245 N   0  0  0  0  0  0  0  0  0  0  0  0
   11.7861   12.3728    9.5628 C   0  0  0  0  0  0  0  0  0  0  0  0
   11.4066   13.2696    8.5972 N   0  0  0  0  0  0  0  0  0  0  0  0
  1  2  1  0  0  0  0
  1  6  1  0  0  0  0
  2  3  2  0  0  0  0
  3  4  1  0  0  0  0
  4  5  2  0  0  0  0
  4 10  1  0  0  0  0
  5  6  1  0  0  0  0
  5  8  1  0  0  0  0
  6  7  2  0  0  0  0
  8  9  1  0  0  0  0
  9 10  2  0  0  0  0
M  END
>  <CHROM.1>
11.59134817,11.59026309,7.23185658,1.54098503,1.28489970,-2.16585772

>  <Name>
ligand

>  <RI>
0

>  <Rbt.Current_Directory>
/home/itssahil/PROJECTS/Mol_Feturizer/New_Systems/rnas/4FEJ

>  <Rbt.Executable>
rbdock ($Id: //depot/dev/client3/rdock/2013.1/src/exe/rbdock.cxx#4 $)

>  <Rbt.Library>
libRbt.so (2013.1, Build901 2013/11/27)

>  <Rbt.Parameter_File>
/export/apps/rDock/src/rDock_2013.1_src/data/scripts/dock_solv.prm

>  <Rbt.Receptor>
prm/blind_docking_40.prm

>  <SCORE>
-16.6769

>  <SCORE.INTER>
-16.6769

>  <SCORE.INTER.CONST>
1

>  <SCORE.INTER.POLAR>
0

>  <SCORE.INTER.ROT>
0

>  <SCORE.INTER.SOLV>
3.80168

>  <SCORE.INTER.VDW>
-15.9851

>  <SCORE.INTER.norm>
-1.66769

>  <SCORE.INTRA>
0

>  <SCORE.INTRA.DIHEDRAL>
0

>  <SCORE.INTRA.DIHEDRAL.0>
0

>  <SCORE.INTRA.POLAR>
0

>  <SCORE.INTRA.POLAR.0>
0

>  <SCORE.INTRA.REPUL>
0

>  <SCORE.INTRA.REPUL.0>
0

>  <SCORE.INTRA.SOLV>
0

>  <SCORE.INTRA.SOLV.lig_0>
-4.26631

>  <SCORE.INTRA.VDW>
0

>  <SCORE.INTRA.VDW.0>
0

>  <SCORE.INTRA.norm>
0

>  <SCORE.RESTR>
0

>  <SCORE.RESTR.CAVITY>
0

>  <SCORE.RESTR.norm>
0

>  <SCORE.SYSTEM>
0

>  <SCORE.SYSTEM.CONST>
0

>  <SCORE.SYSTEM.DIHEDRAL>
0

>  <SCORE.SYSTEM.SOLV>
0

>  <SCORE.SYSTEM.norm>
0

>  <SCORE.heavy>
10

>  <SCORE.norm>
-1.66769

>  <RMSD>
2.865

$$$$
ligand
 OpenBabel11021811493D
libRbt.so/2013.1/901 2013/11/27
 10 11  0  0  0  0  0  0  0  0999 V2000
   11.4830   10.8648    5.3877 N   0  0  0  0  0  0  0  0  0  0  0  0
   11.1341   12.1789    5.2037 C   0  0  0  0  0  0  0  0  0  0  0  0
   11.0715   13.0390    6.2330 N   0  0  0  0  0  0  0  0  0  0  0  0
   11.3807   12.4826    7.4225 C   0  0  0  0  0  0  0  0  0  0  0  0
   11.7365   11.1754    7.6713 C   0  0  0  0  0  0  0  0  0  0  0  0
   11.8101   10.2580    6.6043 C   0  0  0  0  0  0  0  0  0  0  0  0
   12.1030    9.0701    6.6137 O   0  0  0  0  0  0  0  0  0  0  0  0
   11.9680   11.0303    9.0078 N   0  0  0  0  0  0  0  0  0  0  0  0
   11.7525   12.2396    9.5670 C   0  0  0  0  0  0  0  0  0  0  0  0
   11.3868   13.1552    8.6138 N   0  0  0  0  0  0  0  0  0  0  0  0
  1  2  1  0  0  0  0
  1  6  1  0  0  0  0
  2  3  2  0  0  0  0
  3  4  1  0  0  0  0
  4  5  2  0  0  0  0
  4 10  1  0  0  0  0
  5  6  1  0  0  0  0
  5  8  1  0  0  0  0
  6  7  2  0  0  0  0
  8  9  1  0  0  0  0
  9 10  2  0  0  0  0
M  END
>  <CHROM.1>
11.59197475,11.50312484,7.21851299,1.49641554,1.29258116,-2.10335676

>  <Name>
ligand

>  <RI>
0

>  <Rbt.Current_Directory>
/home/itssahil/PROJECTS/Mol_Feturizer/New_Systems/rnas/4FEJ

>  <Rbt.Executable>
rbdock ($Id: //depot/dev/client3/rdock/2013.1/src/exe/rbdock.cxx#4 $)

>  <Rbt.Library>
libRbt.so (2013.1, Build901 2013/11/27)

>  <Rbt.Parameter_File>
/export/apps/rDock/src/rDock_2013.1_src/data/scripts/dock_solv.prm

>  <Rbt.Receptor>
prm/blind_docking_40.prm

>  <SCORE>
-16.5461

>  <SCORE.INTER>
-16.5461

>  <SCORE.INTER.CONST>
1

>  <SCORE.INTER.POLAR>
0

>  <SCORE.INTER.ROT>
0

>  <SCORE.INTER.SOLV>
3.83019

>  <SCORE.INTER.VDW>
-15.9074

>  <SCORE.INTER.norm>
-1.65461

>  <SCORE.INTRA>
0

>  <SCORE.INTRA.DIHEDRAL>
0

>  <SCORE.INTRA.DIHEDRAL.0>
0

>  <SCORE.INTRA.POLAR>
0

>  <SCORE.INTRA.POLAR.0>
0

>  <SCORE.INTRA.REPUL>
0

>  <SCORE.INTRA.REPUL.0>
0

>  <SCORE.INTRA.SOLV>
0

>  <SCORE.INTRA.SOLV.lig_0>
-4.26631

>  <SCORE.INTRA.VDW>
0

>  <SCORE.INTRA.VDW.0>
0

>  <SCORE.INTRA.norm>
0

>  <SCORE.RESTR>
0

>  <SCORE.RESTR.CAVITY>
0

>  <SCORE.RESTR.norm>
0

>  <SCORE.SYSTEM>
0

>  <SCORE.SYSTEM.CONST>
0

>  <SCORE.SYSTEM.DIHEDRAL>
0

>  <SCORE.SYSTEM.SOLV>
0

>  <SCORE.SYSTEM.norm>
0

>  <SCORE.heavy>
10

>  <SCORE.norm>
-1.65461

>  <RMSD>
2.865

$$$$
ligand
 OpenBabel11021811493D
libRbt.so/2013.1/901 2013/11/27
 10 11  0  0  0  0  0  0  0  0999 V2000
   11.4687   10.9113    5.4242 N   0  0  0  0  0  0  0  0  0  0  0  0
   11.1285   12.2233    5.2116 C   0  0  0  0  0  0  0  0  0  0  0  0
   11.0798   13.1079    6.2206 N   0  0  0  0  0  0  0  0  0  0  0  0
   11.3933   12.5775    7.4208 C   0  0  0  0  0  0  0  0  0  0  0  0
   11.7410   11.2738    7.6981 C   0  0  0  0  0  0  0  0  0  0  0  0
   11.8000   10.3308    6.6526 C   0  0  0  0  0  0  0  0  0  0  0  0
   12.0840    9.1414    6.6881 O   0  0  0  0  0  0  0  0  0  0  0  0
   11.9811   11.1586    9.0360 N   0  0  0  0  0  0  0  0  0  0  0  0
   11.7787   12.3824    9.5678 C   0  0  0  0  0  0  0  0  0  0  0  0
   11.4131   13.2780    8.5957 N   0  0  0  0  0  0  0  0  0  0  0  0
  1  2  1  0  0  0  0
  1  6  1  0  0  0  0
  2  3  2  0  0  0  0
  3  4  1  0  0  0  0
  4  5  2  0  0  0  0
  4 10  1  0  0  0  0
  5  6  1  0  0  0  0
  5  8  1  0  0  0  0
  6  7  2  0  0  0  0
  8  9  1  0  0  0  0
  9 10  2  0  0  0  0
M  END
>  <CHROM.1>
11.59573627,11.59183031,7.23862035,1.53329827,1.29527153,-2.16251342

>  <Name>
ligand

>  <RI>
0

>  <Rbt.Current_Directory>
/home/itssahil/PROJECTS/Mol_Feturizer/New_Systems/rnas/4FEJ

>  <Rbt.Executable>
rbdock ($Id: //depot/dev/client3/rdock/2013.1/src/exe/rbdock.cxx#4 $)

>  <Rbt.Library>
libRbt.so (2013.1, Build901 2013/11/27)

>  <Rbt.Parameter_File>
/export/apps/rDock/src/rDock_2013.1_src/data/scripts/dock_solv.prm

>  <Rbt.Receptor>
prm/pocket_docking_5.prm

>  <SCORE>
-16.64

>  <SCORE.INTER>
-16.64

>  <SCORE.INTER.CONST>
1

>  <SCORE.INTER.POLAR>
0

>  <SCORE.INTER.ROT>
0

>  <SCORE.INTER.SOLV>
3.81446

>  <SCORE.INTER.VDW>
-15.9648

>  <SCORE.INTER.norm>
-1.664

>  <SCORE.INTRA>
0

>  <SCORE.INTRA.DIHEDRAL>
0

>  <SCORE.INTRA.DIHEDRAL.0>
0

>  <SCORE.INTRA.POLAR>
0

>  <SCORE.INTRA.POLAR.0>
0

>  <SCORE.INTRA.REPUL>
0

>  <SCORE.INTRA.REPUL.0>
0

>  <SCORE.INTRA.SOLV>
0

>  <SCORE.INTRA.SOLV.lig_0>
-4.26631

>  <SCORE.INTRA.VDW>
0

>  <SCORE.INTRA.VDW.0>
0

>  <SCORE.INTRA.norm>
0

>  <SCORE.RESTR>
0

>  <SCORE.RESTR.CAVITY>
0

>  <SCORE.RESTR.norm>
0

>  <SCORE.SYSTEM>
0

>  <SCORE.SYSTEM.CONST>
0

>  <SCORE.SYSTEM.DIHEDRAL>
0

>  <SCORE.SYSTEM.SOLV>
0

>  <SCORE.SYSTEM.norm>
0

>  <SCORE.heavy>
10

>  <SCORE.norm>
-1.664

>  <RMSD>
2.865

$$$$
ligand
 OpenBabel11021811493D
libRbt.so/2013.1/901 2013/11/27
 10 11  0  0  0  0  0  0  0  0999 V2000
   11.5087   10.8900    5.4523 N   0  0  0  0  0  0  0  0  0  0  0  0
   11.1446   12.1953    5.2374 C   0  0  0  0  0  0  0  0  0  0  0  0
   11.0834   13.0815    6.2443 N   0  0  0  0  0  0  0  0  0  0  0  0
   11.4100   12.5598    7.4449 C   0  0  0  0  0  0  0  0  0  0  0  0
   11.7815   11.2632    7.7243 C   0  0  0  0  0  0  0  0  0  0  0  0
   11.8540   10.3187    6.6811 C   0  0  0  0  0  0  0  0  0  0  0  0
   12.1590    9.1345    6.7187 O   0  0  0  0  0  0  0  0  0  0  0  0
   12.0277   11.1557    9.0618 N   0  0  0  0  0  0  0  0  0  0  0  0
   11.8054   12.3771    9.5912 C   0  0  0  0  0  0  0  0  0  0  0  0
   11.4210   13.2636    8.6180 N   0  0  0  0  0  0  0  0  0  0  0  0
  1  2  1  0  0  0  0
  1  6  1  0  0  0  0
  2  3  2  0  0  0  0
  3  4  1  0  0  0  0
  4  5  2  0  0  0  0
  4 10  1  0  0  0  0
  5  6  1  0  0  0  0
  5  8  1  0  0  0  0
  6  7  2  0  0  0  0
  8  9  1  0  0  0  0
  9 10  2  0  0  0  0
M  END
>  <CHROM.1>
11.62921221,11.57738536,7.26455962,1.50790505,1.27876535,-2.14069504

>  <Name>
ligand

>  <RI>
0

>  <Rbt.Current_Directory>
/home/itssahil/PROJECTS/Mol_Feturizer/New_Systems/rnas/4FEJ

>  <Rbt.Executable>
rbdock ($Id: //depot/dev/client3/rdock/2013.1/src/exe/rbdock.cxx#4 $)

>  <Rbt.Library>
libRbt.so (2013.1, Build901 2013/11/27)

>  <Rbt.Parameter_File>
/export/apps/rDock/src/rDock_2013.1_src/data/scripts/dock_solv.prm

>  <Rbt.Receptor>
prm/pocket_docking_7.prm

>  <SCORE>
-16.5891

>  <SCORE.INTER>
-16.5891

>  <SCORE.INTER.CONST>
1

>  <SCORE.INTER.POLAR>
0

>  <SCORE.INTER.ROT>
0

>  <SCORE.INTER.SOLV>
3.71958

>  <SCORE.INTER.VDW>
-15.8993

>  <SCORE.INTER.norm>
-1.65891

>  <SCORE.INTRA>
0

>  <SCORE.INTRA.DIHEDRAL>
0

>  <SCORE.INTRA.DIHEDRAL.0>
0

>  <SCORE.INTRA.POLAR>
0

>  <SCORE.INTRA.POLAR.0>
0

>  <SCORE.INTRA.REPUL>
0

>  <SCORE.INTRA.REPUL.0>
0

>  <SCORE.INTRA.SOLV>
0

>  <SCORE.INTRA.SOLV.lig_0>
-4.26631

>  <SCORE.INTRA.VDW>
0

>  <SCORE.INTRA.VDW.0>
0

>  <SCORE.INTRA.norm>
0

>  <SCORE.RESTR>
0

>  <SCORE.RESTR.CAVITY>
0

>  <SCORE.RESTR.norm>
0

>  <SCORE.SYSTEM>
0

>  <SCORE.SYSTEM.CONST>
0

>  <SCORE.SYSTEM.DIHEDRAL>
0

>  <SCORE.SYSTEM.SOLV>
0

>  <SCORE.SYSTEM.norm>
0

>  <SCORE.heavy>
10

>  <SCORE.norm>
-1.65891

>  <RMSD>
2.865

$$$$
ligand
 OpenBabel11021811493D
libRbt.so/2013.1/901 2013/11/27
 10 11  0  0  0  0  0  0  0  0999 V2000
   11.4508   10.9212    5.3858 N   0  0  0  0  0  0  0  0  0  0  0  0
   11.1153   12.2378    5.1947 C   0  0  0  0  0  0  0  0  0  0  0  0
   11.0715   13.1063    6.2179 N   0  0  0  0  0  0  0  0  0  0  0  0
   11.3846   12.5554    7.4090 C   0  0  0  0  0  0  0  0  0  0  0  0
   11.7276   11.2461    7.6647 C   0  0  0  0  0  0  0  0  0  0  0  0
   11.7815   10.3198    6.6042 C   0  0  0  0  0  0  0  0  0  0  0  0
   12.0609    9.1288    6.6202 O   0  0  0  0  0  0  0  0  0  0  0  0
   11.9691   11.1085    9.0003 N   0  0  0  0  0  0  0  0  0  0  0  0
   11.7722   12.3244    9.5520 C   0  0  0  0  0  0  0  0  0  0  0  0
   11.4087   13.2369    8.5949 N   0  0  0  0  0  0  0  0  0  0  0  0
  1  2  1  0  0  0  0
  1  6  1  0  0  0  0
  2  3  2  0  0  0  0
  3  4  1  0  0  0  0
  4  5  2  0  0  0  0
  4 10  1  0  0  0  0
  5  6  1  0  0  0  0
  5  8  1  0  0  0  0
  6  7  2  0  0  0  0
  8  9  1  0  0  0  0
  9 10  2  0  0  0  0
M  END
>  <CHROM.1>
11.58291208,11.57201079,7.21068363,1.54561148,1.29769457,-2.15831722

>  <Name>
ligand

>  <RI>
0

>  <Rbt.Current_Directory>
/home/itssahil/PROJECTS/Mol_Feturizer/New_Systems/rnas/4FEJ

>  <Rbt.Executable>
rbdock ($Id: //depot/dev/client3/rdock/2013.1/src/exe/rbdock.cxx#4 $)

>  <Rbt.Library>
libRbt.so (2013.1, Build901 2013/11/27)

>  <Rbt.Parameter_File>
/export/apps/rDock/src/rDock_2013.1_src/data/scripts/dock_solv.prm

>  <Rbt.Receptor>
prm/blind_docking_100.prm

>  <SCORE>
-16.6124

>  <SCORE.INTER>
-16.6124

>  <SCORE.INTER.CONST>
1

>  <SCORE.INTER.POLAR>
0

>  <SCORE.INTER.ROT>
0

>  <SCORE.INTER.SOLV>
3.86486

>  <SCORE.INTER.VDW>
-15.9632

>  <SCORE.INTER.norm>
-1.66124

>  <SCORE.INTRA>
0

>  <SCORE.INTRA.DIHEDRAL>
0

>  <SCORE.INTRA.DIHEDRAL.0>
0

>  <SCORE.INTRA.POLAR>
0

>  <SCORE.INTRA.POLAR.0>
0

>  <SCORE.INTRA.REPUL>
0

>  <SCORE.INTRA.REPUL.0>
0

>  <SCORE.INTRA.SOLV>
0

>  <SCORE.INTRA.SOLV.lig_0>
-4.26631

>  <SCORE.INTRA.VDW>
0

>  <SCORE.INTRA.VDW.0>
0

>  <SCORE.INTRA.norm>
0

>  <SCORE.RESTR>
0

>  <SCORE.RESTR.CAVITY>
0

>  <SCORE.RESTR.norm>
0

>  <SCORE.SYSTEM>
0

>  <SCORE.SYSTEM.CONST>
0

>  <SCORE.SYSTEM.DIHEDRAL>
0

>  <SCORE.SYSTEM.SOLV>
0

>  <SCORE.SYSTEM.norm>
0

>  <SCORE.heavy>
10

>  <SCORE.norm>
-1.66124

>  <RMSD>
2.866

$$$$
ligand
 OpenBabel11021811493D
libRbt.so/2013.1/901 2013/11/27
 10 11  0  0  0  0  0  0  0  0999 V2000
   11.4318   10.9228    5.4036 N   0  0  0  0  0  0  0  0  0  0  0  0
   11.0525   12.2278    5.2154 C   0  0  0  0  0  0  0  0  0  0  0  0
   11.0045   13.0988    6.2364 N   0  0  0  0  0  0  0  0  0  0  0  0
   11.3601   12.5625    7.4222 C   0  0  0  0  0  0  0  0  0  0  0  0
   11.7482   11.2653    7.6749 C   0  0  0  0  0  0  0  0  0  0  0  0
   11.8071   10.3367    6.6166 C   0  0  0  0  0  0  0  0  0  0  0  0
   12.1228    9.1548    6.6305 O   0  0  0  0  0  0  0  0  0  0  0  0
   12.0227   11.1405    9.0053 N   0  0  0  0  0  0  0  0  0  0  0  0
   11.8011   12.3521    9.5570 C   0  0  0  0  0  0  0  0  0  0  0  0
   11.3893   13.2493    8.6050 N   0  0  0  0  0  0  0  0  0  0  0  0
  1  2  1  0  0  0  0
  1  6  1  0  0  0  0
  2  3  2  0  0  0  0
  3  4  1  0  0  0  0
  4  5  2  0  0  0  0
  4 10  1  0  0  0  0
  5  6  1  0  0  0  0
  5  8  1  0  0  0  0
  6  7  2  0  0  0  0
  8  9  1  0  0  0  0
  9 10  2  0  0  0  0
M  END
>  <CHROM.1>
11.58383466,11.58481431,7.22296030,1.54979400,1.26033940,-2.16607590

>  <Name>
ligand

>  <RI>
0

>  <Rbt.Current_Directory>
/home/itssahil/PROJECTS/Mol_Feturizer/New_Systems/rnas/4FEJ

>  <Rbt.Executable>
rbdock ($Id: //depot/dev/client3/rdock/2013.1/src/exe/rbdock.cxx#4 $)

>  <Rbt.Library>
libRbt.so (2013.1, Build901 2013/11/27)

>  <Rbt.Parameter_File>
/export/apps/rDock/src/rDock_2013.1_src/data/scripts/dock_solv.prm

>  <Rbt.Receptor>
prm/blind_docking_40.prm

>  <SCORE>
-16.6782

>  <SCORE.INTER>
-16.6782

>  <SCORE.INTER.CONST>
1

>  <SCORE.INTER.POLAR>
0

>  <SCORE.INTER.ROT>
0

>  <SCORE.INTER.SOLV>
3.75983

>  <SCORE.INTER.VDW>
-15.9721

>  <SCORE.INTER.norm>
-1.66782

>  <SCORE.INTRA>
0

>  <SCORE.INTRA.DIHEDRAL>
0

>  <SCORE.INTRA.DIHEDRAL.0>
0

>  <SCORE.INTRA.POLAR>
0

>  <SCORE.INTRA.POLAR.0>
0

>  <SCORE.INTRA.REPUL>
0

>  <SCORE.INTRA.REPUL.0>
0

>  <SCORE.INTRA.SOLV>
0

>  <SCORE.INTRA.SOLV.lig_0>
-4.26631

>  <SCORE.INTRA.VDW>
0

>  <SCORE.INTRA.VDW.0>
0

>  <SCORE.INTRA.norm>
0

>  <SCORE.RESTR>
0

>  <SCORE.RESTR.CAVITY>
0

>  <SCORE.RESTR.norm>
0

>  <SCORE.SYSTEM>
0

>  <SCORE.SYSTEM.CONST>
0

>  <SCORE.SYSTEM.DIHEDRAL>
0

>  <SCORE.SYSTEM.SOLV>
0

>  <SCORE.SYSTEM.norm>
0

>  <SCORE.heavy>
10

>  <SCORE.norm>
-1.66782

>  <RMSD>
2.866

$$$$
ligand
 OpenBabel11021811493D
libRbt.so/2013.1/901 2013/11/27
 10 11  0  0  0  0  0  0  0  0999 V2000
   11.4547   10.9168    5.4178 N   0  0  0  0  0  0  0  0  0  0  0  0
   11.1013   12.2270    5.2156 C   0  0  0  0  0  0  0  0  0  0  0  0
   11.0556   13.1059    6.2297 N   0  0  0  0  0  0  0  0  0  0  0  0
   11.3857   12.5718    7.4239 C   0  0  0  0  0  0  0  0  0  0  0  0
   11.7471   11.2697    7.6907 C   0  0  0  0  0  0  0  0  0  0  0  0
   11.8033   10.3327    6.6397 C   0  0  0  0  0  0  0  0  0  0  0  0
   12.0975    9.1455    6.6660 O   0  0  0  0  0  0  0  0  0  0  0  0
   12.0017   11.1495    9.0255 N   0  0  0  0  0  0  0  0  0  0  0  0
   11.7945   12.3688    9.5658 C   0  0  0  0  0  0  0  0  0  0  0  0
   11.4116   13.2664    8.6022 N   0  0  0  0  0  0  0  0  0  0  0  0
  1  2  1  0  0  0  0
  1  6  1  0  0  0  0
  2  3  2  0  0  0  0
  3  4  1  0  0  0  0
  4  5  2  0  0  0  0
  4 10  1  0  0  0  0
  5  6  1  0  0  0  0
  5  8  1  0  0  0  0
  6  7  2  0  0  0  0
  8  9  1  0  0  0  0
  9 10  2  0  0  0  0
M  END
>  <CHROM.1>
11.59444111,11.58888442,7.23442247,1.54665975,1.28264184,-2.17009751

>  <Name>
ligand

>  <RI>
0

>  <Rbt.Current_Directory>
/home/itssahil/PROJECTS/Mol_Feturizer/New_Systems/rnas/4FEJ

>  <Rbt.Executable>
rbdock ($Id: //depot/dev/client3/rdock/2013.1/src/exe/rbdock.cxx#4 $)

>  <Rbt.Library>
libRbt.so (2013.1, Build901 2013/11/27)

>  <Rbt.Parameter_File>
/export/apps/rDock/src/rDock_2013.1_src/data/scripts/dock_solv.prm

>  <Rbt.Receptor>
prm/blind_docking_40.prm

>  <SCORE>
-16.6776

>  <SCORE.INTER>
-16.6776

>  <SCORE.INTER.CONST>
1

>  <SCORE.INTER.POLAR>
0

>  <SCORE.INTER.ROT>
0

>  <SCORE.INTER.SOLV>
3.79656

>  <SCORE.INTER.VDW>
-15.984

>  <SCORE.INTER.norm>
-1.66776

>  <SCORE.INTRA>
0

>  <SCORE.INTRA.DIHEDRAL>
0

>  <SCORE.INTRA.DIHEDRAL.0>
0

>  <SCORE.INTRA.POLAR>
0

>  <SCORE.INTRA.POLAR.0>
0

>  <SCORE.INTRA.REPUL>
0

>  <SCORE.INTRA.REPUL.0>
0

>  <SCORE.INTRA.SOLV>
0

>  <SCORE.INTRA.SOLV.lig_0>
-4.26631

>  <SCORE.INTRA.VDW>
0

>  <SCORE.INTRA.VDW.0>
0

>  <SCORE.INTRA.norm>
0

>  <SCORE.RESTR>
0

>  <SCORE.RESTR.CAVITY>
0

>  <SCORE.RESTR.norm>
0

>  <SCORE.SYSTEM>
0

>  <SCORE.SYSTEM.CONST>
0

>  <SCORE.SYSTEM.DIHEDRAL>
0

>  <SCORE.SYSTEM.SOLV>
0

>  <SCORE.SYSTEM.norm>
0

>  <SCORE.heavy>
10

>  <SCORE.norm>
-1.66776

>  <RMSD>
2.866

$$$$
ligand
 OpenBabel11021811493D
libRbt.so/2013.1/901 2013/11/27
 10 11  0  0  0  0  0  0  0  0999 V2000
   11.4505   10.9081    5.4227 N   0  0  0  0  0  0  0  0  0  0  0  0
   11.1103   12.2216    5.2195 C   0  0  0  0  0  0  0  0  0  0  0  0
   11.0609   13.0988    6.2350 N   0  0  0  0  0  0  0  0  0  0  0  0
   11.3737   12.5595    7.4315 C   0  0  0  0  0  0  0  0  0  0  0  0
   11.7213   11.2538    7.6993 C   0  0  0  0  0  0  0  0  0  0  0  0
   11.7811   10.3186    6.6470 C   0  0  0  0  0  0  0  0  0  0  0  0
   12.0650    9.1289    6.6738 O   0  0  0  0  0  0  0  0  0  0  0  0
   11.9605   11.1288    9.0365 N   0  0  0  0  0  0  0  0  0  0  0  0
   11.7577   12.3486    9.5772 C   0  0  0  0  0  0  0  0  0  0  0  0
   11.3927   13.2513    8.6115 N   0  0  0  0  0  0  0  0  0  0  0  0
  1  2  1  0  0  0  0
  1  6  1  0  0  0  0
  2  3  2  0  0  0  0
  3  4  1  0  0  0  0
  4  5  2  0  0  0  0
  4 10  1  0  0  0  0
  5  6  1  0  0  0  0
  5  8  1  0  0  0  0
  6  7  2  0  0  0  0
  8  9  1  0  0  0  0
  9 10  2  0  0  0  0
M  END
>  <CHROM.1>
11.57628330,11.57521622,7.24211987,1.53121292,1.29555622,-2.15313491

>  <Name>
ligand

>  <RI>
0

>  <Rbt.Current_Directory>
/home/itssahil/PROJECTS/Mol_Feturizer/New_Systems/rnas/4FEJ

>  <Rbt.Executable>
rbdock ($Id: //depot/dev/client3/rdock/2013.1/src/exe/rbdock.cxx#4 $)

>  <Rbt.Library>
libRbt.so (2013.1, Build901 2013/11/27)

>  <Rbt.Parameter_File>
/export/apps/rDock/src/rDock_2013.1_src/data/scripts/dock_solv.prm

>  <Rbt.Receptor>
prm/blind_docking_80.prm

>  <SCORE>
-16.6337

>  <SCORE.INTER>
-16.6337

>  <SCORE.INTER.CONST>
1

>  <SCORE.INTER.POLAR>
0

>  <SCORE.INTER.ROT>
0

>  <SCORE.INTER.SOLV>
3.83958

>  <SCORE.INTER.VDW>
-15.969

>  <SCORE.INTER.norm>
-1.66337

>  <SCORE.INTRA>
0

>  <SCORE.INTRA.DIHEDRAL>
0

>  <SCORE.INTRA.DIHEDRAL.0>
0

>  <SCORE.INTRA.POLAR>
0

>  <SCORE.INTRA.POLAR.0>
0

>  <SCORE.INTRA.REPUL>
0

>  <SCORE.INTRA.REPUL.0>
0

>  <SCORE.INTRA.SOLV>
0

>  <SCORE.INTRA.SOLV.lig_0>
-4.26631

>  <SCORE.INTRA.VDW>
0

>  <SCORE.INTRA.VDW.0>
0

>  <SCORE.INTRA.norm>
0

>  <SCORE.RESTR>
0

>  <SCORE.RESTR.CAVITY>
0

>  <SCORE.RESTR.norm>
0

>  <SCORE.SYSTEM>
0

>  <SCORE.SYSTEM.CONST>
0

>  <SCORE.SYSTEM.DIHEDRAL>
0

>  <SCORE.SYSTEM.SOLV>
0

>  <SCORE.SYSTEM.norm>
0

>  <SCORE.heavy>
10

>  <SCORE.norm>
-1.66337

>  <RMSD>
2.866

$$$$
ligand
 OpenBabel11021811493D
libRbt.so/2013.1/901 2013/11/27
 10 11  0  0  0  0  0  0  0  0999 V2000
   11.4664   10.9327    5.3952 N   0  0  0  0  0  0  0  0  0  0  0  0
   11.1073   12.2430    5.2038 C   0  0  0  0  0  0  0  0  0  0  0  0
   11.0498   13.1114    6.2264 N   0  0  0  0  0  0  0  0  0  0  0  0
   11.3747   12.5670    7.4173 C   0  0  0  0  0  0  0  0  0  0  0  0
   11.7413   11.2642    7.6735 C   0  0  0  0  0  0  0  0  0  0  0  0
   11.8098   10.3382    6.6136 C   0  0  0  0  0  0  0  0  0  0  0  0
   12.1102    9.1524    6.6299 O   0  0  0  0  0  0  0  0  0  0  0  0
   11.9874   11.1320    9.0087 N   0  0  0  0  0  0  0  0  0  0  0  0
   11.7700   12.3446    9.5598 C   0  0  0  0  0  0  0  0  0  0  0  0
   11.3888   13.2498    8.6027 N   0  0  0  0  0  0  0  0  0  0  0  0
  1  2  1  0  0  0  0
  1  6  1  0  0  0  0
  2  3  2  0  0  0  0
  3  4  1  0  0  0  0
  4  5  2  0  0  0  0
  4 10  1  0  0  0  0
  5  6  1  0  0  0  0
  5  8  1  0  0  0  0
  6  7  2  0  0  0  0
  8  9  1  0  0  0  0
  9 10  2  0  0  0  0
M  END
>  <CHROM.1>
11.59007337,11.58718429,7.21941858,1.51611351,1.28187668,-2.13073145

>  <Name>
ligand

>  <RI>
0

>  <Rbt.Current_Directory>
/home/itssahil/PROJECTS/Mol_Feturizer/New_Systems/rnas/4FEJ

>  <Rbt.Executable>
rbdock ($Id: //depot/dev/client3/rdock/2013.1/src/exe/rbdock.cxx#4 $)

>  <Rbt.Library>
libRbt.so (2013.1, Build901 2013/11/27)

>  <Rbt.Parameter_File>
/export/apps/rDock/src/rDock_2013.1_src/data/scripts/dock_solv.prm

>  <Rbt.Receptor>
prm/blind_docking_80.prm

>  <SCORE>
-16.6661

>  <SCORE.INTER>
-16.6661

>  <SCORE.INTER.CONST>
1

>  <SCORE.INTER.POLAR>
0

>  <SCORE.INTER.ROT>
0

>  <SCORE.INTER.SOLV>
3.79967

>  <SCORE.INTER.VDW>
-15.9773

>  <SCORE.INTER.norm>
-1.66661

>  <SCORE.INTRA>
0

>  <SCORE.INTRA.DIHEDRAL>
0

>  <SCORE.INTRA.DIHEDRAL.0>
0

>  <SCORE.INTRA.POLAR>
0

>  <SCORE.INTRA.POLAR.0>
0

>  <SCORE.INTRA.REPUL>
0

>  <SCORE.INTRA.REPUL.0>
0

>  <SCORE.INTRA.SOLV>
0

>  <SCORE.INTRA.SOLV.lig_0>
-4.26631

>  <SCORE.INTRA.VDW>
0

>  <SCORE.INTRA.VDW.0>
0

>  <SCORE.INTRA.norm>
0

>  <SCORE.RESTR>
0

>  <SCORE.RESTR.CAVITY>
0

>  <SCORE.RESTR.norm>
0

>  <SCORE.SYSTEM>
0

>  <SCORE.SYSTEM.CONST>
0

>  <SCORE.SYSTEM.DIHEDRAL>
0

>  <SCORE.SYSTEM.SOLV>
0

>  <SCORE.SYSTEM.norm>
0

>  <SCORE.heavy>
10

>  <SCORE.norm>
-1.66661

>  <RMSD>
2.866

$$$$
ligand
 OpenBabel11021811493D
libRbt.so/2013.1/901 2013/11/27
 10 11  0  0  0  0  0  0  0  0999 V2000
   11.4534   10.9228    5.4156 N   0  0  0  0  0  0  0  0  0  0  0  0
   11.0661   12.2263    5.2337 C   0  0  0  0  0  0  0  0  0  0  0  0
   10.9987   13.0882    6.2611 N   0  0  0  0  0  0  0  0  0  0  0  0
   11.3439   12.5447    7.4467 C   0  0  0  0  0  0  0  0  0  0  0  0
   11.7392   11.2485    7.6933 C   0  0  0  0  0  0  0  0  0  0  0  0
   11.8184   10.3294    6.6282 C   0  0  0  0  0  0  0  0  0  0  0  0
   12.1432    9.1499    6.6361 O   0  0  0  0  0  0  0  0  0  0  0  0
   11.9983   11.1146    9.0259 N   0  0  0  0  0  0  0  0  0  0  0  0
   11.7603   12.3197    9.5850 C   0  0  0  0  0  0  0  0  0  0  0  0
   11.3532   13.2217    8.6355 N   0  0  0  0  0  0  0  0  0  0  0  0
  1  2  1  0  0  0  0
  1  6  1  0  0  0  0
  2  3  2  0  0  0  0
  3  4  1  0  0  0  0
  4  5  2  0  0  0  0
  4 10  1  0  0  0  0
  5  6  1  0  0  0  0
  5  8  1  0  0  0  0
  6  7  2  0  0  0  0
  8  9  1  0  0  0  0
  9 10  2  0  0  0  0
M  END
>  <CHROM.1>
11.57781297,11.57050721,7.24213228,1.50191941,1.26034231,-2.11207391

>  <Name>
ligand

>  <RI>
0

>  <Rbt.Current_Directory>
/home/itssahil/PROJECTS/Mol_Feturizer/New_Systems/rnas/4FEJ

>  <Rbt.Executable>
rbdock ($Id: //depot/dev/client3/rdock/2013.1/src/exe/rbdock.cxx#4 $)

>  <Rbt.Library>
libRbt.so (2013.1, Build901 2013/11/27)

>  <Rbt.Parameter_File>
/export/apps/rDock/src/rDock_2013.1_src/data/scripts/dock_solv.prm

>  <Rbt.Receptor>
prm/blind_docking_100.prm

>  <SCORE>
-16.576

>  <SCORE.INTER>
-16.576

>  <SCORE.INTER.CONST>
1

>  <SCORE.INTER.POLAR>
0

>  <SCORE.INTER.ROT>
0

>  <SCORE.INTER.SOLV>
3.74586

>  <SCORE.INTER.VDW>
-15.8993

>  <SCORE.INTER.norm>
-1.6576

>  <SCORE.INTRA>
0

>  <SCORE.INTRA.DIHEDRAL>
0

>  <SCORE.INTRA.DIHEDRAL.0>
0

>  <SCORE.INTRA.POLAR>
0

>  <SCORE.INTRA.POLAR.0>
0

>  <SCORE.INTRA.REPUL>
0

>  <SCORE.INTRA.REPUL.0>
0

>  <SCORE.INTRA.SOLV>
0

>  <SCORE.INTRA.SOLV.lig_0>
-4.26631

>  <SCORE.INTRA.VDW>
0

>  <SCORE.INTRA.VDW.0>
0

>  <SCORE.INTRA.norm>
0

>  <SCORE.RESTR>
0

>  <SCORE.RESTR.CAVITY>
0

>  <SCORE.RESTR.norm>
0

>  <SCORE.SYSTEM>
0

>  <SCORE.SYSTEM.CONST>
0

>  <SCORE.SYSTEM.DIHEDRAL>
0

>  <SCORE.SYSTEM.SOLV>
0

>  <SCORE.SYSTEM.norm>
0

>  <SCORE.heavy>
10

>  <SCORE.norm>
-1.6576

>  <RMSD>
2.867

$$$$
ligand
 OpenBabel11021811493D
libRbt.so/2013.1/901 2013/11/27
 10 11  0  0  0  0  0  0  0  0999 V2000
   11.4476   10.9387    5.3954 N   0  0  0  0  0  0  0  0  0  0  0  0
   11.0895   12.2498    5.2076 C   0  0  0  0  0  0  0  0  0  0  0  0
   11.0393   13.1170    6.2316 N   0  0  0  0  0  0  0  0  0  0  0  0
   11.3702   12.5707    7.4200 C   0  0  0  0  0  0  0  0  0  0  0  0
   11.7362   11.2670    7.6724 C   0  0  0  0  0  0  0  0  0  0  0  0
   11.7971   10.3422    6.6110 C   0  0  0  0  0  0  0  0  0  0  0  0
   12.0957    9.1558    6.6241 O   0  0  0  0  0  0  0  0  0  0  0  0
   11.9898   11.1327    9.0060 N   0  0  0  0  0  0  0  0  0  0  0  0
   11.7775   12.3450    9.5599 C   0  0  0  0  0  0  0  0  0  0  0  0
   11.3922   13.2519    8.6061 N   0  0  0  0  0  0  0  0  0  0  0  0
  1  2  1  0  0  0  0
  1  6  1  0  0  0  0
  2  3  2  0  0  0  0
  3  4  1  0  0  0  0
  4  5  2  0  0  0  0
  4 10  1  0  0  0  0
  5  6  1  0  0  0  0
  5  8  1  0  0  0  0
  6  7  2  0  0  0  0
  8  9  1  0  0  0  0
  9 10  2  0  0  0  0
M  END
>  <CHROM.1>
11.58285364,11.59073226,7.21964637,1.53610685,1.28012071,-2.14865726

>  <Name>
ligand

>  <RI>
0

>  <Rbt.Current_Directory>
/home/itssahil/PROJECTS/Mol_Feturizer/New_Systems/rnas/4FEJ

>  <Rbt.Executable>
rbdock ($Id: //depot/dev/client3/rdock/2013.1/src/exe/rbdock.cxx#4 $)

>  <Rbt.Library>
libRbt.so (2013.1, Build901 2013/11/27)

>  <Rbt.Parameter_File>
/export/apps/rDock/src/rDock_2013.1_src/data/scripts/dock_solv.prm

>  <Rbt.Receptor>
prm/blind_docking_100.prm

>  <SCORE>
-16.6628

>  <SCORE.INTER>
-16.6628

>  <SCORE.INTER.CONST>
1

>  <SCORE.INTER.POLAR>
0

>  <SCORE.INTER.ROT>
0

>  <SCORE.INTER.SOLV>
3.81092

>  <SCORE.INTER.VDW>
-15.9788

>  <SCORE.INTER.norm>
-1.66628

>  <SCORE.INTRA>
0

>  <SCORE.INTRA.DIHEDRAL>
0

>  <SCORE.INTRA.DIHEDRAL.0>
0

>  <SCORE.INTRA.POLAR>
0

>  <SCORE.INTRA.POLAR.0>
0

>  <SCORE.INTRA.REPUL>
0

>  <SCORE.INTRA.REPUL.0>
0

>  <SCORE.INTRA.SOLV>
0

>  <SCORE.INTRA.SOLV.lig_0>
-4.26631

>  <SCORE.INTRA.VDW>
0

>  <SCORE.INTRA.VDW.0>
0

>  <SCORE.INTRA.norm>
0

>  <SCORE.RESTR>
0

>  <SCORE.RESTR.CAVITY>
0

>  <SCORE.RESTR.norm>
0

>  <SCORE.SYSTEM>
0

>  <SCORE.SYSTEM.CONST>
0

>  <SCORE.SYSTEM.DIHEDRAL>
0

>  <SCORE.SYSTEM.SOLV>
0

>  <SCORE.SYSTEM.norm>
0

>  <SCORE.heavy>
10

>  <SCORE.norm>
-1.66628

>  <RMSD>
2.867

$$$$
ligand
 OpenBabel11021811493D
libRbt.so/2013.1/901 2013/11/27
 10 11  0  0  0  0  0  0  0  0999 V2000
   11.4434   10.9194    5.3850 N   0  0  0  0  0  0  0  0  0  0  0  0
   11.1080   12.2364    5.1968 C   0  0  0  0  0  0  0  0  0  0  0  0
   11.0677   13.1034    6.2214 N   0  0  0  0  0  0  0  0  0  0  0  0
   11.3840   12.5506    7.4107 C   0  0  0  0  0  0  0  0  0  0  0  0
   11.7272   11.2408    7.6636 C   0  0  0  0  0  0  0  0  0  0  0  0
   11.7774   10.3160    6.6016 C   0  0  0  0  0  0  0  0  0  0  0  0
   12.0562    9.1249    6.6149 O   0  0  0  0  0  0  0  0  0  0  0  0
   11.9725   11.1012    8.9982 N   0  0  0  0  0  0  0  0  0  0  0  0
   11.7779   12.3164    9.5522 C   0  0  0  0  0  0  0  0  0  0  0  0
   11.4120   13.2304    8.5976 N   0  0  0  0  0  0  0  0  0  0  0  0
  1  2  1  0  0  0  0
  1  6  1  0  0  0  0
  2  3  2  0  0  0  0
  3  4  1  0  0  0  0
  4  5  2  0  0  0  0
  4 10  1  0  0  0  0
  5  6  1  0  0  0  0
  5  8  1  0  0  0  0
  6  7  2  0  0  0  0
  8  9  1  0  0  0  0
  9 10  2  0  0  0  0
M  END
>  <CHROM.1>
11.58126808,11.56747134,7.21041728,1.55574218,1.29646097,-2.16661344

>  <Name>
ligand

>  <RI>
0

>  <Rbt.Current_Directory>
/home/itssahil/PROJECTS/Mol_Feturizer/New_Systems/rnas/4FEJ

>  <Rbt.Executable>
rbdock ($Id: //depot/dev/client3/rdock/2013.1/src/exe/rbdock.cxx#4 $)

>  <Rbt.Library>
libRbt.so (2013.1, Build901 2013/11/27)

>  <Rbt.Parameter_File>
/export/apps/rDock/src/rDock_2013.1_src/data/scripts/dock_solv.prm

>  <Rbt.Receptor>
prm/pocket_docking_3.prm

>  <SCORE>
-16.6101

>  <SCORE.INTER>
-16.6101

>  <SCORE.INTER.CONST>
1

>  <SCORE.INTER.POLAR>
0

>  <SCORE.INTER.ROT>
0

>  <SCORE.INTER.SOLV>
3.869

>  <SCORE.INTER.VDW>
-15.9631

>  <SCORE.INTER.norm>
-1.66101

>  <SCORE.INTRA>
0

>  <SCORE.INTRA.DIHEDRAL>
0

>  <SCORE.INTRA.DIHEDRAL.0>
0

>  <SCORE.INTRA.POLAR>
0

>  <SCORE.INTRA.POLAR.0>
0

>  <SCORE.INTRA.REPUL>
0

>  <SCORE.INTRA.REPUL.0>
0

>  <SCORE.INTRA.SOLV>
0

>  <SCORE.INTRA.SOLV.lig_0>
-4.26631

>  <SCORE.INTRA.VDW>
0

>  <SCORE.INTRA.VDW.0>
0

>  <SCORE.INTRA.norm>
0

>  <SCORE.RESTR>
0

>  <SCORE.RESTR.CAVITY>
0

>  <SCORE.RESTR.norm>
0

>  <SCORE.SYSTEM>
0

>  <SCORE.SYSTEM.CONST>
0

>  <SCORE.SYSTEM.DIHEDRAL>
0

>  <SCORE.SYSTEM.SOLV>
0

>  <SCORE.SYSTEM.norm>
0

>  <SCORE.heavy>
10

>  <SCORE.norm>
-1.66101

>  <RMSD>
2.867

$$$$
ligand
 OpenBabel11021811493D
libRbt.so/2013.1/901 2013/11/27
 10 11  0  0  0  0  0  0  0  0999 V2000
   11.4728   10.9090    5.4445 N   0  0  0  0  0  0  0  0  0  0  0  0
   11.1269   12.2198    5.2334 C   0  0  0  0  0  0  0  0  0  0  0  0
   11.0805   13.1044    6.2426 N   0  0  0  0  0  0  0  0  0  0  0  0
   11.4021   12.5752    7.4412 C   0  0  0  0  0  0  0  0  0  0  0  0
   11.7558   11.2728    7.7168 C   0  0  0  0  0  0  0  0  0  0  0  0
   11.8125   10.3298    6.6712 C   0  0  0  0  0  0  0  0  0  0  0  0
   12.1007    9.1414    6.7053 O   0  0  0  0  0  0  0  0  0  0  0  0
   12.0033   11.1586    9.0534 N   0  0  0  0  0  0  0  0  0  0  0  0
   11.7995   12.3818    9.5861 C   0  0  0  0  0  0  0  0  0  0  0  0
   11.4257   13.2760    8.6159 N   0  0  0  0  0  0  0  0  0  0  0  0
  1  2  1  0  0  0  0
  1  6  1  0  0  0  0
  2  3  2  0  0  0  0
  3  4  1  0  0  0  0
  4  5  2  0  0  0  0
  4 10  1  0  0  0  0
  5  6  1  0  0  0  0
  5  8  1  0  0  0  0
  6  7  2  0  0  0  0
  8  9  1  0  0  0  0
  9 10  2  0  0  0  0
M  END
>  <CHROM.1>
11.60697494,11.59022484,7.25806119,1.54211027,1.28945670,-2.17112998

>  <Name>
ligand

>  <RI>
0

>  <Rbt.Current_Directory>
/home/itssahil/PROJECTS/Mol_Feturizer/New_Systems/rnas/4FEJ

>  <Rbt.Executable>
rbdock ($Id: //depot/dev/client3/rdock/2013.1/src/exe/rbdock.cxx#4 $)

>  <Rbt.Library>
libRbt.so (2013.1, Build901 2013/11/27)

>  <Rbt.Parameter_File>
/export/apps/rDock/src/rDock_2013.1_src/data/scripts/dock_solv.prm

>  <Rbt.Receptor>
prm/pocket_docking_4.prm

>  <SCORE>
-16.6328

>  <SCORE.INTER>
-16.6328

>  <SCORE.INTER.CONST>
1

>  <SCORE.INTER.POLAR>
0

>  <SCORE.INTER.ROT>
0

>  <SCORE.INTER.SOLV>
3.78808

>  <SCORE.INTER.VDW>
-15.9512

>  <SCORE.INTER.norm>
-1.66328

>  <SCORE.INTRA>
0

>  <SCORE.INTRA.DIHEDRAL>
0

>  <SCORE.INTRA.DIHEDRAL.0>
0

>  <SCORE.INTRA.POLAR>
0

>  <SCORE.INTRA.POLAR.0>
0

>  <SCORE.INTRA.REPUL>
0

>  <SCORE.INTRA.REPUL.0>
0

>  <SCORE.INTRA.SOLV>
0

>  <SCORE.INTRA.SOLV.lig_0>
-4.26631

>  <SCORE.INTRA.VDW>
0

>  <SCORE.INTRA.VDW.0>
0

>  <SCORE.INTRA.norm>
0

>  <SCORE.RESTR>
0

>  <SCORE.RESTR.CAVITY>
0

>  <SCORE.RESTR.norm>
0

>  <SCORE.SYSTEM>
0

>  <SCORE.SYSTEM.CONST>
0

>  <SCORE.SYSTEM.DIHEDRAL>
0

>  <SCORE.SYSTEM.SOLV>
0

>  <SCORE.SYSTEM.norm>
0

>  <SCORE.heavy>
10

>  <SCORE.norm>
-1.66328

>  <RMSD>
2.867

$$$$
ligand
 OpenBabel11021811493D
libRbt.so/2013.1/901 2013/11/27
 10 11  0  0  0  0  0  0  0  0999 V2000
   11.4538   10.9198    5.4173 N   0  0  0  0  0  0  0  0  0  0  0  0
   11.1136   12.2333    5.2139 C   0  0  0  0  0  0  0  0  0  0  0  0
   11.0725   13.1126    6.2279 N   0  0  0  0  0  0  0  0  0  0  0  0
   11.3931   12.5753    7.4232 C   0  0  0  0  0  0  0  0  0  0  0  0
   11.7411   11.2698    7.6913 C   0  0  0  0  0  0  0  0  0  0  0  0
   11.7923   10.3324    6.6404 C   0  0  0  0  0  0  0  0  0  0  0  0
   12.0751    9.1424    6.6677 O   0  0  0  0  0  0  0  0  0  0  0  0
   11.9895   11.1472    9.0270 N   0  0  0  0  0  0  0  0  0  0  0  0
   11.7920   12.3684    9.5666 C   0  0  0  0  0  0  0  0  0  0  0  0
   11.4212   13.2695    8.6017 N   0  0  0  0  0  0  0  0  0  0  0  0
  1  2  1  0  0  0  0
  1  6  1  0  0  0  0
  2  3  2  0  0  0  0
  3  4  1  0  0  0  0
  4  5  2  0  0  0  0
  4 10  1  0  0  0  0
  5  6  1  0  0  0  0
  5  8  1  0  0  0  0
  6  7  2  0  0  0  0
  8  9  1  0  0  0  0
  9 10  2  0  0  0  0
M  END
>  <CHROM.1>
11.59317833,11.59044598,7.23447540,1.55498125,1.29256286,-2.17802162

>  <Name>
ligand

>  <RI>
0

>  <Rbt.Current_Directory>
/home/itssahil/PROJECTS/Mol_Feturizer/New_Systems/rnas/4FEJ

>  <Rbt.Executable>
rbdock ($Id: //depot/dev/client3/rdock/2013.1/src/exe/rbdock.cxx#4 $)

>  <Rbt.Library>
libRbt.so (2013.1, Build901 2013/11/27)

>  <Rbt.Parameter_File>
/export/apps/rDock/src/rDock_2013.1_src/data/scripts/dock_solv.prm

>  <Rbt.Receptor>
prm/pocket_docking_5.prm

>  <SCORE>
-16.6484

>  <SCORE.INTER>
-16.6484

>  <SCORE.INTER.CONST>
1

>  <SCORE.INTER.POLAR>
0

>  <SCORE.INTER.ROT>
0

>  <SCORE.INTER.SOLV>
3.82636

>  <SCORE.INTER.VDW>
-15.9744

>  <SCORE.INTER.norm>
-1.66484

>  <SCORE.INTRA>
0

>  <SCORE.INTRA.DIHEDRAL>
0

>  <SCORE.INTRA.DIHEDRAL.0>
0

>  <SCORE.INTRA.POLAR>
0

>  <SCORE.INTRA.POLAR.0>
0

>  <SCORE.INTRA.REPUL>
0

>  <SCORE.INTRA.REPUL.0>
0

>  <SCORE.INTRA.SOLV>
0

>  <SCORE.INTRA.SOLV.lig_0>
-4.26631

>  <SCORE.INTRA.VDW>
0

>  <SCORE.INTRA.VDW.0>
0

>  <SCORE.INTRA.norm>
0

>  <SCORE.RESTR>
0

>  <SCORE.RESTR.CAVITY>
0

>  <SCORE.RESTR.norm>
0

>  <SCORE.SYSTEM>
0

>  <SCORE.SYSTEM.CONST>
0

>  <SCORE.SYSTEM.DIHEDRAL>
0

>  <SCORE.SYSTEM.SOLV>
0

>  <SCORE.SYSTEM.norm>
0

>  <SCORE.heavy>
10

>  <SCORE.norm>
-1.66484

>  <RMSD>
2.867

$$$$
ligand
 OpenBabel11021811493D
libRbt.so/2013.1/901 2013/11/27
 10 11  0  0  0  0  0  0  0  0999 V2000
   11.4412   10.9354    5.4095 N   0  0  0  0  0  0  0  0  0  0  0  0
   11.0661   12.2422    5.2248 C   0  0  0  0  0  0  0  0  0  0  0  0
   11.0192   13.1100    6.2484 N   0  0  0  0  0  0  0  0  0  0  0  0
   11.3711   12.5689    7.4331 C   0  0  0  0  0  0  0  0  0  0  0  0
   11.7549   11.2697    7.6823 C   0  0  0  0  0  0  0  0  0  0  0  0
   11.8128   10.3443    6.6212 C   0  0  0  0  0  0  0  0  0  0  0  0
   12.1248    9.1615    6.6319 O   0  0  0  0  0  0  0  0  0  0  0  0
   12.0269   11.1399    9.0128 N   0  0  0  0  0  0  0  0  0  0  0  0
   11.8080   12.3504    9.5680 C   0  0  0  0  0  0  0  0  0  0  0  0
   11.4005   13.2518    8.6182 N   0  0  0  0  0  0  0  0  0  0  0  0
  1  2  1  0  0  0  0
  1  6  1  0  0  0  0
  2  3  2  0  0  0  0
  3  4  1  0  0  0  0
  4  5  2  0  0  0  0
  4 10  1  0  0  0  0
  5  6  1  0  0  0  0
  5  8  1  0  0  0  0
  6  7  2  0  0  0  0
  8  9  1  0  0  0  0
  9 10  2  0  0  0  0
M  END
>  <CHROM.1>
11.59223154,11.59117390,7.23115526,1.55088248,1.26376640,-2.16393773

>  <Name>
ligand

>  <RI>
0

>  <Rbt.Current_Directory>
/home/itssahil/PROJECTS/Mol_Feturizer/New_Systems/rnas/4FEJ

>  <Rbt.Executable>
rbdock ($Id: //depot/dev/client3/rdock/2013.1/src/exe/rbdock.cxx#4 $)

>  <Rbt.Library>
libRbt.so (2013.1, Build901 2013/11/27)

>  <Rbt.Parameter_File>
/export/apps/rDock/src/rDock_2013.1_src/data/scripts/dock_solv.prm

>  <Rbt.Receptor>
prm/pocket_docking_5.prm

>  <SCORE>
-16.6805

>  <SCORE.INTER>
-16.6805

>  <SCORE.INTER.CONST>
1

>  <SCORE.INTER.POLAR>
0

>  <SCORE.INTER.ROT>
0

>  <SCORE.INTER.SOLV>
3.76312

>  <SCORE.INTER.VDW>
-15.9747

>  <SCORE.INTER.norm>
-1.66805

>  <SCORE.INTRA>
0

>  <SCORE.INTRA.DIHEDRAL>
0

>  <SCORE.INTRA.DIHEDRAL.0>
0

>  <SCORE.INTRA.POLAR>
0

>  <SCORE.INTRA.POLAR.0>
0

>  <SCORE.INTRA.REPUL>
0

>  <SCORE.INTRA.REPUL.0>
0

>  <SCORE.INTRA.SOLV>
0

>  <SCORE.INTRA.SOLV.lig_0>
-4.26631

>  <SCORE.INTRA.VDW>
0

>  <SCORE.INTRA.VDW.0>
0

>  <SCORE.INTRA.norm>
0

>  <SCORE.RESTR>
0

>  <SCORE.RESTR.CAVITY>
0

>  <SCORE.RESTR.norm>
0

>  <SCORE.SYSTEM>
0

>  <SCORE.SYSTEM.CONST>
0

>  <SCORE.SYSTEM.DIHEDRAL>
0

>  <SCORE.SYSTEM.SOLV>
0

>  <SCORE.SYSTEM.norm>
0

>  <SCORE.heavy>
10

>  <SCORE.norm>
-1.66805

>  <RMSD>
2.867

$$$$
ligand
 OpenBabel11021811493D
libRbt.so/2013.1/901 2013/11/27
 10 11  0  0  0  0  0  0  0  0999 V2000
   11.4371   10.9313    5.4199 N   0  0  0  0  0  0  0  0  0  0  0  0
   11.0650   12.2380    5.2294 C   0  0  0  0  0  0  0  0  0  0  0  0
   11.0154   13.1093    6.2500 N   0  0  0  0  0  0  0  0  0  0  0  0
   11.3617   12.5715    7.4379 C   0  0  0  0  0  0  0  0  0  0  0  0
   11.7422   11.2725    7.6928 C   0  0  0  0  0  0  0  0  0  0  0  0
   11.8028   10.3436    6.6350 C   0  0  0  0  0  0  0  0  0  0  0  0
   12.1128    9.1602    6.6508 O   0  0  0  0  0  0  0  0  0  0  0  0
   12.0086   11.1466    9.0248 N   0  0  0  0  0  0  0  0  0  0  0  0
   11.7896   12.3593    9.5751 C   0  0  0  0  0  0  0  0  0  0  0  0
   11.3874   13.2583    8.6208 N   0  0  0  0  0  0  0  0  0  0  0  0
  1  2  1  0  0  0  0
  1  6  1  0  0  0  0
  2  3  2  0  0  0  0
  3  4  1  0  0  0  0
  4  5  2  0  0  0  0
  4 10  1  0  0  0  0
  5  6  1  0  0  0  0
  5  8  1  0  0  0  0
  6  7  2  0  0  0  0
  8  9  1  0  0  0  0
  9 10  2  0  0  0  0
M  END
>  <CHROM.1>
11.58192522,11.59274527,7.23999438,1.54291026,1.26741331,-2.15961624

>  <Name>
ligand

>  <RI>
0

>  <Rbt.Current_Directory>
/home/itssahil/PROJECTS/Mol_Feturizer/New_Systems/rnas/4FEJ

>  <Rbt.Executable>
rbdock ($Id: //depot/dev/client3/rdock/2013.1/src/exe/rbdock.cxx#4 $)

>  <Rbt.Library>
libRbt.so (2013.1, Build901 2013/11/27)

>  <Rbt.Parameter_File>
/export/apps/rDock/src/rDock_2013.1_src/data/scripts/dock_solv.prm

>  <Rbt.Receptor>
prm/pocket_docking_8.prm

>  <SCORE>
-16.685

>  <SCORE.INTER>
-16.685

>  <SCORE.INTER.CONST>
1

>  <SCORE.INTER.POLAR>
0

>  <SCORE.INTER.ROT>
0

>  <SCORE.INTER.SOLV>
3.77109

>  <SCORE.INTER.VDW>
-15.9804

>  <SCORE.INTER.norm>
-1.6685

>  <SCORE.INTRA>
0

>  <SCORE.INTRA.DIHEDRAL>
0

>  <SCORE.INTRA.DIHEDRAL.0>
0

>  <SCORE.INTRA.POLAR>
0

>  <SCORE.INTRA.POLAR.0>
0

>  <SCORE.INTRA.REPUL>
0

>  <SCORE.INTRA.REPUL.0>
0

>  <SCORE.INTRA.SOLV>
0

>  <SCORE.INTRA.SOLV.lig_0>
-4.26631

>  <SCORE.INTRA.VDW>
0

>  <SCORE.INTRA.VDW.0>
0

>  <SCORE.INTRA.norm>
0

>  <SCORE.RESTR>
0

>  <SCORE.RESTR.CAVITY>
0

>  <SCORE.RESTR.norm>
0

>  <SCORE.SYSTEM>
0

>  <SCORE.SYSTEM.CONST>
0

>  <SCORE.SYSTEM.DIHEDRAL>
0

>  <SCORE.SYSTEM.SOLV>
0

>  <SCORE.SYSTEM.norm>
0

>  <SCORE.heavy>
10

>  <SCORE.norm>
-1.6685

>  <RMSD>
2.867

$$$$
ligand
 OpenBabel11021811493D
libRbt.so/2013.1/901 2013/11/27
 10 11  0  0  0  0  0  0  0  0999 V2000
   11.4242   10.9267    5.4049 N   0  0  0  0  0  0  0  0  0  0  0  0
   11.0632   12.2378    5.2232 C   0  0  0  0  0  0  0  0  0  0  0  0
   11.0245   13.1035    6.2490 N   0  0  0  0  0  0  0  0  0  0  0  0
   11.3695   12.5557    7.4326 C   0  0  0  0  0  0  0  0  0  0  0  0
   11.7392   11.2519    7.6789 C   0  0  0  0  0  0  0  0  0  0  0  0
   11.7882   10.3286    6.6155 C   0  0  0  0  0  0  0  0  0  0  0  0
   12.0876    9.1425    6.6235 O   0  0  0  0  0  0  0  0  0  0  0  0
   12.0085   11.1158    9.0093 N   0  0  0  0  0  0  0  0  0  0  0  0
   11.8020   12.3272    9.5673 C   0  0  0  0  0  0  0  0  0  0  0  0
   11.4051   13.2353    8.6194 N   0  0  0  0  0  0  0  0  0  0  0  0
  1  2  1  0  0  0  0
  1  6  1  0  0  0  0
  2  3  2  0  0  0  0
  3  4  1  0  0  0  0
  4  5  2  0  0  0  0
  4 10  1  0  0  0  0
  5  6  1  0  0  0  0
  5  8  1  0  0  0  0
  6  7  2  0  0  0  0
  8  9  1  0  0  0  0
  9 10  2  0  0  0  0
M  END
>  <CHROM.1>
11.58040701,11.57620573,7.22839823,1.56850204,1.27311137,-2.17824089

>  <Name>
ligand

>  <RI>
0

>  <Rbt.Current_Directory>
/home/itssahil/PROJECTS/Mol_Feturizer/New_Systems/rnas/4FEJ

>  <Rbt.Executable>
rbdock ($Id: //depot/dev/client3/rdock/2013.1/src/exe/rbdock.cxx#4 $)

>  <Rbt.Library>
libRbt.so (2013.1, Build901 2013/11/27)

>  <Rbt.Parameter_File>
/export/apps/rDock/src/rDock_2013.1_src/data/scripts/dock_solv.prm

>  <Rbt.Receptor>
prm/blind_docking_40.prm

>  <SCORE>
-16.6186

>  <SCORE.INTER>
-16.6186

>  <SCORE.INTER.CONST>
1

>  <SCORE.INTER.POLAR>
0

>  <SCORE.INTER.ROT>
0

>  <SCORE.INTER.SOLV>
3.80863

>  <SCORE.INTER.VDW>
-15.9486

>  <SCORE.INTER.norm>
-1.66186

>  <SCORE.INTRA>
0

>  <SCORE.INTRA.DIHEDRAL>
0

>  <SCORE.INTRA.DIHEDRAL.0>
0

>  <SCORE.INTRA.POLAR>
0

>  <SCORE.INTRA.POLAR.0>
0

>  <SCORE.INTRA.REPUL>
0

>  <SCORE.INTRA.REPUL.0>
0

>  <SCORE.INTRA.SOLV>
0

>  <SCORE.INTRA.SOLV.lig_0>
-4.26631

>  <SCORE.INTRA.VDW>
0

>  <SCORE.INTRA.VDW.0>
0

>  <SCORE.INTRA.norm>
0

>  <SCORE.RESTR>
0

>  <SCORE.RESTR.CAVITY>
0

>  <SCORE.RESTR.norm>
0

>  <SCORE.SYSTEM>
0

>  <SCORE.SYSTEM.CONST>
0

>  <SCORE.SYSTEM.DIHEDRAL>
0

>  <SCORE.SYSTEM.SOLV>
0

>  <SCORE.SYSTEM.norm>
0

>  <SCORE.heavy>
10

>  <SCORE.norm>
-1.66186

>  <RMSD>
2.868

$$$$
ligand
 OpenBabel11021811493D
libRbt.so/2013.1/901 2013/11/27
 10 11  0  0  0  0  0  0  0  0999 V2000
   11.4121   10.9171    5.4014 N   0  0  0  0  0  0  0  0  0  0  0  0
   11.0533   12.2284    5.2163 C   0  0  0  0  0  0  0  0  0  0  0  0
   11.0202   13.0978    6.2391 N   0  0  0  0  0  0  0  0  0  0  0  0
   11.3684   12.5535    7.4234 C   0  0  0  0  0  0  0  0  0  0  0  0
   11.7362   11.2498    7.6730 C   0  0  0  0  0  0  0  0  0  0  0  0
   11.7793   10.3226    6.6128 C   0  0  0  0  0  0  0  0  0  0  0  0
   12.0762    9.1358    6.6239 O   0  0  0  0  0  0  0  0  0  0  0  0
   12.0100   11.1179    9.0029 N   0  0  0  0  0  0  0  0  0  0  0  0
   11.8082   12.3317    9.5573 C   0  0  0  0  0  0  0  0  0  0  0  0
   11.4097   13.2373    8.6076 N   0  0  0  0  0  0  0  0  0  0  0  0
  1  2  1  0  0  0  0
  1  6  1  0  0  0  0
  2  3  2  0  0  0  0
  3  4  1  0  0  0  0
  4  5  2  0  0  0  0
  4 10  1  0  0  0  0
  5  6  1  0  0  0  0
  5  8  1  0  0  0  0
  6  7  2  0  0  0  0
  8  9  1  0  0  0  0
  9 10  2  0  0  0  0
M  END
>  <CHROM.1>
11.57643681,11.57279970,7.22196137,1.58289184,1.27274764,-2.19558052

>  <Name>
ligand

>  <RI>
0

>  <Rbt.Current_Directory>
/home/itssahil/PROJECTS/Mol_Feturizer/New_Systems/rnas/4FEJ

>  <Rbt.Executable>
rbdock ($Id: //depot/dev/client3/rdock/2013.1/src/exe/rbdock.cxx#4 $)

>  <Rbt.Library>
libRbt.so (2013.1, Build901 2013/11/27)

>  <Rbt.Parameter_File>
/export/apps/rDock/src/rDock_2013.1_src/data/scripts/dock_solv.prm

>  <Rbt.Receptor>
prm/blind_docking_40.prm

>  <SCORE>
-16.6198

>  <SCORE.INTER>
-16.6198

>  <SCORE.INTER.CONST>
1

>  <SCORE.INTER.POLAR>
0

>  <SCORE.INTER.ROT>
0

>  <SCORE.INTER.SOLV>
3.81567

>  <SCORE.INTER.VDW>
-15.9518

>  <SCORE.INTER.norm>
-1.66198

>  <SCORE.INTRA>
0

>  <SCORE.INTRA.DIHEDRAL>
0

>  <SCORE.INTRA.DIHEDRAL.0>
0

>  <SCORE.INTRA.POLAR>
0

>  <SCORE.INTRA.POLAR.0>
0

>  <SCORE.INTRA.REPUL>
0

>  <SCORE.INTRA.REPUL.0>
0

>  <SCORE.INTRA.SOLV>
0

>  <SCORE.INTRA.SOLV.lig_0>
-4.26631

>  <SCORE.INTRA.VDW>
0

>  <SCORE.INTRA.VDW.0>
0

>  <SCORE.INTRA.norm>
0

>  <SCORE.RESTR>
0

>  <SCORE.RESTR.CAVITY>
0

>  <SCORE.RESTR.norm>
0

>  <SCORE.SYSTEM>
0

>  <SCORE.SYSTEM.CONST>
0

>  <SCORE.SYSTEM.DIHEDRAL>
0

>  <SCORE.SYSTEM.SOLV>
0

>  <SCORE.SYSTEM.norm>
0

>  <SCORE.heavy>
10

>  <SCORE.norm>
-1.66198

>  <RMSD>
2.868

$$$$
ligand
 OpenBabel11021811493D
libRbt.so/2013.1/901 2013/11/27
 10 11  0  0  0  0  0  0  0  0999 V2000
   11.4327   10.9385    5.4145 N   0  0  0  0  0  0  0  0  0  0  0  0
   11.0695   12.2481    5.2262 C   0  0  0  0  0  0  0  0  0  0  0  0
   11.0220   13.1171    6.2487 N   0  0  0  0  0  0  0  0  0  0  0  0
   11.3609   12.5741    7.4364 C   0  0  0  0  0  0  0  0  0  0  0  0
   11.7323   11.2721    7.6893 C   0  0  0  0  0  0  0  0  0  0  0  0
   11.7905   10.3454    6.6294 C   0  0  0  0  0  0  0  0  0  0  0  0
   12.0929    9.1601    6.6432 O   0  0  0  0  0  0  0  0  0  0  0  0
   11.9934   11.1411    9.0219 N   0  0  0  0  0  0  0  0  0  0  0  0
   11.7802   12.3538    9.5745 C   0  0  0  0  0  0  0  0  0  0  0  0
   11.3870   13.2577    8.6211 N   0  0  0  0  0  0  0  0  0  0  0  0
  1  2  1  0  0  0  0
  1  6  1  0  0  0  0
  2  3  2  0  0  0  0
  3  4  1  0  0  0  0
  4  5  2  0  0  0  0
  4 10  1  0  0  0  0
  5  6  1  0  0  0  0
  5  8  1  0  0  0  0
  6  7  2  0  0  0  0
  8  9  1  0  0  0  0
  9 10  2  0  0  0  0
M  END
>  <CHROM.1>
11.57556780,11.59446918,7.23677905,1.54541297,1.27456311,-2.15947017

>  <Name>
ligand

>  <RI>
0

>  <Rbt.Current_Directory>
/home/itssahil/PROJECTS/Mol_Feturizer/New_Systems/rnas/4FEJ

>  <Rbt.Executable>
rbdock ($Id: //depot/dev/client3/rdock/2013.1/src/exe/rbdock.cxx#4 $)

>  <Rbt.Library>
libRbt.so (2013.1, Build901 2013/11/27)

>  <Rbt.Parameter_File>
/export/apps/rDock/src/rDock_2013.1_src/data/scripts/dock_solv.prm

>  <Rbt.Receptor>
prm/blind_docking_60.prm

>  <SCORE>
-16.6531

>  <SCORE.INTER>
-16.6531

>  <SCORE.INTER.CONST>
1

>  <SCORE.INTER.POLAR>
0

>  <SCORE.INTER.ROT>
0

>  <SCORE.INTER.SOLV>
3.7999

>  <SCORE.INTER.VDW>
-15.9687

>  <SCORE.INTER.norm>
-1.66531

>  <SCORE.INTRA>
0

>  <SCORE.INTRA.DIHEDRAL>
0

>  <SCORE.INTRA.DIHEDRAL.0>
0

>  <SCORE.INTRA.POLAR>
0

>  <SCORE.INTRA.POLAR.0>
0

>  <SCORE.INTRA.REPUL>
0

>  <SCORE.INTRA.REPUL.0>
0

>  <SCORE.INTRA.SOLV>
0

>  <SCORE.INTRA.SOLV.lig_0>
-4.26631

>  <SCORE.INTRA.VDW>
0

>  <SCORE.INTRA.VDW.0>
0

>  <SCORE.INTRA.norm>
0

>  <SCORE.RESTR>
0

>  <SCORE.RESTR.CAVITY>
0

>  <SCORE.RESTR.norm>
0

>  <SCORE.SYSTEM>
0

>  <SCORE.SYSTEM.CONST>
0

>  <SCORE.SYSTEM.DIHEDRAL>
0

>  <SCORE.SYSTEM.SOLV>
0

>  <SCORE.SYSTEM.norm>
0

>  <SCORE.heavy>
10

>  <SCORE.norm>
-1.66531

>  <RMSD>
2.868

$$$$
ligand
 OpenBabel11021811493D
libRbt.so/2013.1/901 2013/11/27
 10 11  0  0  0  0  0  0  0  0999 V2000
   11.4116   10.8984    5.4655 N   0  0  0  0  0  0  0  0  0  0  0  0
   11.0705   12.2097    5.2493 C   0  0  0  0  0  0  0  0  0  0  0  0
   11.0509   13.1038    6.2509 N   0  0  0  0  0  0  0  0  0  0  0  0
   11.3934   12.5834    7.4476 C   0  0  0  0  0  0  0  0  0  0  0  0
   11.7436   11.2811    7.7281 C   0  0  0  0  0  0  0  0  0  0  0  0
   11.7724   10.3282    6.6904 C   0  0  0  0  0  0  0  0  0  0  0  0
   12.0530    9.1381    6.7297 O   0  0  0  0  0  0  0  0  0  0  0  0
   12.0176   11.1775    9.0604 N   0  0  0  0  0  0  0  0  0  0  0  0
   11.8333   12.4070    9.5857 C   0  0  0  0  0  0  0  0  0  0  0  0
   11.4459   13.2948    8.6150 N   0  0  0  0  0  0  0  0  0  0  0  0
  1  2  1  0  0  0  0
  1  6  1  0  0  0  0
  2  3  2  0  0  0  0
  3  4  1  0  0  0  0
  4  5  2  0  0  0  0
  4 10  1  0  0  0  0
  5  6  1  0  0  0  0
  5  8  1  0  0  0  0
  6  7  2  0  0  0  0
  8  9  1  0  0  0  0
  9 10  2  0  0  0  0
M  END
>  <CHROM.1>
11.58761530,11.59538650,7.26954812,1.61552090,1.28285696,-2.25088145

>  <Name>
ligand

>  <RI>
0

>  <Rbt.Current_Directory>
/home/itssahil/PROJECTS/Mol_Feturizer/New_Systems/rnas/4FEJ

>  <Rbt.Executable>
rbdock ($Id: //depot/dev/client3/rdock/2013.1/src/exe/rbdock.cxx#4 $)

>  <Rbt.Library>
libRbt.so (2013.1, Build901 2013/11/27)

>  <Rbt.Parameter_File>
/export/apps/rDock/src/rDock_2013.1_src/data/scripts/dock_solv.prm

>  <Rbt.Receptor>
prm/blind_docking_80.prm

>  <SCORE>
-16.5696

>  <SCORE.INTER>
-16.5696

>  <SCORE.INTER.CONST>
1

>  <SCORE.INTER.POLAR>
0

>  <SCORE.INTER.ROT>
0

>  <SCORE.INTER.SOLV>
3.81385

>  <SCORE.INTER.VDW>
-15.9177

>  <SCORE.INTER.norm>
-1.65696

>  <SCORE.INTRA>
0

>  <SCORE.INTRA.DIHEDRAL>
0

>  <SCORE.INTRA.DIHEDRAL.0>
0

>  <SCORE.INTRA.POLAR>
0

>  <SCORE.INTRA.POLAR.0>
0

>  <SCORE.INTRA.REPUL>
0

>  <SCORE.INTRA.REPUL.0>
0

>  <SCORE.INTRA.SOLV>
0

>  <SCORE.INTRA.SOLV.lig_0>
-4.26631

>  <SCORE.INTRA.VDW>
0

>  <SCORE.INTRA.VDW.0>
0

>  <SCORE.INTRA.norm>
0

>  <SCORE.RESTR>
0

>  <SCORE.RESTR.CAVITY>
0

>  <SCORE.RESTR.norm>
0

>  <SCORE.SYSTEM>
0

>  <SCORE.SYSTEM.CONST>
0

>  <SCORE.SYSTEM.DIHEDRAL>
0

>  <SCORE.SYSTEM.SOLV>
0

>  <SCORE.SYSTEM.norm>
0

>  <SCORE.heavy>
10

>  <SCORE.norm>
-1.65696

>  <RMSD>
2.868

$$$$
ligand
 OpenBabel11021811493D
libRbt.so/2013.1/901 2013/11/27
 10 11  0  0  0  0  0  0  0  0999 V2000
   11.4351   10.9423    5.4050 N   0  0  0  0  0  0  0  0  0  0  0  0
   11.0691   12.2521    5.2235 C   0  0  0  0  0  0  0  0  0  0  0  0
   11.0235   13.1165    6.2500 N   0  0  0  0  0  0  0  0  0  0  0  0
   11.3670   12.5689    7.4342 C   0  0  0  0  0  0  0  0  0  0  0  0
   11.7414   11.2664    7.6803 C   0  0  0  0  0  0  0  0  0  0  0  0
   11.7977   10.3445    6.6161 C   0  0  0  0  0  0  0  0  0  0  0  0
   12.1021    9.1596    6.6238 O   0  0  0  0  0  0  0  0  0  0  0  0
   12.0069   11.1300    9.0114 N   0  0  0  0  0  0  0  0  0  0  0  0
   11.7935   12.3400    9.5700 C   0  0  0  0  0  0  0  0  0  0  0  0
   11.3958   13.2474    8.6218 N   0  0  0  0  0  0  0  0  0  0  0  0
  1  2  1  0  0  0  0
  1  6  1  0  0  0  0
  2  3  2  0  0  0  0
  3  4  1  0  0  0  0
  4  5  2  0  0  0  0
  4 10  1  0  0  0  0
  5  6  1  0  0  0  0
  5  8  1  0  0  0  0
  6  7  2  0  0  0  0
  8  9  1  0  0  0  0
  9 10  2  0  0  0  0
M  END
>  <CHROM.1>
11.58266814,11.59049663,7.22964435,1.55131605,1.27143425,-2.16074626

>  <Name>
ligand

>  <RI>
0

>  <Rbt.Current_Directory>
/home/itssahil/PROJECTS/Mol_Feturizer/New_Systems/rnas/4FEJ

>  <Rbt.Executable>
rbdock ($Id: //depot/dev/client3/rdock/2013.1/src/exe/rbdock.cxx#4 $)

>  <Rbt.Library>
libRbt.so (2013.1, Build901 2013/11/27)

>  <Rbt.Parameter_File>
/export/apps/rDock/src/rDock_2013.1_src/data/scripts/dock_solv.prm

>  <Rbt.Receptor>
prm/blind_docking_80.prm

>  <SCORE>
-16.6851

>  <SCORE.INTER>
-16.6851

>  <SCORE.INTER.CONST>
1

>  <SCORE.INTER.POLAR>
0

>  <SCORE.INTER.ROT>
0

>  <SCORE.INTER.SOLV>
3.795

>  <SCORE.INTER.VDW>
-15.9884

>  <SCORE.INTER.norm>
-1.66851

>  <SCORE.INTRA>
0

>  <SCORE.INTRA.DIHEDRAL>
0

>  <SCORE.INTRA.DIHEDRAL.0>
0

>  <SCORE.INTRA.POLAR>
0

>  <SCORE.INTRA.POLAR.0>
0

>  <SCORE.INTRA.REPUL>
0

>  <SCORE.INTRA.REPUL.0>
0

>  <SCORE.INTRA.SOLV>
0

>  <SCORE.INTRA.SOLV.lig_0>
-4.26631

>  <SCORE.INTRA.VDW>
0

>  <SCORE.INTRA.VDW.0>
0

>  <SCORE.INTRA.norm>
0

>  <SCORE.RESTR>
0

>  <SCORE.RESTR.CAVITY>
0

>  <SCORE.RESTR.norm>
0

>  <SCORE.SYSTEM>
0

>  <SCORE.SYSTEM.CONST>
0

>  <SCORE.SYSTEM.DIHEDRAL>
0

>  <SCORE.SYSTEM.SOLV>
0

>  <SCORE.SYSTEM.norm>
0

>  <SCORE.heavy>
10

>  <SCORE.norm>
-1.66851

>  <RMSD>
2.868

$$$$
ligand
 OpenBabel11021811493D
libRbt.so/2013.1/901 2013/11/27
 10 11  0  0  0  0  0  0  0  0999 V2000
   11.4400   10.9430    5.4066 N   0  0  0  0  0  0  0  0  0  0  0  0
   11.0698   12.2515    5.2248 C   0  0  0  0  0  0  0  0  0  0  0  0
   11.0206   13.1159    6.2511 N   0  0  0  0  0  0  0  0  0  0  0  0
   11.3653   12.5696    7.4356 C   0  0  0  0  0  0  0  0  0  0  0  0
   11.7439   11.2683    7.6820 C   0  0  0  0  0  0  0  0  0  0  0  0
   11.8040   10.3465    6.6180 C   0  0  0  0  0  0  0  0  0  0  0  0
   12.1124    9.1626    6.6259 O   0  0  0  0  0  0  0  0  0  0  0  0
   12.0092   11.1330    9.0133 N   0  0  0  0  0  0  0  0  0  0  0  0
   11.7913   12.3423    9.5717 C   0  0  0  0  0  0  0  0  0  0  0  0
   11.3911   13.2482    8.6232 N   0  0  0  0  0  0  0  0  0  0  0  0
  1  2  1  0  0  0  0
  1  6  1  0  0  0  0
  2  3  2  0  0  0  0
  3  4  1  0  0  0  0
  4  5  2  0  0  0  0
  4 10  1  0  0  0  0
  5  6  1  0  0  0  0
  5  8  1  0  0  0  0
  6  7  2  0  0  0  0
  8  9  1  0  0  0  0
  9 10  2  0  0  0  0
M  END
>  <CHROM.1>
11.58438525,11.59185138,7.23125099,1.54337955,1.26894419,-2.15327221

>  <Name>
ligand

>  <RI>
0

>  <Rbt.Current_Directory>
/home/itssahil/PROJECTS/Mol_Feturizer/New_Systems/rnas/4FEJ

>  <Rbt.Executable>
rbdock ($Id: //depot/dev/client3/rdock/2013.1/src/exe/rbdock.cxx#4 $)

>  <Rbt.Library>
libRbt.so (2013.1, Build901 2013/11/27)

>  <Rbt.Parameter_File>
/export/apps/rDock/src/rDock_2013.1_src/data/scripts/dock_solv.prm

>  <Rbt.Receptor>
prm/pocket_docking_7.prm

>  <SCORE>
-16.6801

>  <SCORE.INTER>
-16.6801

>  <SCORE.INTER.CONST>
1

>  <SCORE.INTER.POLAR>
0

>  <SCORE.INTER.ROT>
0

>  <SCORE.INTER.SOLV>
3.78283

>  <SCORE.INTER.VDW>
-15.981

>  <SCORE.INTER.norm>
-1.66801

>  <SCORE.INTRA>
0

>  <SCORE.INTRA.DIHEDRAL>
0

>  <SCORE.INTRA.DIHEDRAL.0>
0

>  <SCORE.INTRA.POLAR>
0

>  <SCORE.INTRA.POLAR.0>
0

>  <SCORE.INTRA.REPUL>
0

>  <SCORE.INTRA.REPUL.0>
0

>  <SCORE.INTRA.SOLV>
0

>  <SCORE.INTRA.SOLV.lig_0>
-4.26631

>  <SCORE.INTRA.VDW>
0

>  <SCORE.INTRA.VDW.0>
0

>  <SCORE.INTRA.norm>
0

>  <SCORE.RESTR>
0

>  <SCORE.RESTR.CAVITY>
0

>  <SCORE.RESTR.norm>
0

>  <SCORE.SYSTEM>
0

>  <SCORE.SYSTEM.CONST>
0

>  <SCORE.SYSTEM.DIHEDRAL>
0

>  <SCORE.SYSTEM.SOLV>
0

>  <SCORE.SYSTEM.norm>
0

>  <SCORE.heavy>
10

>  <SCORE.norm>
-1.66801

>  <RMSD>
2.868

$$$$
ligand
 OpenBabel11021811493D
libRbt.so/2013.1/901 2013/11/27
 10 11  0  0  0  0  0  0  0  0999 V2000
   11.4278   10.9467    5.4038 N   0  0  0  0  0  0  0  0  0  0  0  0
   11.0659   12.2578    5.2237 C   0  0  0  0  0  0  0  0  0  0  0  0
   11.0239   13.1216    6.2509 N   0  0  0  0  0  0  0  0  0  0  0  0
   11.3668   12.5719    7.4344 C   0  0  0  0  0  0  0  0  0  0  0  0
   11.7372   11.2680    7.6790 C   0  0  0  0  0  0  0  0  0  0  0  0
   11.7896   10.3468    6.6140 C   0  0  0  0  0  0  0  0  0  0  0  0
   12.0902    9.1609    6.6205 O   0  0  0  0  0  0  0  0  0  0  0  0
   12.0035   11.1297    9.0098 N   0  0  0  0  0  0  0  0  0  0  0  0
   11.7945   12.3398    9.5696 C   0  0  0  0  0  0  0  0  0  0  0  0
   11.3988   13.2493    8.6225 N   0  0  0  0  0  0  0  0  0  0  0  0
  1  2  1  0  0  0  0
  1  6  1  0  0  0  0
  2  3  2  0  0  0  0
  3  4  1  0  0  0  0
  4  5  2  0  0  0  0
  4 10  1  0  0  0  0
  5  6  1  0  0  0  0
  5  8  1  0  0  0  0
  6  7  2  0  0  0  0
  8  9  1  0  0  0  0
  9 10  2  0  0  0  0
M  END
>  <CHROM.1>
11.57910269,11.59295983,7.22879387,1.55999086,1.27357813,-2.16823278

>  <Name>
ligand

>  <RI>
0

>  <Rbt.Current_Directory>
/home/itssahil/PROJECTS/Mol_Feturizer/New_Systems/rnas/4FEJ

>  <Rbt.Executable>
rbdock ($Id: //depot/dev/client3/rdock/2013.1/src/exe/rbdock.cxx#4 $)

>  <Rbt.Library>
libRbt.so (2013.1, Build901 2013/11/27)

>  <Rbt.Parameter_File>
/export/apps/rDock/src/rDock_2013.1_src/data/scripts/dock_solv.prm

>  <Rbt.Receptor>
prm/blind_docking_60.prm

>  <SCORE>
-16.6844

>  <SCORE.INTER>
-16.6844

>  <SCORE.INTER.CONST>
1

>  <SCORE.INTER.POLAR>
0

>  <SCORE.INTER.ROT>
0

>  <SCORE.INTER.SOLV>
3.80849

>  <SCORE.INTER.VDW>
-15.9924

>  <SCORE.INTER.norm>
-1.66844

>  <SCORE.INTRA>
0

>  <SCORE.INTRA.DIHEDRAL>
0

>  <SCORE.INTRA.DIHEDRAL.0>
0

>  <SCORE.INTRA.POLAR>
0

>  <SCORE.INTRA.POLAR.0>
0

>  <SCORE.INTRA.REPUL>
0

>  <SCORE.INTRA.REPUL.0>
0

>  <SCORE.INTRA.SOLV>
0

>  <SCORE.INTRA.SOLV.lig_0>
-4.26631

>  <SCORE.INTRA.VDW>
0

>  <SCORE.INTRA.VDW.0>
0

>  <SCORE.INTRA.norm>
0

>  <SCORE.RESTR>
0

>  <SCORE.RESTR.CAVITY>
0

>  <SCORE.RESTR.norm>
0

>  <SCORE.SYSTEM>
0

>  <SCORE.SYSTEM.CONST>
0

>  <SCORE.SYSTEM.DIHEDRAL>
0

>  <SCORE.SYSTEM.SOLV>
0

>  <SCORE.SYSTEM.norm>
0

>  <SCORE.heavy>
10

>  <SCORE.norm>
-1.66844

>  <RMSD>
2.869

$$$$
ligand
 OpenBabel11021811493D
libRbt.so/2013.1/901 2013/11/27
 10 11  0  0  0  0  0  0  0  0999 V2000
   11.4312   10.9408    5.4203 N   0  0  0  0  0  0  0  0  0  0  0  0
   11.0744   12.2520    5.2311 C   0  0  0  0  0  0  0  0  0  0  0  0
   11.0366   13.1232    6.2521 N   0  0  0  0  0  0  0  0  0  0  0  0
   11.3780   12.5807    7.4393 C   0  0  0  0  0  0  0  0  0  0  0  0
   11.7434   11.2771    7.6930 C   0  0  0  0  0  0  0  0  0  0  0  0
   11.7914   10.3480    6.6346 C   0  0  0  0  0  0  0  0  0  0  0  0
   12.0872    9.1610    6.6494 O   0  0  0  0  0  0  0  0  0  0  0  0
   12.0100   11.1472    9.0246 N   0  0  0  0  0  0  0  0  0  0  0  0
   11.8062   12.3622    9.5759 C   0  0  0  0  0  0  0  0  0  0  0  0
   11.4136   13.2664    8.6225 N   0  0  0  0  0  0  0  0  0  0  0  0
  1  2  1  0  0  0  0
  1  6  1  0  0  0  0
  2  3  2  0  0  0  0
  3  4  1  0  0  0  0
  4  5  2  0  0  0  0
  4 10  1  0  0  0  0
  5  6  1  0  0  0  0
  5  8  1  0  0  0  0
  6  7  2  0  0  0  0
  8  9  1  0  0  0  0
  9 10  2  0  0  0  0
M  END
>  <CHROM.1>
11.58628823,11.59944040,7.24057991,1.56961583,1.27653085,-2.18459287

>  <Name>
ligand

>  <RI>
0

>  <Rbt.Current_Directory>
/home/itssahil/PROJECTS/Mol_Feturizer/New_Systems/rnas/4FEJ

>  <Rbt.Executable>
rbdock ($Id: //depot/dev/client3/rdock/2013.1/src/exe/rbdock.cxx#4 $)

>  <Rbt.Library>
libRbt.so (2013.1, Build901 2013/11/27)

>  <Rbt.Parameter_File>
/export/apps/rDock/src/rDock_2013.1_src/data/scripts/dock_solv.prm

>  <Rbt.Receptor>
prm/pocket_docking_3.prm

>  <SCORE>
-16.6631

>  <SCORE.INTER>
-16.6631

>  <SCORE.INTER.CONST>
1

>  <SCORE.INTER.POLAR>
0

>  <SCORE.INTER.ROT>
0

>  <SCORE.INTER.SOLV>
3.80464

>  <SCORE.INTER.VDW>
-15.9769

>  <SCORE.INTER.norm>
-1.66631

>  <SCORE.INTRA>
0

>  <SCORE.INTRA.DIHEDRAL>
0

>  <SCORE.INTRA.DIHEDRAL.0>
0

>  <SCORE.INTRA.POLAR>
0

>  <SCORE.INTRA.POLAR.0>
0

>  <SCORE.INTRA.REPUL>
0

>  <SCORE.INTRA.REPUL.0>
0

>  <SCORE.INTRA.SOLV>
0

>  <SCORE.INTRA.SOLV.lig_0>
-4.26631

>  <SCORE.INTRA.VDW>
0

>  <SCORE.INTRA.VDW.0>
0

>  <SCORE.INTRA.norm>
0

>  <SCORE.RESTR>
0

>  <SCORE.RESTR.CAVITY>
0

>  <SCORE.RESTR.norm>
0

>  <SCORE.SYSTEM>
0

>  <SCORE.SYSTEM.CONST>
0

>  <SCORE.SYSTEM.DIHEDRAL>
0

>  <SCORE.SYSTEM.SOLV>
0

>  <SCORE.SYSTEM.norm>
0

>  <SCORE.heavy>
10

>  <SCORE.norm>
-1.66631

>  <RMSD>
2.869

$$$$
ligand
 OpenBabel11021811493D
libRbt.so/2013.1/901 2013/11/27
 10 11  0  0  0  0  0  0  0  0999 V2000
   11.4353   10.9455    5.4046 N   0  0  0  0  0  0  0  0  0  0  0  0
   11.0701   12.2555    5.2238 C   0  0  0  0  0  0  0  0  0  0  0  0
   11.0240   13.1193    6.2508 N   0  0  0  0  0  0  0  0  0  0  0  0
   11.3664   12.5707    7.4349 C   0  0  0  0  0  0  0  0  0  0  0  0
   11.7401   11.2678    7.6804 C   0  0  0  0  0  0  0  0  0  0  0  0
   11.7968   10.3467    6.6155 C   0  0  0  0  0  0  0  0  0  0  0  0
   12.1008    9.1616    6.6226 O   0  0  0  0  0  0  0  0  0  0  0  0
   12.0045   11.1304    9.0116 N   0  0  0  0  0  0  0  0  0  0  0  0
   11.7911   12.3400    9.5709 C   0  0  0  0  0  0  0  0  0  0  0  0
   11.3946   13.2483    8.6230 N   0  0  0  0  0  0  0  0  0  0  0  0
  1  2  1  0  0  0  0
  1  6  1  0  0  0  0
  2  3  2  0  0  0  0
  3  4  1  0  0  0  0
  4  5  2  0  0  0  0
  4 10  1  0  0  0  0
  5  6  1  0  0  0  0
  5  8  1  0  0  0  0
  6  7  2  0  0  0  0
  8  9  1  0  0  0  0
  9 10  2  0  0  0  0
M  END
>  <CHROM.1>
11.58180945,11.59233060,7.22980635,1.54990261,1.27219786,-2.15868684

>  <Name>
ligand

>  <RI>
0

>  <Rbt.Current_Directory>
/home/itssahil/PROJECTS/Mol_Feturizer/New_Systems/rnas/4FEJ

>  <Rbt.Executable>
rbdock ($Id: //depot/dev/client3/rdock/2013.1/src/exe/rbdock.cxx#4 $)

>  <Rbt.Library>
libRbt.so (2013.1, Build901 2013/11/27)

>  <Rbt.Parameter_File>
/export/apps/rDock/src/rDock_2013.1_src/data/scripts/dock_solv.prm

>  <Rbt.Receptor>
prm/pocket_docking_5.prm

>  <SCORE>
-16.6837

>  <SCORE.INTER>
-16.6837

>  <SCORE.INTER.CONST>
1

>  <SCORE.INTER.POLAR>
0

>  <SCORE.INTER.ROT>
0

>  <SCORE.INTER.SOLV>
3.79771

>  <SCORE.INTER.VDW>
-15.9884

>  <SCORE.INTER.norm>
-1.66837

>  <SCORE.INTRA>
0

>  <SCORE.INTRA.DIHEDRAL>
0

>  <SCORE.INTRA.DIHEDRAL.0>
0

>  <SCORE.INTRA.POLAR>
0

>  <SCORE.INTRA.POLAR.0>
0

>  <SCORE.INTRA.REPUL>
0

>  <SCORE.INTRA.REPUL.0>
0

>  <SCORE.INTRA.SOLV>
0

>  <SCORE.INTRA.SOLV.lig_0>
-4.26631

>  <SCORE.INTRA.VDW>
0

>  <SCORE.INTRA.VDW.0>
0

>  <SCORE.INTRA.norm>
0

>  <SCORE.RESTR>
0

>  <SCORE.RESTR.CAVITY>
0

>  <SCORE.RESTR.norm>
0

>  <SCORE.SYSTEM>
0

>  <SCORE.SYSTEM.CONST>
0

>  <SCORE.SYSTEM.DIHEDRAL>
0

>  <SCORE.SYSTEM.SOLV>
0

>  <SCORE.SYSTEM.norm>
0

>  <SCORE.heavy>
10

>  <SCORE.norm>
-1.66837

>  <RMSD>
2.869

$$$$
ligand
 OpenBabel11021811493D
libRbt.so/2013.1/901 2013/11/27
 10 11  0  0  0  0  0  0  0  0999 V2000
   11.4503   10.9163    5.4328 N   0  0  0  0  0  0  0  0  0  0  0  0
   11.0878   12.2292    5.2678 C   0  0  0  0  0  0  0  0  0  0  0  0
   11.0418   13.0801    6.3056 N   0  0  0  0  0  0  0  0  0  0  0  0
   11.3814   12.5161    7.4832 C   0  0  0  0  0  0  0  0  0  0  0  0
   11.7522   11.2096    7.7129 C   0  0  0  0  0  0  0  0  0  0  0  0
   11.8089   10.3017    6.6367 C   0  0  0  0  0  0  0  0  0  0  0  0
   12.1106    9.1161    6.6294 O   0  0  0  0  0  0  0  0  0  0  0  0
   12.0144   11.0551    9.0426 N   0  0  0  0  0  0  0  0  0  0  0  0
   11.8025   12.2580    9.6167 C   0  0  0  0  0  0  0  0  0  0  0  0
   11.4090   13.1788    8.6797 N   0  0  0  0  0  0  0  0  0  0  0  0
  1  2  1  0  0  0  0
  1  6  1  0  0  0  0
  2  3  2  0  0  0  0
  3  4  1  0  0  0  0
  4  5  2  0  0  0  0
  4 10  1  0  0  0  0
  5  6  1  0  0  0  0
  5  8  1  0  0  0  0
  6  7  2  0  0  0  0
  8  9  1  0  0  0  0
  9 10  2  0  0  0  0
M  END
>  <CHROM.1>
11.59527339,11.54001228,7.26617755,1.54915535,1.27457517,-2.14546734

>  <Name>
ligand

>  <RI>
0

>  <Rbt.Current_Directory>
/home/itssahil/PROJECTS/Mol_Feturizer/New_Systems/rnas/4FEJ

>  <Rbt.Executable>
rbdock ($Id: //depot/dev/client3/rdock/2013.1/src/exe/rbdock.cxx#4 $)

>  <Rbt.Library>
libRbt.so (2013.1, Build901 2013/11/27)

>  <Rbt.Parameter_File>
/export/apps/rDock/src/rDock_2013.1_src/data/scripts/dock_solv.prm

>  <Rbt.Receptor>
prm/pocket_docking_7.prm

>  <SCORE>
-16.6614

>  <SCORE.INTER>
-16.6614

>  <SCORE.INTER.CONST>
1

>  <SCORE.INTER.POLAR>
0

>  <SCORE.INTER.ROT>
0

>  <SCORE.INTER.SOLV>
3.79357

>  <SCORE.INTER.VDW>
-15.9721

>  <SCORE.INTER.norm>
-1.66614

>  <SCORE.INTRA>
0

>  <SCORE.INTRA.DIHEDRAL>
0

>  <SCORE.INTRA.DIHEDRAL.0>
0

>  <SCORE.INTRA.POLAR>
0

>  <SCORE.INTRA.POLAR.0>
0

>  <SCORE.INTRA.REPUL>
0

>  <SCORE.INTRA.REPUL.0>
0

>  <SCORE.INTRA.SOLV>
0

>  <SCORE.INTRA.SOLV.lig_0>
-4.26631

>  <SCORE.INTRA.VDW>
0

>  <SCORE.INTRA.VDW.0>
0

>  <SCORE.INTRA.norm>
0

>  <SCORE.RESTR>
0

>  <SCORE.RESTR.CAVITY>
0

>  <SCORE.RESTR.norm>
0

>  <SCORE.SYSTEM>
0

>  <SCORE.SYSTEM.CONST>
0

>  <SCORE.SYSTEM.DIHEDRAL>
0

>  <SCORE.SYSTEM.SOLV>
0

>  <SCORE.SYSTEM.norm>
0

>  <SCORE.heavy>
10

>  <SCORE.norm>
-1.66614

>  <RMSD>
2.872

$$$$
ligand
 OpenBabel11021811493D
libRbt.so/2013.1/901 2013/11/27
 10 11  0  0  0  0  0  0  0  0999 V2000
   11.4493   10.9148    5.4334 N   0  0  0  0  0  0  0  0  0  0  0  0
   11.0913   12.2289    5.2674 C   0  0  0  0  0  0  0  0  0  0  0  0
   11.0496   13.0810    6.3043 N   0  0  0  0  0  0  0  0  0  0  0  0
   11.3886   12.5171    7.4821 C   0  0  0  0  0  0  0  0  0  0  0  0
   11.7550   11.2095    7.7128 C   0  0  0  0  0  0  0  0  0  0  0  0
   11.8071   10.3002    6.6375 C   0  0  0  0  0  0  0  0  0  0  0  0
   12.1045    9.1135    6.6311 O   0  0  0  0  0  0  0  0  0  0  0  0
   12.0183   11.0554    9.0424 N   0  0  0  0  0  0  0  0  0  0  0  0
   11.8114   12.2597    9.6154 C   0  0  0  0  0  0  0  0  0  0  0  0
   11.4201   13.1809    8.6779 N   0  0  0  0  0  0  0  0  0  0  0  0
  1  2  1  0  0  0  0
  1  6  1  0  0  0  0
  2  3  2  0  0  0  0
  3  4  1  0  0  0  0
  4  5  2  0  0  0  0
  4 10  1  0  0  0  0
  5  6  1  0  0  0  0
  5  8  1  0  0  0  0
  6  7  2  0  0  0  0
  8  9  1  0  0  0  0
  9 10  2  0  0  0  0
M  END
>  <CHROM.1>
11.59869779,11.53996615,7.26590257,1.55946917,1.27694589,-2.15641225

>  <Name>
ligand

>  <RI>
0

>  <Rbt.Current_Directory>
/home/itssahil/PROJECTS/Mol_Feturizer/New_Systems/rnas/4FEJ

>  <Rbt.Executable>
rbdock ($Id: //depot/dev/client3/rdock/2013.1/src/exe/rbdock.cxx#4 $)

>  <Rbt.Library>
libRbt.so (2013.1, Build901 2013/11/27)

>  <Rbt.Parameter_File>
/export/apps/rDock/src/rDock_2013.1_src/data/scripts/dock_solv.prm

>  <Rbt.Receptor>
prm/pocket_docking_8.prm

>  <SCORE>
-16.664

>  <SCORE.INTER>
-16.664

>  <SCORE.INTER.CONST>
1

>  <SCORE.INTER.POLAR>
0

>  <SCORE.INTER.ROT>
0

>  <SCORE.INTER.SOLV>
3.80003

>  <SCORE.INTER.VDW>
-15.976

>  <SCORE.INTER.norm>
-1.6664

>  <SCORE.INTRA>
0

>  <SCORE.INTRA.DIHEDRAL>
0

>  <SCORE.INTRA.DIHEDRAL.0>
0

>  <SCORE.INTRA.POLAR>
0

>  <SCORE.INTRA.POLAR.0>
0

>  <SCORE.INTRA.REPUL>
0

>  <SCORE.INTRA.REPUL.0>
0

>  <SCORE.INTRA.SOLV>
0

>  <SCORE.INTRA.SOLV.lig_0>
-4.26631

>  <SCORE.INTRA.VDW>
0

>  <SCORE.INTRA.VDW.0>
0

>  <SCORE.INTRA.norm>
0

>  <SCORE.RESTR>
0

>  <SCORE.RESTR.CAVITY>
0

>  <SCORE.RESTR.norm>
0

>  <SCORE.SYSTEM>
0

>  <SCORE.SYSTEM.CONST>
0

>  <SCORE.SYSTEM.DIHEDRAL>
0

>  <SCORE.SYSTEM.SOLV>
0

>  <SCORE.SYSTEM.norm>
0

>  <SCORE.heavy>
10

>  <SCORE.norm>
-1.6664

>  <RMSD>
2.872

$$$$
ligand
 OpenBabel11021811493D
libRbt.so/2013.1/901 2013/11/27
 10 11  0  0  0  0  0  0  0  0999 V2000
   11.4705   10.9338    5.4268 N   0  0  0  0  0  0  0  0  0  0  0  0
   11.1387   12.2547    5.2605 C   0  0  0  0  0  0  0  0  0  0  0  0
   11.0960   13.1037    6.3000 N   0  0  0  0  0  0  0  0  0  0  0  0
   11.4063   12.5294    7.4807 C   0  0  0  0  0  0  0  0  0  0  0  0
   11.7456   11.2146    7.7118 C   0  0  0  0  0  0  0  0  0  0  0  0
   11.7983   10.3085    6.6339 C   0  0  0  0  0  0  0  0  0  0  0  0
   12.0745    9.1167    6.6275 O   0  0  0  0  0  0  0  0  0  0  0  0
   11.9852   11.0509    9.0448 N   0  0  0  0  0  0  0  0  0  0  0  0
   11.7909   12.2566    9.6193 C   0  0  0  0  0  0  0  0  0  0  0  0
   11.4309   13.1881    8.6795 N   0  0  0  0  0  0  0  0  0  0  0  0
  1  2  1  0  0  0  0
  1  6  1  0  0  0  0
  2  3  2  0  0  0  0
  3  4  1  0  0  0  0
  4  5  2  0  0  0  0
  4 10  1  0  0  0  0
  5  6  1  0  0  0  0
  5  8  1  0  0  0  0
  6  7  2  0  0  0  0
  8  9  1  0  0  0  0
  9 10  2  0  0  0  0
M  END
>  <CHROM.1>
11.60227005,11.54943826,7.26390946,1.54754491,1.30049051,-2.14112489

>  <Name>
ligand

>  <RI>
0

>  <Rbt.Current_Directory>
/home/itssahil/PROJECTS/Mol_Feturizer/New_Systems/rnas/4FEJ

>  <Rbt.Executable>
rbdock ($Id: //depot/dev/client3/rdock/2013.1/src/exe/rbdock.cxx#4 $)

>  <Rbt.Library>
libRbt.so (2013.1, Build901 2013/11/27)

>  <Rbt.Parameter_File>
/export/apps/rDock/src/rDock_2013.1_src/data/scripts/dock_solv.prm

>  <Rbt.Receptor>
prm/blind_docking_40.prm

>  <SCORE>
-16.611

>  <SCORE.INTER>
-16.611

>  <SCORE.INTER.CONST>
1

>  <SCORE.INTER.POLAR>
0

>  <SCORE.INTER.ROT>
0

>  <SCORE.INTER.SOLV>
3.85936

>  <SCORE.INTER.VDW>
-15.9605

>  <SCORE.INTER.norm>
-1.6611

>  <SCORE.INTRA>
0

>  <SCORE.INTRA.DIHEDRAL>
0

>  <SCORE.INTRA.DIHEDRAL.0>
0

>  <SCORE.INTRA.POLAR>
0

>  <SCORE.INTRA.POLAR.0>
0

>  <SCORE.INTRA.REPUL>
0

>  <SCORE.INTRA.REPUL.0>
0

>  <SCORE.INTRA.SOLV>
0

>  <SCORE.INTRA.SOLV.lig_0>
-4.26631

>  <SCORE.INTRA.VDW>
0

>  <SCORE.INTRA.VDW.0>
0

>  <SCORE.INTRA.norm>
0

>  <SCORE.RESTR>
0

>  <SCORE.RESTR.CAVITY>
0

>  <SCORE.RESTR.norm>
0

>  <SCORE.SYSTEM>
0

>  <SCORE.SYSTEM.CONST>
0

>  <SCORE.SYSTEM.DIHEDRAL>
0

>  <SCORE.SYSTEM.SOLV>
0

>  <SCORE.SYSTEM.norm>
0

>  <SCORE.heavy>
10

>  <SCORE.norm>
-1.6611

>  <RMSD>
2.873

$$$$
ligand
 OpenBabel11021811493D
libRbt.so/2013.1/901 2013/11/27
 10 11  0  0  0  0  0  0  0  0999 V2000
   11.4699   10.9395    5.4340 N   0  0  0  0  0  0  0  0  0  0  0  0
   11.1271   12.2578    5.2692 C   0  0  0  0  0  0  0  0  0  0  0  0
   11.0785   13.1054    6.3096 N   0  0  0  0  0  0  0  0  0  0  0  0
   11.3946   12.5325    7.4894 C   0  0  0  0  0  0  0  0  0  0  0  0
   11.7449   11.2203    7.7190 C   0  0  0  0  0  0  0  0  0  0  0  0
   11.8040   10.3158    6.6402 C   0  0  0  0  0  0  0  0  0  0  0  0
   12.0899    9.1263    6.6323 O   0  0  0  0  0  0  0  0  0  0  0  0
   11.9871   11.0574    9.0516 N   0  0  0  0  0  0  0  0  0  0  0  0
   11.7835   12.2609    9.6274 C   0  0  0  0  0  0  0  0  0  0  0  0
   11.4150   13.1903    8.6888 N   0  0  0  0  0  0  0  0  0  0  0  0
  1  2  1  0  0  0  0
  1  6  1  0  0  0  0
  2  3  2  0  0  0  0
  3  4  1  0  0  0  0
  4  5  2  0  0  0  0
  4 10  1  0  0  0  0
  5  6  1  0  0  0  0
  5  8  1  0  0  0  0
  6  7  2  0  0  0  0
  8  9  1  0  0  0  0
  9 10  2  0  0  0  0
M  END
>  <CHROM.1>
11.59842343,11.55446087,7.27153284,1.53435412,1.29306217,-2.12747837

>  <Name>
ligand

>  <RI>
0

>  <Rbt.Current_Directory>
/home/itssahil/PROJECTS/Mol_Feturizer/New_Systems/rnas/4FEJ

>  <Rbt.Executable>
rbdock ($Id: //depot/dev/client3/rdock/2013.1/src/exe/rbdock.cxx#4 $)

>  <Rbt.Library>
libRbt.so (2013.1, Build901 2013/11/27)

>  <Rbt.Parameter_File>
/export/apps/rDock/src/rDock_2013.1_src/data/scripts/dock_solv.prm

>  <Rbt.Receptor>
prm/blind_docking_60.prm

>  <SCORE>
-16.6055

>  <SCORE.INTER>
-16.6055

>  <SCORE.INTER.CONST>
1

>  <SCORE.INTER.POLAR>
0

>  <SCORE.INTER.ROT>
0

>  <SCORE.INTER.SOLV>
3.83659

>  <SCORE.INTER.VDW>
-15.9492

>  <SCORE.INTER.norm>
-1.66055

>  <SCORE.INTRA>
0

>  <SCORE.INTRA.DIHEDRAL>
0

>  <SCORE.INTRA.DIHEDRAL.0>
0

>  <SCORE.INTRA.POLAR>
0

>  <SCORE.INTRA.POLAR.0>
0

>  <SCORE.INTRA.REPUL>
0

>  <SCORE.INTRA.REPUL.0>
0

>  <SCORE.INTRA.SOLV>
0

>  <SCORE.INTRA.SOLV.lig_0>
-4.26631

>  <SCORE.INTRA.VDW>
0

>  <SCORE.INTRA.VDW.0>
0

>  <SCORE.INTRA.norm>
0

>  <SCORE.RESTR>
0

>  <SCORE.RESTR.CAVITY>
0

>  <SCORE.RESTR.norm>
0

>  <SCORE.SYSTEM>
0

>  <SCORE.SYSTEM.CONST>
0

>  <SCORE.SYSTEM.DIHEDRAL>
0

>  <SCORE.SYSTEM.SOLV>
0

>  <SCORE.SYSTEM.norm>
0

>  <SCORE.heavy>
10

>  <SCORE.norm>
-1.66055

>  <RMSD>
2.873

$$$$
ligand
 OpenBabel11021811493D
libRbt.so/2013.1/901 2013/11/27
 10 11  0  0  0  0  0  0  0  0999 V2000
   11.4507   10.9514    5.4299 N   0  0  0  0  0  0  0  0  0  0  0  0
   11.1102   12.2708    5.2701 C   0  0  0  0  0  0  0  0  0  0  0  0
   11.0640   13.1148    6.3135 N   0  0  0  0  0  0  0  0  0  0  0  0
   11.3801   12.5372    7.4911 C   0  0  0  0  0  0  0  0  0  0  0  0
   11.7282   11.2236    7.7157 C   0  0  0  0  0  0  0  0  0  0  0  0
   11.7847   10.3227    6.6336 C   0  0  0  0  0  0  0  0  0  0  0  0
   12.0685    9.1327    6.6213 O   0  0  0  0  0  0  0  0  0  0  0  0
   11.9712   11.0555    9.0475 N   0  0  0  0  0  0  0  0  0  0  0  0
   11.7702   12.2573    9.6278 C   0  0  0  0  0  0  0  0  0  0  0  0
   11.4026   13.1907    8.6927 N   0  0  0  0  0  0  0  0  0  0  0  0
  1  2  1  0  0  0  0
  1  6  1  0  0  0  0
  2  3  2  0  0  0  0
  3  4  1  0  0  0  0
  4  5  2  0  0  0  0
  4 10  1  0  0  0  0
  5  6  1  0  0  0  0
  5  8  1  0  0  0  0
  6  7  2  0  0  0  0
  8  9  1  0  0  0  0
  9 10  2  0  0  0  0
M  END
>  <CHROM.1>
11.58189351,11.55954923,7.26952500,1.54044242,1.29415820,-2.12979535

>  <Name>
ligand

>  <RI>
0

>  <Rbt.Current_Directory>
/home/itssahil/PROJECTS/Mol_Feturizer/New_Systems/rnas/4FEJ

>  <Rbt.Executable>
rbdock ($Id: //depot/dev/client3/rdock/2013.1/src/exe/rbdock.cxx#4 $)

>  <Rbt.Library>
libRbt.so (2013.1, Build901 2013/11/27)

>  <Rbt.Parameter_File>
/export/apps/rDock/src/rDock_2013.1_src/data/scripts/dock_solv.prm

>  <Rbt.Receptor>
prm/pocket_docking_7.prm

>  <SCORE>
-16.6371

>  <SCORE.INTER>
-16.6371

>  <SCORE.INTER.CONST>
1

>  <SCORE.INTER.POLAR>
0

>  <SCORE.INTER.ROT>
0

>  <SCORE.INTER.SOLV>
3.86158

>  <SCORE.INTER.VDW>
-15.9786

>  <SCORE.INTER.norm>
-1.66371

>  <SCORE.INTRA>
0

>  <SCORE.INTRA.DIHEDRAL>
0

>  <SCORE.INTRA.DIHEDRAL.0>
0

>  <SCORE.INTRA.POLAR>
0

>  <SCORE.INTRA.POLAR.0>
0

>  <SCORE.INTRA.REPUL>
0

>  <SCORE.INTRA.REPUL.0>
0

>  <SCORE.INTRA.SOLV>
0

>  <SCORE.INTRA.SOLV.lig_0>
-4.26631

>  <SCORE.INTRA.VDW>
0

>  <SCORE.INTRA.VDW.0>
0

>  <SCORE.INTRA.norm>
0

>  <SCORE.RESTR>
0

>  <SCORE.RESTR.CAVITY>
0

>  <SCORE.RESTR.norm>
0

>  <SCORE.SYSTEM>
0

>  <SCORE.SYSTEM.CONST>
0

>  <SCORE.SYSTEM.DIHEDRAL>
0

>  <SCORE.SYSTEM.SOLV>
0

>  <SCORE.SYSTEM.norm>
0

>  <SCORE.heavy>
10

>  <SCORE.norm>
-1.66371

>  <RMSD>
2.874

$$$$
ligand
 OpenBabel11021811493D
libRbt.so/2013.1/901 2013/11/27
 10 11  0  0  0  0  0  0  0  0999 V2000
   11.4429   10.9449    5.4285 N   0  0  0  0  0  0  0  0  0  0  0  0
   11.1030   12.2644    5.2680 C   0  0  0  0  0  0  0  0  0  0  0  0
   11.0606   13.1098    6.3104 N   0  0  0  0  0  0  0  0  0  0  0  0
   11.3799   12.5334    7.4877 C   0  0  0  0  0  0  0  0  0  0  0  0
   11.7276   11.2198    7.7130 C   0  0  0  0  0  0  0  0  0  0  0  0
   11.7800   10.3175    6.6319 C   0  0  0  0  0  0  0  0  0  0  0  0
   12.0628    9.1273    6.6203 O   0  0  0  0  0  0  0  0  0  0  0  0
   11.9746   11.0532    9.0442 N   0  0  0  0  0  0  0  0  0  0  0  0
   11.7764   12.2560    9.6236 C   0  0  0  0  0  0  0  0  0  0  0  0
   11.4067   13.1885    8.6885 N   0  0  0  0  0  0  0  0  0  0  0  0
  1  2  1  0  0  0  0
  1  6  1  0  0  0  0
  2  3  2  0  0  0  0
  3  4  1  0  0  0  0
  4  5  2  0  0  0  0
  4 10  1  0  0  0  0
  5  6  1  0  0  0  0
  5  8  1  0  0  0  0
  6  7  2  0  0  0  0
  8  9  1  0  0  0  0
  9 10  2  0  0  0  0
M  END
>  <CHROM.1>
11.58023114,11.55531195,7.26686035,1.55163853,1.29320390,-2.14186370

>  <Name>
ligand

>  <RI>
0

>  <Rbt.Current_Directory>
/home/itssahil/PROJECTS/Mol_Feturizer/New_Systems/rnas/4FEJ

>  <Rbt.Executable>
rbdock ($Id: //depot/dev/client3/rdock/2013.1/src/exe/rbdock.cxx#4 $)

>  <Rbt.Library>
libRbt.so (2013.1, Build901 2013/11/27)

>  <Rbt.Parameter_File>
/export/apps/rDock/src/rDock_2013.1_src/data/scripts/dock_solv.prm

>  <Rbt.Receptor>
prm/pocket_docking_8.prm

>  <SCORE>
-16.6365

>  <SCORE.INTER>
-16.6365

>  <SCORE.INTER.CONST>
1

>  <SCORE.INTER.POLAR>
0

>  <SCORE.INTER.ROT>
0

>  <SCORE.INTER.SOLV>
3.86459

>  <SCORE.INTER.VDW>
-15.9792

>  <SCORE.INTER.norm>
-1.66365

>  <SCORE.INTRA>
0

>  <SCORE.INTRA.DIHEDRAL>
0

>  <SCORE.INTRA.DIHEDRAL.0>
0

>  <SCORE.INTRA.POLAR>
0

>  <SCORE.INTRA.POLAR.0>
0

>  <SCORE.INTRA.REPUL>
0

>  <SCORE.INTRA.REPUL.0>
0

>  <SCORE.INTRA.SOLV>
0

>  <SCORE.INTRA.SOLV.lig_0>
-4.26631

>  <SCORE.INTRA.VDW>
0

>  <SCORE.INTRA.VDW.0>
0

>  <SCORE.INTRA.norm>
0

>  <SCORE.RESTR>
0

>  <SCORE.RESTR.CAVITY>
0

>  <SCORE.RESTR.norm>
0

>  <SCORE.SYSTEM>
0

>  <SCORE.SYSTEM.CONST>
0

>  <SCORE.SYSTEM.DIHEDRAL>
0

>  <SCORE.SYSTEM.SOLV>
0

>  <SCORE.SYSTEM.norm>
0

>  <SCORE.heavy>
10

>  <SCORE.norm>
-1.66365

>  <RMSD>
2.874

$$$$
ligand
 OpenBabel11021811493D
libRbt.so/2013.1/901 2013/11/27
 10 11  0  0  0  0  0  0  0  0999 V2000
   11.4444   10.9481    5.4291 N   0  0  0  0  0  0  0  0  0  0  0  0
   11.1099   12.2692    5.2703 C   0  0  0  0  0  0  0  0  0  0  0  0
   11.0764   13.1148    6.3129 N   0  0  0  0  0  0  0  0  0  0  0  0
   11.3986   12.5370    7.4887 C   0  0  0  0  0  0  0  0  0  0  0  0
   11.7413   11.2217    7.7123 C   0  0  0  0  0  0  0  0  0  0  0  0
   11.7844   10.3192    6.6310 C   0  0  0  0  0  0  0  0  0  0  0  0
   12.0616    9.1277    6.6180 O   0  0  0  0  0  0  0  0  0  0  0  0
   11.9939   11.0540    9.0423 N   0  0  0  0  0  0  0  0  0  0  0  0
   11.8040   12.2577    9.6226 C   0  0  0  0  0  0  0  0  0  0  0  0
   11.4342   13.1919    8.6893 N   0  0  0  0  0  0  0  0  0  0  0  0
  1  2  1  0  0  0  0
  1  6  1  0  0  0  0
  2  3  2  0  0  0  0
  3  4  1  0  0  0  0
  4  5  2  0  0  0  0
  4 10  1  0  0  0  0
  5  6  1  0  0  0  0
  5  8  1  0  0  0  0
  6  7  2  0  0  0  0
  8  9  1  0  0  0  0
  9 10  2  0  0  0  0
M  END
>  <CHROM.1>
11.59335751,11.55793473,7.26683577,1.57548353,1.29444461,-2.16479917

>  <Name>
ligand

>  <RI>
0

>  <Rbt.Current_Directory>
/home/itssahil/PROJECTS/Mol_Feturizer/New_Systems/rnas/4FEJ

>  <Rbt.Executable>
rbdock ($Id: //depot/dev/client3/rdock/2013.1/src/exe/rbdock.cxx#4 $)

>  <Rbt.Library>
libRbt.so (2013.1, Build901 2013/11/27)

>  <Rbt.Parameter_File>
/export/apps/rDock/src/rDock_2013.1_src/data/scripts/dock_solv.prm

>  <Rbt.Receptor>
prm/pocket_docking_6.prm

>  <SCORE>
-16.6356

>  <SCORE.INTER>
-16.6356

>  <SCORE.INTER.CONST>
1

>  <SCORE.INTER.POLAR>
0

>  <SCORE.INTER.ROT>
0

>  <SCORE.INTER.SOLV>
3.86455

>  <SCORE.INTER.VDW>
-15.9786

>  <SCORE.INTER.norm>
-1.66356

>  <SCORE.INTRA>
0

>  <SCORE.INTRA.DIHEDRAL>
0

>  <SCORE.INTRA.DIHEDRAL.0>
0

>  <SCORE.INTRA.POLAR>
0

>  <SCORE.INTRA.POLAR.0>
0

>  <SCORE.INTRA.REPUL>
0

>  <SCORE.INTRA.REPUL.0>
0

>  <SCORE.INTRA.SOLV>
0

>  <SCORE.INTRA.SOLV.lig_0>
-4.26631

>  <SCORE.INTRA.VDW>
0

>  <SCORE.INTRA.VDW.0>
0

>  <SCORE.INTRA.norm>
0

>  <SCORE.RESTR>
0

>  <SCORE.RESTR.CAVITY>
0

>  <SCORE.RESTR.norm>
0

>  <SCORE.SYSTEM>
0

>  <SCORE.SYSTEM.CONST>
0

>  <SCORE.SYSTEM.DIHEDRAL>
0

>  <SCORE.SYSTEM.SOLV>
0

>  <SCORE.SYSTEM.norm>
0

>  <SCORE.heavy>
10

>  <SCORE.norm>
-1.66356

>  <RMSD>
2.875

$$$$
ligand
 OpenBabel11021811493D
libRbt.so/2013.1/901 2013/11/27
 10 11  0  0  0  0  0  0  0  0999 V2000
   11.4699   10.9596    5.4717 N   0  0  0  0  0  0  0  0  0  0  0  0
   11.1176   12.2747    5.3021 C   0  0  0  0  0  0  0  0  0  0  0  0
   11.0636   13.1260    6.3392 N   0  0  0  0  0  0  0  0  0  0  0  0
   11.3848   12.5599    7.5210 C   0  0  0  0  0  0  0  0  0  0  0  0
   11.7446   11.2512    7.7554 C   0  0  0  0  0  0  0  0  0  0  0  0
   11.8093   10.3429    6.6800 C   0  0  0  0  0  0  0  0  0  0  0  0
   12.1038    9.1554    6.6766 O   0  0  0  0  0  0  0  0  0  0  0  0
   11.9890   11.0951    9.0884 N   0  0  0  0  0  0  0  0  0  0  0  0
   11.7772   12.2994    9.6598 C   0  0  0  0  0  0  0  0  0  0  0  0
   11.4013   13.2225    8.7178 N   0  0  0  0  0  0  0  0  0  0  0  0
  1  2  1  0  0  0  0
  1  6  1  0  0  0  0
  2  3  2  0  0  0  0
  3  4  1  0  0  0  0
  4  5  2  0  0  0  0
  4 10  1  0  0  0  0
  5  6  1  0  0  0  0
  5  8  1  0  0  0  0
  6  7  2  0  0  0  0
  8  9  1  0  0  0  0
  9 10  2  0  0  0  0
M  END
>  <CHROM.1>
11.59537488,11.58251555,7.30676984,1.52313668,1.28657380,-2.12056688

>  <Name>
ligand

>  <RI>
0

>  <Rbt.Current_Directory>
/home/itssahil/PROJECTS/Mol_Feturizer/New_Systems/rnas/4FEJ

>  <Rbt.Executable>
rbdock ($Id: //depot/dev/client3/rdock/2013.1/src/exe/rbdock.cxx#4 $)

>  <Rbt.Library>
libRbt.so (2013.1, Build901 2013/11/27)

>  <Rbt.Parameter_File>
/export/apps/rDock/src/rDock_2013.1_src/data/scripts/dock_solv.prm

>  <Rbt.Receptor>
prm/blind_docking_100.prm

>  <SCORE>
-16.5805

>  <SCORE.INTER>
-16.5805

>  <SCORE.INTER.CONST>
1

>  <SCORE.INTER.POLAR>
0

>  <SCORE.INTER.ROT>
0

>  <SCORE.INTER.SOLV>
3.7994

>  <SCORE.INTER.VDW>
-15.9201

>  <SCORE.INTER.norm>
-1.65805

>  <SCORE.INTRA>
0

>  <SCORE.INTRA.DIHEDRAL>
0

>  <SCORE.INTRA.DIHEDRAL.0>
0

>  <SCORE.INTRA.POLAR>
0

>  <SCORE.INTRA.POLAR.0>
0

>  <SCORE.INTRA.REPUL>
0

>  <SCORE.INTRA.REPUL.0>
0

>  <SCORE.INTRA.SOLV>
0

>  <SCORE.INTRA.SOLV.lig_0>
-4.26631

>  <SCORE.INTRA.VDW>
0

>  <SCORE.INTRA.VDW.0>
0

>  <SCORE.INTRA.norm>
0

>  <SCORE.RESTR>
0

>  <SCORE.RESTR.CAVITY>
0

>  <SCORE.RESTR.norm>
0

>  <SCORE.SYSTEM>
0

>  <SCORE.SYSTEM.CONST>
0

>  <SCORE.SYSTEM.DIHEDRAL>
0

>  <SCORE.SYSTEM.SOLV>
0

>  <SCORE.SYSTEM.norm>
0

>  <SCORE.heavy>
10

>  <SCORE.norm>
-1.65805

>  <RMSD>
2.876

$$$$
ligand
 OpenBabel11021811493D
libRbt.so/2013.1/901 2013/11/27
 10 11  0  0  0  0  0  0  0  0999 V2000
   10.9953   13.1679    7.1396 N   0  0  0  0  0  0  0  0  0  0  0  0
   11.1000   13.0198    8.4995 C   0  0  0  0  0  0  0  0  0  0  0  0
   11.4833   11.8571    9.0512 N   0  0  0  0  0  0  0  0  0  0  0  0
   11.7446   10.8897    8.1479 C   0  0  0  0  0  0  0  0  0  0  0  0
   11.6578   10.9759    6.7759 C   0  0  0  0  0  0  0  0  0  0  0  0
   11.2596   12.1879    6.1775 C   0  0  0  0  0  0  0  0  0  0  0  0
   11.1221   12.4673    4.9944 O   0  0  0  0  0  0  0  0  0  0  0  0
   12.0098    9.7730    6.2374 N   0  0  0  0  0  0  0  0  0  0  0  0
   12.3060    8.9615    7.2744 C   0  0  0  0  0  0  0  0  0  0  0  0
   12.1496    9.6223    8.4659 N   0  0  0  0  0  0  0  0  0  0  0  0
  1  2  1  0  0  0  0
  1  6  1  0  0  0  0
  2  3  2  0  0  0  0
  3  4  1  0  0  0  0
  4  5  2  0  0  0  0
  4 10  1  0  0  0  0
  5  6  1  0  0  0  0
  5  8  1  0  0  0  0
  6  7  2  0  0  0  0
  8  9  1  0  0  0  0
  9 10  2  0  0  0  0
M  END
>  <CHROM.1>
11.57353970,11.31641678,7.23448695,2.94312651,1.26771934,-1.70663600

>  <Name>
ligand

>  <RI>
0

>  <Rbt.Current_Directory>
/home/itssahil/PROJECTS/Mol_Feturizer/New_Systems/rnas/4FEJ

>  <Rbt.Executable>
rbdock ($Id: //depot/dev/client3/rdock/2013.1/src/exe/rbdock.cxx#4 $)

>  <Rbt.Library>
libRbt.so (2013.1, Build901 2013/11/27)

>  <Rbt.Parameter_File>
/export/apps/rDock/src/rDock_2013.1_src/data/scripts/dock_solv.prm

>  <Rbt.Receptor>
prm/blind_docking_20.prm

>  <SCORE>
-14.2223

>  <SCORE.INTER>
-14.2223

>  <SCORE.INTER.CONST>
1

>  <SCORE.INTER.POLAR>
0

>  <SCORE.INTER.ROT>
0

>  <SCORE.INTER.SOLV>
4.15132

>  <SCORE.INTER.VDW>
-14.4653

>  <SCORE.INTER.norm>
-1.42223

>  <SCORE.INTRA>
0

>  <SCORE.INTRA.DIHEDRAL>
0

>  <SCORE.INTRA.DIHEDRAL.0>
0

>  <SCORE.INTRA.POLAR>
0

>  <SCORE.INTRA.POLAR.0>
0

>  <SCORE.INTRA.REPUL>
0

>  <SCORE.INTRA.REPUL.0>
0

>  <SCORE.INTRA.SOLV>
0

>  <SCORE.INTRA.SOLV.lig_0>
-4.26631

>  <SCORE.INTRA.VDW>
0

>  <SCORE.INTRA.VDW.0>
0

>  <SCORE.INTRA.norm>
0

>  <SCORE.RESTR>
0

>  <SCORE.RESTR.CAVITY>
0

>  <SCORE.RESTR.norm>
0

>  <SCORE.SYSTEM>
0

>  <SCORE.SYSTEM.CONST>
0

>  <SCORE.SYSTEM.DIHEDRAL>
0

>  <SCORE.SYSTEM.SOLV>
0

>  <SCORE.SYSTEM.norm>
0

>  <SCORE.heavy>
10

>  <SCORE.norm>
-1.42223

>  <RMSD>
2.895

$$$$
ligand
 OpenBabel11021811493D
libRbt.so/2013.1/901 2013/11/27
 10 11  0  0  0  0  0  0  0  0999 V2000
   11.0651   12.8043    5.6069 N   0  0  0  0  0  0  0  0  0  0  0  0
   11.1127   13.3303    6.8731 C   0  0  0  0  0  0  0  0  0  0  0  0
   11.4199   12.5711    7.9372 N   0  0  0  0  0  0  0  0  0  0  0  0
   11.6678   11.2815    7.6283 C   0  0  0  0  0  0  0  0  0  0  0  0
   11.6357   10.6950    6.3823 C   0  0  0  0  0  0  0  0  0  0  0  0
   11.3176   11.4752    5.2528 C   0  0  0  0  0  0  0  0  0  0  0  0
   11.2371   11.1503    4.0761 O   0  0  0  0  0  0  0  0  0  0  0  0
   11.9495    9.3737    6.5109 N   0  0  0  0  0  0  0  0  0  0  0  0
   12.1687    9.1586    7.8252 C   0  0  0  0  0  0  0  0  0  0  0  0
   12.0003   10.3170    8.5397 N   0  0  0  0  0  0  0  0  0  0  0  0
  1  2  1  0  0  0  0
  1  6  1  0  0  0  0
  2  3  2  0  0  0  0
  3  4  1  0  0  0  0
  4  5  2  0  0  0  0
  4 10  1  0  0  0  0
  5  6  1  0  0  0  0
  5  8  1  0  0  0  0
  6  7  2  0  0  0  0
  8  9  1  0  0  0  0
  9 10  2  0  0  0  0
M  END
>  <CHROM.1>
11.55087566,11.21680687,6.61446624,2.82331341,1.31806329,-2.09601602

>  <Name>
ligand

>  <RI>
0

>  <Rbt.Current_Directory>
/home/itssahil/PROJECTS/Mol_Feturizer/New_Systems/rnas/4FEJ

>  <Rbt.Executable>
rbdock ($Id: //depot/dev/client3/rdock/2013.1/src/exe/rbdock.cxx#4 $)

>  <Rbt.Library>
libRbt.so (2013.1, Build901 2013/11/27)

>  <Rbt.Parameter_File>
/export/apps/rDock/src/rDock_2013.1_src/data/scripts/dock_solv.prm

>  <Rbt.Receptor>
prm/blind_docking_60.prm

>  <SCORE>
-15.6137

>  <SCORE.INTER>
-15.6137

>  <SCORE.INTER.CONST>
1

>  <SCORE.INTER.POLAR>
0

>  <SCORE.INTER.ROT>
0

>  <SCORE.INTER.SOLV>
4.92957

>  <SCORE.INTER.VDW>
-15.6523

>  <SCORE.INTER.norm>
-1.56137

>  <SCORE.INTRA>
0

>  <SCORE.INTRA.DIHEDRAL>
0

>  <SCORE.INTRA.DIHEDRAL.0>
0

>  <SCORE.INTRA.POLAR>
0

>  <SCORE.INTRA.POLAR.0>
0

>  <SCORE.INTRA.REPUL>
0

>  <SCORE.INTRA.REPUL.0>
0

>  <SCORE.INTRA.SOLV>
0

>  <SCORE.INTRA.SOLV.lig_0>
-4.26631

>  <SCORE.INTRA.VDW>
0

>  <SCORE.INTRA.VDW.0>
0

>  <SCORE.INTRA.norm>
0

>  <SCORE.RESTR>
0

>  <SCORE.RESTR.CAVITY>
0

>  <SCORE.RESTR.norm>
0

>  <SCORE.SYSTEM>
0

>  <SCORE.SYSTEM.CONST>
0

>  <SCORE.SYSTEM.DIHEDRAL>
0

>  <SCORE.SYSTEM.SOLV>
0

>  <SCORE.SYSTEM.norm>
0

>  <SCORE.heavy>
10

>  <SCORE.norm>
-1.56137

>  <RMSD>
2.990

$$$$
ligand
 OpenBabel11021811493D
libRbt.so/2013.1/901 2013/11/27
 10 11  0  0  0  0  0  0  0  0999 V2000
   10.8575   12.7143    5.5508 N   0  0  0  0  0  0  0  0  0  0  0  0
   10.7867   13.2464    6.8134 C   0  0  0  0  0  0  0  0  0  0  0  0
   11.1133   12.5252    7.8980 N   0  0  0  0  0  0  0  0  0  0  0  0
   11.5048   11.2660    7.6127 C   0  0  0  0  0  0  0  0  0  0  0  0
   11.5959   10.6755    6.3716 C   0  0  0  0  0  0  0  0  0  0  0  0
   11.2599   11.4162    5.2210 C   0  0  0  0  0  0  0  0  0  0  0  0
   11.2730   11.0813    4.0444 O   0  0  0  0  0  0  0  0  0  0  0  0
   12.0336    9.3928    6.5269 N   0  0  0  0  0  0  0  0  0  0  0  0
   12.2052    9.2049    7.8524 C   0  0  0  0  0  0  0  0  0  0  0  0
   11.8849   10.3426    8.5478 N   0  0  0  0  0  0  0  0  0  0  0  0
  1  2  1  0  0  0  0
  1  6  1  0  0  0  0
  2  3  2  0  0  0  0
  3  4  1  0  0  0  0
  4  5  2  0  0  0  0
  4 10  1  0  0  0  0
  5  6  1  0  0  0  0
  5  8  1  0  0  0  0
  6  7  2  0  0  0  0
  8  9  1  0  0  0  0
  9 10  2  0  0  0  0
M  END
>  <CHROM.1>
11.44735891,11.18680752,6.59482934,2.52401768,1.24324096,-1.81453462

>  <Name>
ligand

>  <RI>
0

>  <Rbt.Current_Directory>
/home/itssahil/PROJECTS/Mol_Feturizer/New_Systems/rnas/4FEJ

>  <Rbt.Executable>
rbdock ($Id: //depot/dev/client3/rdock/2013.1/src/exe/rbdock.cxx#4 $)

>  <Rbt.Library>
libRbt.so (2013.1, Build901 2013/11/27)

>  <Rbt.Parameter_File>
/export/apps/rDock/src/rDock_2013.1_src/data/scripts/dock_solv.prm

>  <Rbt.Receptor>
prm/blind_docking_20.prm

>  <SCORE>
-15.3869

>  <SCORE.INTER>
-15.3869

>  <SCORE.INTER.CONST>
1

>  <SCORE.INTER.POLAR>
0

>  <SCORE.INTER.ROT>
0

>  <SCORE.INTER.SOLV>
4.93856

>  <SCORE.INTER.VDW>
-15.5042

>  <SCORE.INTER.norm>
-1.53869

>  <SCORE.INTRA>
0

>  <SCORE.INTRA.DIHEDRAL>
0

>  <SCORE.INTRA.DIHEDRAL.0>
0

>  <SCORE.INTRA.POLAR>
0

>  <SCORE.INTRA.POLAR.0>
0

>  <SCORE.INTRA.REPUL>
0

>  <SCORE.INTRA.REPUL.0>
0

>  <SCORE.INTRA.SOLV>
0

>  <SCORE.INTRA.SOLV.lig_0>
-4.26631

>  <SCORE.INTRA.VDW>
0

>  <SCORE.INTRA.VDW.0>
0

>  <SCORE.INTRA.norm>
0

>  <SCORE.RESTR>
0

>  <SCORE.RESTR.CAVITY>
0

>  <SCORE.RESTR.norm>
0

>  <SCORE.SYSTEM>
0

>  <SCORE.SYSTEM.CONST>
0

>  <SCORE.SYSTEM.DIHEDRAL>
0

>  <SCORE.SYSTEM.SOLV>
0

>  <SCORE.SYSTEM.norm>
0

>  <SCORE.heavy>
10

>  <SCORE.norm>
-1.53869

>  <RMSD>
3.005

$$$$
ligand
 OpenBabel11021811493D
libRbt.so/2013.1/901 2013/11/27
 10 11  0  0  0  0  0  0  0  0999 V2000
   11.1553   13.3238    6.8841 N   0  0  0  0  0  0  0  0  0  0  0  0
   11.1642   12.8361    5.6017 C   0  0  0  0  0  0  0  0  0  0  0  0
   11.4281   11.5450    5.3438 N   0  0  0  0  0  0  0  0  0  0  0  0
   11.6728   10.8115    6.4494 C   0  0  0  0  0  0  0  0  0  0  0  0
   11.6793   11.2412    7.7581 C   0  0  0  0  0  0  0  0  0  0  0  0
   11.4026   12.5917    8.0496 C   0  0  0  0  0  0  0  0  0  0  0  0
   11.3592   13.1652    9.1295 O   0  0  0  0  0  0  0  0  0  0  0  0
   11.9709   10.1817    8.5664 N   0  0  0  0  0  0  0  0  0  0  0  0
   12.1421    9.1170    7.7549 C   0  0  0  0  0  0  0  0  0  0  0  0
   11.9665    9.4754    6.4429 N   0  0  0  0  0  0  0  0  0  0  0  0
  1  2  1  0  0  0  0
  1  6  1  0  0  0  0
  2  3  2  0  0  0  0
  3  4  1  0  0  0  0
  4  5  2  0  0  0  0
  4 10  1  0  0  0  0
  5  6  1  0  0  0  0
  5  8  1  0  0  0  0
  6  7  2  0  0  0  0
  8  9  1  0  0  0  0
  9 10  2  0  0  0  0
M  END
>  <CHROM.1>
11.58917856,11.46333463,7.23286303,2.71961784,-1.34281834,1.23900149

>  <Name>
ligand

>  <RI>
0

>  <Rbt.Current_Directory>
/home/itssahil/PROJECTS/Mol_Feturizer/New_Systems/rnas/4FEJ

>  <Rbt.Executable>
rbdock ($Id: //depot/dev/client3/rdock/2013.1/src/exe/rbdock.cxx#4 $)

>  <Rbt.Library>
libRbt.so (2013.1, Build901 2013/11/27)

>  <Rbt.Parameter_File>
/export/apps/rDock/src/rDock_2013.1_src/data/scripts/dock_solv.prm

>  <Rbt.Receptor>
prm/blind_docking_100.prm

>  <SCORE>
-16.0662

>  <SCORE.INTER>
-16.0662

>  <SCORE.INTER.CONST>
1

>  <SCORE.INTER.POLAR>
0

>  <SCORE.INTER.ROT>
0

>  <SCORE.INTER.SOLV>
4.21662

>  <SCORE.INTER.VDW>
-15.7163

>  <SCORE.INTER.norm>
-1.60662

>  <SCORE.INTRA>
0

>  <SCORE.INTRA.DIHEDRAL>
0

>  <SCORE.INTRA.DIHEDRAL.0>
0

>  <SCORE.INTRA.POLAR>
0

>  <SCORE.INTRA.POLAR.0>
0

>  <SCORE.INTRA.REPUL>
0

>  <SCORE.INTRA.REPUL.0>
0

>  <SCORE.INTRA.SOLV>
0

>  <SCORE.INTRA.SOLV.lig_0>
-4.26631

>  <SCORE.INTRA.VDW>
0

>  <SCORE.INTRA.VDW.0>
0

>  <SCORE.INTRA.norm>
0

>  <SCORE.RESTR>
0

>  <SCORE.RESTR.CAVITY>
0

>  <SCORE.RESTR.norm>
0

>  <SCORE.SYSTEM>
0

>  <SCORE.SYSTEM.CONST>
0

>  <SCORE.SYSTEM.DIHEDRAL>
0

>  <SCORE.SYSTEM.SOLV>
0

>  <SCORE.SYSTEM.norm>
0

>  <SCORE.heavy>
10

>  <SCORE.norm>
-1.60662

>  <RMSD>
3.276

$$$$
ligand
 OpenBabel11021811493D
libRbt.so/2013.1/901 2013/11/27
 10 11  0  0  0  0  0  0  0  0999 V2000
   11.1015   13.3052    6.8945 N   0  0  0  0  0  0  0  0  0  0  0  0
   11.1228   12.8213    5.6108 C   0  0  0  0  0  0  0  0  0  0  0  0
   11.4143   11.5368    5.3499 N   0  0  0  0  0  0  0  0  0  0  0  0
   11.6725   10.8056    6.4539 C   0  0  0  0  0  0  0  0  0  0  0  0
   11.6678   11.2317    7.7638 C   0  0  0  0  0  0  0  0  0  0  0  0
   11.3622   12.5753    8.0585 C   0  0  0  0  0  0  0  0  0  0  0  0
   11.3049   13.1447    9.1398 O   0  0  0  0  0  0  0  0  0  0  0  0
   11.9803   10.1763    8.5697 N   0  0  0  0  0  0  0  0  0  0  0  0
   12.1753    9.1177    7.7556 C   0  0  0  0  0  0  0  0  0  0  0  0
   11.9943    9.4759    6.4443 N   0  0  0  0  0  0  0  0  0  0  0  0
  1  2  1  0  0  0  0
  1  6  1  0  0  0  0
  2  3  2  0  0  0  0
  3  4  1  0  0  0  0
  4  5  2  0  0  0  0
  4 10  1  0  0  0  0
  5  6  1  0  0  0  0
  5  8  1  0  0  0  0
  6  7  2  0  0  0  0
  8  9  1  0  0  0  0
  9 10  2  0  0  0  0
M  END
>  <CHROM.1>
11.57389242,11.45329810,7.23900612,2.75409358,-1.32329963,1.27524142

>  <Name>
ligand

>  <RI>
0

>  <Rbt.Current_Directory>
/home/itssahil/PROJECTS/Mol_Feturizer/New_Systems/rnas/4FEJ

>  <Rbt.Executable>
rbdock ($Id: //depot/dev/client3/rdock/2013.1/src/exe/rbdock.cxx#4 $)

>  <Rbt.Library>
libRbt.so (2013.1, Build901 2013/11/27)

>  <Rbt.Parameter_File>
/export/apps/rDock/src/rDock_2013.1_src/data/scripts/dock_solv.prm

>  <Rbt.Receptor>
prm/blind_docking_80.prm

>  <SCORE>
-16.0953

>  <SCORE.INTER>
-16.0953

>  <SCORE.INTER.CONST>
1

>  <SCORE.INTER.POLAR>
0

>  <SCORE.INTER.ROT>
0

>  <SCORE.INTER.SOLV>
4.17081

>  <SCORE.INTER.VDW>
-15.7205

>  <SCORE.INTER.norm>
-1.60953

>  <SCORE.INTRA>
0

>  <SCORE.INTRA.DIHEDRAL>
0

>  <SCORE.INTRA.DIHEDRAL.0>
0

>  <SCORE.INTRA.POLAR>
0

>  <SCORE.INTRA.POLAR.0>
0

>  <SCORE.INTRA.REPUL>
0

>  <SCORE.INTRA.REPUL.0>
0

>  <SCORE.INTRA.SOLV>
0

>  <SCORE.INTRA.SOLV.lig_0>
-4.26631

>  <SCORE.INTRA.VDW>
0

>  <SCORE.INTRA.VDW.0>
0

>  <SCORE.INTRA.norm>
0

>  <SCORE.RESTR>
0

>  <SCORE.RESTR.CAVITY>
0

>  <SCORE.RESTR.norm>
0

>  <SCORE.SYSTEM>
0

>  <SCORE.SYSTEM.CONST>
0

>  <SCORE.SYSTEM.DIHEDRAL>
0

>  <SCORE.SYSTEM.SOLV>
0

>  <SCORE.SYSTEM.norm>
0

>  <SCORE.heavy>
10

>  <SCORE.norm>
-1.60953

>  <RMSD>
3.278

$$$$
ligand
 OpenBabel11021811493D
libRbt.so/2013.1/901 2013/11/27
 10 11  0  0  0  0  0  0  0  0999 V2000
   11.0957   13.3024    6.9107 N   0  0  0  0  0  0  0  0  0  0  0  0
   11.1286   12.8224    5.6258 C   0  0  0  0  0  0  0  0  0  0  0  0
   11.4255   11.5393    5.3636 N   0  0  0  0  0  0  0  0  0  0  0  0
   11.6768   10.8056    6.4675 C   0  0  0  0  0  0  0  0  0  0  0  0
   11.6605   11.2279    7.7785 C   0  0  0  0  0  0  0  0  0  0  0  0
   11.3490   12.5698    8.0747 C   0  0  0  0  0  0  0  0  0  0  0  0
   11.2816   13.1360    9.1571 O   0  0  0  0  0  0  0  0  0  0  0  0
   11.9692   10.1710    8.5839 N   0  0  0  0  0  0  0  0  0  0  0  0
   12.1734    9.1152    7.7683 C   0  0  0  0  0  0  0  0  0  0  0  0
   12.0020    9.4768    6.4566 N   0  0  0  0  0  0  0  0  0  0  0  0
  1  2  1  0  0  0  0
  1  6  1  0  0  0  0
  2  3  2  0  0  0  0
  3  4  1  0  0  0  0
  4  5  2  0  0  0  0
  4 10  1  0  0  0  0
  5  6  1  0  0  0  0
  5  8  1  0  0  0  0
  6  7  2  0  0  0  0
  8  9  1  0  0  0  0
  9 10  2  0  0  0  0
M  END
>  <CHROM.1>
11.57015914,11.45077907,7.25364926,2.78834823,-1.32302412,1.31133715

>  <Name>
ligand

>  <RI>
0

>  <Rbt.Current_Directory>
/home/itssahil/PROJECTS/Mol_Feturizer/New_Systems/rnas/4FEJ

>  <Rbt.Executable>
rbdock ($Id: //depot/dev/client3/rdock/2013.1/src/exe/rbdock.cxx#4 $)

>  <Rbt.Library>
libRbt.so (2013.1, Build901 2013/11/27)

>  <Rbt.Parameter_File>
/export/apps/rDock/src/rDock_2013.1_src/data/scripts/dock_solv.prm

>  <Rbt.Receptor>
prm/blind_docking_60.prm

>  <SCORE>
-16.1201

>  <SCORE.INTER>
-16.1201

>  <SCORE.INTER.CONST>
1

>  <SCORE.INTER.POLAR>
0

>  <SCORE.INTER.ROT>
0

>  <SCORE.INTER.SOLV>
4.17075

>  <SCORE.INTER.VDW>
-15.737

>  <SCORE.INTER.norm>
-1.61201

>  <SCORE.INTRA>
0

>  <SCORE.INTRA.DIHEDRAL>
0

>  <SCORE.INTRA.DIHEDRAL.0>
0

>  <SCORE.INTRA.POLAR>
0

>  <SCORE.INTRA.POLAR.0>
0

>  <SCORE.INTRA.REPUL>
0

>  <SCORE.INTRA.REPUL.0>
0

>  <SCORE.INTRA.SOLV>
0

>  <SCORE.INTRA.SOLV.lig_0>
-4.26631

>  <SCORE.INTRA.VDW>
0

>  <SCORE.INTRA.VDW.0>
0

>  <SCORE.INTRA.norm>
0

>  <SCORE.RESTR>
0

>  <SCORE.RESTR.CAVITY>
0

>  <SCORE.RESTR.norm>
0

>  <SCORE.SYSTEM>
0

>  <SCORE.SYSTEM.CONST>
0

>  <SCORE.SYSTEM.DIHEDRAL>
0

>  <SCORE.SYSTEM.SOLV>
0

>  <SCORE.SYSTEM.norm>
0

>  <SCORE.heavy>
10

>  <SCORE.norm>
-1.61201

>  <RMSD>
3.279

$$$$
ligand
 OpenBabel11021811493D
libRbt.so/2013.1/901 2013/11/27
 10 11  0  0  0  0  0  0  0  0999 V2000
   11.1403   13.2913    6.8556 N   0  0  0  0  0  0  0  0  0  0  0  0
   11.1641   12.7929    5.5776 C   0  0  0  0  0  0  0  0  0  0  0  0
   11.4480   11.5036    5.3324 N   0  0  0  0  0  0  0  0  0  0  0  0
   11.6962   10.7831    6.4458 C   0  0  0  0  0  0  0  0  0  0  0  0
   11.6885   11.2239    7.7507 C   0  0  0  0  0  0  0  0  0  0  0  0
   11.3907   12.5728    8.0290 C   0  0  0  0  0  0  0  0  0  0  0  0
   11.3324   13.1548    9.1035 O   0  0  0  0  0  0  0  0  0  0  0  0
   11.9900   10.1756    8.5699 N   0  0  0  0  0  0  0  0  0  0  0  0
   12.1815    9.1066    7.7686 C   0  0  0  0  0  0  0  0  0  0  0  0
   12.0089    9.4513    6.4525 N   0  0  0  0  0  0  0  0  0  0  0  0
  1  2  1  0  0  0  0
  1  6  1  0  0  0  0
  2  3  2  0  0  0  0
  3  4  1  0  0  0  0
  4  5  2  0  0  0  0
  4 10  1  0  0  0  0
  5  6  1  0  0  0  0
  5  8  1  0  0  0  0
  6  7  2  0  0  0  0
  8  9  1  0  0  0  0
  9 10  2  0  0  0  0
M  END
>  <CHROM.1>
11.59845526,11.44027610,7.22307198,2.76401225,-1.33116050,1.27362850

>  <Name>
ligand

>  <RI>
0

>  <Rbt.Current_Directory>
/home/itssahil/PROJECTS/Mol_Feturizer/New_Systems/rnas/4FEJ

>  <Rbt.Executable>
rbdock ($Id: //depot/dev/client3/rdock/2013.1/src/exe/rbdock.cxx#4 $)

>  <Rbt.Library>
libRbt.so (2013.1, Build901 2013/11/27)

>  <Rbt.Parameter_File>
/export/apps/rDock/src/rDock_2013.1_src/data/scripts/dock_solv.prm

>  <Rbt.Receptor>
prm/blind_docking_60.prm

>  <SCORE>
-16.0645

>  <SCORE.INTER>
-16.0645

>  <SCORE.INTER.CONST>
1

>  <SCORE.INTER.POLAR>
0

>  <SCORE.INTER.ROT>
0

>  <SCORE.INTER.SOLV>
4.20013

>  <SCORE.INTER.VDW>
-15.7097

>  <SCORE.INTER.norm>
-1.60645

>  <SCORE.INTRA>
0

>  <SCORE.INTRA.DIHEDRAL>
0

>  <SCORE.INTRA.DIHEDRAL.0>
0

>  <SCORE.INTRA.POLAR>
0

>  <SCORE.INTRA.POLAR.0>
0

>  <SCORE.INTRA.REPUL>
0

>  <SCORE.INTRA.REPUL.0>
0

>  <SCORE.INTRA.SOLV>
0

>  <SCORE.INTRA.SOLV.lig_0>
-4.26631

>  <SCORE.INTRA.VDW>
0

>  <SCORE.INTRA.VDW.0>
0

>  <SCORE.INTRA.norm>
0

>  <SCORE.RESTR>
0

>  <SCORE.RESTR.CAVITY>
0

>  <SCORE.RESTR.norm>
0

>  <SCORE.SYSTEM>
0

>  <SCORE.SYSTEM.CONST>
0

>  <SCORE.SYSTEM.DIHEDRAL>
0

>  <SCORE.SYSTEM.SOLV>
0

>  <SCORE.SYSTEM.norm>
0

>  <SCORE.heavy>
10

>  <SCORE.norm>
-1.60645

>  <RMSD>
3.288

$$$$
ligand
 OpenBabel11021811493D
libRbt.so/2013.1/901 2013/11/27
 10 11  0  0  0  0  0  0  0  0999 V2000
   10.8559   12.9965    6.3456 N   0  0  0  0  0  0  0  0  0  0  0  0
   10.9787   12.3381    5.1481 C   0  0  0  0  0  0  0  0  0  0  0  0
   11.3839   11.0593    5.0889 N   0  0  0  0  0  0  0  0  0  0  0  0
   11.6448   10.5179    6.2968 C   0  0  0  0  0  0  0  0  0  0  0  0
   11.5418   11.1245    7.5292 C   0  0  0  0  0  0  0  0  0  0  0  0
   11.1162   12.4652    7.6127 C   0  0  0  0  0  0  0  0  0  0  0  0
   10.9607   13.1760    8.5962 O   0  0  0  0  0  0  0  0  0  0  0  0
   11.8971   10.2257    8.4919 N   0  0  0  0  0  0  0  0  0  0  0  0
   12.2155    9.0824    7.8491 C   0  0  0  0  0  0  0  0  0  0  0  0
   12.0714    9.2331    6.4937 N   0  0  0  0  0  0  0  0  0  0  0  0
  1  2  1  0  0  0  0
  1  6  1  0  0  0  0
  2  3  2  0  0  0  0
  3  4  1  0  0  0  0
  4  5  2  0  0  0  0
  4 10  1  0  0  0  0
  5  6  1  0  0  0  0
  5  8  1  0  0  0  0
  6  7  2  0  0  0  0
  8  9  1  0  0  0  0
  9 10  2  0  0  0  0
M  END
>  <CHROM.1>
11.45649798,11.26013939,6.97450790,2.98131146,-1.25375545,1.34839942

>  <Name>
ligand

>  <RI>
0

>  <Rbt.Current_Directory>
/home/itssahil/PROJECTS/Mol_Feturizer/New_Systems/rnas/4FEJ

>  <Rbt.Executable>
rbdock ($Id: //depot/dev/client3/rdock/2013.1/src/exe/rbdock.cxx#4 $)

>  <Rbt.Library>
libRbt.so (2013.1, Build901 2013/11/27)

>  <Rbt.Parameter_File>
/export/apps/rDock/src/rDock_2013.1_src/data/scripts/dock_solv.prm

>  <Rbt.Receptor>
prm/blind_docking_20.prm

>  <SCORE>
-15.2861

>  <SCORE.INTER>
-15.2861

>  <SCORE.INTER.CONST>
1

>  <SCORE.INTER.POLAR>
0

>  <SCORE.INTER.ROT>
0

>  <SCORE.INTER.SOLV>
4.22514

>  <SCORE.INTER.VDW>
-15.1991

>  <SCORE.INTER.norm>
-1.52861

>  <SCORE.INTRA>
0

>  <SCORE.INTRA.DIHEDRAL>
0

>  <SCORE.INTRA.DIHEDRAL.0>
0

>  <SCORE.INTRA.POLAR>
0

>  <SCORE.INTRA.POLAR.0>
0

>  <SCORE.INTRA.REPUL>
0

>  <SCORE.INTRA.REPUL.0>
0

>  <SCORE.INTRA.SOLV>
0

>  <SCORE.INTRA.SOLV.lig_0>
-4.26631

>  <SCORE.INTRA.VDW>
0

>  <SCORE.INTRA.VDW.0>
0

>  <SCORE.INTRA.norm>
0

>  <SCORE.RESTR>
0

>  <SCORE.RESTR.CAVITY>
0

>  <SCORE.RESTR.norm>
0

>  <SCORE.SYSTEM>
0

>  <SCORE.SYSTEM.CONST>
0

>  <SCORE.SYSTEM.DIHEDRAL>
0

>  <SCORE.SYSTEM.SOLV>
0

>  <SCORE.SYSTEM.norm>
0

>  <SCORE.heavy>
10

>  <SCORE.norm>
-1.52861

>  <RMSD>
3.439

$$$$
ligand
 OpenBabel11021811493D
libRbt.so/2013.1/901 2013/11/27
 10 11  0  0  0  0  0  0  0  0999 V2000
   10.8594   12.9952    6.3408 N   0  0  0  0  0  0  0  0  0  0  0  0
   10.9862   12.3360    5.1443 C   0  0  0  0  0  0  0  0  0  0  0  0
   11.3907   11.0569    5.0873 N   0  0  0  0  0  0  0  0  0  0  0  0
   11.6468   10.5161    6.2965 C   0  0  0  0  0  0  0  0  0  0  0  0
   11.5397   11.1235    7.5281 C   0  0  0  0  0  0  0  0  0  0  0  0
   11.1147   12.4646    7.6092 C   0  0  0  0  0  0  0  0  0  0  0  0
   10.9561   13.1761    8.5917 O   0  0  0  0  0  0  0  0  0  0  0  0
   11.8909   10.2250    8.4927 N   0  0  0  0  0  0  0  0  0  0  0  0
   12.2108    9.0811    7.8519 C   0  0  0  0  0  0  0  0  0  0  0  0
   12.0718    9.2310    6.4958 N   0  0  0  0  0  0  0  0  0  0  0  0
  1  2  1  0  0  0  0
  1  6  1  0  0  0  0
  2  3  2  0  0  0  0
  3  4  1  0  0  0  0
  4  5  2  0  0  0  0
  4 10  1  0  0  0  0
  5  6  1  0  0  0  0
  5  8  1  0  0  0  0
  6  7  2  0  0  0  0
  8  9  1  0  0  0  0
  9 10  2  0  0  0  0
M  END
>  <CHROM.1>
11.45653054,11.25885358,6.97307173,2.99233662,-1.25522892,1.35823739

>  <Name>
ligand

>  <RI>
0

>  <Rbt.Current_Directory>
/home/itssahil/PROJECTS/Mol_Feturizer/New_Systems/rnas/4FEJ

>  <Rbt.Executable>
rbdock ($Id: //depot/dev/client3/rdock/2013.1/src/exe/rbdock.cxx#4 $)

>  <Rbt.Library>
libRbt.so (2013.1, Build901 2013/11/27)

>  <Rbt.Parameter_File>
/export/apps/rDock/src/rDock_2013.1_src/data/scripts/dock_solv.prm

>  <Rbt.Receptor>
prm/blind_docking_20.prm

>  <SCORE>
-15.2787

>  <SCORE.INTER>
-15.2787

>  <SCORE.INTER.CONST>
1

>  <SCORE.INTER.POLAR>
0

>  <SCORE.INTER.ROT>
0

>  <SCORE.INTER.SOLV>
4.23093

>  <SCORE.INTER.VDW>
-15.1961

>  <SCORE.INTER.norm>
-1.52787

>  <SCORE.INTRA>
0

>  <SCORE.INTRA.DIHEDRAL>
0

>  <SCORE.INTRA.DIHEDRAL.0>
0

>  <SCORE.INTRA.POLAR>
0

>  <SCORE.INTRA.POLAR.0>
0

>  <SCORE.INTRA.REPUL>
0

>  <SCORE.INTRA.REPUL.0>
0

>  <SCORE.INTRA.SOLV>
0

>  <SCORE.INTRA.SOLV.lig_0>
-4.26631

>  <SCORE.INTRA.VDW>
0

>  <SCORE.INTRA.VDW.0>
0

>  <SCORE.INTRA.norm>
0

>  <SCORE.RESTR>
0

>  <SCORE.RESTR.CAVITY>
0

>  <SCORE.RESTR.norm>
0

>  <SCORE.SYSTEM>
0

>  <SCORE.SYSTEM.CONST>
0

>  <SCORE.SYSTEM.DIHEDRAL>
0

>  <SCORE.SYSTEM.SOLV>
0

>  <SCORE.SYSTEM.norm>
0

>  <SCORE.heavy>
10

>  <SCORE.norm>
-1.52787

>  <RMSD>
3.441

$$$$
ligand
 OpenBabel11021811493D
libRbt.so/2013.1/901 2013/11/27
 10 11  0  0  0  0  0  0  0  0999 V2000
   11.6850   10.4532    5.8007 N   0  0  0  0  0  0  0  0  0  0  0  0
   11.9646    9.4891    6.7360 C   0  0  0  0  0  0  0  0  0  0  0  0
   12.0371    9.7812    8.0446 N   0  0  0  0  0  0  0  0  0  0  0  0
   11.8109   11.0820    8.3220 C   0  0  0  0  0  0  0  0  0  0  0  0
   11.5273   12.0938    7.4314 C   0  0  0  0  0  0  0  0  0  0  0  0
   11.4445   11.8072    6.0542 C   0  0  0  0  0  0  0  0  0  0  0  0
   11.2068   12.5526    5.1137 O   0  0  0  0  0  0  0  0  0  0  0  0
   11.3669   13.2572    8.1254 N   0  0  0  0  0  0  0  0  0  0  0  0
   11.5537   12.9549    9.4275 C   0  0  0  0  0  0  0  0  0  0  0  0
   11.8312   11.6205    9.5794 N   0  0  0  0  0  0  0  0  0  0  0  0
  1  2  1  0  0  0  0
  1  6  1  0  0  0  0
  2  3  2  0  0  0  0
  3  4  1  0  0  0  0
  4  5  2  0  0  0  0
  4 10  1  0  0  0  0
  5  6  1  0  0  0  0
  5  8  1  0  0  0  0
  6  7  2  0  0  0  0
  8  9  1  0  0  0  0
  9 10  2  0  0  0  0
M  END
>  <CHROM.1>
11.63490216,11.52669252,7.41816993,-1.73021498,-1.35540008,1.10185492

>  <Name>
ligand

>  <RI>
0

>  <Rbt.Current_Directory>
/home/itssahil/PROJECTS/Mol_Feturizer/New_Systems/rnas/4FEJ

>  <Rbt.Executable>
rbdock ($Id: //depot/dev/client3/rdock/2013.1/src/exe/rbdock.cxx#4 $)

>  <Rbt.Library>
libRbt.so (2013.1, Build901 2013/11/27)

>  <Rbt.Parameter_File>
/export/apps/rDock/src/rDock_2013.1_src/data/scripts/dock_solv.prm

>  <Rbt.Receptor>
prm/blind_docking_40.prm

>  <SCORE>
-15.84

>  <SCORE.INTER>
-15.84

>  <SCORE.INTER.CONST>
1

>  <SCORE.INTER.POLAR>
0

>  <SCORE.INTER.ROT>
0

>  <SCORE.INTER.SOLV>
4.07415

>  <SCORE.INTER.VDW>
-15.518

>  <SCORE.INTER.norm>
-1.584

>  <SCORE.INTRA>
0

>  <SCORE.INTRA.DIHEDRAL>
0

>  <SCORE.INTRA.DIHEDRAL.0>
0

>  <SCORE.INTRA.POLAR>
0

>  <SCORE.INTRA.POLAR.0>
0

>  <SCORE.INTRA.REPUL>
0

>  <SCORE.INTRA.REPUL.0>
0

>  <SCORE.INTRA.SOLV>
0

>  <SCORE.INTRA.SOLV.lig_0>
-4.26631

>  <SCORE.INTRA.VDW>
0

>  <SCORE.INTRA.VDW.0>
0

>  <SCORE.INTRA.norm>
0

>  <SCORE.RESTR>
0

>  <SCORE.RESTR.CAVITY>
0

>  <SCORE.RESTR.norm>
0

>  <SCORE.SYSTEM>
0

>  <SCORE.SYSTEM.CONST>
0

>  <SCORE.SYSTEM.DIHEDRAL>
0

>  <SCORE.SYSTEM.SOLV>
0

>  <SCORE.SYSTEM.norm>
0

>  <SCORE.heavy>
10

>  <SCORE.norm>
-1.584

>  <RMSD>
3.460

$$$$
ligand
 OpenBabel11021811493D
libRbt.so/2013.1/901 2013/11/27
 10 11  0  0  0  0  0  0  0  0999 V2000
   11.6478   10.5043    5.8068 N   0  0  0  0  0  0  0  0  0  0  0  0
   11.9443    9.5277    6.7238 C   0  0  0  0  0  0  0  0  0  0  0  0
   12.0326    9.8006    8.0356 N   0  0  0  0  0  0  0  0  0  0  0  0
   11.8038   11.0959    8.3354 C   0  0  0  0  0  0  0  0  0  0  0  0
   11.5036   12.1195    7.4639 C   0  0  0  0  0  0  0  0  0  0  0  0
   11.4041   11.8532    6.0838 C   0  0  0  0  0  0  0  0  0  0  0  0
   11.1504   12.6114    5.1578 O   0  0  0  0  0  0  0  0  0  0  0  0
   11.3467   13.2716    8.1774 N   0  0  0  0  0  0  0  0  0  0  0  0
   11.5520   12.9508    9.4722 C   0  0  0  0  0  0  0  0  0  0  0  0
   11.8380   11.6157    9.6004 N   0  0  0  0  0  0  0  0  0  0  0  0
  1  2  1  0  0  0  0
  1  6  1  0  0  0  0
  2  3  2  0  0  0  0
  3  4  1  0  0  0  0
  4  5  2  0  0  0  0
  4 10  1  0  0  0  0
  5  6  1  0  0  0  0
  5  8  1  0  0  0  0
  6  7  2  0  0  0  0
  8  9  1  0  0  0  0
  9 10  2  0  0  0  0
M  END
>  <CHROM.1>
11.61376199,11.55323583,7.44073130,-1.77280371,-1.34495690,1.07530158

>  <Name>
ligand

>  <RI>
0

>  <Rbt.Current_Directory>
/home/itssahil/PROJECTS/Mol_Feturizer/New_Systems/rnas/4FEJ

>  <Rbt.Executable>
rbdock ($Id: //depot/dev/client3/rdock/2013.1/src/exe/rbdock.cxx#4 $)

>  <Rbt.Library>
libRbt.so (2013.1, Build901 2013/11/27)

>  <Rbt.Parameter_File>
/export/apps/rDock/src/rDock_2013.1_src/data/scripts/dock_solv.prm

>  <Rbt.Receptor>
prm/blind_docking_100.prm

>  <SCORE>
-15.8688

>  <SCORE.INTER>
-15.8688

>  <SCORE.INTER.CONST>
1

>  <SCORE.INTER.POLAR>
0

>  <SCORE.INTER.ROT>
0

>  <SCORE.INTER.SOLV>
4.04033

>  <SCORE.INTER.VDW>
-15.526

>  <SCORE.INTER.norm>
-1.58688

>  <SCORE.INTRA>
0

>  <SCORE.INTRA.DIHEDRAL>
0

>  <SCORE.INTRA.DIHEDRAL.0>
0

>  <SCORE.INTRA.POLAR>
0

>  <SCORE.INTRA.POLAR.0>
0

>  <SCORE.INTRA.REPUL>
0

>  <SCORE.INTRA.REPUL.0>
0

>  <SCORE.INTRA.SOLV>
0

>  <SCORE.INTRA.SOLV.lig_0>
-4.26631

>  <SCORE.INTRA.VDW>
0

>  <SCORE.INTRA.VDW.0>
0

>  <SCORE.INTRA.norm>
0

>  <SCORE.RESTR>
0

>  <SCORE.RESTR.CAVITY>
0

>  <SCORE.RESTR.norm>
0

>  <SCORE.SYSTEM>
0

>  <SCORE.SYSTEM.CONST>
0

>  <SCORE.SYSTEM.DIHEDRAL>
0

>  <SCORE.SYSTEM.SOLV>
0

>  <SCORE.SYSTEM.norm>
0

>  <SCORE.heavy>
10

>  <SCORE.norm>
-1.58688

>  <RMSD>
3.477

$$$$
ligand
 OpenBabel11021811493D
libRbt.so/2013.1/901 2013/11/27
 10 11  0  0  0  0  0  0  0  0999 V2000
   11.6336   10.5092    5.8029 N   0  0  0  0  0  0  0  0  0  0  0  0
   11.9224    9.5269    6.7162 C   0  0  0  0  0  0  0  0  0  0  0  0
   12.0205    9.7956    8.0282 N   0  0  0  0  0  0  0  0  0  0  0  0
   11.8093   11.0930    8.3320 C   0  0  0  0  0  0  0  0  0  0  0  0
   11.5175   12.1222    7.4644 C   0  0  0  0  0  0  0  0  0  0  0  0
   11.4079   11.8603    6.0841 C   0  0  0  0  0  0  0  0  0  0  0  0
   11.1592   12.6238    5.1611 O   0  0  0  0  0  0  0  0  0  0  0  0
   11.3784   13.2745    8.1812 N   0  0  0  0  0  0  0  0  0  0  0  0
   11.5861   12.9482    9.4742 C   0  0  0  0  0  0  0  0  0  0  0  0
   11.8561   11.6094    9.5980 N   0  0  0  0  0  0  0  0  0  0  0  0
  1  2  1  0  0  0  0
  1  6  1  0  0  0  0
  2  3  2  0  0  0  0
  3  4  1  0  0  0  0
  4  5  2  0  0  0  0
  4 10  1  0  0  0  0
  5  6  1  0  0  0  0
  5  8  1  0  0  0  0
  6  7  2  0  0  0  0
  8  9  1  0  0  0  0
  9 10  2  0  0  0  0
M  END
>  <CHROM.1>
11.62052885,11.55470244,7.43935817,-1.82011911,-1.35329618,1.03142180

>  <Name>
ligand

>  <RI>
0

>  <Rbt.Current_Directory>
/home/itssahil/PROJECTS/Mol_Feturizer/New_Systems/rnas/4FEJ

>  <Rbt.Executable>
rbdock ($Id: //depot/dev/client3/rdock/2013.1/src/exe/rbdock.cxx#4 $)

>  <Rbt.Library>
libRbt.so (2013.1, Build901 2013/11/27)

>  <Rbt.Parameter_File>
/export/apps/rDock/src/rDock_2013.1_src/data/scripts/dock_solv.prm

>  <Rbt.Receptor>
prm/pocket_docking_7.prm

>  <SCORE>
-15.8722

>  <SCORE.INTER>
-15.8722

>  <SCORE.INTER.CONST>
1

>  <SCORE.INTER.POLAR>
0

>  <SCORE.INTER.ROT>
0

>  <SCORE.INTER.SOLV>
4.057

>  <SCORE.INTER.VDW>
-15.5338

>  <SCORE.INTER.norm>
-1.58722

>  <SCORE.INTRA>
0

>  <SCORE.INTRA.DIHEDRAL>
0

>  <SCORE.INTRA.DIHEDRAL.0>
0

>  <SCORE.INTRA.POLAR>
0

>  <SCORE.INTRA.POLAR.0>
0

>  <SCORE.INTRA.REPUL>
0

>  <SCORE.INTRA.REPUL.0>
0

>  <SCORE.INTRA.SOLV>
0

>  <SCORE.INTRA.SOLV.lig_0>
-4.26631

>  <SCORE.INTRA.VDW>
0

>  <SCORE.INTRA.VDW.0>
0

>  <SCORE.INTRA.norm>
0

>  <SCORE.RESTR>
0

>  <SCORE.RESTR.CAVITY>
0

>  <SCORE.RESTR.norm>
0

>  <SCORE.SYSTEM>
0

>  <SCORE.SYSTEM.CONST>
0

>  <SCORE.SYSTEM.DIHEDRAL>
0

>  <SCORE.SYSTEM.SOLV>
0

>  <SCORE.SYSTEM.norm>
0

>  <SCORE.heavy>
10

>  <SCORE.norm>
-1.58722

>  <RMSD>
3.481

$$$$
ligand
 OpenBabel11021811493D
libRbt.so/2013.1/901 2013/11/27
 10 11  0  0  0  0  0  0  0  0999 V2000
   11.6526   10.7062    5.7670 N   0  0  0  0  0  0  0  0  0  0  0  0
   11.8724    9.6509    6.6157 C   0  0  0  0  0  0  0  0  0  0  0  0
   11.9457    9.8234    7.9454 N   0  0  0  0  0  0  0  0  0  0  0  0
   11.7832   11.1049    8.3345 C   0  0  0  0  0  0  0  0  0  0  0  0
   11.5612   12.2040    7.5345 C   0  0  0  0  0  0  0  0  0  0  0  0
   11.4787   12.0436    6.1370 C   0  0  0  0  0  0  0  0  0  0  0  0
   11.2896   12.8797    5.2641 O   0  0  0  0  0  0  0  0  0  0  0  0
   11.4529   13.3090    8.3270 N   0  0  0  0  0  0  0  0  0  0  0  0
   11.6099   12.8848    9.5986 C   0  0  0  0  0  0  0  0  0  0  0  0
   11.8174   11.5297    9.6345 N   0  0  0  0  0  0  0  0  0  0  0  0
  1  2  1  0  0  0  0
  1  6  1  0  0  0  0
  2  3  2  0  0  0  0
  3  4  1  0  0  0  0
  4  5  2  0  0  0  0
  4 10  1  0  0  0  0
  5  6  1  0  0  0  0
  5  8  1  0  0  0  0
  6  7  2  0  0  0  0
  8  9  1  0  0  0  0
  9 10  2  0  0  0  0
M  END
>  <CHROM.1>
11.63985968,11.63544460,7.47216117,-1.81179936,-1.40529266,1.10951962

>  <Name>
ligand

>  <RI>
0

>  <Rbt.Current_Directory>
/home/itssahil/PROJECTS/Mol_Feturizer/New_Systems/rnas/4FEJ

>  <Rbt.Executable>
rbdock ($Id: //depot/dev/client3/rdock/2013.1/src/exe/rbdock.cxx#4 $)

>  <Rbt.Library>
libRbt.so (2013.1, Build901 2013/11/27)

>  <Rbt.Parameter_File>
/export/apps/rDock/src/rDock_2013.1_src/data/scripts/dock_solv.prm

>  <Rbt.Receptor>
prm/blind_docking_100.prm

>  <SCORE>
-15.9601

>  <SCORE.INTER>
-15.9601

>  <SCORE.INTER.CONST>
1

>  <SCORE.INTER.POLAR>
0

>  <SCORE.INTER.ROT>
0

>  <SCORE.INTER.SOLV>
4.29372

>  <SCORE.INTER.VDW>
-15.6713

>  <SCORE.INTER.norm>
-1.59601

>  <SCORE.INTRA>
0

>  <SCORE.INTRA.DIHEDRAL>
0

>  <SCORE.INTRA.DIHEDRAL.0>
0

>  <SCORE.INTRA.POLAR>
0

>  <SCORE.INTRA.POLAR.0>
0

>  <SCORE.INTRA.REPUL>
0

>  <SCORE.INTRA.REPUL.0>
0

>  <SCORE.INTRA.SOLV>
0

>  <SCORE.INTRA.SOLV.lig_0>
-4.26631

>  <SCORE.INTRA.VDW>
0

>  <SCORE.INTRA.VDW.0>
0

>  <SCORE.INTRA.norm>
0

>  <SCORE.RESTR>
0

>  <SCORE.RESTR.CAVITY>
0

>  <SCORE.RESTR.norm>
0

>  <SCORE.SYSTEM>
0

>  <SCORE.SYSTEM.CONST>
0

>  <SCORE.SYSTEM.DIHEDRAL>
0

>  <SCORE.SYSTEM.SOLV>
0

>  <SCORE.SYSTEM.norm>
0

>  <SCORE.heavy>
10

>  <SCORE.norm>
-1.59601

>  <RMSD>
3.533

$$$$
ligand
 OpenBabel11021811493D
libRbt.so/2013.1/901 2013/11/27
 10 11  0  0  0  0  0  0  0  0999 V2000
   11.6363   10.7633    5.7418 N   0  0  0  0  0  0  0  0  0  0  0  0
   11.8544    9.6932    6.5724 C   0  0  0  0  0  0  0  0  0  0  0  0
   11.9297    9.8431    7.9047 N   0  0  0  0  0  0  0  0  0  0  0  0
   11.7710   11.1183    8.3156 C   0  0  0  0  0  0  0  0  0  0  0  0
   11.5510   12.2313    7.5345 C   0  0  0  0  0  0  0  0  0  0  0  0
   11.4664   12.0947    6.1345 C   0  0  0  0  0  0  0  0  0  0  0  0
   11.2784   12.9458    5.2761 O   0  0  0  0  0  0  0  0  0  0  0  0
   11.4465   13.3231    8.3456 N   0  0  0  0  0  0  0  0  0  0  0  0
   11.6040   12.8771    9.6097 C   0  0  0  0  0  0  0  0  0  0  0  0
   11.8079   11.5211    9.6225 N   0  0  0  0  0  0  0  0  0  0  0  0
  1  2  1  0  0  0  0
  1  6  1  0  0  0  0
  2  3  2  0  0  0  0
  3  4  1  0  0  0  0
  4  5  2  0  0  0  0
  4 10  1  0  0  0  0
  5  6  1  0  0  0  0
  5  8  1  0  0  0  0
  6  7  2  0  0  0  0
  8  9  1  0  0  0  0
  9 10  2  0  0  0  0
M  END
>  <CHROM.1>
11.62808305,11.66367210,7.46245294,-1.82557333,-1.40710240,1.11276777

>  <Name>
ligand

>  <RI>
0

>  <Rbt.Current_Directory>
/home/itssahil/PROJECTS/Mol_Feturizer/New_Systems/rnas/4FEJ

>  <Rbt.Executable>
rbdock ($Id: //depot/dev/client3/rdock/2013.1/src/exe/rbdock.cxx#4 $)

>  <Rbt.Library>
libRbt.so (2013.1, Build901 2013/11/27)

>  <Rbt.Parameter_File>
/export/apps/rDock/src/rDock_2013.1_src/data/scripts/dock_solv.prm

>  <Rbt.Receptor>
prm/pocket_docking_4.prm

>  <SCORE>
-15.9047

>  <SCORE.INTER>
-15.9047

>  <SCORE.INTER.CONST>
1

>  <SCORE.INTER.POLAR>
0

>  <SCORE.INTER.ROT>
0

>  <SCORE.INTER.SOLV>
4.32266

>  <SCORE.INTER.VDW>
-15.644

>  <SCORE.INTER.norm>
-1.59047

>  <SCORE.INTRA>
0

>  <SCORE.INTRA.DIHEDRAL>
0

>  <SCORE.INTRA.DIHEDRAL.0>
0

>  <SCORE.INTRA.POLAR>
0

>  <SCORE.INTRA.POLAR.0>
0

>  <SCORE.INTRA.REPUL>
0

>  <SCORE.INTRA.REPUL.0>
0

>  <SCORE.INTRA.SOLV>
0

>  <SCORE.INTRA.SOLV.lig_0>
-4.26631

>  <SCORE.INTRA.VDW>
0

>  <SCORE.INTRA.VDW.0>
0

>  <SCORE.INTRA.norm>
0

>  <SCORE.RESTR>
0

>  <SCORE.RESTR.CAVITY>
0

>  <SCORE.RESTR.norm>
0

>  <SCORE.SYSTEM>
0

>  <SCORE.SYSTEM.CONST>
0

>  <SCORE.SYSTEM.DIHEDRAL>
0

>  <SCORE.SYSTEM.SOLV>
0

>  <SCORE.SYSTEM.norm>
0

>  <SCORE.heavy>
10

>  <SCORE.norm>
-1.59047

>  <RMSD>
3.545

$$$$
ligand
 OpenBabel11021811493D
libRbt.so/2013.1/901 2013/11/27
 10 11  0  0  0  0  0  0  0  0999 V2000
   11.6126   10.8125    5.7444 N   0  0  0  0  0  0  0  0  0  0  0  0
   11.8387    9.7376    6.5665 C   0  0  0  0  0  0  0  0  0  0  0  0
   11.9187    9.8783    7.8995 N   0  0  0  0  0  0  0  0  0  0  0  0
   11.7561   11.1499    8.3200 C   0  0  0  0  0  0  0  0  0  0  0  0
   11.5280   12.2674    7.5478 C   0  0  0  0  0  0  0  0  0  0  0  0
   11.4384   12.1403    6.1473 C   0  0  0  0  0  0  0  0  0  0  0  0
   11.2432   12.9967    5.2956 O   0  0  0  0  0  0  0  0  0  0  0  0
   11.4220   13.3529    8.3671 N   0  0  0  0  0  0  0  0  0  0  0  0
   11.5865   12.8987    9.6273 C   0  0  0  0  0  0  0  0  0  0  0  0
   11.7964   11.5435    9.6296 N   0  0  0  0  0  0  0  0  0  0  0  0
  1  2  1  0  0  0  0
  1  6  1  0  0  0  0
  2  3  2  0  0  0  0
  3  4  1  0  0  0  0
  4  5  2  0  0  0  0
  4 10  1  0  0  0  0
  5  6  1  0  0  0  0
  5  8  1  0  0  0  0
  6  7  2  0  0  0  0
  8  9  1  0  0  0  0
  9 10  2  0  0  0  0
M  END
>  <CHROM.1>
11.60728269,11.70061185,7.47141602,-1.83547094,-1.40135986,1.11011399

>  <Name>
ligand

>  <RI>
0

>  <Rbt.Current_Directory>
/home/itssahil/PROJECTS/Mol_Feturizer/New_Systems/rnas/4FEJ

>  <Rbt.Executable>
rbdock ($Id: //depot/dev/client3/rdock/2013.1/src/exe/rbdock.cxx#4 $)

>  <Rbt.Library>
libRbt.so (2013.1, Build901 2013/11/27)

>  <Rbt.Parameter_File>
/export/apps/rDock/src/rDock_2013.1_src/data/scripts/dock_solv.prm

>  <Rbt.Receptor>
prm/blind_docking_60.prm

>  <SCORE>
-15.9045

>  <SCORE.INTER>
-15.9045

>  <SCORE.INTER.CONST>
1

>  <SCORE.INTER.POLAR>
0

>  <SCORE.INTER.ROT>
0

>  <SCORE.INTER.SOLV>
4.32377

>  <SCORE.INTER.VDW>
-15.6443

>  <SCORE.INTER.norm>
-1.59045

>  <SCORE.INTRA>
0

>  <SCORE.INTRA.DIHEDRAL>
0

>  <SCORE.INTRA.DIHEDRAL.0>
0

>  <SCORE.INTRA.POLAR>
0

>  <SCORE.INTRA.POLAR.0>
0

>  <SCORE.INTRA.REPUL>
0

>  <SCORE.INTRA.REPUL.0>
0

>  <SCORE.INTRA.SOLV>
0

>  <SCORE.INTRA.SOLV.lig_0>
-4.26631

>  <SCORE.INTRA.VDW>
0

>  <SCORE.INTRA.VDW.0>
0

>  <SCORE.INTRA.norm>
0

>  <SCORE.RESTR>
0

>  <SCORE.RESTR.CAVITY>
0

>  <SCORE.RESTR.norm>
0

>  <SCORE.SYSTEM>
0

>  <SCORE.SYSTEM.CONST>
0

>  <SCORE.SYSTEM.DIHEDRAL>
0

>  <SCORE.SYSTEM.SOLV>
0

>  <SCORE.SYSTEM.norm>
0

>  <SCORE.heavy>
10

>  <SCORE.norm>
-1.59045

>  <RMSD>
3.553

$$$$
ligand
 OpenBabel11021811493D
libRbt.so/2013.1/901 2013/11/27
 10 11  0  0  0  0  0  0  0  0999 V2000
   11.6411   10.8261    5.7437 N   0  0  0  0  0  0  0  0  0  0  0  0
   11.8504    9.7459    6.5633 C   0  0  0  0  0  0  0  0  0  0  0  0
   11.9144    9.8798    7.8979 N   0  0  0  0  0  0  0  0  0  0  0  0
   11.7540   11.1504    8.3225 C   0  0  0  0  0  0  0  0  0  0  0  0
   11.5424   12.2729    7.5528 C   0  0  0  0  0  0  0  0  0  0  0  0
   11.4698   12.1530    6.1506 C   0  0  0  0  0  0  0  0  0  0  0  0
   11.2905   13.0145    5.3007 O   0  0  0  0  0  0  0  0  0  0  0  0
   11.4326   13.3552    8.3759 N   0  0  0  0  0  0  0  0  0  0  0  0
   11.5784   12.8940    9.6359 C   0  0  0  0  0  0  0  0  0  0  0  0
   11.7802   11.5375    9.6343 N   0  0  0  0  0  0  0  0  0  0  0  0
  1  2  1  0  0  0  0
  1  6  1  0  0  0  0
  2  3  2  0  0  0  0
  3  4  1  0  0  0  0
  4  5  2  0  0  0  0
  4 10  1  0  0  0  0
  5  6  1  0  0  0  0
  5  8  1  0  0  0  0
  6  7  2  0  0  0  0
  8  9  1  0  0  0  0
  9 10  2  0  0  0  0
M  END
>  <CHROM.1>
11.61929090,11.70601768,7.47469014,-1.78054970,-1.41211809,1.16906478

>  <Name>
ligand

>  <RI>
0

>  <Rbt.Current_Directory>
/home/itssahil/PROJECTS/Mol_Feturizer/New_Systems/rnas/4FEJ

>  <Rbt.Executable>
rbdock ($Id: //depot/dev/client3/rdock/2013.1/src/exe/rbdock.cxx#4 $)

>  <Rbt.Library>
libRbt.so (2013.1, Build901 2013/11/27)

>  <Rbt.Parameter_File>
/export/apps/rDock/src/rDock_2013.1_src/data/scripts/dock_solv.prm

>  <Rbt.Receptor>
prm/blind_docking_60.prm

>  <SCORE>
-15.8957

>  <SCORE.INTER>
-15.8957

>  <SCORE.INTER.CONST>
1

>  <SCORE.INTER.POLAR>
0

>  <SCORE.INTER.ROT>
0

>  <SCORE.INTER.SOLV>
4.37944

>  <SCORE.INTER.VDW>
-15.657

>  <SCORE.INTER.norm>
-1.58957

>  <SCORE.INTRA>
0

>  <SCORE.INTRA.DIHEDRAL>
0

>  <SCORE.INTRA.DIHEDRAL.0>
0

>  <SCORE.INTRA.POLAR>
0

>  <SCORE.INTRA.POLAR.0>
0

>  <SCORE.INTRA.REPUL>
0

>  <SCORE.INTRA.REPUL.0>
0

>  <SCORE.INTRA.SOLV>
0

>  <SCORE.INTRA.SOLV.lig_0>
-4.26631

>  <SCORE.INTRA.VDW>
0

>  <SCORE.INTRA.VDW.0>
0

>  <SCORE.INTRA.norm>
0

>  <SCORE.RESTR>
0

>  <SCORE.RESTR.CAVITY>
0

>  <SCORE.RESTR.norm>
0

>  <SCORE.SYSTEM>
0

>  <SCORE.SYSTEM.CONST>
0

>  <SCORE.SYSTEM.DIHEDRAL>
0

>  <SCORE.SYSTEM.SOLV>
0

>  <SCORE.SYSTEM.norm>
0

>  <SCORE.heavy>
10

>  <SCORE.norm>
-1.58957

>  <RMSD>
3.554

$$$$
ligand
 OpenBabel11021811493D
libRbt.so/2013.1/901 2013/11/27
 10 11  0  0  0  0  0  0  0  0999 V2000
   16.2387   10.0200    6.7964 N   0  0  0  0  0  0  0  0  0  0  0  0
   15.7600    8.9474    6.0874 C   0  0  0  0  0  0  0  0  0  0  0  0
   14.4634    8.6007    6.1296 N   0  0  0  0  0  0  0  0  0  0  0  0
   13.7152    9.3993    6.9187 C   0  0  0  0  0  0  0  0  0  0  0  0
   14.1353   10.4861    7.6533 C   0  0  0  0  0  0  0  0  0  0  0  0
   15.4915   10.8674    7.6205 C   0  0  0  0  0  0  0  0  0  0  0  0
   16.0584   11.7885    8.1922 O   0  0  0  0  0  0  0  0  0  0  0  0
   13.0620   11.0138    8.3093 N   0  0  0  0  0  0  0  0  0  0  0  0
   11.9983   10.2523    7.9774 C   0  0  0  0  0  0  0  0  0  0  0  0
   12.3710    9.2471    7.1222 N   0  0  0  0  0  0  0  0  0  0  0  0
  1  2  1  0  0  0  0
  1  6  1  0  0  0  0
  2  3  2  0  0  0  0
  3  4  1  0  0  0  0
  4  5  2  0  0  0  0
  4 10  1  0  0  0  0
  5  6  1  0  0  0  0
  5  8  1  0  0  0  0
  6  7  2  0  0  0  0
  8  9  1  0  0  0  0
  9 10  2  0  0  0  0
M  END
>  <CHROM.1>
14.36373413,10.09372362,7.29666660,-0.09139327,-0.18607147,-2.48824201

>  <Name>
ligand

>  <RI>
0

>  <Rbt.Current_Directory>
/home/itssahil/PROJECTS/Mol_Feturizer/New_Systems/rnas/4FEJ

>  <Rbt.Executable>
rbdock ($Id: //depot/dev/client3/rdock/2013.1/src/exe/rbdock.cxx#4 $)

>  <Rbt.Library>
libRbt.so (2013.1, Build901 2013/11/27)

>  <Rbt.Parameter_File>
/export/apps/rDock/src/rDock_2013.1_src/data/scripts/dock_solv.prm

>  <Rbt.Receptor>
prm/blind_docking_80.prm

>  <SCORE>
-10.2757

>  <SCORE.INTER>
-10.2757

>  <SCORE.INTER.CONST>
1

>  <SCORE.INTER.POLAR>
0

>  <SCORE.INTER.ROT>
0

>  <SCORE.INTER.SOLV>
3.74216

>  <SCORE.INTER.VDW>
-11.6979

>  <SCORE.INTER.norm>
-1.02757

>  <SCORE.INTRA>
0

>  <SCORE.INTRA.DIHEDRAL>
0

>  <SCORE.INTRA.DIHEDRAL.0>
0

>  <SCORE.INTRA.POLAR>
0

>  <SCORE.INTRA.POLAR.0>
0

>  <SCORE.INTRA.REPUL>
0

>  <SCORE.INTRA.REPUL.0>
0

>  <SCORE.INTRA.SOLV>
0

>  <SCORE.INTRA.SOLV.lig_0>
-4.26631

>  <SCORE.INTRA.VDW>
0

>  <SCORE.INTRA.VDW.0>
0

>  <SCORE.INTRA.norm>
0

>  <SCORE.RESTR>
0

>  <SCORE.RESTR.CAVITY>
0

>  <SCORE.RESTR.norm>
0

>  <SCORE.SYSTEM>
0

>  <SCORE.SYSTEM.CONST>
0

>  <SCORE.SYSTEM.DIHEDRAL>
0

>  <SCORE.SYSTEM.SOLV>
0

>  <SCORE.SYSTEM.norm>
0

>  <SCORE.heavy>
10

>  <SCORE.norm>
-1.02757

>  <RMSD>
4.352

$$$$
ligand
 OpenBabel11021811493D
libRbt.so/2013.1/901 2013/11/27
 10 11  0  0  0  0  0  0  0  0999 V2000
   14.1695    7.7453    5.8484 N   0  0  0  0  0  0  0  0  0  0  0  0
   13.2466    6.7659    6.1157 C   0  0  0  0  0  0  0  0  0  0  0  0
   13.5128    5.7655    6.9710 N   0  0  0  0  0  0  0  0  0  0  0  0
   14.7448    5.8335    7.5165 C   0  0  0  0  0  0  0  0  0  0  0  0
   15.7128    6.7867    7.2890 C   0  0  0  0  0  0  0  0  0  0  0  0
   15.4521    7.8457    6.3968 C   0  0  0  0  0  0  0  0  0  0  0  0
   16.1675    8.7801    6.0624 O   0  0  0  0  0  0  0  0  0  0  0  0
   16.8106    6.4855    8.0407 N   0  0  0  0  0  0  0  0  0  0  0  0
   16.5126    5.3569    8.7181 C   0  0  0  0  0  0  0  0  0  0  0  0
   15.2455    4.9300    8.4135 N   0  0  0  0  0  0  0  0  0  0  0  0
  1  2  1  0  0  0  0
  1  6  1  0  0  0  0
  2  3  2  0  0  0  0
  3  4  1  0  0  0  0
  4  5  2  0  0  0  0
  4 10  1  0  0  0  0
  5  6  1  0  0  0  0
  5  8  1  0  0  0  0
  6  7  2  0  0  0  0
  8  9  1  0  0  0  0
  9 10  2  0  0  0  0
M  END
>  <CHROM.1>
15.17450266,6.67039150,7.11570286,1.88079157,-0.37256282,-0.62839510

>  <Name>
ligand

>  <RI>
0

>  <Rbt.Current_Directory>
/home/itssahil/PROJECTS/Mol_Feturizer/New_Systems/rnas/4FEJ

>  <Rbt.Executable>
rbdock ($Id: //depot/dev/client3/rdock/2013.1/src/exe/rbdock.cxx#4 $)

>  <Rbt.Library>
libRbt.so (2013.1, Build901 2013/11/27)

>  <Rbt.Parameter_File>
/export/apps/rDock/src/rDock_2013.1_src/data/scripts/dock_solv.prm

>  <Rbt.Receptor>
prm/blind_docking_40.prm

>  <SCORE>
-9.45251

>  <SCORE.INTER>
-9.45251

>  <SCORE.INTER.CONST>
1

>  <SCORE.INTER.POLAR>
0

>  <SCORE.INTER.ROT>
0

>  <SCORE.INTER.SOLV>
2.66608

>  <SCORE.INTER.VDW>
-10.7904

>  <SCORE.INTER.norm>
-0.945251

>  <SCORE.INTRA>
0

>  <SCORE.INTRA.DIHEDRAL>
0

>  <SCORE.INTRA.DIHEDRAL.0>
0

>  <SCORE.INTRA.POLAR>
0

>  <SCORE.INTRA.POLAR.0>
0

>  <SCORE.INTRA.REPUL>
0

>  <SCORE.INTRA.REPUL.0>
0

>  <SCORE.INTRA.SOLV>
0

>  <SCORE.INTRA.SOLV.lig_0>
-4.26631

>  <SCORE.INTRA.VDW>
0

>  <SCORE.INTRA.VDW.0>
0

>  <SCORE.INTRA.norm>
0

>  <SCORE.RESTR>
0

>  <SCORE.RESTR.CAVITY>
0

>  <SCORE.RESTR.norm>
0

>  <SCORE.SYSTEM>
0

>  <SCORE.SYSTEM.CONST>
0

>  <SCORE.SYSTEM.DIHEDRAL>
0

>  <SCORE.SYSTEM.SOLV>
0

>  <SCORE.SYSTEM.norm>
0

>  <SCORE.heavy>
10

>  <SCORE.norm>
-0.945251

>  <RMSD>
6.987

$$$$
ligand
 OpenBabel11021811493D
libRbt.so/2013.1/901 2013/11/27
 10 11  0  0  0  0  0  0  0  0999 V2000
   32.8033   14.6586    8.9135 N   0  0  0  0  0  0  0  0  0  0  0  0
   32.8856   15.4982    9.9954 C   0  0  0  0  0  0  0  0  0  0  0  0
   33.0555   15.0240   11.2402 N   0  0  0  0  0  0  0  0  0  0  0  0
   33.1339   13.6785   11.3006 C   0  0  0  0  0  0  0  0  0  0  0  0
   33.0580   12.7849   10.2552 C   0  0  0  0  0  0  0  0  0  0  0  0
   32.8822   13.2626    8.9413 C   0  0  0  0  0  0  0  0  0  0  0  0
   32.7921   12.6434    7.8900 O   0  0  0  0  0  0  0  0  0  0  0  0
   33.1847   11.5197   10.7493 N   0  0  0  0  0  0  0  0  0  0  0  0
   33.3344   11.6436   12.0848 C   0  0  0  0  0  0  0  0  0  0  0  0
   33.3051   12.9639   12.4545 N   0  0  0  0  0  0  0  0  0  0  0  0
  1  2  1  0  0  0  0
  1  6  1  0  0  0  0
  2  3  2  0  0  0  0
  3  4  1  0  0  0  0
  4  5  2  0  0  0  0
  4 10  1  0  0  0  0
  5  6  1  0  0  0  0
  5  8  1  0  0  0  0
  6  7  2  0  0  0  0
  8  9  1  0  0  0  0
  9 10  2  0  0  0  0
M  END
>  <CHROM.1>
33.03853910,13.35637624,10.33481726,-3.11053543,1.44355595,-2.71258808

>  <Name>
ligand

>  <RI>
0

>  <Rbt.Current_Directory>
/home/itssahil/PROJECTS/Mol_Feturizer/New_Systems/rnas/4FEJ

>  <Rbt.Executable>
rbdock ($Id: //depot/dev/client3/rdock/2013.1/src/exe/rbdock.cxx#4 $)

>  <Rbt.Library>
libRbt.so (2013.1, Build901 2013/11/27)

>  <Rbt.Parameter_File>
/export/apps/rDock/src/rDock_2013.1_src/data/scripts/dock_solv.prm

>  <Rbt.Receptor>
prm/blind_docking_40.prm

>  <SCORE>
-10.1101

>  <SCORE.INTER>
-10.1101

>  <SCORE.INTER.CONST>
1

>  <SCORE.INTER.POLAR>
0

>  <SCORE.INTER.ROT>
0

>  <SCORE.INTER.SOLV>
3.31453

>  <SCORE.INTER.VDW>
-11.4449

>  <SCORE.INTER.norm>
-1.01101

>  <SCORE.INTRA>
0

>  <SCORE.INTRA.DIHEDRAL>
0

>  <SCORE.INTRA.DIHEDRAL.0>
0

>  <SCORE.INTRA.POLAR>
0

>  <SCORE.INTRA.POLAR.0>
0

>  <SCORE.INTRA.REPUL>
0

>  <SCORE.INTRA.REPUL.0>
0

>  <SCORE.INTRA.SOLV>
0

>  <SCORE.INTRA.SOLV.lig_0>
-4.26631

>  <SCORE.INTRA.VDW>
0

>  <SCORE.INTRA.VDW.0>
0

>  <SCORE.INTRA.norm>
0

>  <SCORE.RESTR>
0

>  <SCORE.RESTR.CAVITY>
0

>  <SCORE.RESTR.norm>
0

>  <SCORE.SYSTEM>
0

>  <SCORE.SYSTEM.CONST>
0

>  <SCORE.SYSTEM.DIHEDRAL>
0

>  <SCORE.SYSTEM.SOLV>
0

>  <SCORE.SYSTEM.norm>
0

>  <SCORE.heavy>
10

>  <SCORE.norm>
-1.01101

>  <RMSD>
21.973

$$$$
ligand
 OpenBabel11021811493D
libRbt.so/2013.1/901 2013/11/27
 10 11  0  0  0  0  0  0  0  0999 V2000
   33.2302   17.7228    8.9703 N   0  0  0  0  0  0  0  0  0  0  0  0
   34.2936   16.8980    9.2372 C   0  0  0  0  0  0  0  0  0  0  0  0
   35.5306   17.3861    9.4236 N   0  0  0  0  0  0  0  0  0  0  0  0
   35.6030   18.7295    9.3229 C   0  0  0  0  0  0  0  0  0  0  0  0
   34.5763   19.6086    9.0574 C   0  0  0  0  0  0  0  0  0  0  0  0
   33.2706   19.1163    8.8611 C   0  0  0  0  0  0  0  0  0  0  0  0
   32.2354   19.7215    8.6184 O   0  0  0  0  0  0  0  0  0  0  0  0
   35.0771   20.8774    9.0442 N   0  0  0  0  0  0  0  0  0  0  0  0
   36.3984   20.7698    9.2977 C   0  0  0  0  0  0  0  0  0  0  0  0
   36.7523   19.4564    9.4720 N   0  0  0  0  0  0  0  0  0  0  0  0
  1  2  1  0  0  0  0
  1  6  1  0  0  0  0
  2  3  2  0  0  0  0
  3  4  1  0  0  0  0
  4  5  2  0  0  0  0
  4 10  1  0  0  0  0
  5  6  1  0  0  0  0
  5  8  1  0  0  0  0
  6  7  2  0  0  0  0
  8  9  1  0  0  0  0
  9 10  2  0  0  0  0
M  END
>  <CHROM.1>
34.64966700,19.03941767,9.12089177,-2.68791032,-0.18155977,-0.08448569

>  <Name>
ligand

>  <RI>
0

>  <Rbt.Current_Directory>
/home/itssahil/PROJECTS/Mol_Feturizer/New_Systems/rnas/4FEJ

>  <Rbt.Executable>
rbdock ($Id: //depot/dev/client3/rdock/2013.1/src/exe/rbdock.cxx#4 $)

>  <Rbt.Library>
libRbt.so (2013.1, Build901 2013/11/27)

>  <Rbt.Parameter_File>
/export/apps/rDock/src/rDock_2013.1_src/data/scripts/dock_solv.prm

>  <Rbt.Receptor>
prm/blind_docking_80.prm

>  <SCORE>
-10.0931

>  <SCORE.INTER>
-10.0931

>  <SCORE.INTER.CONST>
1

>  <SCORE.INTER.POLAR>
0

>  <SCORE.INTER.ROT>
0

>  <SCORE.INTER.SOLV>
2.46627

>  <SCORE.INTER.VDW>
-11.1508

>  <SCORE.INTER.norm>
-1.00931

>  <SCORE.INTRA>
0

>  <SCORE.INTRA.DIHEDRAL>
0

>  <SCORE.INTRA.DIHEDRAL.0>
0

>  <SCORE.INTRA.POLAR>
0

>  <SCORE.INTRA.POLAR.0>
0

>  <SCORE.INTRA.REPUL>
0

>  <SCORE.INTRA.REPUL.0>
0

>  <SCORE.INTRA.SOLV>
0

>  <SCORE.INTRA.SOLV.lig_0>
-4.26631

>  <SCORE.INTRA.VDW>
0

>  <SCORE.INTRA.VDW.0>
0

>  <SCORE.INTRA.norm>
0

>  <SCORE.RESTR>
0

>  <SCORE.RESTR.CAVITY>
0

>  <SCORE.RESTR.norm>
0

>  <SCORE.SYSTEM>
0

>  <SCORE.SYSTEM.CONST>
0

>  <SCORE.SYSTEM.DIHEDRAL>
0

>  <SCORE.SYSTEM.SOLV>
0

>  <SCORE.SYSTEM.norm>
0

>  <SCORE.heavy>
10

>  <SCORE.norm>
-1.00931

>  <RMSD>
24.574

$$$$
ligand
 OpenBabel11021811493D
libRbt.so/2013.1/901 2013/11/27
 10 11  0  0  0  0  0  0  0  0999 V2000
   35.3713   20.6012   10.5951 N   0  0  0  0  0  0  0  0  0  0  0  0
   35.4485   21.0974    9.3183 C   0  0  0  0  0  0  0  0  0  0  0  0
   35.8254   20.3247    8.2869 N   0  0  0  0  0  0  0  0  0  0  0  0
   36.1072   19.0529    8.6382 C   0  0  0  0  0  0  0  0  0  0  0  0
   36.0496   18.4968    9.8971 C   0  0  0  0  0  0  0  0  0  0  0  0
   35.6542   19.2905   10.9922 C   0  0  0  0  0  0  0  0  0  0  0  0
   35.5397   18.9917   12.1730 O   0  0  0  0  0  0  0  0  0  0  0  0
   36.4118   17.1842    9.8140 N   0  0  0  0  0  0  0  0  0  0  0  0
   36.6892   16.9452    8.5150 C   0  0  0  0  0  0  0  0  0  0  0  0
   36.5121   18.0801    7.7657 N   0  0  0  0  0  0  0  0  0  0  0  0
  1  2  1  0  0  0  0
  1  6  1  0  0  0  0
  2  3  2  0  0  0  0
  3  4  1  0  0  0  0
  4  5  2  0  0  0  0
  4 10  1  0  0  0  0
  5  6  1  0  0  0  0
  5  8  1  0  0  0  0
  6  7  2  0  0  0  0
  8  9  1  0  0  0  0
  9 10  2  0  0  0  0
M  END
>  <CHROM.1>
35.95238322,19.00849605,9.64801607,2.87911808,-1.26658459,2.12485353

>  <Name>
ligand

>  <RI>
0

>  <Rbt.Current_Directory>
/home/itssahil/PROJECTS/Mol_Feturizer/New_Systems/rnas/4FEJ

>  <Rbt.Executable>
rbdock ($Id: //depot/dev/client3/rdock/2013.1/src/exe/rbdock.cxx#4 $)

>  <Rbt.Library>
libRbt.so (2013.1, Build901 2013/11/27)

>  <Rbt.Parameter_File>
/export/apps/rDock/src/rDock_2013.1_src/data/scripts/dock_solv.prm

>  <Rbt.Receptor>
prm/blind_docking_60.prm

>  <SCORE>
-13.0027

>  <SCORE.INTER>
-13.0027

>  <SCORE.INTER.CONST>
1

>  <SCORE.INTER.POLAR>
0

>  <SCORE.INTER.ROT>
0

>  <SCORE.INTER.SOLV>
4.55319

>  <SCORE.INTER.VDW>
-13.7862

>  <SCORE.INTER.norm>
-1.30027

>  <SCORE.INTRA>
0

>  <SCORE.INTRA.DIHEDRAL>
0

>  <SCORE.INTRA.DIHEDRAL.0>
0

>  <SCORE.INTRA.POLAR>
0

>  <SCORE.INTRA.POLAR.0>
0

>  <SCORE.INTRA.REPUL>
0

>  <SCORE.INTRA.REPUL.0>
0

>  <SCORE.INTRA.SOLV>
0

>  <SCORE.INTRA.SOLV.lig_0>
-4.26631

>  <SCORE.INTRA.VDW>
0

>  <SCORE.INTRA.VDW.0>
0

>  <SCORE.INTRA.norm>
0

>  <SCORE.RESTR>
0

>  <SCORE.RESTR.CAVITY>
0

>  <SCORE.RESTR.norm>
0

>  <SCORE.SYSTEM>
0

>  <SCORE.SYSTEM.CONST>
0

>  <SCORE.SYSTEM.DIHEDRAL>
0

>  <SCORE.SYSTEM.SOLV>
0

>  <SCORE.SYSTEM.norm>
0

>  <SCORE.heavy>
10

>  <SCORE.norm>
-1.30027

>  <RMSD>
25.722

$$$$
ligand
 OpenBabel11021811493D
libRbt.so/2013.1/901 2013/11/27
 10 11  0  0  0  0  0  0  0  0999 V2000
   35.3760   20.6030   10.5855 N   0  0  0  0  0  0  0  0  0  0  0  0
   35.4524   21.1062    9.3114 C   0  0  0  0  0  0  0  0  0  0  0  0
   35.8276   20.3389    8.2753 N   0  0  0  0  0  0  0  0  0  0  0  0
   36.1086   19.0650    8.6193 C   0  0  0  0  0  0  0  0  0  0  0  0
   36.0519   18.5019    9.8751 C   0  0  0  0  0  0  0  0  0  0  0  0
   35.6582   19.2899   10.9750 C   0  0  0  0  0  0  0  0  0  0  0  0
   35.5447   18.9847   12.1543 O   0  0  0  0  0  0  0  0  0  0  0  0
   36.4128   17.1895    9.7844 N   0  0  0  0  0  0  0  0  0  0  0  0
   36.6887   16.9575    8.4838 C   0  0  0  0  0  0  0  0  0  0  0  0
   36.5118   18.0966    7.7410 N   0  0  0  0  0  0  0  0  0  0  0  0
  1  2  1  0  0  0  0
  1  6  1  0  0  0  0
  2  3  2  0  0  0  0
  3  4  1  0  0  0  0
  4  5  2  0  0  0  0
  4 10  1  0  0  0  0
  5  6  1  0  0  0  0
  5  8  1  0  0  0  0
  6  7  2  0  0  0  0
  8  9  1  0  0  0  0
  9 10  2  0  0  0  0
M  END
>  <CHROM.1>
35.95479906,19.01510856,9.62898652,2.87776106,-1.26785457,2.12908667

>  <Name>
ligand

>  <RI>
0

>  <Rbt.Current_Directory>
/home/itssahil/PROJECTS/Mol_Feturizer/New_Systems/rnas/4FEJ

>  <Rbt.Executable>
rbdock ($Id: //depot/dev/client3/rdock/2013.1/src/exe/rbdock.cxx#4 $)

>  <Rbt.Library>
libRbt.so (2013.1, Build901 2013/11/27)

>  <Rbt.Parameter_File>
/export/apps/rDock/src/rDock_2013.1_src/data/scripts/dock_solv.prm

>  <Rbt.Receptor>
prm/blind_docking_60.prm

>  <SCORE>
-12.9729

>  <SCORE.INTER>
-12.9729

>  <SCORE.INTER.CONST>
1

>  <SCORE.INTER.POLAR>
0

>  <SCORE.INTER.ROT>
0

>  <SCORE.INTER.SOLV>
4.54574

>  <SCORE.INTER.VDW>
-13.7638

>  <SCORE.INTER.norm>
-1.29729

>  <SCORE.INTRA>
0

>  <SCORE.INTRA.DIHEDRAL>
0

>  <SCORE.INTRA.DIHEDRAL.0>
0

>  <SCORE.INTRA.POLAR>
0

>  <SCORE.INTRA.POLAR.0>
0

>  <SCORE.INTRA.REPUL>
0

>  <SCORE.INTRA.REPUL.0>
0

>  <SCORE.INTRA.SOLV>
0

>  <SCORE.INTRA.SOLV.lig_0>
-4.26631

>  <SCORE.INTRA.VDW>
0

>  <SCORE.INTRA.VDW.0>
0

>  <SCORE.INTRA.norm>
0

>  <SCORE.RESTR>
0

>  <SCORE.RESTR.CAVITY>
0

>  <SCORE.RESTR.norm>
0

>  <SCORE.SYSTEM>
0

>  <SCORE.SYSTEM.CONST>
0

>  <SCORE.SYSTEM.DIHEDRAL>
0

>  <SCORE.SYSTEM.SOLV>
0

>  <SCORE.SYSTEM.norm>
0

>  <SCORE.heavy>
10

>  <SCORE.norm>
-1.29729

>  <RMSD>
25.724

$$$$
ligand
 OpenBabel11021811493D
libRbt.so/2013.1/901 2013/11/27
 10 11  0  0  0  0  0  0  0  0999 V2000
   35.7446   20.7506   10.2884 N   0  0  0  0  0  0  0  0  0  0  0  0
   35.8439   19.8946   11.3560 C   0  0  0  0  0  0  0  0  0  0  0  0
   36.1190   18.5912   11.1870 N   0  0  0  0  0  0  0  0  0  0  0  0
   36.2811   18.2354    9.8957 C   0  0  0  0  0  0  0  0  0  0  0  0
   36.1936   19.0442    8.7842 C   0  0  0  0  0  0  0  0  0  0  0  0
   35.9081   20.4153    8.9407 C   0  0  0  0  0  0  0  0  0  0  0  0
   35.7897   21.2905    8.0941 O   0  0  0  0  0  0  0  0  0  0  0  0
   36.4261   18.2889    7.6723 N   0  0  0  0  0  0  0  0  0  0  0  0
   36.6511   17.0304    8.1049 C   0  0  0  0  0  0  0  0  0  0  0  0
   36.5662   16.9662    9.4721 N   0  0  0  0  0  0  0  0  0  0  0  0
  1  2  1  0  0  0  0
  1  6  1  0  0  0  0
  2  3  2  0  0  0  0
  3  4  1  0  0  0  0
  4  5  2  0  0  0  0
  4 10  1  0  0  0  0
  5  6  1  0  0  0  0
  5  8  1  0  0  0  0
  6  7  2  0  0  0  0
  8  9  1  0  0  0  0
  9 10  2  0  0  0  0
M  END
>  <CHROM.1>
36.14510405,19.09410392,9.35737734,3.03689027,1.36008061,-1.23715513

>  <Name>
ligand

>  <RI>
0

>  <Rbt.Current_Directory>
/home/itssahil/PROJECTS/Mol_Feturizer/New_Systems/rnas/4FEJ

>  <Rbt.Executable>
rbdock ($Id: //depot/dev/client3/rdock/2013.1/src/exe/rbdock.cxx#4 $)

>  <Rbt.Library>
libRbt.so (2013.1, Build901 2013/11/27)

>  <Rbt.Parameter_File>
/export/apps/rDock/src/rDock_2013.1_src/data/scripts/dock_solv.prm

>  <Rbt.Receptor>
prm/blind_docking_100.prm

>  <SCORE>
-12.3341

>  <SCORE.INTER>
-12.4813

>  <SCORE.INTER.CONST>
1

>  <SCORE.INTER.POLAR>
0

>  <SCORE.INTER.ROT>
0

>  <SCORE.INTER.SOLV>
3.43548

>  <SCORE.INTER.VDW>
-13.066

>  <SCORE.INTER.norm>
-1.24813

>  <SCORE.INTRA>
0

>  <SCORE.INTRA.DIHEDRAL>
0

>  <SCORE.INTRA.DIHEDRAL.0>
0

>  <SCORE.INTRA.POLAR>
0

>  <SCORE.INTRA.POLAR.0>
0

>  <SCORE.INTRA.REPUL>
0

>  <SCORE.INTRA.REPUL.0>
0

>  <SCORE.INTRA.SOLV>
0

>  <SCORE.INTRA.SOLV.lig_0>
-4.26631

>  <SCORE.INTRA.VDW>
0

>  <SCORE.INTRA.VDW.0>
0

>  <SCORE.INTRA.norm>
0

>  <SCORE.RESTR>
0.147244

>  <SCORE.RESTR.CAVITY>
0.147244

>  <SCORE.RESTR.norm>
0.0147244

>  <SCORE.SYSTEM>
0

>  <SCORE.SYSTEM.CONST>
0

>  <SCORE.SYSTEM.DIHEDRAL>
0

>  <SCORE.SYSTEM.SOLV>
0

>  <SCORE.SYSTEM.norm>
0

>  <SCORE.heavy>
10

>  <SCORE.norm>
-1.23341

>  <RMSD>
25.924

$$$$
ligand
 OpenBabel11021811493D
libRbt.so/2013.1/901 2013/11/27
 10 11  0  0  0  0  0  0  0  0999 V2000
   36.2212   20.7139   10.3971 N   0  0  0  0  0  0  0  0  0  0  0  0
   36.3555   19.8224   11.4314 C   0  0  0  0  0  0  0  0  0  0  0  0
   36.5083   18.5071   11.2086 N   0  0  0  0  0  0  0  0  0  0  0  0
   36.5153   18.1771    9.9004 C   0  0  0  0  0  0  0  0  0  0  0  0
   36.3847   19.0219    8.8203 C   0  0  0  0  0  0  0  0  0  0  0  0
   36.2257   20.4058    9.0331 C   0  0  0  0  0  0  0  0  0  0  0  0
   36.0955   21.3115    8.2210 O   0  0  0  0  0  0  0  0  0  0  0  0
   36.4471   18.2832    7.6752 N   0  0  0  0  0  0  0  0  0  0  0  0
   36.6123   16.9992    8.0567 C   0  0  0  0  0  0  0  0  0  0  0  0
   36.6560   16.9025    9.4240 N   0  0  0  0  0  0  0  0  0  0  0  0
  1  2  1  0  0  0  0
  1  6  1  0  0  0  0
  2  3  2  0  0  0  0
  3  4  1  0  0  0  0
  4  5  2  0  0  0  0
  4 10  1  0  0  0  0
  5  6  1  0  0  0  0
  5  8  1  0  0  0  0
  6  7  2  0  0  0  0
  8  9  1  0  0  0  0
  9 10  2  0  0  0  0
M  END
>  <CHROM.1>
36.39628407,19.05887509,9.39634954,-2.67681419,1.44833750,-1.77470780

>  <Name>
ligand

>  <RI>
0

>  <Rbt.Current_Directory>
/home/itssahil/PROJECTS/Mol_Feturizer/New_Systems/rnas/4FEJ

>  <Rbt.Executable>
rbdock ($Id: //depot/dev/client3/rdock/2013.1/src/exe/rbdock.cxx#4 $)

>  <Rbt.Library>
libRbt.so (2013.1, Build901 2013/11/27)

>  <Rbt.Parameter_File>
/export/apps/rDock/src/rDock_2013.1_src/data/scripts/dock_solv.prm

>  <Rbt.Receptor>
prm/blind_docking_100.prm

>  <SCORE>
-12.2822

>  <SCORE.INTER>
-12.3991

>  <SCORE.INTER.CONST>
1

>  <SCORE.INTER.POLAR>
0

>  <SCORE.INTER.ROT>
0

>  <SCORE.INTER.SOLV>
3.79771

>  <SCORE.INTER.VDW>
-13.132

>  <SCORE.INTER.norm>
-1.23991

>  <SCORE.INTRA>
0

>  <SCORE.INTRA.DIHEDRAL>
0

>  <SCORE.INTRA.DIHEDRAL.0>
0

>  <SCORE.INTRA.POLAR>
0

>  <SCORE.INTRA.POLAR.0>
0

>  <SCORE.INTRA.REPUL>
0

>  <SCORE.INTRA.REPUL.0>
0

>  <SCORE.INTRA.SOLV>
0

>  <SCORE.INTRA.SOLV.lig_0>
-4.26631

>  <SCORE.INTRA.VDW>
0

>  <SCORE.INTRA.VDW.0>
0

>  <SCORE.INTRA.norm>
0

>  <SCORE.RESTR>
0.116962

>  <SCORE.RESTR.CAVITY>
0.116962

>  <SCORE.RESTR.norm>
0.0116962

>  <SCORE.SYSTEM>
0

>  <SCORE.SYSTEM.CONST>
0

>  <SCORE.SYSTEM.DIHEDRAL>
0

>  <SCORE.SYSTEM.SOLV>
0

>  <SCORE.SYSTEM.norm>
0

>  <SCORE.heavy>
10

>  <SCORE.norm>
-1.22822

>  <RMSD>
26.150

$$$$
ligand
 OpenBabel11021811493D
libRbt.so/2013.1/901 2013/11/27
 10 11  0  0  0  0  0  0  0  0999 V2000
   36.5929   17.4117   10.1601 N   0  0  0  0  0  0  0  0  0  0  0  0
   36.5634   17.1038    8.8234 C   0  0  0  0  0  0  0  0  0  0  0  0
   36.4756   18.0601    7.8849 N   0  0  0  0  0  0  0  0  0  0  0  0
   36.4231   19.3102    8.3895 C   0  0  0  0  0  0  0  0  0  0  0  0
   36.4479   19.6826    9.7154 C   0  0  0  0  0  0  0  0  0  0  0  0
   36.5420   18.6942   10.7153 C   0  0  0  0  0  0  0  0  0  0  0  0
   36.5781   18.8144   11.9323 O   0  0  0  0  0  0  0  0  0  0  0  0
   36.3759   21.0428    9.7907 N   0  0  0  0  0  0  0  0  0  0  0  0
   36.3058   21.4932    8.5204 C   0  0  0  0  0  0  0  0  0  0  0  0
   36.3309   20.4470    7.6340 N   0  0  0  0  0  0  0  0  0  0  0  0
  1  2  1  0  0  0  0
  1  6  1  0  0  0  0
  2  3  2  0  0  0  0
  3  4  1  0  0  0  0
  4  5  2  0  0  0  0
  4 10  1  0  0  0  0
  5  6  1  0  0  0  0
  5  8  1  0  0  0  0
  6  7  2  0  0  0  0
  8  9  1  0  0  0  0
  9 10  2  0  0  0  0
M  END
>  <CHROM.1>
36.46582671,19.19624876,9.40483455,-0.11262354,1.50409619,-2.13813323

>  <Name>
ligand

>  <RI>
0

>  <Rbt.Current_Directory>
/home/itssahil/PROJECTS/Mol_Feturizer/New_Systems/rnas/4FEJ

>  <Rbt.Executable>
rbdock ($Id: //depot/dev/client3/rdock/2013.1/src/exe/rbdock.cxx#4 $)

>  <Rbt.Library>
libRbt.so (2013.1, Build901 2013/11/27)

>  <Rbt.Parameter_File>
/export/apps/rDock/src/rDock_2013.1_src/data/scripts/dock_solv.prm

>  <Rbt.Receptor>
prm/blind_docking_80.prm

>  <SCORE>
-12.9578

>  <SCORE.INTER>
-12.9578

>  <SCORE.INTER.CONST>
1

>  <SCORE.INTER.POLAR>
0

>  <SCORE.INTER.ROT>
0

>  <SCORE.INTER.SOLV>
4.93241

>  <SCORE.INTER.VDW>
-13.8827

>  <SCORE.INTER.norm>
-1.29578

>  <SCORE.INTRA>
0

>  <SCORE.INTRA.DIHEDRAL>
0

>  <SCORE.INTRA.DIHEDRAL.0>
0

>  <SCORE.INTRA.POLAR>
0

>  <SCORE.INTRA.POLAR.0>
0

>  <SCORE.INTRA.REPUL>
0

>  <SCORE.INTRA.REPUL.0>
0

>  <SCORE.INTRA.SOLV>
0

>  <SCORE.INTRA.SOLV.lig_0>
-4.26631

>  <SCORE.INTRA.VDW>
0

>  <SCORE.INTRA.VDW.0>
0

>  <SCORE.INTRA.norm>
0

>  <SCORE.RESTR>
0

>  <SCORE.RESTR.CAVITY>
0

>  <SCORE.RESTR.norm>
0

>  <SCORE.SYSTEM>
0

>  <SCORE.SYSTEM.CONST>
0

>  <SCORE.SYSTEM.DIHEDRAL>
0

>  <SCORE.SYSTEM.SOLV>
0

>  <SCORE.SYSTEM.norm>
0

>  <SCORE.heavy>
10

>  <SCORE.norm>
-1.29578

>  <RMSD>
26.236

$$$$
ligand
 OpenBabel11021811493D
libRbt.so/2013.1/901 2013/11/27
 10 11  0  0  0  0  0  0  0  0999 V2000
   36.1616   18.7360    7.8071 N   0  0  0  0  0  0  0  0  0  0  0  0
   36.5940   17.4737    8.1266 C   0  0  0  0  0  0  0  0  0  0  0  0
   36.8754   17.1281    9.3933 N   0  0  0  0  0  0  0  0  0  0  0  0
   36.6897   18.1272   10.2807 C   0  0  0  0  0  0  0  0  0  0  0  0
   36.2602   19.4104   10.0233 C   0  0  0  0  0  0  0  0  0  0  0  0
   35.9576   19.7920    8.7010 C   0  0  0  0  0  0  0  0  0  0  0  0
   35.5669   20.8673    8.2678 O   0  0  0  0  0  0  0  0  0  0  0  0
   36.2075   20.0998   11.1992 N   0  0  0  0  0  0  0  0  0  0  0  0
   36.6039   19.2427   12.1634 C   0  0  0  0  0  0  0  0  0  0  0  0
   36.9098   18.0184   11.6266 N   0  0  0  0  0  0  0  0  0  0  0  0
  1  2  1  0  0  0  0
  1  6  1  0  0  0  0
  2  3  2  0  0  0  0
  3  4  1  0  0  0  0
  4  5  2  0  0  0  0
  4 10  1  0  0  0  0
  5  6  1  0  0  0  0
  5  8  1  0  0  0  0
  6  7  2  0  0  0  0
  8  9  1  0  0  0  0
  9 10  2  0  0  0  0
M  END
>  <CHROM.1>
36.36743530,18.92548048,9.72883633,-2.18831543,-1.24490375,1.15072920

>  <Name>
ligand

>  <RI>
0

>  <Rbt.Current_Directory>
/home/itssahil/PROJECTS/Mol_Feturizer/New_Systems/rnas/4FEJ

>  <Rbt.Executable>
rbdock ($Id: //depot/dev/client3/rdock/2013.1/src/exe/rbdock.cxx#4 $)

>  <Rbt.Library>
libRbt.so (2013.1, Build901 2013/11/27)

>  <Rbt.Parameter_File>
/export/apps/rDock/src/rDock_2013.1_src/data/scripts/dock_solv.prm

>  <Rbt.Receptor>
prm/blind_docking_80.prm

>  <SCORE>
-11.8195

>  <SCORE.INTER>
-11.8195

>  <SCORE.INTER.CONST>
1

>  <SCORE.INTER.POLAR>
0

>  <SCORE.INTER.ROT>
0

>  <SCORE.INTER.SOLV>
4.15018

>  <SCORE.INTER.VDW>
-12.8631

>  <SCORE.INTER.norm>
-1.18195

>  <SCORE.INTRA>
0

>  <SCORE.INTRA.DIHEDRAL>
0

>  <SCORE.INTRA.DIHEDRAL.0>
0

>  <SCORE.INTRA.POLAR>
0

>  <SCORE.INTRA.POLAR.0>
0

>  <SCORE.INTRA.REPUL>
0

>  <SCORE.INTRA.REPUL.0>
0

>  <SCORE.INTRA.SOLV>
0

>  <SCORE.INTRA.SOLV.lig_0>
-4.26631

>  <SCORE.INTRA.VDW>
0

>  <SCORE.INTRA.VDW.0>
0

>  <SCORE.INTRA.norm>
0

>  <SCORE.RESTR>
0

>  <SCORE.RESTR.CAVITY>
0

>  <SCORE.RESTR.norm>
0

>  <SCORE.SYSTEM>
0

>  <SCORE.SYSTEM.CONST>
0

>  <SCORE.SYSTEM.DIHEDRAL>
0

>  <SCORE.SYSTEM.SOLV>
0

>  <SCORE.SYSTEM.norm>
0

>  <SCORE.heavy>
10

>  <SCORE.norm>
-1.18195

>  <RMSD>
26.257

$$$$
ligand
 OpenBabel11021811493D
libRbt.so/2013.1/901 2013/11/27
 10 11  0  0  0  0  0  0  0  0999 V2000
   36.4683   17.5422   10.0945 N   0  0  0  0  0  0  0  0  0  0  0  0
   36.4361   17.2236    8.7603 C   0  0  0  0  0  0  0  0  0  0  0  0
   36.4217   18.1743    7.8121 N   0  0  0  0  0  0  0  0  0  0  0  0
   36.4430   19.4301    8.3046 C   0  0  0  0  0  0  0  0  0  0  0  0
   36.4748   19.8133    9.6273 C   0  0  0  0  0  0  0  0  0  0  0  0
   36.4926   18.8308   10.6373 C   0  0  0  0  0  0  0  0  0  0  0  0
   36.5210   18.9606   11.8534 O   0  0  0  0  0  0  0  0  0  0  0  0
   36.4892   21.1759    9.6893 N   0  0  0  0  0  0  0  0  0  0  0  0
   36.4643   21.6173    8.4141 C   0  0  0  0  0  0  0  0  0  0  0  0
   36.4334   20.5629    7.5377 N   0  0  0  0  0  0  0  0  0  0  0  0
  1  2  1  0  0  0  0
  1  6  1  0  0  0  0
  2  3  2  0  0  0  0
  3  4  1  0  0  0  0
  4  5  2  0  0  0  0
  4 10  1  0  0  0  0
  5  6  1  0  0  0  0
  5  8  1  0  0  0  0
  6  7  2  0  0  0  0
  8  9  1  0  0  0  0
  9 10  2  0  0  0  0
M  END
>  <CHROM.1>
36.46545932,19.32370853,9.32137749,1.22008549,1.54634830,2.80362230

>  <Name>
ligand

>  <RI>
0

>  <Rbt.Current_Directory>
/home/itssahil/PROJECTS/Mol_Feturizer/New_Systems/rnas/4FEJ

>  <Rbt.Executable>
rbdock ($Id: //depot/dev/client3/rdock/2013.1/src/exe/rbdock.cxx#4 $)

>  <Rbt.Library>
libRbt.so (2013.1, Build901 2013/11/27)

>  <Rbt.Parameter_File>
/export/apps/rDock/src/rDock_2013.1_src/data/scripts/dock_solv.prm

>  <Rbt.Receptor>
prm/blind_docking_100.prm

>  <SCORE>
-12.4047

>  <SCORE.INTER>
-12.6304

>  <SCORE.INTER.CONST>
1

>  <SCORE.INTER.POLAR>
0

>  <SCORE.INTER.ROT>
0

>  <SCORE.INTER.SOLV>
4.8223

>  <SCORE.INTER.VDW>
-13.6277

>  <SCORE.INTER.norm>
-1.26304

>  <SCORE.INTRA>
0

>  <SCORE.INTRA.DIHEDRAL>
0

>  <SCORE.INTRA.DIHEDRAL.0>
0

>  <SCORE.INTRA.POLAR>
0

>  <SCORE.INTRA.POLAR.0>
0

>  <SCORE.INTRA.REPUL>
0

>  <SCORE.INTRA.REPUL.0>
0

>  <SCORE.INTRA.SOLV>
0

>  <SCORE.INTRA.SOLV.lig_0>
-4.26631

>  <SCORE.INTRA.VDW>
0

>  <SCORE.INTRA.VDW.0>
0

>  <SCORE.INTRA.norm>
0

>  <SCORE.RESTR>
0.225748

>  <SCORE.RESTR.CAVITY>
0.225748

>  <SCORE.RESTR.norm>
0.0225748

>  <SCORE.SYSTEM>
0

>  <SCORE.SYSTEM.CONST>
0

>  <SCORE.SYSTEM.DIHEDRAL>
0

>  <SCORE.SYSTEM.SOLV>
0

>  <SCORE.SYSTEM.norm>
0

>  <SCORE.heavy>
10

>  <SCORE.norm>
-1.24047

>  <RMSD>
26.268

$$$$
