@<TRIPOS>MOLECULE
4FEJ_rdock.pdb
 1420 1586 0 0 0
SMALL
GASTEIGER

@<TRIPOS>ATOM
      1  C5'        4.9230    4.4240   20.2330 C.3    15  G15         0.2141
      2  O5'        3.9560    4.0420   19.2500 O.3    15  G15        -0.2176
      3  C4'        5.2200    3.3280   21.2320 C.3    15  G15         0.1802
      4  O4'        4.0220    3.0190   22.0020 O.3    15  G15        -0.3306
      5  C3'        5.6830    2.0010   20.6430 C.3    15  G15         0.1861
      6  O3'        7.0990    2.0570   20.4160 O.3    15  G15        -0.3112
      7  C2'        5.2150    1.0100   21.7070 C.3    15  G15         0.2309
      8  O2'        6.0490    0.9770   22.8490 O.3    15  G15        -0.2156
      9  C1'        3.8610    1.6130   22.0960 C.3    15  G15         0.2408
     10  N1         1.2190   -2.2030   19.9960 N.ar   15  G15        -0.1709
     11  C2         2.2770   -2.2600   20.8730 C.ar   15  G15         0.2606
     12  N2         2.6870   -3.4900   21.2270 N.pl3  15  G15        -0.0859
     13  N3         2.8870   -1.1900   21.3660 N.ar   15  G15        -0.1918
     14  C4         2.3390   -0.0420   20.9110 C.ar   15  G15         0.1723
     15  C5         1.2780    0.1200   20.0400 C.ar   15  G15         0.1748
     16  C6         0.6430   -1.0330   19.5100 C.ar   15  G15         0.3023
     17  O6        -0.2980   -1.0950   18.7080 O.2    15  G15        -0.2633
     18  N7         1.0170    1.4660   19.8260 N.ar   15  G15        -0.2173
     19  C8         1.9100    2.0870   20.5490 C.ar   15  G15         0.1817
     20  N9         2.7500    1.2330   21.2260 N.ar   15  G15        -0.2693
     21  P          8.0230    0.7470   20.6140 P.3    16  G16         0.2141
     22  C5'        7.0880   -1.6890   20.8570 C.3    16  G16         0.1812
     23  O5'        7.1240   -0.4720   20.1160 O.3    16  G16        -0.3114
     24  C4'        6.6730   -2.8390   19.9720 C.3    16  G16         0.1773
     25  O4'        5.2260   -2.8890   19.8690 O.3    16  G16        -0.3307
     26  C3'        7.1170   -2.7760   18.5240 C.3    16  G16         0.1860
     27  O3'        8.4650   -3.1940   18.3980 O.3    16  G16        -0.3112
     28  C2'        6.1660   -3.7780   17.8840 C.3    16  G16         0.2309
     29  O2'        6.5280   -5.1170   18.1580 O.3    16  G16        -0.2156
     30  C1'        4.8660   -3.4660   18.6240 C.3    16  G16         0.2408
     31  N1         1.1660   -2.9300   15.2060 N.ar   16  G16        -0.1709
     32  C2         1.8200   -4.0660   15.6140 C.ar   16  G16         0.2606
     33  N2         1.4310   -5.2130   15.0400 N.pl3  16  G16        -0.0859
     34  N3         2.7870   -4.0770   16.5140 N.ar   16  G16        -0.1918
     35  C4         3.0640   -2.8400   16.9720 C.ar   16  G16         0.1723
     36  C5         2.4800   -1.6410   16.6230 C.ar   16  G16         0.1748
     37  C6         1.4290   -1.6450   15.6690 C.ar   16  G16         0.3023
     38  O6         0.7660   -0.6880   15.2460 O.2    16  G16        -0.2633
     39  N7         3.0640   -0.5910   17.3170 N.ar   16  G16        -0.2173
     40  C8         3.9650   -1.1620   18.0680 C.ar   16  G16         0.1817
     41  N9         4.0070   -2.5260   17.9160 N.ar   16  G16        -0.2693
     42  OP1        8.2960    0.5740   22.0660 O.3    16  G16        -0.4373
     43  OP2        9.1650    0.8810   19.6720 O.co2  16  G16        -0.5172
     44  P          9.2830   -2.8490   17.0590 P.3    17  A17         0.2141
     45  C5'        8.4790   -5.1450   16.0880 C.3    17  A17         0.1812
     46  O5'        8.5880   -3.7370   15.9370 O.3    17  A17        -0.3114
     47  C4'        7.7110   -5.7260   14.9320 C.3    17  A17         0.1773
     48  O4'        6.2880   -5.4730   15.1050 O.3    17  A17        -0.3307
     49  C3'        8.0120   -5.0820   13.5970 C.3    17  A17         0.1860
     50  O3'        9.2260   -5.5850   13.0550 O.3    17  A17        -0.3112
     51  C2'        6.7820   -5.4810   12.7970 C.3    17  A17         0.2309
     52  O2'        6.7910   -6.8410   12.4220 O.3    17  A17        -0.2156
     53  C1'        5.6870   -5.2510   13.8370 C.3    17  A17         0.2408
     54  N1         2.1850   -2.0660   11.8380 N.ar   17  A17        -0.2040
     55  C2         2.4140   -3.3730   11.6660 C.ar   17  A17         0.2016
     56  N3         3.3450   -4.1460   12.2200 N.ar   17  A17        -0.2048
     57  C4         4.1140   -3.4310   13.0580 C.ar   17  A17         0.1692
     58  C5         4.0030   -2.0790   13.3370 C.ar   17  A17         0.1518
     59  C6         2.9830   -1.3750   12.6790 C.ar   17  A17         0.1919
     60  N6         2.7690   -0.0690   12.8340 N.pl3  17  A17        -0.1054
     61  N7         4.9680   -1.6850   14.2530 N.ar   17  A17        -0.2193
     62  C8         5.6320   -2.7870   14.5020 C.ar   17  A17         0.1816
     63  N9         5.1710   -3.8820   13.8090 N.ar   17  A17        -0.2693
     64  OP1       10.6750   -3.3360   17.2410 O.3    17  A17        -0.4373
     65  OP2        9.0370   -1.4210   16.7300 O.co2  17  A17        -0.5172
     66  P          9.8450   -4.9030   11.7420 P.3    18  C18         0.2141
     67  C5'        8.8710   -4.7130    9.3320 C.3    18  C18         0.1812
     68  O5'        8.7430   -5.2200   10.6410 O.3    18  C18        -0.3114
     69  C4'        7.5810   -4.8880    8.5790 C.3    18  C18         0.1773
     70  O4'        6.4460   -4.6710    9.4630 O.3    18  C18        -0.3307
     71  C3'        7.4060   -3.8600    7.4840 C.3    18  C18         0.1860
     72  O3'        8.0970   -4.2740    6.3210 O.3    18  C18        -0.3112
     73  C2'        5.8960   -3.8060    7.3290 C.3    18  C18         0.2309
     74  O2'        5.3830   -4.8820    6.5740 O.3    18  C18        -0.2156
     75  C1'        5.4570   -3.9010    8.7900 C.3    18  C18         0.2420
     76  N1         5.3860   -2.5830    9.4420 N.ar   18  C18        -0.2535
     77  C2         4.3180   -1.7350    9.1330 C.ar   18  C18         0.3532
     78  O2         3.4660   -2.1180    8.3200 O.2    18  C18        -0.2443
     79  N3         4.2440   -0.5210    9.7270 N.ar   18  C18        -0.1739
     80  C4         5.1900   -0.1430   10.5900 C.ar   18  C18         0.1759
     81  N4         5.0850    1.0670   11.1440 N.pl3  18  C18        -0.1070
     82  C5         6.2880   -0.9890   10.9230 C.ar   18  C18         0.0566
     83  C6         6.3460   -2.1880   10.3310 C.ar   18  C18         0.0850
     84  OP1       11.0970   -5.6040   11.3480 O.2    18  C18        -0.5172
     85  OP2        9.8660   -3.4320   11.9750 O.co2  18  C18        -0.4373
     86  P          9.0120   -3.2160    5.5500 P.3    19  A19         0.2141
     87  C5'        6.8880   -3.0980    4.0240 C.3    19  A19         0.1812
     88  O5'        7.9350   -2.4090    4.7000 O.3    19  A19        -0.3114
     89  C4'        5.8770   -2.1140    3.4940 C.3    19  A19         0.1773
     90  O4'        5.0030   -1.6850    4.5740 O.3    19  A19        -0.3307
     91  C3'        6.4650   -0.8090    2.9910 C.3    19  A19         0.1860
     92  O3'        6.9530   -0.9460    1.6720 O.3    19  A19        -0.3112
     93  C2'        5.2540    0.1080    3.0520 C.3    19  A19         0.2309
     94  O2'        4.3300   -0.1470    2.0070 O.3    19  A19        -0.2156
     95  C1'        4.6430   -0.3230    4.3830 C.3    19  A19         0.2408
     96  N1         4.0330    3.9190    7.2150 N.ar   19  A19        -0.2040
     97  C2         3.4400    3.4880    6.0960 C.ar   19  A19         0.2016
     98  N3         3.6640    2.3810    5.3960 N.ar   19  A19        -0.2048
     99  C4         4.6420    1.6530    5.9580 C.ar   19  A19         0.1692
    100  C5         5.3560    1.9650    7.1030 C.ar   19  A19         0.1518
    101  C6         5.0140    3.1640    7.7600 C.ar   19  A19         0.1919
    102  N6         5.5890    3.5900    8.8860 N.pl3  19  A19        -0.1054
    103  N7         6.3000    0.9800    7.3740 N.ar   19  A19        -0.2193
    104  C8         6.1240    0.1050    6.4130 C.ar   19  A19         0.1816
    105  N9         5.1270    0.4420    5.5300 N.ar   19  A19        -0.2693
    106  OP1        9.9230   -3.9100    4.6070 O.2    19  A19        -0.5172
    107  OP2        9.5750   -2.3110    6.5860 O.co2  19  A19        -0.4373
    108  P          8.1250    0.0190    1.1660 P.3    20  U20         0.2141
    109  C5'        6.3760    1.6850    0.1190 C.3    20  U20         0.1812
    110  O5'        7.4210    1.4420    1.0600 O.3    20  U20        -0.3114
    111  C4'        5.8290    3.0800    0.3060 C.3    20  U20         0.1773
    112  O4'        5.2500    3.1840    1.6350 O.3    20  U20        -0.3307
    113  C3'        6.8680    4.1880    0.3260 C.3    20  U20         0.1860
    114  O3'        7.2600    4.5750   -0.9760 O.3    20  U20        -0.3112
    115  C2'        6.1110    5.3060    1.0210 C.3    20  U20         0.2309
    116  O2'        5.1930    5.9470    0.1580 O.3    20  U20        -0.2156
    117  C1'        5.3660    4.5220    2.0970 C.3    20  U20         0.2420
    118  N1         6.0770    4.5160    3.3810 N.ar   20  U20        -0.2534
    119  C2         5.8570    5.5850    4.2150 C.ar   20  U20         0.3546
    120  O2         5.1260    6.5100    3.9130 O.2    20  U20        -0.2443
    121  N3         6.5250    5.5440    5.4140 N.ar   20  U20        -0.1530
    122  C4         7.3800    4.5570    5.8510 C.ar   20  U20         0.2846
    123  O4         7.8630    4.6340    6.9800 O.2    20  U20        -0.2650
    124  C5         7.5750    3.4840    4.9240 C.ar   20  U20         0.0814
    125  C6         6.9270    3.5010    3.7440 C.ar   20  U20         0.0870
    126  OP1        8.5210   -0.3980   -0.2020 O.2    20  U20        -0.5172
    127  OP2        9.1450    0.0920    2.2440 O.co2  20  U20        -0.4373
    128  P          8.7780    5.0220   -1.2340 P.3    21  A21         0.2141
    129  C5'        8.3050    7.5810   -0.8490 C.3    21  A21         0.1812
    130  O5'        8.9220    6.3780   -0.4010 O.3    21  A21        -0.3114
    131  C4'        8.4830    8.6820    0.1780 C.3    21  A21         0.1773
    132  O4'        7.9060    8.2970    1.4410 O.3    21  A21        -0.3307
    133  C3'        9.9100    9.0240    0.5690 C.3    21  A21         0.1860
    134  O3'       10.5210    9.8240   -0.4390 O.3    21  A21        -0.3112
    135  C2'        9.6900    9.8080    1.8630 C.3    21  A21         0.2309
    136  O2'        9.4160   11.1890    1.6680 O.3    21  A21        -0.2156
    137  C1'        8.4670    9.1000    2.4640 C.3    21  A21         0.2408
    138  N1         9.0310    8.9740    7.5310 N.ar   21  A21        -0.2040
    139  C2         8.5510    9.9020    6.6900 C.ar   21  A21         0.2016
    140  N3         8.4000    9.8410    5.3700 N.ar   21  A21        -0.2048
    141  C4         8.8090    8.6500    4.9000 C.ar   21  A21         0.1692
    142  C5         9.3230    7.5940    5.6310 C.ar   21  A21         0.1518
    143  C6         9.4390    7.7850    7.0220 C.ar   21  A21         0.1919
    144  N6         9.9350    6.8730    7.8560 N.pl3  21  A21        -0.1054
    145  N7         9.6380    6.5270    4.7950 N.ar   21  A21        -0.2193
    146  C8         9.3160    6.9620    3.5980 C.ar   21  A21         0.1816
    147  N9         8.8360    8.2470    3.5880 N.ar   21  A21        -0.2693
    148  OP1        8.9210    5.3060   -2.6700 O.2    21  A21        -0.5172
    149  OP2        9.6850    4.0430   -0.5750 O.co2  21  A21        -0.4373
    150  P         11.7820    9.2590   -1.2570 P.3    22  U22         0.2141
    151  C5'       14.0790    8.4150   -0.2370 C.3    22  U22         0.1812
    152  O5'       12.9370    9.2690   -0.1480 O.3    22  U22        -0.3114
    153  C4'       14.6500    8.1780    1.1480 C.3    22  U22         0.1773
    154  O4'       15.0620    9.4720    1.6940 O.3    22  U22        -0.3307
    155  C3'       13.6480    7.6130    2.1510 C.3    22  U22         0.1860
    156  O3'       14.2800    6.8680    3.1840 O.3    22  U22        -0.3112
    157  C2'       13.0730    8.8770    2.7740 C.3    22  U22         0.2309
    158  O2'       12.4520    8.6720    4.0280 O.3    22  U22        -0.2156
    159  C1'       14.3270    9.7530    2.8750 C.3    22  U22         0.2420
    160  N1        13.9850   11.1820    2.8750 N.ar   22  U22        -0.2534
    161  C2        14.1970   11.9320    4.0320 C.ar   22  U22         0.3546
    162  O2        14.7310   11.4830    5.0400 O.2    22  U22        -0.2443
    163  N3        13.7620   13.2380    3.9530 N.ar   22  U22        -0.1530
    164  C4        13.1810   13.8560    2.8540 C.ar   22  U22         0.2846
    165  O4        12.8000   15.0270    2.9370 O.2    22  U22        -0.2650
    166  C5        13.0480   13.0270    1.7090 C.ar   22  U22         0.0814
    167  C6        13.4400   11.7570    1.7560 C.ar   22  U22         0.0870
    168  OP1       12.1120   10.2640   -2.2770 O.2    22  U22        -0.5172
    169  OP2       11.5380    7.8540   -1.6700 O.co2  22  U22        -0.4373
    170  P         14.6280    5.3090    2.9820 P.3    23  A23         0.2141
    171  C5'       17.0920    6.1060    3.4780 C.3    23  A23         0.1812
    172  O5'       16.1910    5.3040    2.6870 O.3    23  A23        -0.3114
    173  C4'       18.3180    6.4830    2.6720 C.3    23  A23         0.1773
    174  O4'       17.9190    7.1690    1.4680 O.3    23  A23        -0.3307
    175  C3'       19.2530    7.4850    3.3410 C.3    23  A23         0.1860
    176  O3'       20.1420    6.8230    4.2270 O.3    23  A23        -0.3112
    177  C2'       20.0090    8.0910    2.1660 C.3    23  A23         0.2309
    178  O2'       21.1770    7.3620    1.8340 O.3    23  A23        -0.2156
    179  C1'       18.9730    8.0100    1.0360 C.3    23  A23         0.2408
    180  N1        17.0870   12.5650    2.5450 N.ar   23  A23        -0.2040
    181  C2        17.5820   11.5300    3.2450 C.ar   23  A23         0.2016
    182  N3        18.0510   10.3640    2.7990 N.ar   23  A23        -0.2048
    183  C4        17.9860   10.3140    1.4580 C.ar   23  A23         0.1692
    184  C5        17.4940   11.2950    0.6170 C.ar   23  A23         0.1518
    185  C6        17.0200   12.4620    1.2060 C.ar   23  A23         0.1919
    186  N6        16.4910   13.4690    0.5110 N.pl3  23  A23        -0.1054
    187  N7        17.5840   10.8990   -0.7120 N.ar   23  A23        -0.2193
    188  C8        18.1220    9.7080   -0.6470 C.ar   23  A23         0.1816
    189  N9        18.3890    9.2880    0.6360 N.ar   23  A23        -0.2693
    190  OP1       13.9270    4.7960    1.7590 O.2    23  A23        -0.5172
    191  OP2       14.4090    4.6460    4.2770 O.co2  23  A23        -0.4373
    192  P         19.9970    7.0540    5.8030 P.3    24  U24         0.2141
    193  C5'       19.7170    9.6850    5.7560 C.3    24  U24         0.1812
    194  O5'       20.5280    8.5480    6.0190 O.3    24  U24        -0.3114
    195  C4'       19.5920   10.5390    7.0000 C.3    24  U24         0.1773
    196  O4'       18.7090    9.9060    7.9510 O.3    24  U24        -0.3307
    197  C3'       20.8530   10.8140    7.8150 C.3    24  U24         0.1860
    198  O3'       21.5840   11.8620    7.1710 O.3    24  U24        -0.3112
    199  C2'       20.2420   11.2770    9.1390 C.3    24  U24         0.2309
    200  O2'       19.8130   12.6370    9.0700 O.3    24  U24        -0.2156
    201  C1'       19.0130   10.3630    9.2540 C.3    24  U24         0.2420
    202  N1        19.1230    9.1760   10.1190 N.ar   24  U24        -0.2534
    203  C2        19.2650    9.3720   11.4730 C.ar   24  U24         0.3546
    204  O2        19.3910   10.4840   11.9630 O.2    24  U24        -0.2443
    205  N3        19.2450    8.2210   12.2310 N.ar   24  U24        -0.1530
    206  C4        19.1070    6.9110   11.7710 C.ar   24  U24         0.2846
    207  O4        18.9140    5.9830   12.5830 O.2    24  U24        -0.2650
    208  C5        19.0270    6.7990   10.3540 C.ar   24  U24         0.0814
    209  C6        19.0400    7.9050    9.5940 C.ar   24  U24         0.0870
    210  OP1       20.9560    6.1580    6.4920 O.3    24  U24        -0.4373
    211  OP2       18.5610    6.9860    6.1530 O.co2  24  U24        -0.5172
    212  P         23.1500   11.6900    6.8250 P.3    25  U25         0.2141
    213  C5'       23.0720   10.6380    4.4030 C.3    25  U25         0.1812
    214  O5'       23.2160   11.7830    5.2360 O.3    25  U25        -0.3114
    215  C4'       22.5260   11.0460    3.0500 C.3    25  U25         0.1773
    216  O4'       21.1190   11.3930    3.1980 O.3    25  U25        -0.3307
    217  C3'       23.1340   12.2850    2.4020 C.3    25  U25         0.1860
    218  O3'       24.3110   11.9830    1.6590 O.3    25  U25        -0.3112
    219  C2'       22.0280   12.6830    1.4420 C.3    25  U25         0.2309
    220  O2'       21.9840   11.8200    0.3220 O.3    25  U25        -0.2156
    221  C1'       20.7940   12.4610    2.3130 C.3    25  U25         0.2420
    222  N1        20.4620   13.6570    3.1040 N.ar   25  U25        -0.2534
    223  C2        19.9170   14.7340    2.4290 C.ar   25  U25         0.3546
    224  O2        19.6730   14.7190    1.2330 O.2    25  U25        -0.2443
    225  N3        19.6540   15.8230    3.2010 N.ar   25  U25        -0.1530
    226  C4        19.8560   15.9520    4.5590 C.ar   25  U25         0.2846
    227  O4        19.5370   16.9970    5.1150 O.2    25  U25        -0.2650
    228  C5        20.4060   14.7950    5.1940 C.ar   25  U25         0.0814
    229  C6        20.6850   13.7110    4.4570 C.ar   25  U25         0.0870
    230  OP1       23.6430   10.3770    7.3290 O.3    25  U25        -0.4373
    231  OP2       23.8370   12.9370    7.2790 O.co2  25  U25        -0.5172
    232  P         25.4440   13.1230    1.4470 P.3    26  C26         0.2141
    233  C5'       24.7860   13.5020   -1.0900 C.3    26  C26         0.1812
    234  O5'       24.9250   14.0260    0.2310 O.3    26  C26        -0.3114
    235  C4'       24.1840   14.5490   -2.0230 C.3    26  C26         0.1773
    236  O4'       22.8120   14.8570   -1.6390 O.3    26  C26        -0.3307
    237  C3'       24.8460   15.9160   -2.0210 C.3    26  C26         0.1860
    238  O3'       26.0330   15.9260   -2.7800 O.3    26  C26        -0.3112
    239  C2'       23.7580   16.7670   -2.6580 C.3    26  C26         0.2309
    240  O2'       23.6440   16.5300   -4.0530 O.3    26  C26        -0.2156
    241  C1'       22.5280   16.2230   -1.9310 C.3    26  C26         0.2420
    242  N1        22.3030   16.9340   -0.6620 N.ar   26  C26        -0.2535
    243  C2        21.6750   18.2000   -0.6930 C.ar   26  C26         0.3532
    244  O2        21.3470   18.6990   -1.7910 O.2    26  C26        -0.2443
    245  N3        21.4540   18.8490    0.4630 N.ar   26  C26        -0.1739
    246  C4        21.8490   18.3140    1.6210 C.ar   26  C26         0.1759
    247  N4        21.6190   19.0120    2.7280 N.pl3  26  C26        -0.1070
    248  C5        22.4940   17.0430    1.6880 C.ar   26  C26         0.0566
    249  C6        22.6970   16.3910    0.5280 C.ar   26  C26         0.0850
    250  OP1       26.6620   12.3780    1.0450 O.2    26  C26        -0.5172
    251  OP2       25.4910   14.0110    2.6420 O.co2  26  C26        -0.4373
    252  P         27.2630   16.8450   -2.2930 P.3    27  G27         0.2141
    253  C5'       26.3430   18.7230   -3.8630 C.3    27  G27         0.1812
    254  O5'       26.7580   18.3360   -2.5600 O.3    27  G27        -0.3114
    255  C4'       25.9300   20.1770   -3.8690 C.3    27  G27         0.1773
    256  O4'       24.6740   20.3330   -3.1890 O.3    27  G27        -0.3307
    257  C3'       26.8390   21.1360   -3.1280 C.3    27  G27         0.1860
    258  O3'       27.9680   21.4630   -3.9000 O.3    27  G27        -0.3112
    259  C2'       25.9200   22.3270   -2.9490 C.3    27  G27         0.2309
    260  O2'       25.7850   23.0770   -4.1430 O.3    27  G27        -0.2156
    261  C1'       24.6110   21.6220   -2.5990 C.3    27  G27         0.2408
    262  N1        23.1880   23.9530    1.6770 N.ar   27  G27        -0.1709
    263  C2        23.1860   24.4070    0.3730 C.ar   27  G27         0.2606
    264  N2        22.7810   25.6720    0.1760 N.pl3  27  G27        -0.0859
    265  N3        23.5590   23.6770   -0.6690 N.ar   27  G27        -0.1918
    266  C4        23.9580   22.4380   -0.3050 C.ar   27  G27         0.1723
    267  C5        23.9930   21.8750    0.9540 C.ar   27  G27         0.1748
    268  C6        23.5580   22.6670    2.0750 C.ar   27  G27         0.3023
    269  O6        23.4570   22.3440    3.2760 O.2    27  G27        -0.2633
    270  N7        24.4700   20.5720    0.8910 N.ar   27  G27        -0.2173
    271  C8        24.7240   20.3730   -0.3760 C.ar   27  G27         0.1817
    272  N9        24.4380   21.4670   -1.1570 N.ar   27  G27        -0.2693
    273  OP1       28.3840   16.5460   -3.1830 O.2    27  G27        -0.5172
    274  OP2       27.4200   16.6970   -0.8200 O.co2  27  G27        -0.4373
    275  P         29.2900   21.9740   -3.1840 P.3    28  C28         0.2141
    276  C5'       29.2330   23.8890   -1.3980 C.3    28  C28         0.1812
    277  O5'       28.7580   23.3560   -2.6010 O.3    28  C28        -0.3114
    278  C4'       28.5360   25.1940   -1.1580 C.3    28  C28         0.1773
    279  O4'       27.1470   24.9510   -0.8180 O.3    28  C28        -0.3307
    280  C3'       29.0840   26.0080    0.0010 C.3    28  C28         0.1860
    281  O3'       30.2480   26.7140   -0.4130 O.3    28  C28        -0.3112
    282  C2'       27.8740   26.8680    0.3150 C.3    28  C28         0.2309
    283  O2'       27.6260   27.8820   -0.6520 O.3    28  C28        -0.2156
    284  C1'       26.7490   25.8330    0.2130 C.3    28  C28         0.2420
    285  N1        26.5640   25.0570    1.4580 N.ar   28  C28        -0.2535
    286  C2        25.9750   25.7000    2.5290 C.ar   28  C28         0.3532
    287  O2        25.5940   26.8760    2.3610 O.2    28  C28        -0.2443
    288  N3        25.8240   25.0610    3.7080 N.ar   28  C28        -0.1739
    289  C4        26.2350   23.7970    3.8350 C.ar   28  C28         0.1759
    290  N4        26.0770   23.2210    5.0300 N.pl3  28  C28        -0.1070
    291  C5        26.8250   23.0880    2.7430 C.ar   28  C28         0.0566
    292  C6        26.9710   23.7530    1.5790 C.ar   28  C28         0.0850
    293  OP1       30.2540   22.2390   -4.2700 O.2    28  C28        -0.5172
    294  OP2       29.6730   21.0300   -2.0600 O.co2  28  C28        -0.4373
    295  P         31.3480   27.1530    0.6630 P.3    29  G29         0.2141
    296  C5'       30.3220   29.5730    0.7470 C.3    29  G29         0.1812
    297  O5'       30.6360   28.3560    1.4210 O.3    29  G29        -0.3114
    298  C4'       29.6450   30.4990    1.7260 C.3    29  G29         0.1773
    299  O4'       28.4020   29.9050    2.1790 O.3    29  G29        -0.3307
    300  C3'       30.4180   30.7500    3.0240 C.3    29  G29         0.1860
    301  O3'       31.3930   31.7750    2.8140 O.3    29  G29        -0.3112
    302  C2'       29.2920   31.1830    3.9540 C.3    29  G29         0.2309
    303  O2'       28.8320   32.5040    3.6560 O.3    29  G29        -0.2156
    304  C1'       28.1930   30.2000    3.5600 C.3    29  G29         0.2408
    305  N1        27.1760   27.9810    8.0050 N.ar   29  G29        -0.1709
    306  C2        26.9580   29.2890    7.5880 C.ar   29  G29         0.2606
    307  N2        26.4320   30.1470    8.5110 N.pl3  29  G29        -0.0859
    308  N3        27.2400   29.7240    6.3760 N.ar   29  G29        -0.1918
    309  C4        27.8060   28.7780    5.6030 C.ar   29  G29         0.1723
    310  C5        28.0740   27.4600    5.9120 C.ar   29  G29         0.1748
    311  C6        27.7230   26.9790    7.2080 C.ar   29  G29         0.3023
    312  O6        27.8290   25.8330    7.6610 O.2    29  G29        -0.2633
    313  N7        28.6750   26.8170    4.8380 N.ar   29  G29        -0.2173
    314  C8        28.7540   27.7380    3.9130 C.ar   29  G29         0.1817
    315  N9        28.2510   28.9520    4.3240 N.ar   29  G29        -0.2693
    316  OP1       32.5670   27.6100    0.0100 O.2    29  G29        -0.5172
    317  OP2       31.4380   26.0710    1.7110 O.co2  29  G29        -0.4373
    318  P         32.8700   31.6270    3.4020 P.3    30  U30         0.2141
    319  C5'       32.4870   33.3180    5.3760 C.3    30  U30         0.1812
    320  O5'       32.7160   31.9600    4.9540 O.3    30  U30        -0.3114
    321  C4'       32.0900   33.3540    6.8150 C.3    30  U30         0.1773
    322  O4'       30.8620   32.6270    7.0130 O.3    30  U30        -0.3307
    323  C3'       33.0490   32.6790    7.7790 C.3    30  U30         0.1860
    324  O3'       34.2490   33.3920    8.0270 O.3    30  U30        -0.3112
    325  C2'       32.1500   32.4900    8.9800 C.3    30  U30         0.2309
    326  O2'       31.9050   33.7180    9.6830 O.3    30  U30        -0.2156
    327  C1'       30.8590   32.0350    8.2900 C.3    30  U30         0.2420
    328  N1        30.8260   30.5690    8.1110 N.ar   30  U30        -0.2534
    329  C2        30.4340   29.8400    9.2120 C.ar   30  U30         0.3546
    330  O2        30.1010   30.3500   10.2430 O.2    30  U30        -0.2443
    331  N3        30.4600   28.4680    9.0570 N.ar   30  U30        -0.1530
    332  C4        30.8480   27.7900    7.9210 C.ar   30  U30         0.2846
    333  O4        30.8760   26.5390    7.9320 O.2    30  U30        -0.2650
    334  C5        31.2160   28.6200    6.8170 C.ar   30  U30         0.0814
    335  C6        31.1870   29.9600    6.9490 C.ar   30  U30         0.0870
    336  OP1       33.7360   32.6480    2.7770 O.2    30  U30        -0.5172
    337  OP2       33.3180   30.1980    3.3670 O.co2  30  U30        -0.4373
    338  P         35.5960   32.5950    8.3230 P.3    31  G31         0.2141
    339  C5'       35.2900   32.9860   10.8780 C.3    31  G31         0.1812
    340  O5'       35.4320   32.0560    9.8090 O.3    31  G31        -0.3114
    341  C4'       34.7530   32.2980   12.0900 C.3    31  G31         0.1773
    342  O4'       33.4780   31.6770   11.7600 O.3    31  G31        -0.3307
    343  C3'       35.5860   31.1320   12.6150 C.3    31  G31         0.1860
    344  O3'       36.6450   31.5910   13.4420 O.3    31  G31        -0.3112
    345  C2'       34.5380   30.4340   13.4530 C.3    31  G31         0.2309
    346  O2'       34.2260   31.1200   14.6490 O.3    31  G31        -0.2156
    347  C1'       33.3340   30.4800   12.5120 C.3    31  G31         0.2408
    348  N1        32.9000   25.4820   12.2730 N.ar   31  G31        -0.1709
    349  C2        32.6970   26.3460   13.3240 C.ar   31  G31         0.2606
    350  N2        32.3810   25.8200   14.5110 N.pl3  31  G31        -0.0859
    351  N3        32.8100   27.6720   13.2210 N.ar   31  G31        -0.1918
    352  C4        33.1610   28.0400   11.9910 C.ar   31  G31         0.1723
    353  C5        33.3960   27.2670   10.8770 C.ar   31  G31         0.1748
    354  C6        33.2650   25.8540   10.9870 C.ar   31  G31         0.3023
    355  O6        33.4540   24.9760   10.1090 O.2    31  G31        -0.2633
    356  N7        33.7620   28.0600    9.7990 N.ar   31  G31        -0.2173
    357  C8        33.7180   29.2880   10.2760 C.ar   31  G31         0.1817
    358  N9        33.3910   29.3330   11.6050 N.ar   31  G31        -0.2693
    359  OP1       36.7190   33.5500    8.2880 O.3    31  G31        -0.4373
    360  OP2       35.6210   31.3750    7.4420 O.co2  31  G31        -0.5172
    361  P         37.9590   30.6870   13.6630 P.3    32  G32         0.2141
    362  C5'       36.9260   29.5790   15.8230 C.3    32  G32         0.1812
    363  O5'       37.4040   29.4390   14.4980 O.3    32  G32        -0.3114
    364  C4'       36.5820   28.2170   16.3790 C.3    32  G32         0.1773
    365  O4'       35.5150   27.6730   15.5670 O.3    32  G32        -0.3307
    366  C3'       37.6690   27.1660   16.2510 C.3    32  G32         0.1860
    367  O3'       38.5980   27.2980   17.3160 O.3    32  G32        -0.3112
    368  C2'       36.8320   25.9040   16.3920 C.3    32  G32         0.2309
    369  O2'       36.3400   25.7280   17.7100 O.3    32  G32        -0.2156
    370  C1'       35.6680   26.2490   15.4680 C.3    32  G32         0.2408
    371  N1        36.1150   22.5480   12.0200 N.ar   32  G32        -0.1709
    372  C2        35.8700   22.4520   13.3590 C.ar   32  G32         0.2606
    373  N2        35.7460   21.2140   13.8620 N.pl3  32  G32        -0.0859
    374  N3        35.7640   23.4900   14.1680 N.ar   32  G32        -0.1918
    375  C4        35.9790   24.6550   13.5140 C.ar   32  G32         0.1723
    376  C5        36.2600   24.8520   12.1820 C.ar   32  G32         0.1748
    377  C6        36.3150   23.7360   11.3210 C.ar   32  G32         0.3023
    378  O6        36.4860   23.7160   10.0820 O.2    32  G32        -0.2633
    379  N7        36.4330   26.2080   11.9050 N.ar   32  G32        -0.2173
    380  C8        36.2330   26.8020   13.0570 C.ar   32  G32         0.1817
    381  N9        35.9520   25.9210   14.0770 N.ar   32  G32        -0.2693
    382  OP1       38.9030   31.4370   14.5600 O.3    32  G32        -0.4373
    383  OP2       38.4550   30.1100   12.4240 O.co2  32  G32        -0.5172
    384  P         40.0760   26.8360   17.1400 P.3    33  A33         0.2141
    385  C5'       39.4330   24.7080   18.5380 C.3    33  A33         0.1812
    386  O5'       39.9870   25.2370   17.3350 O.3    33  A33        -0.3114
    387  C4'       39.3300   23.2080   18.4380 C.3    33  A33         0.1773
    388  O4'       38.4280   22.8920   17.3480 O.3    33  A33        -0.3307
    389  C3'       40.6060   22.5020   18.0280 C.3    33  A33         0.1860
    390  O3'       41.5530   22.3710   19.1030 O.3    33  A33        -0.3112
    391  C2'       40.0560   21.1610   17.5440 C.3    33  A33         0.2309
    392  O2'       39.6990   20.3270   18.6430 O.3    33  A33        -0.2156
    393  C1'       38.7790   21.6160   16.8240 C.3    33  A33         0.2408
    394  N1        39.3400   19.0240   12.4280 N.ar   33  A33        -0.2040
    395  C2        39.2320   18.6360   13.7110 C.ar   33  A33         0.2016
    396  N3        39.0990   19.3610   14.8090 N.ar   33  A33        -0.2048
    397  C4        39.0740   20.6770   14.4960 C.ar   33  A33         0.1692
    398  C5        39.1540   21.2290   13.2290 C.ar   33  A33         0.1518
    399  C6        39.2850   20.3450   12.1420 C.ar   33  A33         0.1919
    400  N6        39.3550   20.7110   10.8430 N.pl3  33  A33        -0.1054
    401  N7        39.0950   22.6150   13.3020 N.ar   33  A33        -0.2193
    402  C8        38.9620   22.8640   14.5830 C.ar   33  A33         0.1816
    403  N9        38.9340   21.7280   15.3660 N.ar   33  A33        -0.2693
    404  OP1       40.7750   27.3840   18.3610 O.3    33  A33        -0.4373
    405  OP2       40.6660   27.0240   15.8370 O.co2  33  A33        -0.5172
    406  P         43.0940   22.4830   18.7830 P.3    34  U34         0.2141
    407  C5'       43.0230   19.8670   18.6290 C.3    34  U34         0.1812
    408  O5'       43.4420   21.1070   18.0610 O.3    34  U34        -0.3114
    409  C4'       43.2050   18.7670   17.6190 C.3    34  U34         0.1773
    410  O4'       42.3730   19.0620   16.4550 O.3    34  U34        -0.3307
    411  C3'       44.6380   18.6180   17.1060 C.3    34  U34         0.1860
    412  O3'       44.9800   17.2540   16.9970 O.3    34  U34        -0.3112
    413  C2'       44.5870   19.1960   15.6990 C.3    34  U34         0.2309
    414  O2'       45.4970   18.6130   14.7870 O.3    34  U34        -0.2156
    415  C1'       43.1450   18.8990   15.2910 C.3    34  U34         0.2420
    416  N1        42.7490   19.8980   14.2940 N.ar   34  U34        -0.2534
    417  C2        42.6420   19.5130   12.9740 C.ar   34  U34         0.3546
    418  O2        42.7340   18.3680   12.5990 O.2    34  U34        -0.2443
    419  N3        42.4230   20.5320   12.0880 N.ar   34  U34        -0.1530
    420  C4        42.2730   21.8580   12.3920 C.ar   34  U34         0.2846
    421  O4        42.2260   22.6600   11.4740 O.2    34  U34        -0.2650
    422  C5        42.3450   22.1660   13.7800 C.ar   34  U34         0.0814
    423  C6        42.5670   21.1890   14.6680 C.ar   34  U34         0.0870
    424  OP1       43.7690   22.5560   20.1220 O.3    34  U34        -0.4373
    425  OP2       43.3550   23.5360   17.7670 O.co2  34  U34        -0.5172
    426  P         46.0650   16.6310   17.9980 P.3    35  A35         0.2141
    427  C5'       44.5750   14.4810   18.2150 C.3    35  A35         0.1812
    428  O5'       45.8150   15.0630   17.8390 O.3    35  A35        -0.3114
    429  C4'       44.6630   12.9940   17.9990 C.3    35  A35         0.1773
    430  O4'       44.5750   12.7220   16.5760 O.3    35  A35        -0.3307
    431  C3'       46.0040   12.4270   18.4590 C.3    35  A35         0.1860
    432  O3'       45.7590   11.1290   19.0120 O.3    35  A35        -0.3112
    433  C2'       46.8300   12.3680   17.1770 C.3    35  A35         0.2309
    434  O2'       47.8130   11.3450   17.1910 O.3    35  A35        -0.2156
    435  C1'       45.7560   12.1000   16.1150 C.3    35  A35         0.2408
    436  N1        47.8730   11.4670   11.4610 N.ar   35  A35        -0.2040
    437  C2        47.6770   10.6200   12.4810 C.ar   35  A35         0.2016
    438  N3        47.1080   10.8350   13.6580 N.ar   35  A35        -0.2048
    439  C4        46.6900   12.1090   13.7480 C.ar   35  A35         0.1692
    440  C5        46.8110   13.0950   12.7840 C.ar   35  A35         0.1518
    441  C6        47.4420   12.7420   11.5880 C.ar   35  A35         0.1919
    442  N6        47.6410   13.5920   10.5730 N.pl3  35  A35        -0.1054
    443  N7        46.2700   14.2840   13.2330 N.ar   35  A35        -0.2193
    444  C8        45.8470   14.0050   14.4390 C.ar   35  A35         0.1816
    445  N9        46.0810   12.7010   14.8200 N.ar   35  A35        -0.2693
    446  OP1       45.6410   17.0160   19.3560 O.3    35  A35        -0.4373
    447  OP2       47.4300   16.9020   17.5630 O.co2  35  A35        -0.5172
    448  P         45.7710   10.9260   20.6040 P.3    36  U36         0.2141
    449  C5'       43.2440   11.2240   21.3620 C.3    36  U36         0.1812
    450  O5'       44.5380   11.7910   21.1200 O.3    36  U36        -0.3114
    451  C4'       42.5080   12.0290   22.4250 C.3    36  U36         0.1773
    452  O4'       43.3050   12.0870   23.6440 O.3    36  U36        -0.3307
    453  C3'       42.2230   13.4830   22.0550 C.3    36  U36         0.1860
    454  O3'       41.0100   13.8610   22.6840 O.3    36  U36        -0.3112
    455  C2'       43.3860   14.2100   22.7290 C.3    36  U36         0.2309
    456  O2'       43.1010   15.5760   23.0240 O.3    36  U36        -0.2156
    457  C1'       43.4630   13.4480   24.0490 C.3    36  U36         0.2420
    458  N1        44.7610   13.5500   24.7240 N.ar   36  U36        -0.2534
    459  C2        44.7870   14.0890   26.0140 C.ar   36  U36         0.3546
    460  O2        43.7930   14.4680   26.5880 O.2    36  U36        -0.2443
    461  N3        46.0310   14.1430   26.5850 N.ar   36  U36        -0.1530
    462  C4        47.2220   13.7250   26.0220 C.ar   36  U36         0.2846
    463  O4        48.2570   13.8310   26.6530 O.2    36  U36        -0.2650
    464  C5        47.1200   13.1830   24.6910 C.ar   36  U36         0.0814
    465  C6        45.9240   13.1160   24.0990 C.ar   36  U36         0.0870
    466  OP1       47.0110   11.5140   21.1410 O.3    36  U36        -0.4373
    467  OP2       45.4740    9.4580   20.8460 O.co2  36  U36        -0.5172
    468  P         39.5930   13.6710   21.9500 P.3    37  G37         0.2141
    469  C5'       39.5140   16.1580   21.0620 C.3    37  G37         0.1812
    470  O5'       39.6050   14.7640   20.7860 O.3    37  G37        -0.3114
    471  C4'       39.4280   16.9050   19.7480 C.3    37  G37         0.1773
    472  O4'       40.6500   16.7500   18.9970 O.3    37  G37        -0.3307
    473  C3'       38.3360   16.3960   18.8130 C.3    37  G37         0.1860
    474  O3'       37.0950   17.0000   19.1320 O.3    37  G37        -0.3112
    475  C2'       38.8600   16.8330   17.4520 C.3    37  G37         0.2309
    476  O2'       38.6870   18.2480   17.2620 O.3    37  G37        -0.2156
    477  C1'       40.3490   16.5470   17.6120 C.3    37  G37         0.2408
    478  N1        42.2170   13.4870   13.9950 N.ar   37  G37        -0.1709
    479  C2        41.9900   14.8380   13.9480 C.ar   37  G37         0.2606
    480  N2        42.3310   15.4100   12.7850 N.pl3  37  G37        -0.0859
    481  N3        41.4930   15.5450   14.9570 N.ar   37  G37        -0.1918
    482  C4        41.2630   14.7710   16.0570 C.ar   37  G37         0.1723
    483  C5        41.4820   13.4100   16.2060 C.ar   37  G37         0.1748
    484  C6        41.9910   12.6800   15.1050 C.ar   37  G37         0.3023
    485  O6        42.2400   11.4820   15.0340 O.2    37  G37        -0.2633
    486  N7        41.1340   12.9920   17.4820 N.ar   37  G37        -0.2173
    487  C8        40.7050   14.0750   18.0780 C.ar   37  G37         0.1817
    488  N9        40.7580   15.1910   17.2570 N.ar   37  G37        -0.2693
    489  OP1       38.5260   13.9720   22.8850 O.3    37  G37        -0.4373
    490  OP2       39.5950   12.3740   21.2190 O.co2  37  G37        -0.5172
    491  P         35.7140   16.2360   18.8470 P.3    38  G38         0.2141
    492  C5'       35.4160   17.4130   16.5010 C.3    38  G38         0.1812
    493  O5'       35.6570   16.2030   17.2500 O.3    38  G38        -0.3114
    494  C4'       35.5870   17.1360   15.0230 C.3    38  G38         0.1773
    495  O4'       36.9520   16.7680   14.7880 O.3    38  G38        -0.3307
    496  C3'       34.7640   15.9740   14.4620 C.3    38  G38         0.1860
    497  O3'       33.4570   16.4240   14.1100 O.3    38  G38        -0.3112
    498  C2'       35.5910   15.5680   13.2440 C.3    38  G38         0.2309
    499  O2'       35.3520   16.3240   12.0480 O.3    38  G38        -0.2156
    500  C1'       37.0200   15.8070   13.7490 C.3    38  G38         0.2408
    501  N1        39.7050   11.6420   12.6780 N.ar   38  G38        -0.1709
    502  C2        39.5580   12.8100   11.9460 C.ar   38  G38         0.2606
    503  N2        40.1400   12.8330   10.7540 N.pl3  38  G38        -0.0859
    504  N3        38.8980   13.8660   12.3850 N.ar   38  G38        -0.1918
    505  C4        38.4020   13.6950   13.6260 C.ar   38  G38         0.1723
    506  C5        38.5030   12.5930   14.4470 C.ar   38  G38         0.1748
    507  C6        39.2010   11.4420   13.9570 C.ar   38  G38         0.3023
    508  O6        39.3640   10.3440   14.5300 O.2    38  G38        -0.2633
    509  N7        37.8400   12.8110   15.6500 N.ar   38  G38        -0.2173
    510  C8        37.3340   14.0130   15.5330 C.ar   38  G38         0.1817
    511  N9        37.5890   14.5780   14.3030 N.ar   38  G38        -0.2693
    512  OP1       34.6480   17.0480   19.4230 O.3    38  G38        -0.4373
    513  OP2       35.8680   14.7970   19.2690 O.co2  38  G38        -0.5172
    514  P         32.1750   15.5520   14.4980 P.3    39  C39         0.2141
    515  C5'       30.5540   17.4070   15.4050 C.3    39  C39         0.1812
    516  O5'       31.4580   16.3350   15.6860 O.3    39  C39        -0.3114
    517  C4'       30.9420   18.6230   16.2080 C.3    39  C39         0.1773
    518  O4'       32.2590   19.0940   15.8390 O.3    39  C39        -0.3307
    519  C3'       30.0170   19.8190   16.0310 C.3    39  C39         0.1860
    520  O3'       28.9160   19.6940   16.9340 O.3    39  C39        -0.3112
    521  C2'       30.9450   20.9870   16.3820 C.3    39  C39         0.2309
    522  O2'       31.1000   21.1440   17.7850 O.3    39  C39        -0.2156
    523  C1'       32.2590   20.5270   15.7540 C.3    39  C39         0.2420
    524  N1        32.4360   20.8950   14.3430 N.ar   39  C39        -0.2535
    525  C2        32.5610   22.2360   14.0400 C.ar   39  C39         0.3532
    526  O2        32.5010   23.0230   14.9820 O.2    39  C39        -0.2443
    527  N3        32.7200   22.6210   12.7450 N.ar   39  C39        -0.1739
    528  C4        32.7380   21.7090   11.7760 C.ar   39  C39         0.1759
    529  N4        32.8640   22.1350   10.5060 N.pl3  39  C39        -0.1070
    530  C5        32.6190   20.3150   12.0630 C.ar   39  C39         0.0566
    531  C6        32.4750   19.9600   13.3440 C.ar   39  C39         0.0850
    532  OP1       32.6380   14.2530   15.1070 O.3    39  C39        -0.4373
    533  OP2       31.2580   15.5450   13.3220 O.co2  39  C39        -0.5172
    534  P         27.5250   20.4390   16.6320 P.3    40  A40         0.2141
    535  C5'       27.9830   22.6560   18.0070 C.3    40  A40         0.1812
    536  O5'       27.9170   22.0000   16.7470 O.3    40  A40        -0.3114
    537  C4'       28.0230   24.1600   17.7870 C.3    40  A40         0.1773
    538  O4'       29.2330   24.5280   17.0870 O.3    40  A40        -0.3307
    539  C3'       26.9040   24.7630   16.9480 C.3    40  A40         0.1860
    540  O3'       25.6950   24.8670   17.6860 O.3    40  A40        -0.3112
    541  C2'       27.5280   26.0910   16.5330 C.3    40  A40         0.2309
    542  O2'       27.4980   27.0220   17.6170 O.3    40  A40        -0.2156
    543  C1'       28.9460   25.6280   16.2090 C.3    40  A40         0.2408
    544  N1        29.7950   26.9400   11.3050 N.ar   40  A40        -0.2040
    545  C2        29.5930   27.6610   12.4110 C.ar   40  A40         0.2016
    546  N3        29.3400   27.2620   13.6460 N.ar   40  A40        -0.2048
    547  C4        29.2760   25.9220   13.7040 C.ar   40  A40         0.1692
    548  C5        29.4240   25.0400   12.6480 C.ar   40  A40         0.1518
    549  C6        29.7290   25.5930   11.3860 C.ar   40  A40         0.1919
    550  N6        29.9940   24.8920   10.2600 N.pl3  40  A40        -0.1054
    551  N7        29.2670   23.7280   13.0840 N.ar   40  A40        -0.2193
    552  C8        29.0610   23.8460   14.3820 C.ar   40  A40         0.1816
    553  N9        29.0800   25.1550   14.8270 N.ar   40  A40        -0.2693
    554  OP1       26.5800   20.0830   17.6810 O.3    40  A40        -0.4373
    555  OP2       27.1680   20.2240   15.2320 O.co2  40  A40        -0.5172
    556  P         24.2850   24.7810   16.9410 P.3    41  C41         0.2141
    557  C5'       24.0840   27.3660   16.7050 C.3    41  C41         0.1812
    558  O5'       24.2390   26.1150   16.0690 O.3    41  C41        -0.3114
    559  C4'       24.2770   28.4540   15.6980 C.3    41  C41         0.1773
    560  O4'       25.5990   28.3830   15.1210 O.3    41  C41        -0.3307
    561  C3'       23.3800   28.4230   14.4750 C.3    41  C41         0.1860
    562  O3'       22.0450   28.7790   14.8120 O.3    41  C41        -0.3112
    563  C2'       24.1330   29.3860   13.5710 C.3    41  C41         0.2309
    564  O2'       24.0680   30.7450   14.0230 O.3    41  C41        -0.2156
    565  C1'       25.5500   28.8700   13.7900 C.3    41  C41         0.2420
    566  N1        25.8220   27.7640   12.8570 N.ar   41  C41        -0.2535
    567  C2        26.2010   28.1040   11.5660 C.ar   41  C41         0.3532
    568  O2        26.2460   29.3100   11.2840 O.2    41  C41        -0.2443
    569  N3        26.4930   27.1490   10.6660 N.ar   41  C41        -0.1739
    570  C4        26.3940   25.8630   11.0200 C.ar   41  C41         0.1759
    571  N4        26.7270   24.9450   10.1110 N.pl3  41  C41        -0.1070
    572  C5        25.9670   25.4740   12.3270 C.ar   41  C41         0.0566
    573  C6        25.7090   26.4480   13.2230 C.ar   41  C41         0.0850
    574  OP1       23.2580   24.8280   17.9870 O.3    41  C41        -0.4373
    575  OP2       24.2580   23.6620   15.9370 O.co2  41  C41        -0.5172
    576  P         20.8130   28.1550   14.0030 P.3    42  G42         0.2141
    577  C5'       20.7720   30.0860   12.2410 C.3    42  G42         0.1812
    578  O5'       20.9690   28.6870   12.5130 O.3    42  G42        -0.3114
    579  C4'       21.1630   30.4230   10.8260 C.3    42  G42         0.1773
    580  O4'       22.5660   30.1180   10.6000 O.3    42  G42        -0.3307
    581  C3'       20.4620   29.6870    9.6950 C.3    42  G42         0.1860
    582  O3'       19.1440   30.1590    9.4620 O.3    42  G42        -0.3112
    583  C2'       21.4000   30.0010    8.5410 C.3    42  G42         0.2309
    584  O2'       21.2850   31.3450    8.0910 O.3    42  G42        -0.2156
    585  C1'       22.7560   29.8060    9.2230 C.3    42  G42         0.2408
    586  N1        24.6970   26.4480    6.0290 N.ar   42  G42        -0.1709
    587  C2        24.4310   27.7880    5.8610 C.ar   42  G42         0.2606
    588  N2        24.6470   28.2740    4.6310 N.pl3  42  G42        -0.0859
    589  N3        23.9660   28.5670    6.8190 N.ar   42  G42        -0.1918
    590  C4        23.7480   27.8930    7.9650 C.ar   42  G42         0.1723
    591  C5        23.9690   26.5550    8.2360 C.ar   42  G42         0.1748
    592  C6        24.5010   25.7400    7.2040 C.ar   42  G42         0.3023
    593  O6        24.7910   24.5470    7.2480 O.2    42  G42        -0.2633
    594  N7        23.6360   26.2570    9.5470 N.ar   42  G42        -0.2173
    595  C8        23.1870   27.3990   10.0360 C.ar   42  G42         0.1817
    596  N9        23.2160   28.4200    9.1030 N.ar   42  G42        -0.2693
    597  OP1       19.5460   28.6160   14.6000 O.3    42  G42        -0.4373
    598  OP2       21.0740   26.6600   13.8800 O.co2  42  G42        -0.5172
    599  P         18.0950   29.2500    8.6230 P.3    43  C43         0.2141
    600  C5'       18.6250   30.6350    6.4570 C.3    43  C43         0.1812
    601  O5'       18.5810   29.3780    7.1210 O.3    43  C43        -0.3114
    602  C4'       19.1680   30.4710    5.0520 C.3    43  C43         0.1773
    603  O4'       20.5110   29.9290    5.1100 O.3    43  C43        -0.3307
    604  C3'       18.4470   29.4790    4.1580 C.3    43  C43         0.1860
    605  O3'       17.2450   30.0310    3.6330 O.3    43  C43        -0.3112
    606  C2'       19.5000   29.2510    3.0820 C.3    43  C43         0.2309
    607  O2'       19.6410   30.3310    2.1750 O.3    43  C43        -0.2156
    608  C1'       20.7680   29.1690    3.9330 C.3    43  C43         0.2420
    609  N1        21.1030   27.7950    4.3310 N.ar   43  C43        -0.2535
    610  C2        21.7840   26.9920    3.4220 C.ar   43  C43         0.3532
    611  O2        22.0370   27.4550    2.3020 O.2    43  C43        -0.2443
    612  N3        22.1350   25.7300    3.7780 N.ar   43  C43        -0.1739
    613  C4        21.8010   25.2630    4.9860 C.ar   43  C43         0.1759
    614  N4        22.1620   24.0110    5.3010 N.pl3  43  C43        -0.1070
    615  C5        21.0810   26.0580    5.9290 C.ar   43  C43         0.0566
    616  C6        20.7610   27.3100    5.5620 C.ar   43  C43         0.0850
    617  OP1       16.7760   29.9150    8.7650 O.2    43  C43        -0.5172
    618  OP2       18.2430   27.8190    9.0330 O.co2  43  C43        -0.4373
    619  P         15.9860   29.0750    3.3640 P.3    44  A44         0.2141
    620  C5'       16.7290   28.7470    0.8730 C.3    44  A44         0.1812
    621  O5'       16.4470   28.1740    2.1350 O.3    44  A44        -0.3114
    622  C4'       17.3100   27.7050   -0.0560 C.3    44  A44         0.1773
    623  O4'       18.6410   27.3290    0.4050 O.3    44  A44        -0.3307
    624  C3'       16.5880   26.3690   -0.1660 C.3    44  A44         0.1860
    625  O3'       15.4710   26.4380   -1.0570 O.3    44  A44        -0.3112
    626  C2'       17.6910   25.5140   -0.7720 C.3    44  A44         0.2309
    627  O2'       17.9150   25.8590   -2.1210 O.3    44  A44        -0.2156
    628  C1'       18.8990   25.9760    0.0500 C.3    44  A44         0.2408
    629  N1        20.3860   21.5480    2.1990 N.ar   44  A44        -0.2040
    630  C2        20.4390   21.9910    0.9390 C.ar   44  A44         0.2016
    631  N3        20.0500   23.1590    0.4400 N.ar   44  A44        -0.2048
    632  C4        19.5410   23.9400    1.4100 C.ar   44  A44         0.1692
    633  C5        19.4240   23.6270    2.7500 C.ar   44  A44         0.1518
    634  C6        19.8780   22.3640    3.1510 C.ar   44  A44         0.1919
    635  N6        19.8400   21.9330    4.4130 N.pl3  44  A44        -0.1054
    636  N7        18.8550   24.6810    3.4540 N.ar   44  A44        -0.2193
    637  C8        18.6460   25.5910    2.5380 C.ar   44  A44         0.1816
    638  N9        19.0280   25.2080    1.2780 N.ar   44  A44        -0.2693
    639  OP1       14.8750   29.9720    2.9300 O.2    44  A44        -0.5172
    640  OP2       15.7670   28.1590    4.5070 O.co2  44  A44        -0.4373
    641  P         14.3000   25.3360   -0.9590 P.3    45  A45         0.2141
    642  C5'       15.3530   23.9720   -2.9220 C.3    45  A45         0.1812
    643  O5'       14.9540   24.0180   -1.5580 O.3    45  A45        -0.3114
    644  C4'       16.0790   22.6820   -3.2130 C.3    45  A45         0.1773
    645  O4'       17.2110   22.5340   -2.3130 O.3    45  A45        -0.3307
    646  C3'       15.2710   21.4200   -2.9840 C.3    45  A45         0.1860
    647  O3'       14.4650   21.1480   -4.1180 O.3    45  A45        -0.3112
    648  C2'       16.3690   20.3800   -2.8420 C.3    45  A45         0.2309
    649  O2'       16.9130   20.0180   -4.0950 O.3    45  A45        -0.2156
    650  C1'       17.4150   21.1590   -2.0410 C.3    45  A45         0.2408
    651  N1        18.4170   17.9830    1.8640 N.ar   45  A45        -0.2040
    652  C2        18.5150   17.8370    0.5400 C.ar   45  A45         0.2016
    653  N3        18.2060   18.6980   -0.4260 N.ar   45  A45        -0.2048
    654  C4        17.7240   19.8420    0.0930 C.ar   45  A45         0.1692
    655  C5        17.5530   20.1390    1.4320 C.ar   45  A45         0.1518
    656  C6        17.9490   19.1540    2.3560 C.ar   45  A45         0.1919
    657  N6        17.9100   19.3250    3.6780 N.pl3  45  A45        -0.1054
    658  N7        17.0150   21.4100    1.5920 N.ar   45  A45        -0.2193
    659  C8        16.8960   21.8560    0.3590 C.ar   45  A45         0.1816
    660  N9        17.3320   20.9670   -0.5950 N.ar   45  A45        -0.2693
    661  OP1       13.2170   25.7450   -1.8930 O.2    45  A45        -0.5172
    662  OP2       13.9740   25.0650    0.4660 O.co2  45  A45        -0.4373
    663  P         13.0690   20.3860   -3.9310 P.3    46  G46         0.2141
    664  C5'       14.1220   17.9830   -4.1750 C.3    46  G46         0.1812
    665  O5'       13.4670   18.9510   -3.3570 O.3    46  G46        -0.3114
    666  C4'       14.5070   16.7720   -3.3520 C.3    46  G46         0.1773
    667  O4'       15.4170   17.1720   -2.2930 O.3    46  G46        -0.3307
    668  C3'       13.3670   16.0890   -2.6180 C.3    46  G46         0.1860
    669  O3'       12.7150   15.1890   -3.5030 O.3    46  G46        -0.3112
    670  C2'       14.1100   15.3630   -1.4980 C.3    46  G46         0.2309
    671  O2'       14.7750   14.2010   -1.9540 O.3    46  G46        -0.2156
    672  C1'       15.1690   16.4000   -1.1270 C.3    46  G46         0.2408
    673  N1        15.4170   17.2890    3.8870 N.ar   46  G46        -0.1709
    674  C2        15.8760   16.2160    3.1700 C.ar   46  G46         0.2606
    675  N2        16.5150   15.2800    3.8830 N.pl3  46  G46        -0.0859
    676  N3        15.7290   16.0780    1.8590 N.ar   46  G46        -0.1918
    677  C4        15.0840   17.1280    1.3080 C.ar   46  G46         0.1723
    678  C5        14.5920   18.2520    1.9290 C.ar   46  G46         0.1748
    679  C6        14.7560   18.3870    3.3460 C.ar   46  G46         0.3023
    680  O6        14.4060   19.3240    4.0900 O.2    46  G46        -0.2633
    681  N7        13.9970   19.1040    1.0030 N.ar   46  G46        -0.2173
    682  C8        14.1440   18.4960   -0.1410 C.ar   46  G46         0.1817
    683  N9        14.8060   17.3010   -0.0370 N.ar   46  G46        -0.2693
    684  OP1       12.4900   20.2090   -5.2880 O.2    46  G46        -0.5172
    685  OP2       12.3060   21.1040   -2.8860 O.co2  46  G46        -0.4373
    686  P         11.1500   15.3930   -3.8400 P.3    47  U47         0.2141
    687  C5'       10.4960   13.2680   -2.4660 C.3    47  U47         0.1812
    688  O5'       10.3960   14.6750   -2.6390 O.3    47  U47        -0.3114
    689  C4'        9.5970   12.8080   -1.3440 C.3    47  U47         0.1773
    690  O4'       10.0940   13.3060   -0.0660 O.3    47  U47        -0.3307
    691  C3'        8.1470   13.2710   -1.4500 C.3    47  U47         0.1860
    692  O3'        7.3020   12.2500   -0.9390 O.3    47  U47        -0.3112
    693  C2'        8.1230   14.4810   -0.5200 C.3    47  U47         0.2309
    694  O2'        6.8440   14.7840   -0.0040 O.3    47  U47        -0.2156
    695  C1'        9.0630   14.0130    0.5950 C.3    47  U47         0.2420
    696  N1         9.6560   15.1160    1.3670 N.ar   47  U47        -0.2534
    697  C2         9.5860   15.0540    2.7520 C.ar   47  U47         0.3546
    698  O2         9.1530   14.0940    3.3570 O.2    47  U47        -0.2443
    699  N3        10.0760   16.1530    3.4060 N.ar   47  U47        -0.1530
    700  C4        10.6640   17.2570    2.8370 C.ar   47  U47         0.2846
    701  O4        11.0560   18.1630    3.5620 O.2    47  U47        -0.2650
    702  C5        10.7510   17.2280    1.4110 C.ar   47  U47         0.0814
    703  C6        10.2500   16.1860    0.7380 C.ar   47  U47         0.0870
    704  OP1       10.9040   14.6180   -5.0830 O.2    47  U47        -0.5172
    705  OP2       10.8230   16.8320   -3.7920 O.co2  47  U47        -0.4373
    706  P          6.4950   11.2900   -1.9510 P.3    48  U48         0.2141
    707  C5'        4.5480   13.0230   -1.7350 C.3    48  U48         0.1812
    708  O5'        5.4080   12.2730   -2.5820 O.3    48  U48        -0.3114
    709  C4'        3.8030   14.0750   -2.5220 C.3    48  U48         0.1773
    710  O4'        2.9560   13.4500   -3.5310 O.3    48  U48        -0.3307
    711  C3'        2.8860   14.9300   -1.6550 C.3    48  U48         0.1860
    712  O3'        3.0370   16.3020   -1.9630 O.3    48  U48        -0.3112
    713  C2'        1.4850   14.4350   -2.0080 C.3    48  U48         0.2309
    714  O2'        0.4970   15.4440   -1.9130 O.3    48  U48        -0.2156
    715  C1'        1.6630   14.0140   -3.4620 C.3    48  U48         0.2420
    716  N1         0.6740   13.0100   -3.8890 N.ar   48  U48        -0.2534
    717  C2        -0.2410   13.3910   -4.8510 C.ar   48  U48         0.3546
    718  O2        -0.2300   14.4930   -5.3750 O.2    48  U48        -0.2443
    719  N3        -1.1710   12.4360   -5.1760 N.ar   48  U48        -0.1530
    720  C4        -1.2760   11.1710   -4.6570 C.ar   48  U48         0.2846
    721  O4        -2.2070   10.4560   -5.0150 O.2    48  U48        -0.2650
    722  C5        -0.2750   10.8340   -3.6850 C.ar   48  U48         0.0814
    723  C6         0.6420   11.7460   -3.3450 C.ar   48  U48         0.0870
    724  OP1        5.7980   10.3480   -1.0660 O.3    48  U48        -0.4373
    725  OP2        7.3360   10.7800   -3.0400 O.co2  48  U48        -0.5172
    726  P          4.2670   17.1280   -1.3360 P.3    49  U49         0.2141
    727  C5'        3.2420   17.2450    1.0710 C.3    49  U49         0.1812
    728  O5'        4.2400   16.7420    0.2000 O.3    49  U49        -0.3114
    729  C4'        3.6480   17.0040    2.5020 C.3    49  U49         0.1773
    730  O4'        3.5910   15.5820    2.7800 O.3    49  U49        -0.3307
    731  C3'        5.0820   17.4290    2.8270 C.3    49  U49         0.1860
    732  O3'        5.0830   18.2000    4.0160 O.3    49  U49        -0.3112
    733  C2'        5.8100   16.1010    3.0470 C.3    49  U49         0.2309
    734  O2'        6.8580   16.1920    3.9920 O.3    49  U49        -0.2156
    735  C1'        4.6840   15.2390    3.6010 C.3    49  U49         0.2420
    736  N1         4.8910   13.7890    3.4950 N.ar   49  U49        -0.2534
    737  C2         4.5640   13.0140    4.5890 C.ar   49  U49         0.3546
    738  O2         4.1430   13.4750    5.6260 O.2    49  U49        -0.2443
    739  N3         4.7430   11.6660    4.4170 N.ar   49  U49        -0.1530
    740  C4         5.1980   11.0340    3.2800 C.ar   49  U49         0.2846
    741  O4         5.2310    9.7990    3.2450 O.2    49  U49        -0.2650
    742  C5         5.5300   11.9090    2.2010 C.ar   49  U49         0.0814
    743  C6         5.3720   13.2230    2.3440 C.ar   49  U49         0.0870
    744  OP1        3.9270   18.5710   -1.4330 O.3    49  U49        -0.4373
    745  OP2        5.5300   16.6280   -1.9320 O.co2  49  U49        -0.5172
    746  P          6.2070   19.3240    4.2320 P.3    50  C50         0.2141
    747  C5'        4.8420   20.5210    6.1240 C.3    50  C50         0.1812
    748  O5'        5.9840   19.7640    5.7400 O.3    50  C50        -0.3114
    749  C4'        4.5390   20.2780    7.5800 C.3    50  C50         0.1773
    750  O4'        4.0090   18.9310    7.7250 O.3    50  C50        -0.3307
    751  C3'        5.7580   20.2860    8.4960 C.3    50  C50         0.1860
    752  O3'        6.0700   21.5980    8.9340 O.3    50  C50        -0.3112
    753  C2'        5.2800   19.4420    9.6650 C.3    50  C50         0.2309
    754  O2'        4.4400   20.1350   10.5590 O.3    50  C50        -0.2156
    755  C1'        4.4680   18.3700    8.9430 C.3    50  C50         0.2420
    756  N1         5.2760   17.1810    8.6360 N.ar   50  C50        -0.2535
    757  C2         5.7320   16.4110    9.6980 C.ar   50  C50         0.3532
    758  O2         5.4770   16.7850   10.8500 O.2    50  C50        -0.2443
    759  N3         6.4400   15.2790    9.4430 N.ar   50  C50        -0.1739
    760  C4         6.6850   14.9190    8.1810 C.ar   50  C50         0.1759
    761  N4         7.3350   13.7650    7.9680 N.pl3  50  C50        -0.1070
    762  C5         6.2620   15.7120    7.0770 C.ar   50  C50         0.0566
    763  C6         5.5640   16.8270    7.3500 C.ar   50  C50         0.0850
    764  OP1        5.8740   20.4840    3.3620 O.2    50  C50        -0.5172
    765  OP2        7.5400   18.6850    4.1130 O.co2  50  C50        -0.4373
    766  P          7.5920   22.1070    8.8960 P.3    51  U51         0.2141
    767  C5'        8.0970   21.0890   11.2470 C.3    51  U51         0.1812
    768  O5'        8.3720   21.1140    9.8600 O.3    51  U51        -0.3114
    769  C4'        8.7550   19.8910   11.8750 C.3    51  U51         0.1773
    770  O4'        8.1710   18.6860   11.3120 O.3    51  U51        -0.3307
    771  C3'       10.2400   19.7110   11.5880 C.3    51  U51         0.1860
    772  O3'       11.0310   20.5280   12.4460 O.3    51  U51        -0.3112
    773  C2'       10.4100   18.2410   11.9280 C.3    51  U51         0.2309
    774  O2'       10.3320   18.0140   13.3200 O.3    51  U51        -0.2156
    775  C1'        9.1490   17.6630   11.2920 C.3    51  U51         0.2420
    776  N1         9.3450   17.2170    9.9090 N.ar   51  U51        -0.2534
    777  C2         9.9260   15.9790    9.7510 C.ar   51  U51         0.3546
    778  O2        10.2970   15.3220   10.6940 O.2    51  U51        -0.2443
    779  N3        10.0590   15.5560    8.4570 N.ar   51  U51        -0.1530
    780  C4         9.6940   16.2430    7.3200 C.ar   51  U51         0.2846
    781  O4         9.8770   15.7270    6.2240 O.2    51  U51        -0.2650
    782  C5         9.1190   17.5360    7.5610 C.ar   51  U51         0.0814
    783  C6         8.9640   17.9670    8.8190 C.ar   51  U51         0.0870
    784  OP1        7.6330   23.4650    9.5060 O.3    51  U51        -0.4373
    785  OP2        8.1190   21.9060    7.5280 O.co2  51  U51        -0.5172
    786  P         12.5590   20.8640   12.0580 P.3    52  A52         0.2141
    787  C5'       13.4850   18.7980   13.3840 C.3    52  A52         0.1812
    788  O5'       13.3060   19.4560   12.1380 O.3    52  A52        -0.3114
    789  C4'       14.0850   17.4310   13.1610 C.3    52  A52         0.1773
    790  O4'       13.2080   16.6900   12.2710 O.3    52  A52        -0.3307
    791  C3'       15.4500   17.4310   12.4770 C.3    52  A52         0.1860
    792  O3'       16.4880   17.5230   13.4620 O.3    52  A52        -0.3112
    793  C2'       15.4560   16.0840   11.7470 C.3    52  A52         0.2309
    794  O2'       15.8150   14.9930   12.5750 O.3    52  A52        -0.2156
    795  C1'       13.9830   15.9340   11.3540 C.3    52  A52         0.2408
    796  N1        13.8530   14.7160    6.3660 N.ar   52  A52        -0.2040
    797  C2        14.2880   14.0520    7.4410 C.ar   52  A52         0.2016
    798  N3        14.3160   14.4320    8.7140 N.ar   52  A52        -0.2048
    799  C4        13.8150   15.6710    8.8450 C.ar   52  A52         0.1692
    800  C5        13.3360   16.4810    7.8310 C.ar   52  A52         0.1518
    801  C6        13.3640   15.9630    6.5340 C.ar   52  A52         0.1919
    802  N6        12.9360   16.6340    5.4590 N.pl3  52  A52        -0.1054
    803  N7        12.9080   17.7000    8.3360 N.ar   52  A52        -0.2193
    804  C8        13.1260   17.5980    9.6250 C.ar   52  A52         0.1816
    805  N9        13.6620   16.3900   10.0020 N.ar   52  A52        -0.2693
    806  OP1       13.0770   21.7120   13.1710 O.3    52  A52        -0.4373
    807  OP2       12.6480   21.3470   10.6580 O.co2  52  A52        -0.5172
    808  P         17.7340   18.5230   13.2290 P.3    53  C53         0.2141
    809  C5'       19.3030   16.5970   12.4010 C.3    53  C53         0.1812
    810  O5'       18.6460   17.8180   12.1360 O.3    53  C53        -0.3114
    811  C4'       19.6930   15.9560   11.0990 C.3    53  C53         0.1773
    812  O4'       18.4600   15.6750   10.3810 O.3    53  C53        -0.3307
    813  C3'       20.4720   16.8330   10.1270 C.3    53  C53         0.1860
    814  O3'       21.8770   16.8050   10.3780 O.3    53  C53        -0.3112
    815  C2'       20.1540   16.1670    8.7910 C.3    53  C53         0.2309
    816  O2'       20.9170   14.9830    8.5790 O.3    53  C53        -0.2156
    817  C1'       18.6800   15.7970    8.9900 C.3    53  C53         0.2420
    818  N1        17.7160   16.7810    8.4540 N.ar   53  C53        -0.2535
    819  C2        17.1230   16.5430    7.2090 C.ar   53  C53         0.3532
    820  O2        17.3630   15.4820    6.6260 O.2    53  C53        -0.2443
    821  N3        16.2940   17.4800    6.6760 N.ar   53  C53        -0.1739
    822  C4        16.0230   18.5920    7.3630 C.ar   53  C53         0.1759
    823  N4        15.2090   19.4970    6.8020 N.pl3  53  C53        -0.1070
    824  C5        16.5750   18.8360    8.6530 C.ar   53  C53         0.0566
    825  C6        17.4140   17.9140    9.1550 C.ar   53  C53         0.0850
    826  OP1       18.4760   18.5630   14.5160 O.3    53  C53        -0.4373
    827  OP2       17.2650   19.7830   12.6110 O.co2  53  C53        -0.5172
    828  P         22.6120   18.0970   11.0110 P.3    54  C54         0.2141
    829  C5'       23.7300   16.8000   12.9840 C.3    54  C54         0.1812
    830  O5'       22.7520   17.7270   12.5380 O.3    54  C54        -0.3114
    831  C4'       23.1380   15.9110   14.0290 C.3    54  C54         0.1773
    832  O4'       22.1020   15.0990   13.4170 O.3    54  C54        -0.3307
    833  C3'       24.1010   14.8950   14.6110 C.3    54  C54         0.1860
    834  O3'       24.8990   15.5390   15.6040 O.3    54  C54        -0.3112
    835  C2'       23.1260   13.8430   15.1400 C.3    54  C54         0.2309
    836  O2'       22.4380   14.1840   16.3190 O.3    54  C54        -0.2156
    837  C1'       22.1000   13.8030   14.0020 C.3    54  C54         0.2420
    838  N1        22.4710   12.8160   12.9780 N.ar   54  C54        -0.2535
    839  C2        22.3900   11.4780   13.3330 C.ar   54  C54         0.3532
    840  O2        21.9490   11.1890   14.4420 O.2    54  C54        -0.2443
    841  N3        22.7830   10.5260   12.4420 N.ar   54  C54        -0.1739
    842  C4        23.2150   10.8800   11.2390 C.ar   54  C54         0.1759
    843  N4        23.5970    9.9220   10.3890 N.pl3  54  C54        -0.1070
    844  C5        23.2820   12.2540   10.8350 C.ar   54  C54         0.0566
    845  C6        22.9050   13.1730   11.7380 C.ar   54  C54         0.0850
    846  OP1       21.6710   19.2570   10.9870 O.3    54  C54        -0.4373
    847  OP2       23.9110   18.2050   10.3270 O.co2  54  C54        -0.5172
    848  P         26.3570   14.9530   15.9750 P.3    55  G55         0.2141
    849  C5'       25.3890   13.6280   18.0810 C.3    55  G55         0.1812
    850  O5'       26.0240   13.6130   16.7880 O.3    55  G55        -0.3114
    851  C4'       25.3070   12.2260   18.7080 C.3    55  G55         0.1773
    852  O4'       24.3750   11.3960   17.9560 O.3    55  G55        -0.3307
    853  C3'       26.5630   11.3700   18.8180 C.3    55  G55         0.1860
    854  O3'       27.2830   11.6070   20.0230 O.3    55  G55        -0.3112
    855  C2'       25.9940    9.9620   18.9130 C.3    55  G55         0.2309
    856  O2'       25.4990    9.6380   20.1950 O.3    55  G55        -0.2156
    857  C1'       24.8270   10.0510   17.9350 C.3    55  G55         0.2408
    858  N1        25.3670    6.4450   14.4380 N.ar   55  G55        -0.1709
    859  C2        25.1520    6.3120   15.7690 C.ar   55  G55         0.2606
    860  N2        24.9850    5.0570   16.2370 N.pl3  55  G55        -0.0859
    861  N3        25.0900    7.3370   16.6110 N.ar   55  G55        -0.1918
    862  C4        25.2580    8.5080   15.9780 C.ar   55  G55         0.1723
    863  C5        25.4960    8.7410   14.6510 C.ar   55  G55         0.1748
    864  C6        25.5460    7.6430   13.7630 C.ar   55  G55         0.3023
    865  O6        25.6950    7.6510   12.5440 O.2    55  G55        -0.2633
    866  N7        25.6470   10.1050   14.4030 N.ar   55  G55        -0.2173
    867  C8        25.4500   10.6580   15.5680 C.ar   55  G55         0.1817
    868  N9        25.1810    9.7580   16.5580 N.ar   55  G55        -0.2693
    869  OP1       26.9520   15.9550   16.9270 O.3    55  G55        -0.4373
    870  OP2       27.0970   14.6110   14.7520 O.co2  55  G55        -0.5172
    871  P         28.8630   11.5850   19.9760 P.3    56  G56         0.2141
    872  C5'       29.1850    9.3160   21.2400 C.3    56  G56         0.1812
    873  O5'       29.2370   10.0380   20.0330 O.3    56  G56        -0.3114
    874  C4'       29.2520    7.8450   20.9240 C.3    56  G56         0.1773
    875  O4'       28.1550    7.5250   20.0230 O.3    56  G56        -0.3307
    876  C3'       30.4680    7.3700   20.1390 C.3    56  G56         0.1860
    877  O3'       31.6010    7.1600   20.9810 O.3    56  G56        -0.3112
    878  C2'       29.9390    6.0470   19.6210 C.3    56  G56         0.2309
    879  O2'       29.8250    5.1240   20.6870 O.3    56  G56        -0.2156
    880  C1'       28.5480    6.4710   19.1490 C.3    56  G56         0.2408
    881  N1        28.6460    5.3150   14.2300 N.ar   56  G56        -0.1709
    882  C2        28.5410    4.4890   15.3120 C.ar   56  G56         0.2606
    883  N2        28.5110    3.1710   15.0220 N.pl3  56  G56        -0.0859
    884  N3        28.4850    4.9040   16.5610 N.ar   56  G56        -0.1918
    885  C4        28.5710    6.2560   16.6380 C.ar   56  G56         0.1723
    886  C5        28.6980    7.1660   15.6130 C.ar   56  G56         0.1748
    887  C6        28.7440    6.7090   14.2980 C.ar   56  G56         0.3023
    888  O6        28.8590    7.3650   13.2600 O.2    56  G56        -0.2633
    889  N7        28.7620    8.4590   16.1050 N.ar   56  G56        -0.2173
    890  C8        28.6780    8.3180   17.4010 C.ar   56  G56         0.1817
    891  N9        28.5850    6.9960   17.7890 N.ar   56  G56        -0.2693
    892  OP1       29.3480   12.3130   21.2020 O.3    56  G56        -0.4373
    893  OP2       29.3420   11.9680   18.6670 O.co2  56  G56        -0.5172
    894  P         33.0590    7.0570   20.3470 P.3    57  G57         0.2141
    895  C5'       33.0090    4.4340   20.3580 C.3    57  G57         0.1812
    896  O5'       33.0800    5.6440   19.6020 O.3    57  G57        -0.3114
    897  C4'       32.9610    3.2420   19.4310 C.3    57  G57         0.1773
    898  O4'       31.8160    3.3740   18.5350 O.3    57  G57        -0.3307
    899  C3'       34.1360    3.0960   18.4730 C.3    57  G57         0.1860
    900  O3'       35.2820    2.4900   19.0630 O.3    57  G57        -0.3112
    901  C2'       33.5380    2.1830   17.4180 C.3    57  G57         0.2309
    902  O2'       33.4280    0.8440   17.8910 O.3    57  G57        -0.2156
    903  C1'       32.1470    2.8020   17.2790 C.3    57  G57         0.2408
    904  N1        32.0420    3.9560   12.3230 N.ar   57  G57        -0.1709
    905  C2        32.1510    2.7220   12.9220 C.ar   57  G57         0.2606
    906  N2        32.2770    1.6690   12.0770 N.pl3  57  G57        -0.0859
    907  N3        32.1560    2.5400   14.2360 N.ar   57  G57        -0.1918
    908  C4        32.0800    3.7120   14.9090 C.ar   57  G57         0.1723
    909  C5        31.9900    4.9870   14.4040 C.ar   57  G57         0.1748
    910  C6        31.9430    5.1660   13.0070 C.ar   57  G57         0.3023
    911  O6        31.8320    6.2300   12.3700 O.2    57  G57        -0.2633
    912  N7        31.9400    5.9190   15.4260 N.ar   57  G57        -0.2173
    913  C8        32.0050    5.2100   16.5280 C.ar   57  G57         0.1817
    914  N9        32.0860    3.8660   16.2820 N.ar   57  G57        -0.2693
    915  OP1       34.0110    7.0220   21.4870 O.3    57  G57        -0.4373
    916  OP2       33.2370    8.0920   19.2740 O.co2  57  G57        -0.5172
    917  P         36.7390    3.0290   18.7280 P.3    58  C58         0.2141
    918  C5'       37.1630    1.2620   16.8160 C.3    58  C58         0.1812
    919  O5'       37.0010    2.6330   17.2050 O.3    58  C58        -0.3114
    920  C4'       37.0220    1.1130   15.3190 C.3    58  C58         0.1773
    921  O4'       35.7070    1.5600   14.8520 O.3    58  C58        -0.3307
    922  C3'       37.9870    1.9170   14.4560 C.3    58  C58         0.1860
    923  O3'       39.2670    1.2990   14.3870 O.3    58  C58        -0.3112
    924  C2'       37.2740    1.8150   13.1160 C.3    58  C58         0.2309
    925  O2'       37.3370    0.5200   12.5240 O.3    58  C58        -0.2156
    926  C1'       35.8470    2.1080   13.5480 C.3    58  C58         0.2420
    927  N1        35.6010    3.5560   13.6020 N.ar   58  C58        -0.2535
    928  C2        35.3460    4.1870   12.4200 C.ar   58  C58         0.3532
    929  O2        35.3650    3.5080   11.3960 O.2    58  C58        -0.2443
    930  N3        35.0960    5.5220   12.4110 N.ar   58  C58        -0.1739
    931  C4        35.1040    6.2050   13.5660 C.ar   58  C58         0.1759
    932  N4        34.8310    7.5170   13.5420 N.pl3  58  C58        -0.1070
    933  C5        35.3920    5.5680   14.8130 C.ar   58  C58         0.0566
    934  C6        35.6330    4.2500   14.7780 C.ar   58  C58         0.0850
    935  OP1       37.7670    2.2790   19.5330 O.3    58  C58        -0.4373
    936  OP2       36.7180    4.5140   18.8050 O.co2  58  C58        -0.5172
    937  P         40.5840    2.1880   14.2100 P.3    59  A59         0.2141
    938  C5'       40.6330    1.6350   11.6370 C.3    59  A59         0.1812
    939  O5'       40.5730    2.6070   12.6690 O.3    59  A59        -0.3114
    940  C4'       40.2320    2.2580   10.3080 C.3    59  A59         0.1773
    941  O4'       38.9190    2.8580   10.4570 O.3    59  A59        -0.3307
    942  C3'       41.1290    3.3780    9.7740 C.3    59  A59         0.1860
    943  O3'       42.1980    2.8400    9.0130 O.3    59  A59        -0.3112
    944  C2'       40.1730    4.1490    8.8810 C.3    59  A59         0.2309
    945  O2'       40.0150    3.6260    7.5770 O.3    59  A59        -0.2156
    946  C1'       38.8740    4.0490    9.6690 C.3    59  A59         0.2408
    947  N1        37.6230    8.9770    9.9560 N.ar   59  A59        -0.2040
    948  C2        37.8670    8.1860    8.9160 C.ar   59  A59         0.2016
    949  N3        38.2490    6.9130    8.9100 N.ar   59  A59        -0.2048
    950  C4        38.3880    6.4620   10.1700 C.ar   59  A59         0.1692
    951  C5        38.1790    7.1650   11.3310 C.ar   59  A59         0.1518
    952  C6        37.7530    8.5020   11.1980 C.ar   59  A59         0.1919
    953  N6        37.4610    9.2960   12.2200 N.pl3  59  A59        -0.1054
    954  N7        38.4210    6.3700   12.4520 N.ar   59  A59        -0.2193
    955  C8        38.7300    5.2060   11.9320 C.ar   59  A59         0.1816
    956  N9        38.7010    5.1810   10.5690 N.ar   59  A59        -0.2693
    957  OP1       41.7650    1.3080   14.4590 O.2    59  A59        -0.5172
    958  OP2       40.4610    3.4550   14.9660 O.co2  59  A59        -0.4373
    959  P         43.6180    3.5680    8.9980 P.3    60  C60         0.2141
    960  C5'       42.9930    5.0980    6.9480 C.3    60  C60         0.1812
    961  O5'       43.3460    4.9860    8.3080 O.3    60  C60        -0.3114
    962  C4'       42.5910    6.5300    6.6520 C.3    60  C60         0.1773
    963  O4'       41.3820    6.8220    7.4130 O.3    60  C60        -0.3307
    964  C3'       43.5730    7.6000    7.1110 C.3    60  C60         0.1860
    965  O3'       44.6170    7.8100    6.1620 O.3    60  C60        -0.3112
    966  C2'       42.6570    8.8120    7.2290 C.3    60  C60         0.2309
    967  O2'       42.2850    9.3400    5.9660 O.3    60  C60        -0.2156
    968  C1'       41.4310    8.1760    7.8790 C.3    60  C60         0.2420
    969  N1        41.4600    8.1950    9.3550 N.ar   60  C60        -0.2535
    970  C2        41.0250    9.3650   10.0100 C.ar   60  C60         0.3532
    971  O2        40.7880   10.3830    9.3140 O.2    60  C60        -0.2443
    972  N3        40.9050    9.3750   11.3560 N.ar   60  C60        -0.1739
    973  C4        41.2710    8.2920   12.0600 C.ar   60  C60         0.1759
    974  N4        41.1240    8.3250   13.3800 N.pl3  60  C60        -0.1070
    975  C5        41.7990    7.1260   11.4260 C.ar   60  C60         0.0566
    976  C6        41.8740    7.1100   10.0950 C.ar   60  C60         0.0850
    977  OP1       44.4640    2.7550    8.0890 O.2    60  C60        -0.5172
    978  OP2       44.0520    3.8510   10.3730 O.co2  60  C60        -0.4373
    979  P         46.0740    8.2750    6.6690 P.3    61  C61         0.2141
    980  C5'       45.5110   10.6630    5.7070 C.3    61  C61         0.1812
    981  O5'       45.9380    9.8620    6.8120 O.3    61  C61        -0.3114
    982  C4'       45.0590   12.0170    6.2050 C.3    61  C61         0.1773
    983  O4'       43.9610   11.8340    7.1330 O.3    61  C61        -0.3307
    984  C3'       46.1030   12.7510    7.0330 C.3    61  C61         0.1860
    985  O3'       46.9740   13.4200    6.1370 O.3    61  C61        -0.3112
    986  C2'       45.2410   13.7060    7.8600 C.3    61  C61         0.2309
    987  O2'       44.8640   14.8040    7.0500 O.3    61  C61        -0.2156
    988  C1'       44.0240   12.8320    8.1490 C.3    61  C61         0.2420
    989  N1        44.0960   12.1620    9.4580 N.ar   61  C61        -0.2535
    990  C2        43.6540   12.8450   10.5800 C.ar   61  C61         0.3532
    991  O2        43.3040   14.0350   10.4580 O.2    61  C61        -0.2443
    992  N3        43.6090   12.2190   11.7730 N.ar   61  C61        -0.1739
    993  C4        44.0100   10.9420   11.8650 C.ar   61  C61         0.1759
    994  N4        43.8860   10.3310   13.0450 N.pl3  61  C61        -0.1070
    995  C5        44.5270   10.2390   10.7430 C.ar   61  C61         0.0566
    996  C6        44.5490   10.8770    9.5650 C.ar   61  C61         0.0850
    997  OP1       47.0540    8.0230    5.5740 O.2    61  C61        -0.5172
    998  OP2       46.3470    7.7760    8.0410 O.co2  61  C61        -0.4373
    999  P         48.5480   13.1480    6.2080 P.3    62  G62         0.2141
   1000  C5'       50.3700   14.5570    7.4420 C.3    62  G62         0.1812
   1001  O5'       49.0280   14.1050    7.3780 O.3    62  G62        -0.3114
   1002  C4'       50.7310   14.8890    8.8630 C.3    62  G62         0.1773
   1003  O4'       50.5260   13.7220    9.7030 O.3    62  G62        -0.3307
   1004  C3'       52.1740   15.3170    9.0840 C.3    62  G62         0.1860
   1005  O3'       52.1600   16.3750   10.0310 O.3    62  G62        -0.3112
   1006  C2'       52.8170   14.0580    9.6630 C.3    62  G62         0.2309
   1007  O2'       53.9130   14.3540   10.5010 O.3    62  G62        -0.2156
   1008  C1'       51.6650   13.5130   10.4990 C.3    62  G62         0.2408
   1009  N1        50.6580   10.1300   14.1190 N.ar   62  G62        -0.1709
   1010  C2        50.4960   11.4950   14.1220 C.ar   62  G62         0.2606
   1011  N2        49.9670   12.0300   15.2230 N.pl3  62  G62        -0.0859
   1012  N3        50.8250   12.2740   13.1100 N.ar   62  G62        -0.1918
   1013  C4        51.3120   11.5720   12.0640 C.ar   62  G62         0.1723
   1014  C5        51.5060   10.2150   11.9520 C.ar   62  G62         0.1748
   1015  C6        51.1760    9.3870   13.0590 C.ar   62  G62         0.3023
   1016  O6        51.3020    8.1580   13.1720 O.2    62  G62        -0.2633
   1017  N7        52.0180    9.8910   10.7010 N.ar   62  G62        -0.2173
   1018  C8        52.1300   11.0400   10.0920 C.ar   62  G62         0.1817
   1019  N9        51.7100   12.0990   10.8620 N.ar   62  G62        -0.2693
   1020  OP1       49.1320   13.6210    4.9160 O.2    62  G62        -0.5172
   1021  OP2       48.7870   11.7440    6.6490 O.co2  62  G62        -0.4373
   1022  P         53.0640   17.6750    9.7880 P.3    63  U63         0.2141
   1023  C5'       50.9310   19.1170    9.2760 C.3    63  U63         0.1812
   1024  O5'       52.1030   18.9130   10.0520 O.3    63  U63        -0.3114
   1025  C4'       49.9190   19.8820   10.0830 C.3    63  U63         0.1773
   1026  O4'       49.1520   18.9390   10.8850 O.3    63  U63        -0.3307
   1027  C3'       50.5340   20.8640   11.0700 C.3    63  U63         0.1860
   1028  O3'       49.6910   21.9970   11.2250 O.3    63  U63        -0.3112
   1029  C2'       50.5680   20.0600   12.3650 C.3    63  U63         0.2309
   1030  O2'       50.5440   20.9070   13.4950 O.3    63  U63        -0.2156
   1031  C1'       49.2570   19.2790   12.2520 C.3    63  U63         0.2420
   1032  N1        49.1930   18.0300   13.0320 N.ar   63  U63        -0.2534
   1033  C2        48.5620   18.0640   14.2600 C.ar   63  U63         0.3546
   1034  O2        48.0700   19.0710   14.7200 O.2    63  U63        -0.2443
   1035  N3        48.5320   16.8630   14.9350 N.ar   63  U63        -0.1530
   1036  C4        49.0580   15.6640   14.5250 C.ar   63  U63         0.2846
   1037  O4        48.9340   14.6630   15.2500 O.2    63  U63        -0.2650
   1038  C5        49.6950   15.7070   13.2430 C.ar   63  U63         0.0814
   1039  C6        49.7370   16.8640   12.5590 C.ar   63  U63         0.0870
   1040  OP1       53.4840   17.6980    8.3720 O.2    63  U63        -0.5172
   1041  OP2       54.0860   17.6840   10.8720 O.co2  63  U63        -0.4373
   1042  P         50.1400   23.4120   10.6160 P.3    64  A64         0.2141
   1043  C5'       48.0610   23.7160    9.0540 C.3    64  A64         0.1812
   1044  O5'       49.4540   23.4560    9.1810 O.3    64  A64        -0.3114
   1045  C4'       47.5110   23.0470    7.8150 C.3    64  A64         0.1773
   1046  O4'       47.7680   21.6200    7.8730 O.3    64  A64        -0.3307
   1047  C3'       46.0100   23.2060    7.6220 C.3    64  A64         0.1860
   1048  O3'       45.7570   24.3500    6.8040 O.3    64  A64        -0.3112
   1049  C2'       45.6190   21.9060    6.9250 C.3    64  A64         0.2309
   1050  O2'       45.8510   21.9500    5.5250 O.3    64  A64        -0.2156
   1051  C1'       46.5830   20.9060    7.5680 C.3    64  A64         0.2408
   1052  N1        46.6630   16.4630   10.1410 N.ar   64  A64        -0.2040
   1053  C2        46.9890   16.7810    8.8750 C.ar   64  A64         0.2016
   1054  N3        46.8810   17.9570    8.2470 N.ar   64  A64        -0.2048
   1055  C4        46.3690   18.8870    9.0690 C.ar   64  A64         0.1692
   1056  C5        45.9830   18.7080   10.3870 C.ar   64  A64         0.1518
   1057  C6        46.1510   17.4220   10.9370 C.ar   64  A64         0.1919
   1058  N6        45.8310   17.1100   12.1980 N.pl3  64  A64        -0.1054
   1059  N7        45.4920   19.8910   10.9200 N.ar   64  A64        -0.2193
   1060  C8        45.6070   20.7510    9.9320 C.ar   64  A64         0.1816
   1061  N9        46.1700   20.2230    8.7980 N.ar   64  A64        -0.2693
   1062  OP1       51.6060   23.3600   10.4220 O.2    64  A64        -0.5172
   1063  OP2       49.5380   24.4730   11.4590 O.co2  64  A64        -0.4373
   1064  P         44.4460   25.2350    7.0470 P.3    65  A65         0.2141
   1065  C5'       43.3750   24.1300    4.9280 C.3    65  A65         0.1812
   1066  O5'       43.2870   24.4160    6.3200 O.3    65  A65        -0.3114
   1067  C4'       42.3810   23.0660    4.5480 C.3    65  A65         0.1773
   1068  O4'       42.7300   21.8180    5.2390 O.3    65  A65        -0.3307
   1069  C3'       40.9210   23.3320    4.9010 C.3    65  A65         0.1860
   1070  O3'       40.1340   22.6290    3.9360 O.3    65  A65        -0.3112
   1071  C2'       40.8060   22.6160    6.2520 C.3    65  A65         0.2309
   1072  O2'       39.4810   22.3240    6.6700 O.3    65  A65        -0.2156
   1073  C1'       41.5900   21.3490    5.9240 C.3    65  A65         0.2408
   1074  N1        43.0990   16.7230    7.5790 N.ar   65  A65        -0.2040
   1075  C2        42.8780   17.2200    6.3570 C.ar   65  A65         0.2016
   1076  N3        42.5200   18.4640    5.9980 N.ar   65  A65        -0.2048
   1077  C4        42.3930   19.2490    7.0760 C.ar   65  A65         0.1692
   1078  C5        42.6000   18.8860    8.3950 C.ar   65  A65         0.1518
   1079  C6        42.9590   17.5370    8.6430 C.ar   65  A65         0.1919
   1080  N6        43.1410   17.0250    9.8590 N.pl3  65  A65        -0.1054
   1081  N7        42.3780   19.9650    9.2410 N.ar   65  A65        -0.2193
   1082  C8        42.0520   20.9520    8.4170 C.ar   65  A65         0.1816
   1083  N9        42.0120   20.5740    7.0990 N.ar   65  A65        -0.2693
   1084  OP1       44.6300   26.5050    6.2670 O.2    65  A65        -0.5172
   1085  OP2       44.1220   25.3060    8.4910 O.co2  65  A65        -0.4373
   1086  P         38.8360   23.2990    3.2720 P.3    66  A66         0.2141
   1087  C5'       37.3950   21.3270    4.2870 C.3    66  A66         0.1812
   1088  O5'       37.8070   22.0920    3.1420 O.3    66  A66        -0.3114
   1089  C4'       37.6980   19.8570    4.0420 C.3    66  A66         0.1773
   1090  O4'       39.0220   19.5630    4.5360 O.3    66  A66        -0.3307
   1091  C3'       36.8550   18.8680    4.8100 C.3    66  A66         0.1860
   1092  O3'       35.5620   18.6950    4.2680 O.3    66  A66        -0.3112
   1093  C2'       37.6950   17.6110    4.6900 C.3    66  A66         0.2309
   1094  O2'       37.6810   17.0370    3.3860 O.3    66  A66        -0.2156
   1095  C1'       39.0710   18.1940    4.9850 C.3    66  A66         0.2408
   1096  N1        39.8830   15.1130    8.9590 N.ar   66  A66        -0.2040
   1097  C2        39.9300   14.9180    7.6520 C.ar   66  A66         0.2016
   1098  N3        39.7630   15.7880    6.6640 N.ar   66  A66        -0.2048
   1099  C4        39.5360   17.0140    7.1520 C.ar   66  A66         0.1692
   1100  C5        39.4940   17.3770    8.4790 C.ar   66  A66         0.1518
   1101  C6        39.6680   16.3690    9.4240 C.ar   66  A66         0.1919
   1102  N6        39.6200   16.5750   10.7380 N.pl3  66  A66        -0.1054
   1103  N7        39.2560   18.7370    8.6110 N.ar   66  A66        -0.2193
   1104  C8        39.1450   19.1600    7.3670 C.ar   66  A66         0.1816
   1105  N9        39.2650   18.1580    6.4340 N.ar   66  A66        -0.2693
   1106  OP1       39.1820   23.6870    1.8620 O.2    66  A66        -0.5172
   1107  OP2       38.2850   24.3270    4.1670 O.co2  66  A66        -0.4373
   1108  P         34.3250   18.7580    5.2200 P.3    67  U67         0.2141
   1109  C5'       33.9890   16.2640    6.0910 C.3    67  U67         0.1812
   1110  O5'       34.5930   17.5540    6.2560 O.3    67  U67        -0.3114
   1111  C4'       34.9550   15.2910    5.4420 C.3    67  U67         0.1773
   1112  O4'       36.1870   15.1420    6.2160 O.3    67  U67        -0.3307
   1113  C3'       34.4030   13.8790    5.3780 C.3    67  U67         0.1860
   1114  O3'       33.5690   13.7360    4.2230 O.3    67  U67        -0.3112
   1115  C2'       35.6780   13.0730    5.2340 C.3    67  U67         0.2309
   1116  O2'       36.2590   13.1580    3.9500 O.3    67  U67        -0.2156
   1117  C1'       36.5890   13.7750    6.2390 C.3    67  U67         0.2420
   1118  N1        36.5100   13.3120    7.6310 N.ar   67  U67        -0.2534
   1119  C2        36.9650   12.0420    7.9100 C.ar   67  U67         0.3546
   1120  O2        37.4030   11.3200    7.0600 O.2    67  U67        -0.2443
   1121  N3        36.8940   11.6800    9.2320 N.ar   67  U67        -0.1530
   1122  C4        36.4330   12.4390   10.2940 C.ar   67  U67         0.2846
   1123  O4        36.4360   11.9700   11.4330 O.2    67  U67        -0.2650
   1124  C5        35.9790   13.7380    9.9410 C.ar   67  U67         0.0814
   1125  C6        36.0200   14.1280    8.6500 C.ar   67  U67         0.0870
   1126  OP1       33.0940   18.4820    4.4890 O.2    67  U67        -0.5172
   1127  OP2       34.4280   20.0180    6.0530 O.co2  67  U67        -0.4373
   1128  P         32.2380   12.8680    4.3040 P.3    68  G68         0.2141
   1129  C5'       33.3400   10.8610    3.0170 C.3    68  G68         0.1812
   1130  O5'       32.7340   11.3440    4.2190 O.3    68  G68        -0.3114
   1131  C4'       33.9320    9.4810    3.2360 C.3    68  G68         0.1773
   1132  O4'       34.9990    9.5540    4.2200 O.3    68  G68        -0.3307
   1133  C3'       32.9580    8.4490    3.7960 C.3    68  G68         0.1860
   1134  O3'       32.2530    7.8440    2.7140 O.3    68  G68        -0.3112
   1135  C2'       33.9160    7.4610    4.4330 C.3    68  G68         0.2309
   1136  O2'       34.5080    6.6140    3.4680 O.3    68  G68        -0.2156
   1137  C1'       34.9480    8.3970    5.0510 C.3    68  G68         0.2408
   1138  N1        34.8100    6.8860    9.8590 N.ar   68  G68        -0.1709
   1139  C2        35.1370    6.2020    8.7290 C.ar   68  G68         0.2606
   1140  N2        35.4680    4.9040    8.8960 N.pl3  68  G68        -0.0859
   1141  N3        35.1280    6.7190    7.5200 N.ar   68  G68        -0.1918
   1142  C4        34.7070    7.9960    7.5250 C.ar   68  G68         0.1723
   1143  C5        34.3120    8.7710    8.5860 C.ar   68  G68         0.1748
   1144  C6        34.3660    8.2120    9.8960 C.ar   68  G68         0.3023
   1145  O6        34.0860    8.7350   10.9810 O.2    68  G68        -0.2633
   1146  N7        33.9160   10.0400    8.1520 N.ar   68  G68        -0.2173
   1147  C8        34.1010   10.0020    6.8570 C.ar   68  G68         0.1817
   1148  N9        34.5880    8.7980    6.4110 N.ar   68  G68        -0.2693
   1149  OP1       31.5040   13.1560    3.0320 O.2    68  G68        -0.5172
   1150  OP2       31.5470   13.0210    5.5630 O.co2  68  G68        -0.4373
   1151  P         30.7740    7.2890    2.9150 P.3    69  U69         0.2141
   1152  C5'       31.7050    4.8640    3.3570 C.3    69  U69         0.1812
   1153  O5'       30.9550    5.9750    3.8190 O.3    69  U69        -0.3114
   1154  C4'       31.9510    3.9050    4.5100 C.3    69  U69         0.1773
   1155  O4'       32.8170    4.5500    5.4830 O.3    69  U69        -0.3307
   1156  C3'       30.7240    3.4750    5.3070 C.3    69  U69         0.1860
   1157  O3'       30.0570    2.3930    4.6400 O.3    69  U69        -0.3112
   1158  C2'       31.3440    3.0880    6.6510 C.3    69  U69         0.2309
   1159  O2'       31.9820    1.8320    6.6090 O.3    69  U69        -0.2156
   1160  C1'       32.4230    4.1530    6.8020 C.3    69  U69         0.2420
   1161  N1        31.9190    5.3230    7.5460 N.ar   69  U69        -0.2534
   1162  C2        31.9390    5.2430    8.9150 C.ar   69  U69         0.3546
   1163  O2        32.2270    4.2150    9.4990 O.2    69  U69        -0.2443
   1164  N3        31.5740    6.3950    9.5810 N.ar   69  U69        -0.1530
   1165  C4        31.1430    7.5840    9.0190 C.ar   69  U69         0.2846
   1166  O4        30.9350    8.5570    9.7590 O.2    69  U69        -0.2650
   1167  C5        31.0840    7.5790    7.5890 C.ar   69  U69         0.0814
   1168  C6        31.4650    6.4750    6.9100 C.ar   69  U69         0.0870
   1169  OP1       30.2930    6.8880    1.5390 O.2    69  U69        -0.5172
   1170  OP2       29.9310    8.1630    3.7570 O.co2  69  U69        -0.4373
   1171  P         28.4850    2.2450    4.7550 P.3    70  C70         0.2141
   1172  C5'       28.7440    0.2080    6.3800 C.3    70  C70         0.1812
   1173  O5'       28.2850    1.5490    6.1670 O.3    70  C70        -0.3114
   1174  C4'       28.7930   -0.1060    7.8700 C.3    70  C70         0.1773
   1175  O4'       29.6440    0.8490    8.5530 O.3    70  C70        -0.3307
   1176  C3'       27.4830   -0.0370    8.6530 C.3    70  C70         0.1860
   1177  O3'       26.7370   -1.2510    8.4730 O.3    70  C70        -0.3112
   1178  C2'       27.9830    0.1190   10.0910 C.3    70  C70         0.2309
   1179  O2'       28.4850   -1.0990   10.6570 O.3    70  C70        -0.2156
   1180  C1'       29.1750    1.0540    9.8800 C.3    70  C70         0.2420
   1181  N1        28.8440    2.4900   10.0350 N.ar   70  C70        -0.2535
   1182  C2        28.8280    3.0330   11.3120 C.ar   70  C70         0.3532
   1183  O2        28.9940    2.2750   12.2930 O.2    70  C70        -0.2443
   1184  N3        28.6340    4.3750   11.4680 N.ar   70  C70        -0.1739
   1185  C4        28.4670    5.1490   10.3860 C.ar   70  C70         0.1759
   1186  N4        28.3740    6.4790   10.5790 N.pl3  70  C70        -0.1070
   1187  C5        28.4120    4.6000    9.0640 C.ar   70  C70         0.0566
   1188  C6        28.6000    3.2760    8.9350 C.ar   70  C70         0.0850
   1189  OP1       28.0770    1.3100    3.6700 O.2    70  C70        -0.5172
   1190  OP2       27.8200    3.5870    4.8660 O.co2  70  C70        -0.4373
   1191  P         25.1820   -1.1980    8.2030 P.3    71  C71         0.2141
   1192  C5'       24.5820   -2.1140   10.6010 C.3    71  C71         0.1812
   1193  O5'       24.4830   -1.0570    9.6160 O.3    71  C71        -0.3114
   1194  C4'       24.4590   -1.5550   12.0090 C.3    71  C71         0.1773
   1195  O4'       25.5220   -0.5830   12.2620 O.3    71  C71        -0.3307
   1196  C3'       23.2000   -0.7600   12.3210 C.3    71  C71         0.1860
   1197  O3'       22.1030   -1.6130   12.6080 O.3    71  C71        -0.3112
   1198  C2'       23.6340   -0.0100   13.5770 C.3    71  C71         0.2309
   1199  O2'       23.7050   -0.9030   14.6850 O.3    71  C71        -0.2156
   1200  C1'       25.0440    0.4090   13.1720 C.3    71  C71         0.2420
   1201  N1        25.1050    1.7250   12.5080 N.ar   71  C71        -0.2535
   1202  C2        25.1860    2.8400   13.3080 C.ar   71  C71         0.3532
   1203  O2        25.1470    2.6940   14.5300 O.2    71  C71        -0.2443
   1204  N3        25.2780    4.0470   12.7280 N.ar   71  C71        -0.1739
   1205  C4        25.2790    4.1680   11.4050 C.ar   71  C71         0.1759
   1206  N4        25.3770    5.3900   10.8710 N.pl3  71  C71        -0.1070
   1207  C5        25.1750    3.0360   10.5440 C.ar   71  C71         0.0566
   1208  C6        25.0860    1.8360   11.1510 C.ar   71  C71         0.0850
   1209  OP1       24.9060   -2.5890    7.6710 O.3    71  C71        -0.4373
   1210  OP2       24.8050    0.0140    7.3920 O.co2  71  C71        -0.5172
   1211  P         20.6010   -1.1050   12.3610 P.3    72  G72         0.2141
   1212  C5'       20.2240   -0.0470   14.7390 C.3    72  G72         0.1812
   1213  O5'       20.4630    0.1560   13.3530 O.3    72  G72        -0.3114
   1214  C4'       20.1430    1.2950   15.4450 C.3    72  G72         0.1773
   1215  O4'       21.3930    1.9940   15.2320 O.3    72  G72        -0.3307
   1216  C3'       19.0930    2.2750   14.9420 C.3    72  G72         0.1860
   1217  O3'       17.8100    1.9730   15.5060 O.3    72  G72        -0.3112
   1218  C2'       19.6530    3.5720   15.5280 C.3    72  G72         0.2309
   1219  O2'       19.3730    3.6710   16.9110 O.3    72  G72        -0.2156
   1220  C1'       21.1610    3.3930   15.3060 C.3    72  G72         0.2408
   1221  N1        22.3880    7.7720   13.1610 N.ar   72  G72        -0.1709
   1222  C2        22.1650    7.4670   14.4720 C.ar   72  G72         0.2606
   1223  N2        22.2090    8.4980   15.3520 N.pl3  72  G72        -0.0859
   1224  N3        21.9100    6.2550   14.9160 N.ar   72  G72        -0.1918
   1225  C4        21.8940    5.3540   13.9180 C.ar   72  G72         0.1723
   1226  C5        22.1040    5.5460   12.5790 C.ar   72  G72         0.1748
   1227  C6        22.3670    6.8690   12.1130 C.ar   72  G72         0.3023
   1228  O6        22.5370    7.2650   10.9640 O.2    72  G72        -0.2633
   1229  N7        21.9850    4.3320   11.8830 N.ar   72  G72        -0.2173
   1230  C8        21.7040    3.4620   12.8150 C.ar   72  G72         0.1817
   1231  N9        21.5960    4.0190   14.0640 N.ar   72  G72        -0.2693
   1232  OP1       19.6990   -2.1500   12.8760 O.3    72  G72        -0.4373
   1233  OP2       20.4540   -0.6070   10.9730 O.co2  72  G72        -0.5172
   1234  P         16.5930    1.4240   14.5720 P.3    73  A73         0.2141
   1235  C5'       14.6380    3.1260   15.0380 C.3    73  A73         0.1812
   1236  O5'       15.3050    1.8950   15.3770 O.3    73  A73        -0.3114
   1237  C4'       15.3090    4.3120   15.7120 C.3    73  A73         0.1773
   1238  O4'       16.4160    4.7940   14.9000 O.3    73  A73        -0.3307
   1239  C3'       14.3980    5.5260   15.8950 C.3    73  A73         0.1860
   1240  O3'       13.7260    5.4530   17.1430 O.3    73  A73        -0.3112
   1241  C2'       15.3800    6.6870   15.8780 C.3    73  A73         0.2309
   1242  O2'       16.0420    6.8440   17.1200 O.3    73  A73        -0.2156
   1243  C1'       16.3790    6.2150   14.8280 C.3    73  A73         0.2408
   1244  N1        16.0000   10.0610   11.4280 N.ar   73  A73        -0.2040
   1245  C2        16.2120   10.0450   12.7550 C.ar   73  A73         0.2016
   1246  N3        16.2470    9.0110   13.5910 N.ar   73  A73        -0.2048
   1247  C4        16.0380    7.8590   12.9300 C.ar   73  A73         0.1692
   1248  C5        15.8020    7.7060   11.5770 C.ar   73  A73         0.1518
   1249  C6        15.7870    8.8800   10.7940 C.ar   73  A73         0.1919
   1250  N6        15.5850    8.8860    9.4720 N.pl3  73  A73        -0.1054
   1251  N7        15.6310    6.3610   11.2550 N.ar   73  A73        -0.2193
   1252  C8        15.7700    5.7470   12.4000 C.ar   73  A73         0.1816
   1253  N9        16.0560    6.5900   13.4520 N.ar   73  A73        -0.2693
   1254  OP1       16.6610   -0.0650   14.6220 O.3    73  A73        -0.4373
   1255  OP2       16.5860    2.1110   13.2600 O.co2  73  A73        -0.5172
   1256  P         12.1530    5.7850   17.2250 P.3    74  C74         0.2141
   1257  C5'       12.6030    8.3280   17.7080 C.3    74  C74         0.1812
   1258  O5'       12.0620    7.3290   16.8670 O.3    74  C74        -0.3114
   1259  C4'       12.5690    9.6490   16.9860 C.3    74  C74         0.1773
   1260  O4'       13.4410    9.5900   15.8300 O.3    74  C74        -0.3307
   1261  C3'       11.2250   10.0080   16.3660 C.3    74  C74         0.1860
   1262  O3'       10.3680   10.5670   17.3500 O.3    74  C74        -0.3112
   1263  C2'       11.6350   11.0520   15.3430 C.3    74  C74         0.2309
   1264  O2'       11.9170   12.2960   15.9560 O.3    74  C74        -0.2156
   1265  C1'       12.9250   10.4350   14.8030 C.3    74  C74         0.2420
   1266  N1        12.7250    9.6170   13.5940 N.ar   74  C74        -0.2535
   1267  C2        12.7130   10.2510   12.3530 C.ar   74  C74         0.3532
   1268  O2        12.7890   11.4800   12.3150 O.2    74  C74        -0.2443
   1269  N3        12.6170    9.5090   11.2240 N.ar   74  C74        -0.1739
   1270  C4        12.5150    8.1760   11.3110 C.ar   74  C74         0.1759
   1271  N4        12.4660    7.4740   10.1660 N.pl3  74  C74        -0.1070
   1272  C5        12.4740    7.5060   12.5680 C.ar   74  C74         0.0566
   1273  C6        12.5860    8.2570   13.6740 C.ar   74  C74         0.0850
   1274  OP1       11.7280    5.5750   18.6330 O.3    74  C74        -0.4373
   1275  OP2       11.4540    5.0880   16.1270 O.co2  74  C74        -0.5172
   1276  P          8.7810   10.4690   17.1690 P.3    75  U75         0.2141
   1277  C5'        8.5290   12.7290   15.8390 C.3    75  U75         0.1812
   1278  O5'        8.4560   11.3090   15.8520 O.3    75  U75        -0.3114
   1279  C4'        8.2230   13.2450   14.4540 C.3    75  U75         0.1773
   1280  O4'        9.2590   12.7930   13.5340 O.3    75  U75        -0.3307
   1281  C3'        6.9520   12.7060   13.8170 C.3    75  U75         0.1860
   1282  O3'        5.7870   13.3710   14.3110 O.3    75  U75        -0.3112
   1283  C2'        7.2190   12.9880   12.3460 C.3    75  U75         0.2309
   1284  O2'        7.1210   14.3620   12.0340 O.3    75  U75        -0.2156
   1285  C1'        8.6920   12.5830   12.2440 C.3    75  U75         0.2420
   1286  N1         8.8760   11.1710   11.8730 N.ar   75  U75        -0.2534
   1287  C2         8.9090   10.8810   10.5310 C.ar   75  U75         0.3546
   1288  O2         8.7900   11.7380    9.6750 O.2    75  U75        -0.2443
   1289  N3         9.0840    9.5540   10.2240 N.ar   75  U75        -0.1530
   1290  C4         9.2100    8.5110   11.1130 C.ar   75  U75         0.2846
   1291  O4         9.3220    7.3540   10.6850 O.2    75  U75        -0.2650
   1292  C5         9.1620    8.8950   12.4910 C.ar   75  U75         0.0814
   1293  C6         9.0070   10.1810   12.8150 C.ar   75  U75         0.0870
   1294  OP1        8.1860   11.1590   18.3440 O.3    75  U75        -0.4373
   1295  OP2        8.4240    9.0540   16.8890 O.co2  75  U75        -0.5172
   1296  P          4.3570   12.6300   14.2450 P.3    76  A76         0.2141
   1297  C5'        3.7060   13.8420   12.0140 C.3    76  A76         0.1812
   1298  O5'        3.9990   12.6260   12.6920 O.3    76  A76        -0.3114
   1299  C4'        3.3230   13.5680   10.5750 C.3    76  A76         0.1773
   1300  O4'        4.4960   13.1310    9.8460 O.3    76  A76        -0.3307
   1301  C3'        2.3090   12.4620   10.3310 C.3    76  A76         0.1860
   1302  O3'        0.9720   12.9270   10.5190 O.3    76  A76        -0.3112
   1303  C2'        2.5940   12.1070    8.8780 C.3    76  A76         0.2309
   1304  O2'        2.0780   13.0580    7.9790 O.3    76  A76        -0.2156
   1305  C1'        4.1200   12.1920    8.8480 C.3    76  A76         0.2408
   1306  N1         5.9870    7.7750    6.9760 N.ar   76  A76        -0.2040
   1307  C2         5.4340    8.8360    6.3790 C.ar   76  A76         0.2016
   1308  N3         4.9800    9.9690    6.9270 N.ar   76  A76        -0.2048
   1309  C4         5.1280    9.9430    8.2610 C.ar   76  A76         0.1692
   1310  C5         5.6880    8.9280    9.0150 C.ar   76  A76         0.1518
   1311  C6         6.1500    7.7970    8.3190 C.ar   76  A76         0.1919
   1312  N6         6.7480    6.7570    8.9070 N.pl3  76  A76        -0.1054
   1313  N7         5.6730    9.2530   10.3630 N.ar   76  A76        -0.2193
   1314  C8         5.1210   10.4440   10.3950 C.ar   76  A76         0.1816
   1315  N9         4.7620   10.9180    9.1610 N.ar   76  A76        -0.2693
   1316  OP1        3.3970   13.5160   14.9470 O.3    76  A76        -0.4373
   1317  OP2        4.4920   11.2160   14.6750 O.co2  76  A76        -0.5172
   1318  P         -0.1480   11.9250   11.0980 P.3    77  U77         0.2141
   1319  C5'       -1.1060   11.3870    8.7340 C.3    77  U77         0.1812
   1320  O5'       -0.4270   10.9300    9.8950 O.3    77  U77        -0.3114
   1321  C4'       -1.0530   10.3400    7.6590 C.3    77  U77         0.1773
   1322  O4'        0.3260   10.1000    7.2690 O.3    77  U77        -0.3307
   1323  C3'       -1.5600    8.9620    8.0430 C.3    77  U77         0.1860
   1324  O3'       -2.9880    8.9150    8.0130 O.3    77  U77        -0.3112
   1325  C2'       -0.9190    8.1140    6.9550 C.3    77  U77         0.2309
   1326  O2'       -1.5630    8.2500    5.7050 O.3    77  U77        -0.2156
   1327  C1'        0.4740    8.7440    6.8870 C.3    77  U77         0.2420
   1328  N1         1.4060    8.0990    7.8230 N.ar   77  U77        -0.2534
   1329  C2         2.0180    6.9470    7.3880 C.ar   77  U77         0.3546
   1330  O2         1.8290    6.4910    6.2790 O.2    77  U77        -0.2443
   1331  N3         2.8500    6.3510    8.3000 N.ar   77  U77        -0.1530
   1332  C4         3.1220    6.7880    9.5770 C.ar   77  U77         0.2846
   1333  O4         3.8650    6.1230   10.2950 O.2    77  U77        -0.2650
   1334  C5         2.4650    8.0020    9.9490 C.ar   77  U77         0.0814
   1335  C6         1.6470    8.6050    9.0740 C.ar   77  U77         0.0870
   1336  OP1       -1.3780   12.7210   11.3240 O.2    77  U77        -0.5172
   1337  OP2        0.4320   11.1510   12.2210 O.co2  77  U77        -0.4373
   1338  P         -3.7690    7.8090    8.8830 P.3    78  G78         0.2141
   1339  C5'       -4.0260    6.2350    6.8020 C.3    78  G78         0.1812
   1340  O5'       -3.5060    6.4480    8.1050 O.3    78  G78        -0.3114
   1341  C4'       -3.3820    5.0210    6.1850 C.3    78  G78         0.1773
   1342  O4'       -1.9370    5.1730    6.2310 O.3    78  G78        -0.3307
   1343  C3'       -3.6110    3.7070    6.9140 C.3    78  G78         0.1860
   1344  O3'       -4.8740    3.1330    6.5700 O.3    78  G78        -0.3112
   1345  C2'       -2.4620    2.8690    6.3700 C.3    78  G78         0.2309
   1346  O2'       -2.6900    2.4410    5.0470 O.3    78  G78        -0.2156
   1347  C1'       -1.3310    3.8950    6.3430 C.3    78  G78         0.2408
   1348  N1         2.2430    1.3560    8.9000 N.ar   78  G78        -0.1709
   1349  C2         1.6120    1.0340    7.7260 C.ar   78  G78         0.2606
   1350  N2         1.9890   -0.1080    7.1520 N.pl3  78  G78        -0.0859
   1351  N3         0.6750    1.7810    7.1560 N.ar   78  G78        -0.1918
   1352  C4         0.4090    2.8900    7.8740 C.ar   78  G78         0.1723
   1353  C5         0.9730    3.3000    9.0640 C.ar   78  G78         0.1748
   1354  C6         1.9910    2.4910    9.6550 C.ar   78  G78         0.3023
   1355  O6         2.6290    2.6920   10.6900 O.2    78  G78        -0.2633
   1356  N7         0.4090    4.4980    9.4880 N.ar   78  G78        -0.2173
   1357  C8        -0.4620    4.7930    8.5590 C.ar   78  G78         0.1817
   1358  N9        -0.5030    3.8660    7.5450 N.ar   78  G78        -0.2693
   1359  OP1       -5.2230    8.1410    8.8380 O.2    78  G78        -0.5172
   1360  OP2       -3.0860    7.7080   10.1960 O.co2  78  G78        -0.4373
   1361  P         -5.5830    2.0870    7.5780 P.3    79  U79         0.2141
   1362  C5'       -4.7140   -0.0380    6.3110 C.3    79  U79         0.1812
   1363  O5'       -4.6950    0.7690    7.4810 O.3    79  U79        -0.3114
   1364  C4'       -3.8240   -1.2410    6.4950 C.3    79  U79         0.1773
   1365  O4'       -2.4490   -0.8070    6.6650 O.3    79  U79        -0.3307
   1366  C3'       -4.0860   -2.0760    7.7370 C.3    79  U79         0.1860
   1367  O3'       -5.1700   -2.9710    7.5210 O.3    79  U79        -0.3112
   1368  C2'       -2.7650   -2.8200    7.8790 C.3    79  U79         0.2309
   1369  O2'       -2.6330   -3.9000    6.9740 O.3    79  U79        -0.2156
   1370  C1'       -1.7660   -1.7250    7.5040 C.3    79  U79         0.2420
   1371  N1        -1.2640   -0.9900    8.6720 N.ar   79  U79        -0.2534
   1372  C2        -0.2010   -1.5350    9.3670 C.ar   79  U79         0.3546
   1373  O2         0.3170   -2.5960    9.0620 O.2    79  U79        -0.2443
   1374  N3         0.2320   -0.7890   10.4330 N.ar   79  U79        -0.1530
   1375  C4        -0.2780    0.4190   10.8650 C.ar   79  U79         0.2846
   1376  O4         0.2690    1.0060   11.7960 O.2    79  U79        -0.2650
   1377  C5        -1.3860    0.9060   10.1010 C.ar   79  U79         0.0814
   1378  C6        -1.8300    0.2020    9.0580 C.ar   79  U79         0.0870
   1379  OP1       -6.9410    1.7780    7.0450 O.2    79  U79        -0.5172
   1380  OP2       -5.4410    2.6230    8.9530 O.co2  79  U79        -0.4373
   1381  P         -6.1740   -3.3170    8.7310 P.3    80  C80         0.2141
   1382  C5'       -4.9720   -5.6300    8.9930 C.3    80  C80         0.1812
   1383  O5'       -5.3890   -4.4060    9.5880 O.3    80  C80        -0.3114
   1384  C4'       -3.9100   -6.2860    9.8400 C.3    80  C80         0.1773
   1385  O4'       -2.7530   -5.4150    9.9270 O.3    80  C80        -0.3307
   1386  C3'       -4.2940   -6.5370   11.2890 C.3    80  C80         0.1860
   1387  O3'       -5.0130   -7.7640   11.4000 O.3    80  C80        -0.3112
   1388  C2'       -2.9300   -6.6370   11.9650 C.3    80  C80         0.2309
   1389  O2'       -2.3660   -7.9260   11.8320 O.3    80  C80        -0.2156
   1390  C1'       -2.1090   -5.6130   11.1740 C.3    80  C80         0.2420
   1391  N1        -1.9800   -4.3060   11.8410 N.ar   80  C80        -0.2535
   1392  C2        -0.9110   -4.1020   12.7160 C.ar   80  C80         0.3532
   1393  O2        -0.1090   -5.0260   12.9040 O.2    80  C80        -0.2443
   1394  N3        -0.7790   -2.9040   13.3320 N.ar   80  C80        -0.1739
   1395  C4        -1.6650   -1.9320   13.0960 C.ar   80  C80         0.1759
   1396  N4        -1.4910   -0.7630   13.7150 N.pl3  80  C80        -0.1070
   1397  C5        -2.7660   -2.1150   12.2110 C.ar   80  C80         0.0566
   1398  C6        -2.8840   -3.3070   11.6100 C.ar   80  C80         0.0850
   1399  OP1       -7.3750   -3.9640    8.1420 O.2    80  C80        -0.5172
   1400  OP2       -6.3310   -2.1090    9.5820 O.co2  80  C80        -0.4373
   1401  P         -6.2290   -7.8840   12.4460 P.3    81  C81         0.2141
   1402  C5'       -4.3680   -8.5390   14.1760 C.3    81  C81         0.1813
   1403  O5'       -5.5170   -7.7520   13.8680 O.3    81  C81        -0.3114
   1404  C4'       -3.8520   -8.2120   15.5580 C.3    81  C81         0.1801
   1405  O4'       -2.8750   -7.1470   15.4970 O.3    81  C81        -0.3306
   1406  C3'       -4.8590   -7.6530   16.5440 C.3    81  C81         0.2161
   1407  O3'       -5.7900   -8.6330   17.0320 O.3    81  C81        -0.2175
   1408  C2'       -3.9560   -7.0390   17.6160 C.3    81  C81         0.2338
   1409  O2'       -3.5500   -7.9710   18.5970 O.3    81  C81        -0.2155
   1410  C1'       -2.7330   -6.6030   16.7970 C.3    81  C81         0.2421
   1411  N1        -2.5740   -5.1420   16.6940 N.ar   81  C81        -0.2535
   1412  C2        -1.4040   -4.5640   17.1910 C.ar   81  C81         0.3532
   1413  O2        -0.5300   -5.3020   17.6680 O.2    81  C81        -0.2443
   1414  N3        -1.2530   -3.2200   17.1400 N.ar   81  C81        -0.1739
   1415  C4        -2.2160   -2.4610   16.6130 C.ar   81  C81         0.1759
   1416  N4        -2.0280   -1.1400   16.5960 N.pl3  81  C81        -0.1070
   1417  C5        -3.4150   -3.0250   16.0830 C.ar   81  C81         0.0566
   1418  C6        -3.5500   -4.3590   16.1420 C.ar   81  C81         0.0850
   1419  OP1       -6.7990   -9.2520   12.3240 O.3    81  C81        -0.4373
   1420  OP2       -7.1110   -6.7050   12.2440 O.co2  81  C81        -0.5172
@<TRIPOS>BOND
     1   718   717    2
     2   684   663    2
     3   719   717   ar
     4   719   720   ar
     5   704   686    2
     6   721   720    2
     7   717   716   ar
     8   720   722   ar
     9   293   275    2
    10   664   665    1
    11   664   666    1
    12   260   259    1
    13   647   663    1
    14   647   646    1
    15   649   648    1
    16   240   239    1
    17   663   665    1
    18   663   685    1
    19   258   275    1
    20   258   257    1
    21   716   715    1
    22   716   723   ar
    23   255   253    1
    24   255   256    1
    25   255   257    1
    26   253   254    1
    27   686   705    1
    28   686   669    1
    29   686   688    1
    30   722   723   ar
    31   710   715    1
    32   710   709    1
    33   669   668    1
    34   715   713    1
    35   666   668    1
    36   666   667    1
    37   644   646    1
    38   644   642    1
    39   644   645    1
    40   256   261    1
    41   275   277    1
    42   275   294    1
    43   273   252    2
    44   257   259    1
    45   725   706    2
    46   646   648    1
    47   259   261    1
    48   642   643    1
    49   648   650    1
    50   238   252    1
    51   238   237    1
    52   148   128    2
    53   239   237    1
    54   239   241    1
    55   688   687    1
    56   668   670    1
    57   277   276    1
    58   261   272    1
    59   708   706    1
    60   708   707    1
    61   254   252    1
    62   709   707    1
    63   709   711    1
    64   687   689    1
    65   645   650    1
    66   252   274    1
    67   667   672    1
    68   168   150    2
    69   627   626    1
    70   650   660    1
    71   235   237    1
    72   235   236    1
    73   235   233    1
    74   713   714    1
    75   713   711    1
    76   712   711    1
    77   712   726    1
    78   671   670    1
    79   706   724    1
    80   706   692    1
    81   745   726    2
    82   241   236    1
    83   241   242    1
    84   661   641    2
    85   244   243    2
    86   169   150    1
    87   643   641    1
    88   670   672    1
    89   691   689    1
    90   691   692    1
    91   691   693    1
    92   744   726    1
    93   276   278    1
    94   689   690    1
    95   726   728    1
    96   150   134    1
    97   150   152    1
    98   128   114    1
    99   128   149    1
   100   128   130    1
   101   278   279    1
   102   278   280    1
   103   272   271   ar
   104   272   266   ar
   105   672   683    1
   106   233   234    1
   107   625   641    1
   108   625   624    1
   109   114   113    1
   110   641   662    1
   111   129   130    1
   112   129   131    1
   113   279   284    1
   114   626   624    1
   115   626   628    1
   116   187   188   ar
   117   187   184   ar
   118   243   242   ar
   119   243   245   ar
   120   265   266   ar
   121   265   263   ar
   122   242   249   ar
   123   283   282    1
   124   188   189   ar
   125   660   654   ar
   126   660   659   ar
   127   693   694    1
   128   693   695    1
   129   134   133    1
   130   653   654   ar
   131   653   652   ar
   132   281   280    1
   133   281   295    1
   134   271   270   ar
   135   266   267   ar
   136   151   152    1
   137   151   153    1
   138   126   108    2
   139   624   622    1
   140   682   683   ar
   141   682   681   ar
   142   690   695    1
   143   622   623    1
   144   622   620    1
   145   683   677   ar
   146   280   282    1
   147   316   295    2
   148   628   623    1
   149   628   638    1
   150   654   655   ar
   151   109   111    1
   152   109   110    1
   153   116   115    1
   154   264   263    1
   155   131   133    1
   156   131   132    1
   157   728   727    1
   158   284   282    1
   159   284   285    1
   160   234   232    1
   161   111   113    1
   162   111   112    1
   163   220   219    1
   164   113   115    1
   165   659   658   ar
   166   263   262   ar
   167   631   630   ar
   168   631   632   ar
   169   245   246   ar
   170   186   185    1
   171   249   248   ar
   172   652   651   ar
   173   133   135    1
   174   695   696    1
   175   184   185   ar
   176   184   183   ar
   177   189   179    1
   178   189   183   ar
   179   295   297    1
   180   295   317    1
   181   703   696   ar
   182   703   702   ar
   183   296   297    1
   184   296   298    1
   185   620   621    1
   186   270   267   ar
   187   630   629   ar
   188   267   268   ar
   189   681   678   ar
   190   115   117    1
   191   179   174    1
   192   179   177    1
   193   250   232    2
   194   110   108    1
   195   727   729    1
   196   153   154    1
   197   153   155    1
   198   108    92    1
   199   108   127    1
   200   185   180   ar
   201   224   223    2
   202   638   632   ar
   203   638   637   ar
   204   677   676   ar
   205   677   678   ar
   206   696   697   ar
   207   632   633   ar
   208   702   700   ar
   209   655   658   ar
   210   655   656   ar
   211   132   137    1
   212   219   221    1
   213   219   217    1
   214   232   218    1
   215   232   251    1
   216   183   182   ar
   217   285   292   ar
   218   285   286   ar
   219   174   173    1
   220  1169  1151    2
   221   292   291   ar
   222   246   248   ar
   223   246   247    1
   224   112   117    1
   225   218   217    1
   226   136   135    1
   227    92    91    1
   228   262   268   ar
   229   154   159    1
   230   166   167   ar
   231   166   164   ar
   232   298   299    1
   233   298   300    1
   234   167   160   ar
   235   190   170    2
   236   178   177    1
   237   676   674   ar
   238  1106  1086    2
   239   135   137    1
   240   651   656   ar
   241   678   679   ar
   242    94    93    1
   243   268   269    2
   244   117   118    1
   245   621   619    1
   246   155   157    1
   247   155   156    1
   248   177   175    1
   249   607   606    1
   250   299   304    1
   251   629   634   ar
   252   742   743   ar
   253   742   740   ar
   254   611   610    2
   255   221   222    1
   256   221   216    1
   257   743   736   ar
   258   656   657    1
   259   287   286    2
   260   217   215    1
   261   223   222   ar
   262   223   225   ar
   263   137   147    1
   264   729   730    1
   265   729   731    1
   266   286   288   ar
   267   637   636   ar
   268   180   181   ar
   269   173   175    1
   270   173   171    1
   271   172   170    1
   272   172   171    1
   273  1134  1151    1
   274  1134  1133    1
   275   291   289   ar
   276   633   634   ar
   277   633   636   ar
   278   697   698    2
   279   697   699   ar
   280   157   159    1
   281   157   158    1
   282   336   318    2
   283   730   735    1
   284   182   181   ar
   285   301   300    1
   286   301   318    1
   287   731   733    1
   288   731   732    1
   289   700   699   ar
   290   700   701    2
   291   164   165    2
   292   164   163   ar
   293   159   160    1
   294   160   161   ar
   295  1151  1170    1
   296  1151  1153    1
   297   639   619    2
   298   170   156    1
   299   170   191    1
   300    91    93    1
   301    91    89    1
   302  1129  1131    1
   303  1129  1130    1
   304   300   302    1
   305  1149  1128    2
   306   733   735    1
   307   733   734    1
   308   215   216    1
   309   215   213    1
   310    93    95    1
   311   606   608    1
   312   606   604    1
   313   222   229   ar
   314  1088  1086    1
   315  1088  1087    1
   316   634   635    1
   317   674   675    1
   318   674   673   ar
   319   225   226   ar
   320  1131  1133    1
   321  1131  1132    1
   322   741   740    2
   323  1086  1070    1
   324  1086  1107    1
   325   740   739   ar
   326   175   176    1
   327   679   673   ar
   328   679   680    2
   329  1152  1153    1
   330  1152  1154    1
   331   764   746    2
   332   619   605    1
   333   619   640    1
   334   337   318    1
   335   118   125   ar
   336   118   119   ar
   337  1094  1093    1
   338   318   320    1
   339   610   612   ar
   340   610   609   ar
   341  1136  1135    1
   342    89    87    1
   343    89    90    1
   344   736   735    1
   345   736   737   ar
   346   304   302    1
   347   304   315    1
   348   147   146   ar
   349   147   141   ar
   350   146   145   ar
   351   605   604    1
   352   303   302    1
   353  1189  1171    2
   354   288   289   ar
   355   125   124   ar
   356   612   613   ar
   357  1133  1135    1
   358   289   290    1
   359   314   315   ar
   360   314   313   ar
   361   120   119    2
   362   608   609    1
   363   608   603    1
   364  1070  1069    1
   365  1116  1115    1
   366   163   161   ar
   367   732   746    1
   368    87    88    1
   369   161   162    2
   370  1089  1087    1
   371  1089  1090    1
   372  1089  1091    1
   373   765   746    1
   374   604   602    1
   375   119   121   ar
   376  1130  1128    1
   377  1132  1137    1
   378  1114  1128    1
   379  1114  1113    1
   380   176   192    1
   381   746   748    1
   382  1092  1091    1
   383  1092  1108    1
   384  1128  1150    1
   385   315   309   ar
   386   609   616   ar
   387    95    90    1
   388    95   105    1
   389   213   214    1
   390   739   737   ar
   391  1135  1137    1
   392   229   228   ar
   393  1126  1108    2
   394  1154  1156    1
   395  1154  1155    1
   396  1090  1095    1
   397  1067  1069    1
   398  1067  1065    1
   399  1067  1068    1
   400   226   227    2
   401   226   228   ar
   402   737   738    2
   403   106    86    2
   404   588   587    1
   405  1157  1171    1
   406  1157  1156    1
   407  1093  1091    1
   408  1093  1095    1
   409    88    86    1
   410  1171  1190    1
   411  1171  1173    1
   412   145   142   ar
   413   313   310   ar
   414   141   140   ar
   415   141   142   ar
   416  1069  1071    1
   417  1020   999    2
   418   124   122   ar
   419  1065  1066    1
   420   320   319    1
   421  1095  1105    1
   422   613   614    1
   423   613   615   ar
   424  1346  1345    1
   425  1137  1148    1
   426   602   603    1
   427   602   600    1
   428  1108  1127    1
   429  1108  1110    1
   430  1115  1113    1
   431  1115  1117    1
   432   214   212    1
   433  1068  1073    1
   434  1156  1158    1
   435   140   139   ar
   436   319   321    1
   437  1113  1111    1
   438    98    99   ar
   439    98    97   ar
   440   121   122   ar
   441  1111  1109    1
   442  1111  1112    1
   443   802   801    1
   444  1155  1160    1
   445  1050  1049    1
   446   105    99   ar
   447   105   104   ar
   448    86    72    1
   449    86   107    1
   450   616   615   ar
   451   997   979    2
   452   309   310   ar
   453   309   308   ar
   454   142   143   ar
   455  1326  1325    1
   456   980   982    1
   457   980   981    1
   458   748   747    1
   459   193   194    1
   460   193   195    1
   461   192   194    1
   462   192   211    2
   463   192   210    1
   464   122   123    2
   465   587   586   ar
   466   587   589   ar
   467   310   311   ar
   468  1073  1071    1
   469  1073  1083    1
   470    99   100   ar
   471   967   966    1
   472  1076  1075   ar
   473  1076  1077   ar
   474   586   592   ar
   475  1109  1110    1
   476    97    96   ar
   477   747   749    1
   478   985   999    1
   479   985   984    1
   480   965   979    1
   481   965   964    1
   482  1173  1172    1
   483  1341  1342    1
   484  1341  1339    1
   485  1341  1343    1
   486   982   984    1
   487   982   983    1
   488   999  1021    1
   489   999  1001    1
   490  1112  1117    1
   491   781   780    2
   492  1342  1347    1
   493  1117  1118    1
   494  1071  1072    1
   495  1084  1064    2
   496  1330  1329    2
   497  1362  1364    1
   498  1362  1363    1
   499  1066  1064    1
   500    72    71    1
   501  1347  1345    1
   502  1347  1358    1
   503  1075  1074   ar
   504   796   801   ar
   505   796   797   ar
   506  1345  1343    1
   507   308   306   ar
   508  1307  1308   ar
   509  1307  1306   ar
   510  1172  1174    1
   511  1148  1147   ar
   512  1148  1142   ar
   513   104   103   ar
   514  1105  1099   ar
   515  1105  1104   ar
   516   600   601    1
   517  1364  1365    1
   518  1364  1366    1
   519   801   800   ar
   520  1344  1343    1
   521  1344  1361    1
   522    74    73    1
   523  1159  1158    1
   524   820   819    2
   525  1158  1160    1
   526   962   960    1
   527   962   964    1
   528   962   963    1
   529  1098  1099   ar
   530  1098  1097   ar
   531  1365  1370    1
   532   979   981    1
   533   979   998    1
   534   821   819   ar
   535   821   822   ar
   536   139   138   ar
   537   823   822    1
   538  1339  1340    1
   539  1160  1161    1
   540  1048  1064    1
   541  1048  1047    1
   542   321   322    1
   543   321   323    1
   544   334   335   ar
   545   334   332   ar
   546   589   590   ar
   547   212   198    1
   548   212   231    2
   549   212   230    1
   550  1147  1146   ar
   551  1327  1325    1
   552  1327  1322    1
   553  1327  1328    1
   554  1168  1161   ar
   555  1168  1167   ar
   556  1049  1051    1
   557  1049  1047    1
   558  1308  1309   ar
   559   960   961    1
   560   335   328   ar
   561  1325  1323    1
   562  1369  1368    1
   563  1306  1311   ar
   564   195   197    1
   565   195   196    1
   566   322   327    1
   567   143   138   ar
   568   143   144    1
   569   984   986    1
   570  1379  1361    2
   571  1064  1085    1
   572   987   986    1
   573  1120  1119    2
   574  1077  1083   ar
   575  1077  1078   ar
   576   762   763   ar
   577   762   760   ar
   578  1083  1082   ar
   579   100   103   ar
   580   100   101   ar
   581   964   966    1
   582   601   599    1
   583   983   988    1
   584  1099  1100   ar
   585  1350  1349    1
   586  1351  1349   ar
   587  1351  1352   ar
   588   198   197    1
   589   592   593    2
   590   592   591   ar
   591   311   312    2
   592   311   305   ar
   593   819   818   ar
   594    96   101   ar
   595   966   968    1
   596  1322  1321    1
   597   780   782   ar
   598   780   779   ar
   599    73    71    1
   600    73    75    1
   601   763   756   ar
   602   822   824   ar
   603  1104  1103   ar
   604  1001  1000    1
   605  1329  1328   ar
   606  1329  1331   ar
   607  1210  1191    2
   608   963   968    1
   609   797   798   ar
   610   360   338    2
   611  1000  1002    1
   612  1363  1361    1
   613    71    69    1
   614  1370  1368    1
   615  1370  1371    1
   616  1141  1142   ar
   617  1141  1139   ar
   618  1367  1366    1
   619  1367  1381    1
   620  1142  1143   ar
   621   785   766    2
   622  1358  1352   ar
   623  1358  1357   ar
   624  1161  1162   ar
   625   782   783   ar
   626  1051  1046    1
   627  1051  1061    1
   628   945   944    1
   629  1361  1380    1
   630  1074  1079   ar
   631   749   750    1
   632   749   751    1
   633   306   305   ar
   634   306   307    1
   635  1167  1165   ar
   636  1047  1045    1
   637  1118  1119   ar
   638  1118  1125   ar
   639  1097  1096   ar
   640  1321  1323    1
   641  1321  1319    1
   642  1209  1191    1
   643   750   755    1
   644  1349  1348   ar
   645  1366  1368    1
   646   101   102    1
   647   323   324    1
   648   323   325    1
   649  1045  1046    1
   650  1045  1043    1
   651   197   199    1
   652  1328  1335   ar
   653   800   803   ar
   654   800   799   ar
   655   986   988    1
   656  1174  1175    1
   657  1174  1176    1
   658  1352  1353   ar
   659   968   969    1
   660  1119  1121   ar
   661   332   333    2
   662   332   331   ar
   663   196   201    1
   664   590   591   ar
   665   590   596   ar
   666   761   760    1
   667  1304  1303    1
   668  1324  1323    1
   669  1324  1338    1
   670   324   338    1
   671   977   959    2
   672   584   583    1
   673  1340  1338    1
   674   328   327    1
   675   328   329   ar
   676  1399  1381    2
   677   988   989    1
   678  1146  1143   ar
   679   760   759   ar
   680  1191  1177    1
   681  1191  1193    1
   682   591   594   ar
   683  1054  1053   ar
   684  1054  1055   ar
   685  1309  1310   ar
   686  1309  1315   ar
   687   359   338    1
   688   327   325    1
   689  1331  1332   ar
   690   961   959    1
   691  1311  1312    1
   692  1311  1310   ar
   693    78    77    2
   694   338   340    1
   695   803   804   ar
   696  1040  1022    2
   697  1078  1079   ar
   698  1078  1081   ar
   699  1082  1081   ar
   700   818   817    1
   701   818   825   ar
   702   779   777   ar
   703  1177  1176    1
   704  1100  1103   ar
   705  1100  1101   ar
   706   751   752    1
   707   751   753    1
   708   583   585    1
   709   583   581    1
   710  1175  1180    1
   711  1357  1356   ar
   712    69    67    1
   713    69    70    1
   714   816   815    1
   715  1143  1144   ar
   716   599   617    2
   717   599   618    1
   718   599   582    1
   719   756   755    1
   720   756   757   ar
   721  1079  1080    1
   722  1125  1124   ar
   723   824   825   ar
   724  1176  1178    1
   725  1371  1378   ar
   726  1371  1372   ar
   727   798   799   ar
   728  1139  1140    1
   729  1139  1138   ar
   730  1381  1400    1
   731  1381  1383    1
   732  1319  1320    1
   733    75    76    1
   734    75    70    1
   735   815   817    1
   736   815   813    1
   737  1061  1055   ar
   738  1061  1060   ar
   739   783   776   ar
   740  1359  1338    2
   741   799   805   ar
   742  1305  1303    1
   743  1305  1315    1
   744  1305  1300    1
   745  1002  1004    1
   746  1002  1003    1
   747  1053  1052   ar
   748  1303  1301    1
   749   944   946    1
   750   944   942    1
   751  1338  1360    1
   752   766   752    1
   753   766   784    1
   754   766   768    1
   755  1348  1354   ar
   756   949   948   ar
   757   949   950   ar
   758  1162  1163    2
   759  1162  1164   ar
   760   948   947   ar
   761  1188  1187   ar
   762  1188  1181   ar
   763   755   753    1
   764  1096  1101   ar
   765   325   326    1
   766   817   812    1
   767  1382  1383    1
   768  1382  1384    1
   769   959   943    1
   770   959   978    1
   771   943   942    1
   772  1310  1313   ar
   773  1165  1164   ar
   774  1165  1166    2
   775  1043  1044    1
   776   331   329   ar
   777  1378  1377   ar
   778  1373  1372    2
   779  1353  1356   ar
   780  1353  1354   ar
   781  1187  1185   ar
   782  1055  1056   ar
   783   200   199    1
   784  1335  1334   ar
   785  1004  1006    1
   786  1004  1005    1
   787   596   585    1
   788   596   595   ar
   789    77    76   ar
   790    77    79   ar
   791   199   201    1
   792  1315  1314   ar
   793  1044  1042    1
   794   329   330    2
   795   585   580    1
   796  1121  1122   ar
   797   201   202    1
   798  1023  1024    1
   799  1023  1025    1
   800   971   970    2
   801    67    68    1
   802   969   970   ar
   803   969   976   ar
   804  1372  1374   ar
   805  1101  1102    1
   806    76    83   ar
   807   759   757   ar
   808   989   996   ar
   809   989   990   ar
   810   582   581    1
   811  1250  1249    1
   812   594   595   ar
   813   996   995   ar
   814  1332  1334   ar
   815  1332  1333    2
   816   209   202   ar
   817   209   208   ar
   818  1193  1192    1
   819   804   805   ar
   820  1354  1355    2
   821  1006  1008    1
   822  1006  1007    1
   823   753   754    1
   824   946   941    1
   825   946   956    1
   826  1288  1287    2
   827   581   579    1
   828   757   758    2
   829  1003  1008    1
   830    79    80   ar
   831   777   776   ar
   832   777   778    2
   833   942   940    1
   834  1022  1005    1
   835  1022  1024    1
   836  1022  1041    1
   837   356   357   ar
   838   356   353   ar
   839   340   339    1
   840  1384  1385    1
   841  1384  1386    1
   842  1300  1299    1
   843  1138  1144   ar
   844   768   767    1
   845  1180  1181    1
   846  1180  1178    1
   847  1320  1318    1
   848  1144  1145    2
   849   776   775    1
   850  1385  1390    1
   851  1060  1059   ar
   852  1124  1122   ar
   853   947   952   ar
   854   805   795    1
   855   970   972   ar
   856  1181  1182   ar
   857   378   377    2
   858  1025  1026    1
   859  1025  1027    1
   860  1178  1179    1
   861  1018  1017   ar
   862  1018  1019   ar
   863   976   975   ar
   864  1377  1375   ar
   865   355   354    2
   866   571   570    1
   867   202   203   ar
   868   813   814    1
   869   813   811    1
   870  1052  1057   ar
   871  1271  1270    1
   872   950   956   ar
   873   950   951   ar
   874  1289  1287   ar
   875  1289  1290   ar
   876   550   549    1
   877   357   358   ar
   878  1122  1123    2
   879   940   941    1
   880   940   938    1
   881   847   828    2
   882    83    82   ar
   883  1301  1302    1
   884  1301  1299    1
   885   208   206   ar
   886  1313  1314   ar
   887   814   828    1
   888   812   811    1
   889  1185  1186    1
   890  1185  1184   ar
   891  1056  1059   ar
   892  1056  1057   ar
   893   843   842    1
   894  1062  1042    2
   895  1374  1375   ar
   896   991   990    2
   897  1008  1019    1
   898   529   528    1
   899  1302  1318    1
   900  1287  1286   ar
   901  1207  1208   ar
   902  1207  1205   ar
   903   956   955   ar
   904   442   441    1
   905  1299  1297    1
   906   990   992   ar
   907    80    82   ar
   908    80    81    1
   909   580   579    1
   910  1192  1194    1
   911  1042  1028    1
   912  1042  1063    1
   913    68    66    1
   914   807   786    2
   915   569   570   ar
   916   569   567   ar
   917  1291  1290    2
   918  1017  1014   ar
   919   995   993   ar
   920   503   502    1
   921  1249  1244   ar
   922  1249  1248   ar
   923   579   577    1
   924   844   842   ar
   925   844   845   ar
   926   400   399    1
   927  1019  1013   ar
   928  1375  1376    2
   929  1206  1205    1
   930   353   354   ar
   931   353   352   ar
   932   339   341    1
   933  1026  1031    1
   934  1057  1058    1
   935  1228  1227    2
   936  1233  1211    2
   937   846   828    1
   938   354   348   ar
   939   828   830    1
   940   570   572   ar
   941  1027  1028    1
   942  1027  1029    1
   943  1318  1336    2
   944  1318  1337    1
   945   811   809    1
   946  1290  1292   ar
   947  1208  1201   ar
   948  1390  1391    1
   949  1390  1388    1
   950   952   951   ar
   951   952   953    1
   952  1269  1270   ar
   953  1269  1267   ar
   954   842   841   ar
   955   767   769    1
   956  1251  1248   ar
   957  1251  1252   ar
   958   568   567    2
   959  1386  1387    1
   960  1386  1388    1
   961   775   770    1
   962   775   773    1
   963   544   549   ar
   964   544   545   ar
   965  1270  1272   ar
   966   770   769    1
   967  1182  1184   ar
   968  1182  1183    2
   969   377   371   ar
   970   377   376   ar
   971   951   954   ar
   972    84    66    2
   973   795   793    1
   974   795   790    1
   975   972   973   ar
   976   549   548   ar
   977   929   928    2
   978  1387  1401    1
   979  1205  1204   ar
   980   975   973   ar
   981  1244  1245   ar
   982   436   441   ar
   983   436   437   ar
   984   203   204    2
   985   203   205   ar
   986   421   420    2
   987   567   566   ar
   988  1248  1247   ar
   989   771   769    1
   990   771   773    1
   991   771   772    1
   992   441   440   ar
   993   358   352   ar
   994   358   347    1
   995  1398  1391   ar
   996  1398  1397   ar
   997   938   939    1
   998    55    54   ar
   999    55    56   ar
  1000   845   838   ar
  1001    66    85    1
  1002    66    50    1
  1003   793   791    1
  1004   793   794    1
  1005   342   341    1
  1006   342   347    1
  1007   206   205   ar
  1008   206   207    2
  1009   992   993   ar
  1010   528   530   ar
  1011   528   527   ar
  1012  1389  1388    1
  1013    54    59   ar
  1014  1391  1392   ar
  1015   993   994    1
  1016  1286  1285    1
  1017  1286  1293   ar
  1018  1229  1226   ar
  1019  1229  1230   ar
  1020   379   376   ar
  1021   379   380   ar
  1022   773   774    1
  1023   955   954   ar
  1024   502   504   ar
  1025   502   501   ar
  1026  1014  1013   ar
  1027  1014  1015   ar
  1028   352   351   ar
  1029  1194  1195    1
  1030  1194  1196    1
  1031  1297  1298    1
  1032   371   372   ar
  1033  1284  1283    1
  1034   499   498    1
  1035   786   788    1
  1036   786   772    1
  1037   786   806    1
  1038   973   974    1
  1039   530   531   ar
  1040  1013  1012   ar
  1041   906   905    1
  1042   419   420   ar
  1043   419   417   ar
  1044   341   343    1
  1045  1227  1226   ar
  1046  1227  1221   ar
  1047   810   809    1
  1048   810   808    1
  1049   788   787    1
  1050   399   394   ar
  1051   399   398   ar
  1052   376   375   ar
  1053  1397  1395   ar
  1054    56    57   ar
  1055   577   578    1
  1056  1285  1283    1
  1057  1285  1280    1
  1058  1420  1401    2
  1059  1031  1029    1
  1060  1031  1032    1
  1061  1195  1200    1
  1062   790   789    1
  1063   348   349   ar
  1064  1268  1267    2
  1065  1196  1197    1
  1066  1196  1198    1
  1067   904   905   ar
  1068   904   910   ar
  1069  1419  1401    1
  1070   572   573   ar
  1071  1283  1281    1
  1072  1267  1266   ar
  1073  1211  1197    1
  1074  1211  1232    1
  1075  1211  1213    1
  1076  1029  1030    1
  1077   911   910    2
  1078   504   505   ar
  1079   420   422   ar
  1080  1252  1253   ar
  1081   930   928   ar
  1082   930   931   ar
  1083   545   546   ar
  1084   928   927   ar
  1085    52    51    1
  1086   383   361    2
  1087   394   395   ar
  1088   841   839   ar
  1089  1401  1403    1
  1090   791   789    1
  1091   791   792    1
  1092   437   438   ar
  1093  1292  1293   ar
  1094  1201  1200    1
  1095  1201  1202   ar
  1096   347   345    1
  1097   578   576    1
  1098   925   924    1
  1099   830   829    1
  1100   865   864    2
  1101  1039  1032   ar
  1102  1039  1038   ar
  1103  1272  1273   ar
  1104  1226  1225   ar
  1105   418   417    2
  1106   827   808    2
  1107   343   344    1
  1108   343   345    1
  1109   548   551   ar
  1110   548   547   ar
  1111   939   937    1
  1112   501   507   ar
  1113    59    60    1
  1114    59    58   ar
  1115  1298  1296    1
  1116  1392  1393    2
  1117  1392  1394   ar
  1118  1204  1202   ar
  1119   527   525   ar
  1120  1245  1246   ar
  1121   440   443   ar
  1122   440   439   ar
  1123   480   479    1
  1124    51    49    1
  1125    51    53    1
  1126  1230  1231   ar
  1127   566   573   ar
  1128   566   565    1
  1129   905   907   ar
  1130  1247  1253   ar
  1131  1247  1246   ar
  1132   417   416   ar
  1133   838   839   ar
  1134   838   837    1
  1135   829   831    1
  1136   910   909   ar
  1137  1032  1033   ar
  1138    50    49    1
  1139   380   381   ar
  1140    57    58   ar
  1141    57    63   ar
  1142  1015  1016    2
  1143  1015  1009   ar
  1144   551   552   ar
  1145  1395  1394   ar
  1146  1395  1396    1
  1147  1012  1010   ar
  1148   924   926    1
  1149   924   922    1
  1150  1221  1222   ar
  1151   789   787    1
  1152  1200  1198    1
  1153   351   349   ar
  1154   398   401   ar
  1155   398   397   ar
  1156   808   792    1
  1157   808   826    1
  1158   443   444   ar
  1159  1038  1036   ar
  1160   498   500    1
  1161   498   496    1
  1162  1255  1234    2
  1163   888   887    2
  1164   401   402   ar
  1165  1202  1203    2
  1166   533   514    2
  1167   349   350    1
  1168   839   840    2
  1169    58    61   ar
  1170   531   524   ar
  1171  1213  1212    1
  1172   372   373    1
  1173   372   374   ar
  1174   832   837    1
  1175   832   831    1
  1176   344   361    1
  1177  1253  1243    1
  1178   345   346    1
  1179   375   381   ar
  1180   375   374   ar
  1181  1280  1279    1
  1182   932   931    1
  1183   926   927    1
  1184   926   921    1
  1185   931   933   ar
  1186   563   565    1
  1187   563   564    1
  1188   563   561    1
  1189  1198  1199    1
  1190  1266  1273   ar
  1191  1266  1265    1
  1192    49    47    1
  1193   927   934   ar
  1194   505   511   ar
  1195   505   506   ar
  1196   546   547   ar
  1197   438   439   ar
  1198   361   363    1
  1199   361   382    1
  1200   547   553   ar
  1201   395   396   ar
  1202   439   445   ar
  1203   500   511    1
  1204   500   495    1
  1205   864   858   ar
  1206   864   863   ar
  1207   422   423   ar
  1208   565   560    1
  1209    63    53    1
  1210    63    62   ar
  1211  1281  1282    1
  1212  1281  1279    1
  1213    53    48    1
  1214  1403  1402    1
  1215   598   576    2
  1216  1225  1231   ar
  1217  1225  1224   ar
  1218   479   478   ar
  1219   479   481   ar
  1220   507   506   ar
  1221   507   508    2
  1222   478   484   ar
  1223   837   835    1
  1224   576   597    1
  1225   576   562    1
  1226   831   833    1
  1227   525   524   ar
  1228   525   526    2
  1229  1231  1220    1
  1230   381   370    1
  1231   497   496    1
  1232   497   514    1
  1233  1009  1010   ar
  1234  1010  1011    1
  1235  1402  1404    1
  1236   937   923    1
  1237   937   957    2
  1238   937   958    1
  1239   881   887   ar
  1240   881   882   ar
  1241   907   908   ar
  1242  1296  1282    1
  1243  1296  1317    2
  1244  1296  1316    1
  1245    61    62   ar
  1246  1033  1034    2
  1247  1033  1035   ar
  1248   416   423   ar
  1249   416   415    1
  1250   887   886   ar
  1251   511   510   ar
  1252   524   523    1
  1253   552   553   ar
  1254   923   922    1
  1255   866   863   ar
  1256   866   867   ar
  1257   909   908   ar
  1258   909   912   ar
  1259   858   859   ar
  1260   444   445   ar
  1261   506   509   ar
  1262  1279  1277    1
  1263   922   920    1
  1264   496   494    1
  1265  1222  1224   ar
  1266  1222  1223    1
  1267   561   562    1
  1268   561   559    1
  1269   397   396   ar
  1270   397   403   ar
  1271   363   362    1
  1272   514   532    1
  1273   514   516    1
  1274  1036  1035   ar
  1275  1036  1037    2
  1276  1234  1254    1
  1277  1234  1236    1
  1278  1234  1217    1
  1279   402   403   ar
  1280   833   835    1
  1281   833   834    1
  1282   863   862   ar
  1283  1212  1214    1
  1284   870   848    2
  1285   934   933   ar
  1286   414   413    1
  1287   495   494    1
  1288  1265  1263    1
  1289  1265  1260    1
  1290   445   435    1
  1291   553   543    1
  1292  1243  1238    1
  1293  1243  1241    1
  1294   921   920    1
  1295  1238  1237    1
  1296   908   914   ar
  1297    47    48    1
  1298    47    45    1
  1299  1216  1214    1
  1300  1216  1217    1
  1301  1216  1218    1
  1302   481   482   ar
  1303   883   882    1
  1304   494   492    1
  1305   485   484    2
  1306  1235  1236    1
  1307  1235  1237    1
  1308    33    32    1
  1309   484   483   ar
  1310   560   559    1
  1311   835   836    1
  1312    31    32   ar
  1313    31    37   ar
  1314  1215  1220    1
  1315  1215  1214    1
  1316   555   534    2
  1317    38    37    2
  1318   415   413    1
  1319   415   410    1
  1320  1220  1218    1
  1321   882   884   ar
  1322   920   918    1
  1323  1263  1264    1
  1324  1263  1261    1
  1325   403   393    1
  1326   515   516    1
  1327   515   517    1
  1328   912   913   ar
  1329   370   365    1
  1330   370   368    1
  1331  1405  1404    1
  1332  1405  1410    1
  1333  1218  1219    1
  1334   510   509   ar
  1335  1404  1406    1
  1336   365   364    1
  1337   867   868   ar
  1338   834   848    1
  1339   886   889   ar
  1340   886   885   ar
  1341    32    34   ar
  1342    37    36   ar
  1343   559   557    1
  1344   413   411    1
  1345  1237  1239    1
  1346   523   518    1
  1347   523   521    1
  1348   859   860    1
  1349   859   861   ar
  1350   362   364    1
  1351  1260  1259    1
  1352   405   384    2
  1353  1277  1278    1
  1354   518   517    1
  1355  1278  1276    1
  1356  1241  1239    1
  1357  1241  1242    1
  1358  1239  1240    1
  1359    46    45    1
  1360    46    44    1
  1361   575   556    2
  1362   848   850    1
  1363   848   869    1
  1364   862   868   ar
  1365   862   861   ar
  1366   519   517    1
  1367   519   521    1
  1368   519   520    1
  1369   482   483   ar
  1370   482   488   ar
  1371   558   557    1
  1372   558   556    1
  1373  1417  1418   ar
  1374  1417  1415   ar
  1375   889   890   ar
  1376   435   430    1
  1377   435   433    1
  1378  1275  1256    2
  1379  1418  1411   ar
  1380   483   486   ar
  1381   543   541    1
  1382   543   538    1
  1383   366   364    1
  1384   366   368    1
  1385   366   367    1
  1386   914   913   ar
  1387   914   903    1
  1388  1261  1259    1
  1389  1261  1262    1
  1390   521   522    1
  1391   368   369    1
  1392   410   409    1
  1393   492   493    1
  1394    34    35   ar
  1395   541   539    1
  1396   541   542    1
  1397  1406  1407    1
  1398  1406  1408    1
  1399   868   857    1
  1400   884   885   ar
  1401   430   429    1
  1402  1416  1415    1
  1403  1415  1414   ar
  1404    36    35   ar
  1405    36    39   ar
  1406   534   536    1
  1407   534   520    1
  1408   534   554    1
  1409   885   891   ar
  1410  1411  1410    1
  1411  1411  1412   ar
  1412    65    44    2
  1413   536   535    1
  1414   850   849    1
  1415  1410  1408    1
  1416   918   919    1
  1417   393   388    1
  1418   393   391    1
  1419  1258  1256    1
  1420  1258  1257    1
  1421  1295  1276    2
  1422   556   540    1
  1423   556   574    1
  1424   539   540    1
  1425   539   537    1
  1426    35    41   ar
  1427  1259  1257    1
  1428   412   411    1
  1429   412   426    1
  1430    44    64    1
  1431    44    27    1
  1432   538   537    1
  1433   411   409    1
  1434   384   367    1
  1435   384   386    1
  1436   384   404    1
  1437  1414  1412   ar
  1438  1240  1256    1
  1439  1276  1262    1
  1440  1276  1294    1
  1441   433   434    1
  1442   433   431    1
  1443  1412  1413    2
  1444   919   917    1
  1445  1256  1274    1
  1446   493   491    1
  1447   488   477    1
  1448   488   487   ar
  1449   476   475    1
  1450   903   901    1
  1451   903   898    1
  1452    39    40   ar
  1453   386   385    1
  1454   388   387    1
  1455   890   891   ar
  1456   901   902    1
  1457   901   899    1
  1458   475   477    1
  1459   475   473    1
  1460   486   487   ar
  1461   391   389    1
  1462   391   392    1
  1463   447   426    2
  1464   477   472    1
  1465  1408  1409    1
  1466   409   407    1
  1467   425   406    2
  1468   537   535    1
  1469   891   880    1
  1470   428   426    1
  1471   428   427    1
  1472    28    29    1
  1473    28    26    1
  1474    28    30    1
  1475    41    40   ar
  1476    41    30    1
  1477   857   852    1
  1478   857   855    1
  1479   852   851    1
  1480   426   446    1
  1481   429   427    1
  1482   429   431    1
  1483   389   387    1
  1484   389   390    1
  1485   408   407    1
  1486   408   406    1
  1487   849   851    1
  1488    27    26    1
  1489   387   385    1
  1490   431   432    1
  1491   899   900    1
  1492   899   897    1
  1493    26    24    1
  1494   898   897    1
  1495    30    25    1
  1496   893   871    2
  1497   851   853    1
  1498    17    16    2
  1499   917   936    2
  1500   917   900    1
  1501   917   935    1
  1502   406   390    1
  1503   406   424    1
  1504   473   474    1
  1505   473   471    1
  1506   853   855    1
  1507   853   854    1
  1508   491   474    1
  1509   491   513    2
  1510   491   512    1
  1511   855   856    1
  1512   472   471    1
  1513   432   448    1
  1514   880   878    1
  1515   880   875    1
  1516     2     1    1
  1517   916   894    2
  1518   897   895    1
  1519    16    10   ar
  1520    16    15   ar
  1521   896   894    1
  1522   896   895    1
  1523   878   876    1
  1524   878   879    1
  1525    43    21    2
  1526   471   469    1
  1527    18    15   ar
  1528    18    19   ar
  1529    25    24    1
  1530    24    22    1
  1531   871   854    1
  1532   871   873    1
  1533   871   892    1
  1534    10    11   ar
  1535   875   874    1
  1536   873   872    1
  1537    15    14   ar
  1538    23    21    1
  1539    23    22    1
  1540   876   874    1
  1541   876   877    1
  1542     1     3    1
  1543   894   877    1
  1544   894   915    1
  1545     6    21    1
  1546     6     5    1
  1547    19    20   ar
  1548   448   467    2
  1549   448   450    1
  1550   448   466    1
  1551    21    42    1
  1552     5     3    1
  1553     5     7    1
  1554   470   469    1
  1555   470   468    1
  1556    11    12    1
  1557    11    13   ar
  1558    14    20   ar
  1559    14    13   ar
  1560   874   872    1
  1561   450   449    1
  1562   490   468    2
  1563    20     9    1
  1564     3     4    1
  1565   449   451    1
  1566     7     9    1
  1567     7     8    1
  1568   468   454    1
  1569   468   489    1
  1570     4     9    1
  1571   453   451    1
  1572   453   454    1
  1573   453   455    1
  1574   451   452    1
  1575   455   456    1
  1576   455   457    1
  1577   452   457    1
  1578   457   458    1
  1579   465   464   ar
  1580   465   458   ar
  1581   464   462   ar
  1582   458   459   ar
  1583   459   461   ar
  1584   459   460    2
  1585   462   461   ar
  1586   462   463    2
