ligand
  PyMOL2.2          3D                             0

 10  9  0  0  0  0  0  0  0  0999 V2000
   32.6860   15.8540   20.1850 N   0  0  0  0  0  0  0  0  0  0  0  0
   32.0860   16.6220   21.2600 C   0  0  0  0  0  0  0  0  0  0  0  0
   33.1240   17.0070   22.2800 C   0  0  0  0  0  0  0  0  0  0  0  0
   34.3390   16.8510   22.0010 O   0  0  0  0  0  0  0  0  0  0  0  0
   30.9790   15.8040   21.9110 C   0  0  0  0  0  0  0  0  0  0  0  0
   29.9410   15.5940   20.9570 O   0  0  0  0  0  0  0  0  0  0  0  0
   28.7600   15.2330   21.6730 C   0  0  0  0  0  0  0  0  0  0  0  0
   27.5760   15.3030   20.7110 C   0  0  0  0  0  0  0  0  0  0  0  0
   27.5970   14.1630   19.8110 N   0  0  0  0  0  0  0  0  0  0  0  0
   32.7820   17.8770   23.1060 O   0  0  0  0  0  0  0  0  0  0  0  0
  1  2  1  0  0  0  0
  2  5  1  0  0  0  0
  2  3  1  0  0  0  0
  3  4  1  0  0  0  0
  5  6  1  0  0  0  0
  6  7  1  0  0  0  0
  7  8  1  0  0  0  0
  8  9  1  0  0  0  0
  3 10  1  0  0  0  0
M  END
$$$$
