ligand
 OpenBabel11021811473D
libRbt.so/2013.1/901 2013/11/27
 10  9  0  0  0  0  0  0  0  0999 V2000
   32.1539   15.8208   20.7642 N   0  0  0  0  0  0  0  0  0  0  0  0
   31.5254   16.8910   21.5161 C   0  0  2  0  0  0  0  0  0  0  0  0
   32.5090   17.5196   22.4667 C   0  0  0  0  0  0  0  0  0  0  0  0
   32.1991   18.5928   23.0417 O   0  0  0  0  0  0  0  0  0  0  0  0
   30.3279   16.3399   22.2781 C   0  0  0  0  0  0  0  0  0  0  0  0
   29.2990   16.0170   21.3460 O   0  0  0  0  0  0  0  0  0  0  0  0
   28.2526   15.3632   22.0638 C   0  0  0  0  0  0  0  0  0  0  0  0
   27.1067   15.0852   21.0933 C   0  0  0  0  0  0  0  0  0  0  0  0
   27.5979   14.3532   19.9388 N   0  0  0  0  0  0  0  0  0  0  0  0
   33.3282   16.7431   22.9978 O   0  0  0  0  0  0  0  0  0  0  0  0
  2  1  1  1  0  0  0
  2  5  1  0  0  0  0
  2  3  1  0  0  0  0
  3  4  1  0  0  0  0
  3 10  1  0  0  0  0
  5  6  1  0  0  0  0
  6  7  1  0  0  0  0
  7  8  1  0  0  0  0
  8  9  1  0  0  0  0
M  END
>  <CHROM.1>
-70.31127334,168.87081384,173.46296232,176.68649668,53.98242503,30.45633158
16.29456768,21.77687095,-0.53479636,-0.11902692,-2.33772793

>  <Name>
ligand

>  <RI>
0

>  <Rbt.Current_Directory>
/home/itssahil/PROJECTS/Mol_Feturizer/New_Systems/rnas/3DJ0

>  <Rbt.Executable>
rbdock ($Id: //depot/dev/client3/rdock/2013.1/src/exe/rbdock.cxx#4 $)

>  <Rbt.Library>
libRbt.so (2013.1, Build901 2013/11/27)

>  <Rbt.Parameter_File>
/export/apps/rDock/src/rDock_2013.1_src/data/scripts/dock_solv.prm

>  <Rbt.Receptor>
prm/pocket_docking_2.prm

>  <SCORE>
-6.62109

>  <SCORE.INTER>
-5.31773

>  <SCORE.INTER.CONST>
1

>  <SCORE.INTER.POLAR>
0

>  <SCORE.INTER.ROT>
5

>  <SCORE.INTER.SOLV>
18.3061

>  <SCORE.INTER.VDW>
-16.5805

>  <SCORE.INTER.norm>
-0.531773

>  <SCORE.INTRA>
-1.30336

>  <SCORE.INTRA.DIHEDRAL>
-2.95974

>  <SCORE.INTRA.DIHEDRAL.0>
6.00299

>  <SCORE.INTRA.POLAR>
0

>  <SCORE.INTRA.POLAR.0>
0

>  <SCORE.INTRA.REPUL>
0

>  <SCORE.INTRA.REPUL.0>
0

>  <SCORE.INTRA.SOLV>
0.352821

>  <SCORE.INTRA.SOLV.lig_0>
-39.3257

>  <SCORE.INTRA.VDW>
0.00010473

>  <SCORE.INTRA.VDW.0>
-0.734044

>  <SCORE.INTRA.norm>
-0.130336

>  <SCORE.RESTR>
0

>  <SCORE.RESTR.CAVITY>
0

>  <SCORE.RESTR.norm>
0

>  <SCORE.SYSTEM>
0

>  <SCORE.SYSTEM.CONST>
0

>  <SCORE.SYSTEM.DIHEDRAL>
0

>  <SCORE.SYSTEM.SOLV>
0

>  <SCORE.SYSTEM.norm>
0

>  <SCORE.heavy>
10

>  <SCORE.norm>
-0.662109

>  <RMSD>
0.843

$$$$
ligand
 OpenBabel11021811473D
libRbt.so/2013.1/901 2013/11/27
 10  9  0  0  0  0  0  0  0  0999 V2000
   32.4321   15.5843   20.7529 N   0  0  0  0  0  0  0  0  0  0  0  0
   31.9128   16.7216   21.4892 C   0  0  2  0  0  0  0  0  0  0  0  0
   33.0095   17.3911   22.2734 C   0  0  0  0  0  0  0  0  0  0  0  0
   34.2050   17.1806   21.9499 O   0  0  0  0  0  0  0  0  0  0  0  0
   30.8006   16.2580   22.4202 C   0  0  0  0  0  0  0  0  0  0  0  0
   29.7466   15.7038   21.6368 O   0  0  0  0  0  0  0  0  0  0  0  0
   28.6807   15.3624   22.5228 C   0  0  0  0  0  0  0  0  0  0  0  0
   27.5479   14.7551   21.6981 C   0  0  0  0  0  0  0  0  0  0  0  0
   27.1548   15.6706   20.6410 N   0  0  0  0  0  0  0  0  0  0  0  0
   32.6987   18.4524   22.8508 O   0  0  0  0  0  0  0  0  0  0  0  0
  2  1  1  1  0  0  0
  2  5  1  0  0  0  0
  2  3  1  0  0  0  0
  3  4  1  0  0  0  0
  3 10  1  0  0  0  0
  5  6  1  0  0  0  0
  6  7  1  0  0  0  0
  7  8  1  0  0  0  0
  8  9  1  0  0  0  0
M  END
>  <CHROM.1>
-61.46499986,19.16105342,-176.07337350,-179.50000926,-55.27038393,30.85359777
16.33074009,21.83624844,-0.34126904,-0.18300435,-2.38632029

>  <Name>
ligand

>  <RI>
0

>  <Rbt.Current_Directory>
/home/itssahil/PROJECTS/Mol_Feturizer/New_Systems/rnas/3DJ0

>  <Rbt.Executable>
rbdock ($Id: //depot/dev/client3/rdock/2013.1/src/exe/rbdock.cxx#4 $)

>  <Rbt.Library>
libRbt.so (2013.1, Build901 2013/11/27)

>  <Rbt.Parameter_File>
/export/apps/rDock/src/rDock_2013.1_src/data/scripts/dock_solv.prm

>  <Rbt.Receptor>
prm/pocket_docking_2.prm

>  <SCORE>
-6.09235

>  <SCORE.INTER>
-4.86513

>  <SCORE.INTER.CONST>
1

>  <SCORE.INTER.POLAR>
0

>  <SCORE.INTER.ROT>
5

>  <SCORE.INTER.SOLV>
20.2165

>  <SCORE.INTER.VDW>
-16.9156

>  <SCORE.INTER.norm>
-0.486513

>  <SCORE.INTRA>
-1.22722

>  <SCORE.INTRA.DIHEDRAL>
-3.05339

>  <SCORE.INTRA.DIHEDRAL.0>
6.00299

>  <SCORE.INTRA.POLAR>
0

>  <SCORE.INTRA.POLAR.0>
0

>  <SCORE.INTRA.REPUL>
0

>  <SCORE.INTRA.REPUL.0>
0

>  <SCORE.INTRA.SOLV>
0.379891

>  <SCORE.INTRA.SOLV.lig_0>
-39.3257

>  <SCORE.INTRA.VDW>
0.109531

>  <SCORE.INTRA.VDW.0>
-0.734044

>  <SCORE.INTRA.norm>
-0.122722

>  <SCORE.RESTR>
0

>  <SCORE.RESTR.CAVITY>
0

>  <SCORE.RESTR.norm>
0

>  <SCORE.SYSTEM>
0

>  <SCORE.SYSTEM.CONST>
0

>  <SCORE.SYSTEM.DIHEDRAL>
0

>  <SCORE.SYSTEM.SOLV>
0

>  <SCORE.SYSTEM.norm>
0

>  <SCORE.heavy>
10

>  <SCORE.norm>
-0.609235

>  <RMSD>
0.862

$$$$
ligand
 OpenBabel11021811473D
libRbt.so/2013.1/901 2013/11/27
 10  9  0  0  0  0  0  0  0  0999 V2000
   32.4267   15.5935   20.7594 N   0  0  0  0  0  0  0  0  0  0  0  0
   31.8902   16.7329   21.4800 C   0  0  2  0  0  0  0  0  0  0  0  0
   32.9771   17.4308   22.2532 C   0  0  0  0  0  0  0  0  0  0  0  0
   34.1653   17.3321   21.8574 O   0  0  0  0  0  0  0  0  0  0  0  0
   30.7865   16.2653   22.4189 C   0  0  0  0  0  0  0  0  0  0  0  0
   29.7362   15.6923   21.6441 O   0  0  0  0  0  0  0  0  0  0  0  0
   28.6715   15.3597   22.5349 C   0  0  0  0  0  0  0  0  0  0  0  0
   27.5256   14.7721   21.7140 C   0  0  0  0  0  0  0  0  0  0  0  0
   27.1378   15.6987   20.6648 N   0  0  0  0  0  0  0  0  0  0  0  0
   32.6228   18.4261   22.9165 O   0  0  0  0  0  0  0  0  0  0  0  0
  2  1  1  1  0  0  0
  2  5  1  0  0  0  0
  2  3  1  0  0  0  0
  3  4  1  0  0  0  0
  3 10  1  0  0  0  0
  5  6  1  0  0  0  0
  6  7  1  0  0  0  0
  7  8  1  0  0  0  0
  8  9  1  0  0  0  0
M  END
>  <CHROM.1>
-61.88322568,25.56572832,-175.47499191,178.78270691,-55.28372416,30.82803755
16.35370499,21.83698507,-0.33585670,-0.20370923,-2.35915145

>  <Name>
ligand

>  <RI>
0

>  <Rbt.Current_Directory>
/home/itssahil/PROJECTS/Mol_Feturizer/New_Systems/rnas/3DJ0

>  <Rbt.Executable>
rbdock ($Id: //depot/dev/client3/rdock/2013.1/src/exe/rbdock.cxx#4 $)

>  <Rbt.Library>
libRbt.so (2013.1, Build901 2013/11/27)

>  <Rbt.Parameter_File>
/export/apps/rDock/src/rDock_2013.1_src/data/scripts/dock_solv.prm

>  <Rbt.Receptor>
prm/pocket_docking_8.prm

>  <SCORE>
-6.02711

>  <SCORE.INTER>
-4.85635

>  <SCORE.INTER.CONST>
1

>  <SCORE.INTER.POLAR>
0

>  <SCORE.INTER.ROT>
5

>  <SCORE.INTER.SOLV>
20.2803

>  <SCORE.INTER.VDW>
-16.931

>  <SCORE.INTER.norm>
-0.485635

>  <SCORE.INTRA>
-1.17075

>  <SCORE.INTRA.DIHEDRAL>
-3.08463

>  <SCORE.INTRA.DIHEDRAL.0>
6.00299

>  <SCORE.INTRA.POLAR>
0

>  <SCORE.INTRA.POLAR.0>
0

>  <SCORE.INTRA.REPUL>
0

>  <SCORE.INTRA.REPUL.0>
0

>  <SCORE.INTRA.SOLV>
0.373626

>  <SCORE.INTRA.SOLV.lig_0>
-39.3257

>  <SCORE.INTRA.VDW>
0.184746

>  <SCORE.INTRA.VDW.0>
-0.734044

>  <SCORE.INTRA.norm>
-0.117075

>  <SCORE.RESTR>
0

>  <SCORE.RESTR.CAVITY>
0

>  <SCORE.RESTR.norm>
0

>  <SCORE.SYSTEM>
0

>  <SCORE.SYSTEM.CONST>
0

>  <SCORE.SYSTEM.DIHEDRAL>
0

>  <SCORE.SYSTEM.SOLV>
0

>  <SCORE.SYSTEM.norm>
0

>  <SCORE.heavy>
10

>  <SCORE.norm>
-0.602711

>  <RMSD>
0.883

$$$$
ligand
 OpenBabel11021811473D
libRbt.so/2013.1/901 2013/11/27
 10  9  0  0  0  0  0  0  0  0999 V2000
   32.4573   15.6552   20.7783 N   0  0  0  0  0  0  0  0  0  0  0  0
   31.9242   16.7672   21.5430 C   0  0  2  0  0  0  0  0  0  0  0  0
   33.0160   17.4411   22.3303 C   0  0  0  0  0  0  0  0  0  0  0  0
   34.2072   17.3136   21.9518 O   0  0  0  0  0  0  0  0  0  0  0  0
   30.8303   16.2638   22.4747 C   0  0  0  0  0  0  0  0  0  0  0  0
   29.7789   15.7062   21.6902 O   0  0  0  0  0  0  0  0  0  0  0  0
   28.7142   15.3590   22.5753 C   0  0  0  0  0  0  0  0  0  0  0  0
   27.5686   14.7843   21.7448 C   0  0  0  0  0  0  0  0  0  0  0  0
   27.1959   15.7180   20.6963 N   0  0  0  0  0  0  0  0  0  0  0  0
   32.6759   18.4459   22.9866 O   0  0  0  0  0  0  0  0  0  0  0  0
  2  1  1  1  0  0  0
  2  5  1  0  0  0  0
  2  3  1  0  0  0  0
  3  4  1  0  0  0  0
  3 10  1  0  0  0  0
  5  6  1  0  0  0  0
  6  7  1  0  0  0  0
  7  8  1  0  0  0  0
  8  9  1  0  0  0  0
M  END
>  <CHROM.1>
-61.47468864,22.64253705,-174.57182116,178.93381397,-54.31605833,30.87111748
16.36826394,21.89025631,-0.33701461,-0.20686704,-2.33575572

>  <Name>
ligand

>  <RI>
0

>  <Rbt.Current_Directory>
/home/itssahil/PROJECTS/Mol_Feturizer/New_Systems/rnas/3DJ0

>  <Rbt.Executable>
rbdock ($Id: //depot/dev/client3/rdock/2013.1/src/exe/rbdock.cxx#4 $)

>  <Rbt.Library>
libRbt.so (2013.1, Build901 2013/11/27)

>  <Rbt.Parameter_File>
/export/apps/rDock/src/rDock_2013.1_src/data/scripts/dock_solv.prm

>  <Rbt.Receptor>
prm/pocket_docking_6.prm

>  <SCORE>
-6.03988

>  <SCORE.INTER>
-4.90116

>  <SCORE.INTER.CONST>
1

>  <SCORE.INTER.POLAR>
0

>  <SCORE.INTER.ROT>
5

>  <SCORE.INTER.SOLV>
20.0554

>  <SCORE.INTER.VDW>
-16.8859

>  <SCORE.INTER.norm>
-0.490116

>  <SCORE.INTRA>
-1.13873

>  <SCORE.INTRA.DIHEDRAL>
-2.97449

>  <SCORE.INTRA.DIHEDRAL.0>
6.00299

>  <SCORE.INTRA.POLAR>
0

>  <SCORE.INTRA.POLAR.0>
0

>  <SCORE.INTRA.REPUL>
0

>  <SCORE.INTRA.REPUL.0>
0

>  <SCORE.INTRA.SOLV>
0.389249

>  <SCORE.INTRA.SOLV.lig_0>
-39.3257

>  <SCORE.INTRA.VDW>
0.153892

>  <SCORE.INTRA.VDW.0>
-0.734044

>  <SCORE.INTRA.norm>
-0.113873

>  <SCORE.RESTR>
0

>  <SCORE.RESTR.CAVITY>
0

>  <SCORE.RESTR.norm>
0

>  <SCORE.SYSTEM>
0

>  <SCORE.SYSTEM.CONST>
0

>  <SCORE.SYSTEM.DIHEDRAL>
0

>  <SCORE.SYSTEM.SOLV>
0

>  <SCORE.SYSTEM.norm>
0

>  <SCORE.heavy>
10

>  <SCORE.norm>
-0.603988

>  <RMSD>
0.895

$$$$
ligand
 OpenBabel11021811473D
libRbt.so/2013.1/901 2013/11/27
 10  9  0  0  0  0  0  0  0  0999 V2000
   31.9976   16.1643   20.5920 N   0  0  0  0  0  0  0  0  0  0  0  0
   31.3851   17.0839   21.5326 C   0  0  2  0  0  0  0  0  0  0  0  0
   32.4127   17.6259   22.4898 C   0  0  0  0  0  0  0  0  0  0  0  0
   32.1405   18.6551   23.1569 O   0  0  0  0  0  0  0  0  0  0  0  0
   30.2763   16.3685   22.2922 C   0  0  0  0  0  0  0  0  0  0  0  0
   29.2173   16.0696   21.3862 O   0  0  0  0  0  0  0  0  0  0  0  0
   28.2339   15.3205   22.0999 C   0  0  0  0  0  0  0  0  0  0  0  0
   27.0700   15.0335   21.1538 C   0  0  0  0  0  0  0  0  0  0  0  0
   27.5520   14.3596   19.9607 N   0  0  0  0  0  0  0  0  0  0  0  0
   33.2398   16.8012   22.9280 O   0  0  0  0  0  0  0  0  0  0  0  0
  2  1  1  6  0  0  0
  2  5  1  0  0  0  0
  2  3  1  0  0  0  0
  3  4  1  0  0  0  0
  3 10  1  0  0  0  0
  5  6  1  0  0  0  0
  6  7  1  0  0  0  0
  7  8  1  0  0  0  0
  8  9  1  0  0  0  0
M  END
>  <CHROM.1>
-67.69812149,163.29582474,176.09052916,178.09824884,55.63016808,30.37951390
16.36840316,21.78611676,-0.53081378,-0.21025315,-2.22856230

>  <Name>
ligand

>  <RI>
0

>  <Rbt.Current_Directory>
/home/itssahil/PROJECTS/Mol_Feturizer/New_Systems/rnas/3DJ0

>  <Rbt.Executable>
rbdock ($Id: //depot/dev/client3/rdock/2013.1/src/exe/rbdock.cxx#4 $)

>  <Rbt.Library>
libRbt.so (2013.1, Build901 2013/11/27)

>  <Rbt.Parameter_File>
/export/apps/rDock/src/rDock_2013.1_src/data/scripts/dock_solv.prm

>  <Rbt.Receptor>
prm/pocket_docking_2.prm

>  <SCORE>
-6.67841

>  <SCORE.INTER>
-5.17366

>  <SCORE.INTER.CONST>
1

>  <SCORE.INTER.POLAR>
0

>  <SCORE.INTER.ROT>
5

>  <SCORE.INTER.SOLV>
18.1914

>  <SCORE.INTER.VDW>
-16.4462

>  <SCORE.INTER.norm>
-0.517366

>  <SCORE.INTRA>
-1.50475

>  <SCORE.INTRA.DIHEDRAL>
-3.24218

>  <SCORE.INTRA.DIHEDRAL.0>
6.00299

>  <SCORE.INTRA.POLAR>
0

>  <SCORE.INTRA.POLAR.0>
0

>  <SCORE.INTRA.REPUL>
0

>  <SCORE.INTRA.REPUL.0>
0

>  <SCORE.INTRA.SOLV>
0.333962

>  <SCORE.INTRA.SOLV.lig_0>
-39.3257

>  <SCORE.INTRA.VDW>
-0.0506404

>  <SCORE.INTRA.VDW.0>
-0.734044

>  <SCORE.INTRA.norm>
-0.150475

>  <SCORE.RESTR>
0

>  <SCORE.RESTR.CAVITY>
0

>  <SCORE.RESTR.norm>
0

>  <SCORE.SYSTEM>
0

>  <SCORE.SYSTEM.CONST>
0

>  <SCORE.SYSTEM.DIHEDRAL>
0

>  <SCORE.SYSTEM.SOLV>
0

>  <SCORE.SYSTEM.norm>
0

>  <SCORE.heavy>
10

>  <SCORE.norm>
-0.667841

>  <RMSD>
0.921

$$$$
ligand
 OpenBabel11021811473D
libRbt.so/2013.1/901 2013/11/27
 10  9  0  0  0  0  0  0  0  0999 V2000
   32.3299   15.6732   20.8729 N   0  0  0  0  0  0  0  0  0  0  0  0
   31.6973   16.8099   21.5156 C   0  0  2  0  0  0  0  0  0  0  0  0
   32.6891   17.5580   22.3657 C   0  0  0  0  0  0  0  0  0  0  0  0
   32.3310   18.6262   22.9217 O   0  0  0  0  0  0  0  0  0  0  0  0
   30.5282   16.3273   22.3633 C   0  0  0  0  0  0  0  0  0  0  0  0
   29.5596   15.7238   21.5093 O   0  0  0  0  0  0  0  0  0  0  0  0
   28.4381   15.3600   22.3141 C   0  0  0  0  0  0  0  0  0  0  0  0
   27.3835   14.7273   21.4087 C   0  0  0  0  0  0  0  0  0  0  0  0
   27.0343   15.6420   20.3356 N   0  0  0  0  0  0  0  0  0  0  0  0
   33.6073   16.8753   22.8628 O   0  0  0  0  0  0  0  0  0  0  0  0
  2  1  1  1  0  0  0
  2  5  1  0  0  0  0
  2  3  1  0  0  0  0
  3  4  1  0  0  0  0
  3 10  1  0  0  0  0
  5  6  1  0  0  0  0
  6  7  1  0  0  0  0
  7  8  1  0  0  0  0
  8  9  1  0  0  0  0
M  END
>  <CHROM.1>
-62.77956389,175.11058062,-176.25536538,179.29357123,-56.22747479,30.58948195
16.35109051,21.87000003,-0.44540687,-0.05172492,-2.50150057

>  <Name>
ligand

>  <RI>
0

>  <Rbt.Current_Directory>
/home/itssahil/PROJECTS/Mol_Feturizer/New_Systems/rnas/3DJ0

>  <Rbt.Executable>
rbdock ($Id: //depot/dev/client3/rdock/2013.1/src/exe/rbdock.cxx#4 $)

>  <Rbt.Library>
libRbt.so (2013.1, Build901 2013/11/27)

>  <Rbt.Parameter_File>
/export/apps/rDock/src/rDock_2013.1_src/data/scripts/dock_solv.prm

>  <Rbt.Receptor>
prm/blind_docking_60.prm

>  <SCORE>
-6.20737

>  <SCORE.INTER>
-4.63788

>  <SCORE.INTER.CONST>
1

>  <SCORE.INTER.POLAR>
0

>  <SCORE.INTER.ROT>
5

>  <SCORE.INTER.SOLV>
20.1716

>  <SCORE.INTER.VDW>
-16.7491

>  <SCORE.INTER.norm>
-0.463788

>  <SCORE.INTRA>
-1.56949

>  <SCORE.INTRA.DIHEDRAL>
-3.68785

>  <SCORE.INTRA.DIHEDRAL.0>
6.00299

>  <SCORE.INTRA.POLAR>
0

>  <SCORE.INTRA.POLAR.0>
0

>  <SCORE.INTRA.REPUL>
0

>  <SCORE.INTRA.REPUL.0>
0

>  <SCORE.INTRA.SOLV>
0.398585

>  <SCORE.INTRA.SOLV.lig_0>
-39.3257

>  <SCORE.INTRA.VDW>
0.0751477

>  <SCORE.INTRA.VDW.0>
-0.734044

>  <SCORE.INTRA.norm>
-0.156949

>  <SCORE.RESTR>
0

>  <SCORE.RESTR.CAVITY>
0

>  <SCORE.RESTR.norm>
0

>  <SCORE.SYSTEM>
0

>  <SCORE.SYSTEM.CONST>
0

>  <SCORE.SYSTEM.DIHEDRAL>
0

>  <SCORE.SYSTEM.SOLV>
0

>  <SCORE.SYSTEM.norm>
0

>  <SCORE.heavy>
10

>  <SCORE.norm>
-0.620737

>  <RMSD>
0.937

$$$$
ligand
 OpenBabel11021811473D
libRbt.so/2013.1/901 2013/11/27
 10  9  0  0  0  0  0  0  0  0999 V2000
   32.3697   15.6781   20.8879 N   0  0  0  0  0  0  0  0  0  0  0  0
   31.7268   16.8059   21.5360 C   0  0  2  0  0  0  0  0  0  0  0  0
   32.7183   17.5759   22.3668 C   0  0  0  0  0  0  0  0  0  0  0  0
   32.3416   18.6239   22.9482 O   0  0  0  0  0  0  0  0  0  0  0  0
   30.5805   16.3058   22.4045 C   0  0  0  0  0  0  0  0  0  0  0  0
   29.5984   15.7020   21.5663 O   0  0  0  0  0  0  0  0  0  0  0  0
   28.4844   15.3504   22.3868 C   0  0  0  0  0  0  0  0  0  0  0  0
   27.4068   14.7376   21.4950 C   0  0  0  0  0  0  0  0  0  0  0  0
   27.0901   15.6415   20.4029 N   0  0  0  0  0  0  0  0  0  0  0  0
   33.6732   16.9181   22.8267 O   0  0  0  0  0  0  0  0  0  0  0  0
  2  1  1  1  0  0  0
  2  5  1  0  0  0  0
  2  3  1  0  0  0  0
  3  4  1  0  0  0  0
  3 10  1  0  0  0  0
  5  6  1  0  0  0  0
  6  7  1  0  0  0  0
  7  8  1  0  0  0  0
  8  9  1  0  0  0  0
M  END
>  <CHROM.1>
-63.80634742,176.67641125,-174.89683212,178.42611974,-54.09754150,30.62875526
16.35282589,21.90469690,-0.43837328,-0.07211891,-2.48845897

>  <Name>
ligand

>  <RI>
0

>  <Rbt.Current_Directory>
/home/itssahil/PROJECTS/Mol_Feturizer/New_Systems/rnas/3DJ0

>  <Rbt.Executable>
rbdock ($Id: //depot/dev/client3/rdock/2013.1/src/exe/rbdock.cxx#4 $)

>  <Rbt.Library>
libRbt.so (2013.1, Build901 2013/11/27)

>  <Rbt.Parameter_File>
/export/apps/rDock/src/rDock_2013.1_src/data/scripts/dock_solv.prm

>  <Rbt.Receptor>
prm/pocket_docking_4.prm

>  <SCORE>
-6.18399

>  <SCORE.INTER>
-4.73026

>  <SCORE.INTER.CONST>
1

>  <SCORE.INTER.POLAR>
0

>  <SCORE.INTER.ROT>
5

>  <SCORE.INTER.SOLV>
20.0029

>  <SCORE.INTER.VDW>
-16.7545

>  <SCORE.INTER.norm>
-0.473026

>  <SCORE.INTRA>
-1.45373

>  <SCORE.INTRA.DIHEDRAL>
-3.5433

>  <SCORE.INTRA.DIHEDRAL.0>
6.00299

>  <SCORE.INTRA.POLAR>
0

>  <SCORE.INTRA.POLAR.0>
0

>  <SCORE.INTRA.REPUL>
0

>  <SCORE.INTRA.REPUL.0>
0

>  <SCORE.INTRA.SOLV>
0.41739

>  <SCORE.INTRA.SOLV.lig_0>
-39.3257

>  <SCORE.INTRA.VDW>
0.109227

>  <SCORE.INTRA.VDW.0>
-0.734044

>  <SCORE.INTRA.norm>
-0.145373

>  <SCORE.RESTR>
0

>  <SCORE.RESTR.CAVITY>
0

>  <SCORE.RESTR.norm>
0

>  <SCORE.SYSTEM>
0

>  <SCORE.SYSTEM.CONST>
0

>  <SCORE.SYSTEM.DIHEDRAL>
0

>  <SCORE.SYSTEM.SOLV>
0

>  <SCORE.SYSTEM.norm>
0

>  <SCORE.heavy>
10

>  <SCORE.norm>
-0.618399

>  <RMSD>
0.937

$$$$
ligand
 OpenBabel11021811473D
libRbt.so/2013.1/901 2013/11/27
 10  9  0  0  0  0  0  0  0  0999 V2000
   32.3192   15.6411   20.8746 N   0  0  0  0  0  0  0  0  0  0  0  0
   31.6883   16.7742   21.5254 C   0  0  2  0  0  0  0  0  0  0  0  0
   32.6831   17.5193   22.3746 C   0  0  0  0  0  0  0  0  0  0  0  0
   32.3348   18.5989   22.9147 O   0  0  0  0  0  0  0  0  0  0  0  0
   30.5234   16.2865   22.3759 C   0  0  0  0  0  0  0  0  0  0  0  0
   29.5393   15.7104   21.5206 O   0  0  0  0  0  0  0  0  0  0  0  0
   28.4183   15.3520   22.3285 C   0  0  0  0  0  0  0  0  0  0  0  0
   27.3538   14.7345   21.4242 C   0  0  0  0  0  0  0  0  0  0  0  0
   26.9908   15.6680   20.3723 N   0  0  0  0  0  0  0  0  0  0  0  0
   33.5879   16.8305   22.8876 O   0  0  0  0  0  0  0  0  0  0  0  0
  2  1  1  1  0  0  0
  2  5  1  0  0  0  0
  2  3  1  0  0  0  0
  3  4  1  0  0  0  0
  3 10  1  0  0  0  0
  5  6  1  0  0  0  0
  6  7  1  0  0  0  0
  7  8  1  0  0  0  0
  8  9  1  0  0  0  0
M  END
>  <CHROM.1>
-63.95053763,173.65043564,-175.78435623,179.92630516,-57.23840087,30.57360684
16.33022475,21.88279339,-0.43665127,-0.04254481,-2.51370517

>  <Name>
ligand

>  <RI>
0

>  <Rbt.Current_Directory>
/home/itssahil/PROJECTS/Mol_Feturizer/New_Systems/rnas/3DJ0

>  <Rbt.Executable>
rbdock ($Id: //depot/dev/client3/rdock/2013.1/src/exe/rbdock.cxx#4 $)

>  <Rbt.Library>
libRbt.so (2013.1, Build901 2013/11/27)

>  <Rbt.Parameter_File>
/export/apps/rDock/src/rDock_2013.1_src/data/scripts/dock_solv.prm

>  <Rbt.Receptor>
prm/pocket_docking_2.prm

>  <SCORE>
-6.18611

>  <SCORE.INTER>
-4.58891

>  <SCORE.INTER.CONST>
1

>  <SCORE.INTER.POLAR>
0

>  <SCORE.INTER.ROT>
5

>  <SCORE.INTER.SOLV>
20.4375

>  <SCORE.INTER.VDW>
-16.8051

>  <SCORE.INTER.norm>
-0.458891

>  <SCORE.INTRA>
-1.59719

>  <SCORE.INTRA.DIHEDRAL>
-3.64481

>  <SCORE.INTRA.DIHEDRAL.0>
6.00299

>  <SCORE.INTRA.POLAR>
0

>  <SCORE.INTRA.POLAR.0>
0

>  <SCORE.INTRA.REPUL>
0

>  <SCORE.INTRA.REPUL.0>
0

>  <SCORE.INTRA.SOLV>
0.362696

>  <SCORE.INTRA.SOLV.lig_0>
-39.3257

>  <SCORE.INTRA.VDW>
0.0438613

>  <SCORE.INTRA.VDW.0>
-0.734044

>  <SCORE.INTRA.norm>
-0.159719

>  <SCORE.RESTR>
0

>  <SCORE.RESTR.CAVITY>
0

>  <SCORE.RESTR.norm>
0

>  <SCORE.SYSTEM>
0

>  <SCORE.SYSTEM.CONST>
0

>  <SCORE.SYSTEM.DIHEDRAL>
0

>  <SCORE.SYSTEM.SOLV>
0

>  <SCORE.SYSTEM.norm>
0

>  <SCORE.heavy>
10

>  <SCORE.norm>
-0.618611

>  <RMSD>
0.950

$$$$
ligand
 OpenBabel11021811473D
libRbt.so/2013.1/901 2013/11/27
 10  9  0  0  0  0  0  0  0  0999 V2000
   31.8690   16.0287   20.6398 N   0  0  0  0  0  0  0  0  0  0  0  0
   31.2656   16.8964   21.6340 C   0  0  2  0  0  0  0  0  0  0  0  0
   32.2949   17.3554   22.6320 C   0  0  0  0  0  0  0  0  0  0  0  0
   33.2720   16.6077   22.8865 O   0  0  0  0  0  0  0  0  0  0  0  0
   30.1376   16.1540   22.3374 C   0  0  0  0  0  0  0  0  0  0  0  0
   29.0700   15.9581   21.4135 O   0  0  0  0  0  0  0  0  0  0  0  0
   28.0662   15.1825   22.0681 C   0  0  0  0  0  0  0  0  0  0  0  0
   26.8845   15.0243   21.1139 C   0  0  0  0  0  0  0  0  0  0  0  0
   27.3067   14.3337   19.9078 N   0  0  0  0  0  0  0  0  0  0  0  0
   32.4010   18.5896   22.7791 O   0  0  0  0  0  0  0  0  0  0  0  0
  2  1  1  6  0  0  0
  2  5  1  0  0  0  0
  2  3  1  0  0  0  0
  3  4  1  0  0  0  0
  3 10  1  0  0  0  0
  5  6  1  0  0  0  0
  6  7  1  0  0  0  0
  7  8  1  0  0  0  0
  8  9  1  0  0  0  0
M  END
>  <CHROM.1>
-68.83638484,-29.69988558,176.10419683,177.17368286,60.83856017,30.29001624
16.23500333,21.76154281,-0.49737085,-0.18262287,-2.24440424

>  <Name>
ligand

>  <RI>
0

>  <Rbt.Current_Directory>
/home/itssahil/PROJECTS/Mol_Feturizer/New_Systems/rnas/3DJ0

>  <Rbt.Executable>
rbdock ($Id: //depot/dev/client3/rdock/2013.1/src/exe/rbdock.cxx#4 $)

>  <Rbt.Library>
libRbt.so (2013.1, Build901 2013/11/27)

>  <Rbt.Parameter_File>
/export/apps/rDock/src/rDock_2013.1_src/data/scripts/dock_solv.prm

>  <Rbt.Receptor>
prm/blind_docking_60.prm

>  <SCORE>
-6.73844

>  <SCORE.INTER>
-4.94685

>  <SCORE.INTER.CONST>
1

>  <SCORE.INTER.POLAR>
0

>  <SCORE.INTER.ROT>
5

>  <SCORE.INTER.SOLV>
18.6992

>  <SCORE.INTER.VDW>
-16.4643

>  <SCORE.INTER.norm>
-0.494685

>  <SCORE.INTRA>
-1.79159

>  <SCORE.INTRA.DIHEDRAL>
-3.43917

>  <SCORE.INTRA.DIHEDRAL.0>
6.00299

>  <SCORE.INTRA.POLAR>
0

>  <SCORE.INTRA.POLAR.0>
0

>  <SCORE.INTRA.REPUL>
0

>  <SCORE.INTRA.REPUL.0>
0

>  <SCORE.INTRA.SOLV>
0.333993

>  <SCORE.INTRA.SOLV.lig_0>
-39.3257

>  <SCORE.INTRA.VDW>
-0.239

>  <SCORE.INTRA.VDW.0>
-0.734044

>  <SCORE.INTRA.norm>
-0.179159

>  <SCORE.RESTR>
0

>  <SCORE.RESTR.CAVITY>
0

>  <SCORE.RESTR.norm>
0

>  <SCORE.SYSTEM>
0

>  <SCORE.SYSTEM.CONST>
0

>  <SCORE.SYSTEM.DIHEDRAL>
0

>  <SCORE.SYSTEM.SOLV>
0

>  <SCORE.SYSTEM.norm>
0

>  <SCORE.heavy>
10

>  <SCORE.norm>
-0.673844

>  <RMSD>
0.952

$$$$
ligand
 OpenBabel11021811473D
libRbt.so/2013.1/901 2013/11/27
 10  9  0  0  0  0  0  0  0  0999 V2000
   31.8667   15.9329   20.6674 N   0  0  0  0  0  0  0  0  0  0  0  0
   31.2591   16.8331   21.6297 C   0  0  2  0  0  0  0  0  0  0  0  0
   32.2796   17.3082   22.6291 C   0  0  0  0  0  0  0  0  0  0  0  0
   33.2141   16.5361   22.9590 O   0  0  0  0  0  0  0  0  0  0  0  0
   30.1139   16.1214   22.3370 C   0  0  0  0  0  0  0  0  0  0  0  0
   29.0535   15.9194   21.4063 O   0  0  0  0  0  0  0  0  0  0  0  0
   28.0272   15.1825   22.0708 C   0  0  0  0  0  0  0  0  0  0  0  0
   26.8788   14.9667   21.0876 C   0  0  0  0  0  0  0  0  0  0  0  0
   27.3614   14.2845   19.8994 N   0  0  0  0  0  0  0  0  0  0  0  0
   32.4375   18.5434   22.7036 O   0  0  0  0  0  0  0  0  0  0  0  0
  2  1  1  6  0  0  0
  2  5  1  0  0  0  0
  2  3  1  0  0  0  0
  3  4  1  0  0  0  0
  3 10  1  0  0  0  0
  5  6  1  0  0  0  0
  6  7  1  0  0  0  0
  7  8  1  0  0  0  0
  8  9  1  0  0  0  0
M  END
>  <CHROM.1>
-69.20587198,-32.65104608,176.63402159,179.60575574,57.06703226,30.28225664
16.18477373,21.75927981,-0.49933968,-0.17732014,-2.24915096

>  <Name>
ligand

>  <RI>
0

>  <Rbt.Current_Directory>
/home/itssahil/PROJECTS/Mol_Feturizer/New_Systems/rnas/3DJ0

>  <Rbt.Executable>
rbdock ($Id: //depot/dev/client3/rdock/2013.1/src/exe/rbdock.cxx#4 $)

>  <Rbt.Library>
libRbt.so (2013.1, Build901 2013/11/27)

>  <Rbt.Parameter_File>
/export/apps/rDock/src/rDock_2013.1_src/data/scripts/dock_solv.prm

>  <Rbt.Receptor>
prm/pocket_docking_4.prm

>  <SCORE>
-6.83121

>  <SCORE.INTER>
-5.04708

>  <SCORE.INTER.CONST>
1

>  <SCORE.INTER.POLAR>
0

>  <SCORE.INTER.ROT>
5

>  <SCORE.INTER.SOLV>
18.6863

>  <SCORE.INTER.VDW>
-16.5268

>  <SCORE.INTER.norm>
-0.504708

>  <SCORE.INTRA>
-1.78413

>  <SCORE.INTRA.DIHEDRAL>
-3.49041

>  <SCORE.INTRA.DIHEDRAL.0>
6.00299

>  <SCORE.INTRA.POLAR>
0

>  <SCORE.INTRA.POLAR.0>
0

>  <SCORE.INTRA.REPUL>
0

>  <SCORE.INTRA.REPUL.0>
0

>  <SCORE.INTRA.SOLV>
0.390973

>  <SCORE.INTRA.SOLV.lig_0>
-39.3257

>  <SCORE.INTRA.VDW>
-0.23441

>  <SCORE.INTRA.VDW.0>
-0.734044

>  <SCORE.INTRA.norm>
-0.178413

>  <SCORE.RESTR>
0

>  <SCORE.RESTR.CAVITY>
0

>  <SCORE.RESTR.norm>
0

>  <SCORE.SYSTEM>
0

>  <SCORE.SYSTEM.CONST>
0

>  <SCORE.SYSTEM.DIHEDRAL>
0

>  <SCORE.SYSTEM.SOLV>
0

>  <SCORE.SYSTEM.norm>
0

>  <SCORE.heavy>
10

>  <SCORE.norm>
-0.683121

>  <RMSD>
0.967

$$$$
ligand
 OpenBabel11021811473D
libRbt.so/2013.1/901 2013/11/27
 10  9  0  0  0  0  0  0  0  0999 V2000
   32.8669   15.6884   20.4569 N   0  0  0  0  0  0  0  0  0  0  0  0
   31.7837   16.4306   21.0744 C   0  0  2  0  0  0  0  0  0  0  0  0
   32.3037   17.2998   22.1880 C   0  0  0  0  0  0  0  0  0  0  0  0
   31.5695   18.2132   22.6409 O   0  0  0  0  0  0  0  0  0  0  0  0
   30.7392   15.4572   21.6035 C   0  0  0  0  0  0  0  0  0  0  0  0
   29.6705   16.2006   22.1840 O   0  0  0  0  0  0  0  0  0  0  0  0
   28.7229   15.2666   22.7013 C   0  0  0  0  0  0  0  0  0  0  0  0
   27.5937   15.1163   21.6843 C   0  0  0  0  0  0  0  0  0  0  0  0
   28.1208   14.6240   20.4234 N   0  0  0  0  0  0  0  0  0  0  0  0
   33.1834   16.7920   22.9121 O   0  0  0  0  0  0  0  0  0  0  0  0
  2  1  1  1  0  0  0
  2  5  1  0  0  0  0
  2  3  1  0  0  0  0
  3  4  1  0  0  0  0
  3 10  1  0  0  0  0
  5  6  1  0  0  0  0
  6  7  1  0  0  0  0
  7  8  1  0  0  0  0
  8  9  1  0  0  0  0
M  END
>  <CHROM.1>
-178.91200071,165.00785599,-178.56890857,-98.67679311,60.33555508,30.66969067
16.13796321,21.82195008,-0.36418668,-0.24198091,-2.28433919

>  <Name>
ligand

>  <RI>
0

>  <Rbt.Current_Directory>
/home/itssahil/PROJECTS/Mol_Feturizer/New_Systems/rnas/3DJ0

>  <Rbt.Executable>
rbdock ($Id: //depot/dev/client3/rdock/2013.1/src/exe/rbdock.cxx#4 $)

>  <Rbt.Library>
libRbt.so (2013.1, Build901 2013/11/27)

>  <Rbt.Parameter_File>
/export/apps/rDock/src/rDock_2013.1_src/data/scripts/dock_solv.prm

>  <Rbt.Receptor>
prm/pocket_docking_3.prm

>  <SCORE>
-4.01508

>  <SCORE.INTER>
-5.85609

>  <SCORE.INTER.CONST>
1

>  <SCORE.INTER.POLAR>
0

>  <SCORE.INTER.ROT>
5

>  <SCORE.INTER.SOLV>
17.5387

>  <SCORE.INTER.VDW>
-16.6836

>  <SCORE.INTER.norm>
-0.585609

>  <SCORE.INTRA>
1.84101

>  <SCORE.INTRA.DIHEDRAL>
1.54707

>  <SCORE.INTRA.DIHEDRAL.0>
6.00299

>  <SCORE.INTRA.POLAR>
0

>  <SCORE.INTRA.POLAR.0>
0

>  <SCORE.INTRA.REPUL>
0

>  <SCORE.INTRA.REPUL.0>
0

>  <SCORE.INTRA.SOLV>
1.18381

>  <SCORE.INTRA.SOLV.lig_0>
-39.3257

>  <SCORE.INTRA.VDW>
0.475564

>  <SCORE.INTRA.VDW.0>
-0.734044

>  <SCORE.INTRA.norm>
0.184101

>  <SCORE.RESTR>
0

>  <SCORE.RESTR.CAVITY>
0

>  <SCORE.RESTR.norm>
0

>  <SCORE.SYSTEM>
0

>  <SCORE.SYSTEM.CONST>
0

>  <SCORE.SYSTEM.DIHEDRAL>
0

>  <SCORE.SYSTEM.SOLV>
0

>  <SCORE.SYSTEM.norm>
0

>  <SCORE.heavy>
10

>  <SCORE.norm>
-0.401508

>  <RMSD>
1.008

$$$$
ligand
 OpenBabel11021811473D
libRbt.so/2013.1/901 2013/11/27
 10  9  0  0  0  0  0  0  0  0999 V2000
   31.8519   16.7575   20.6419 N   0  0  0  0  0  0  0  0  0  0  0  0
   31.5237   17.3279   21.9351 C   0  0  2  0  0  0  0  0  0  0  0  0
   32.7739   17.5925   22.7307 C   0  0  0  0  0  0  0  0  0  0  0  0
   33.7987   16.9027   22.5018 O   0  0  0  0  0  0  0  0  0  0  0  0
   30.6046   16.3773   22.6901 C   0  0  0  0  0  0  0  0  0  0  0  0
   29.4168   16.1831   21.9265 O   0  0  0  0  0  0  0  0  0  0  0  0
   28.6209   15.2094   22.6020 C   0  0  0  0  0  0  0  0  0  0  0  0
   27.3679   14.9522   21.7677 C   0  0  0  0  0  0  0  0  0  0  0  0
   27.7383   14.4905   20.4412 N   0  0  0  0  0  0  0  0  0  0  0  0
   32.8901   18.7427   23.1995 O   0  0  0  0  0  0  0  0  0  0  0  0
  2  1  1  6  0  0  0
  2  5  1  0  0  0  0
  2  3  1  0  0  0  0
  3  4  1  0  0  0  0
  3 10  1  0  0  0  0
  5  6  1  0  0  0  0
  6  7  1  0  0  0  0
  7  8  1  0  0  0  0
  8  9  1  0  0  0  0
M  END
>  <CHROM.1>
-59.73309172,-26.36989366,175.47955470,-177.90793567,58.55940569,30.69459569
16.47349403,22.06051911,-0.37900564,-0.37604591,-2.01437445

>  <Name>
ligand

>  <RI>
0

>  <Rbt.Current_Directory>
/home/itssahil/PROJECTS/Mol_Feturizer/New_Systems/rnas/3DJ0

>  <Rbt.Executable>
rbdock ($Id: //depot/dev/client3/rdock/2013.1/src/exe/rbdock.cxx#4 $)

>  <Rbt.Library>
libRbt.so (2013.1, Build901 2013/11/27)

>  <Rbt.Parameter_File>
/export/apps/rDock/src/rDock_2013.1_src/data/scripts/dock_solv.prm

>  <Rbt.Receptor>
prm/blind_docking_60.prm

>  <SCORE>
-6.93617

>  <SCORE.INTER>
-5.1713

>  <SCORE.INTER.CONST>
1

>  <SCORE.INTER.POLAR>
0

>  <SCORE.INTER.ROT>
5

>  <SCORE.INTER.SOLV>
17.3098

>  <SCORE.INTER.VDW>
-16.1508

>  <SCORE.INTER.norm>
-0.51713

>  <SCORE.INTRA>
-1.76487

>  <SCORE.INTRA.DIHEDRAL>
-3.63731

>  <SCORE.INTRA.DIHEDRAL.0>
6.00299

>  <SCORE.INTRA.POLAR>
0

>  <SCORE.INTRA.POLAR.0>
0

>  <SCORE.INTRA.REPUL>
0

>  <SCORE.INTRA.REPUL.0>
0

>  <SCORE.INTRA.SOLV>
0.488654

>  <SCORE.INTRA.SOLV.lig_0>
-39.3257

>  <SCORE.INTRA.VDW>
-0.190538

>  <SCORE.INTRA.VDW.0>
-0.734044

>  <SCORE.INTRA.norm>
-0.176487

>  <SCORE.RESTR>
0

>  <SCORE.RESTR.CAVITY>
0

>  <SCORE.RESTR.norm>
0

>  <SCORE.SYSTEM>
0

>  <SCORE.SYSTEM.CONST>
0

>  <SCORE.SYSTEM.DIHEDRAL>
0

>  <SCORE.SYSTEM.SOLV>
0

>  <SCORE.SYSTEM.norm>
0

>  <SCORE.heavy>
10

>  <SCORE.norm>
-0.693617

>  <RMSD>
1.015

$$$$
ligand
 OpenBabel11021811473D
libRbt.so/2013.1/901 2013/11/27
 10  9  0  0  0  0  0  0  0  0999 V2000
   31.7292   16.2522   20.6000 N   0  0  0  0  0  0  0  0  0  0  0  0
   31.1403   17.0335   21.6715 C   0  0  2  0  0  0  0  0  0  0  0  0
   32.1918   17.4463   22.6665 C   0  0  0  0  0  0  0  0  0  0  0  0
   33.2255   16.7426   22.7871 O   0  0  0  0  0  0  0  0  0  0  0  0
   30.0526   16.2169   22.3559 C   0  0  0  0  0  0  0  0  0  0  0  0
   28.9778   16.0238   21.4398 O   0  0  0  0  0  0  0  0  0  0  0  0
   28.0186   15.1741   22.0690 C   0  0  0  0  0  0  0  0  0  0  0  0
   26.8670   14.9457   21.0923 C   0  0  0  0  0  0  0  0  0  0  0  0
   27.3690   14.3744   19.8547 N   0  0  0  0  0  0  0  0  0  0  0  0
   32.2292   18.6606   22.9498 O   0  0  0  0  0  0  0  0  0  0  0  0
  2  1  1  6  0  0  0
  2  5  1  0  0  0  0
  2  3  1  0  0  0  0
  3  4  1  0  0  0  0
  3 10  1  0  0  0  0
  5  6  1  0  0  0  0
  6  7  1  0  0  0  0
  7  8  1  0  0  0  0
  8  9  1  0  0  0  0
M  END
>  <CHROM.1>
-66.98859056,-26.07475266,175.74898013,-179.38966113,57.33469736,30.21278724
16.30907558,21.76963995,-0.51095272,-0.22919048,-2.18927295

>  <Name>
ligand

>  <RI>
0

>  <Rbt.Current_Directory>
/home/itssahil/PROJECTS/Mol_Feturizer/New_Systems/rnas/3DJ0

>  <Rbt.Executable>
rbdock ($Id: //depot/dev/client3/rdock/2013.1/src/exe/rbdock.cxx#4 $)

>  <Rbt.Library>
libRbt.so (2013.1, Build901 2013/11/27)

>  <Rbt.Parameter_File>
/export/apps/rDock/src/rDock_2013.1_src/data/scripts/dock_solv.prm

>  <Rbt.Receptor>
prm/pocket_docking_3.prm

>  <SCORE>
-6.82952

>  <SCORE.INTER>
-5.09235

>  <SCORE.INTER.CONST>
1

>  <SCORE.INTER.POLAR>
0

>  <SCORE.INTER.ROT>
5

>  <SCORE.INTER.SOLV>
18.2517

>  <SCORE.INTER.VDW>
-16.4121

>  <SCORE.INTER.norm>
-0.509235

>  <SCORE.INTRA>
-1.73717

>  <SCORE.INTRA.DIHEDRAL>
-3.47495

>  <SCORE.INTRA.DIHEDRAL.0>
6.00299

>  <SCORE.INTRA.POLAR>
0

>  <SCORE.INTRA.POLAR.0>
0

>  <SCORE.INTRA.REPUL>
0

>  <SCORE.INTRA.REPUL.0>
0

>  <SCORE.INTRA.SOLV>
0.413934

>  <SCORE.INTRA.SOLV.lig_0>
-39.3257

>  <SCORE.INTRA.VDW>
-0.206663

>  <SCORE.INTRA.VDW.0>
-0.734044

>  <SCORE.INTRA.norm>
-0.173717

>  <SCORE.RESTR>
0

>  <SCORE.RESTR.CAVITY>
0

>  <SCORE.RESTR.norm>
0

>  <SCORE.SYSTEM>
0

>  <SCORE.SYSTEM.CONST>
0

>  <SCORE.SYSTEM.DIHEDRAL>
0

>  <SCORE.SYSTEM.SOLV>
0

>  <SCORE.SYSTEM.norm>
0

>  <SCORE.heavy>
10

>  <SCORE.norm>
-0.682952

>  <RMSD>
1.033

$$$$
ligand
 OpenBabel11021811473D
libRbt.so/2013.1/901 2013/11/27
 10  9  0  0  0  0  0  0  0  0999 V2000
   31.6211   16.7003   20.5727 N   0  0  0  0  0  0  0  0  0  0  0  0
   31.1371   17.2458   21.8271 C   0  0  2  0  0  0  0  0  0  0  0  0
   32.2840   17.5276   22.7605 C   0  0  0  0  0  0  0  0  0  0  0  0
   33.3107   16.8062   22.6986 O   0  0  0  0  0  0  0  0  0  0  0  0
   30.1622   16.2649   22.4641 C   0  0  0  0  0  0  0  0  0  0  0  0
   29.0224   16.1349   21.6181 O   0  0  0  0  0  0  0  0  0  0  0  0
   28.1759   15.1329   22.1813 C   0  0  0  0  0  0  0  0  0  0  0  0
   26.9688   14.9538   21.2632 C   0  0  0  0  0  0  0  0  0  0  0  0
   27.4023   14.5040   19.9518 N   0  0  0  0  0  0  0  0  0  0  0  0
   32.3708   18.6986   23.1815 O   0  0  0  0  0  0  0  0  0  0  0  0
  2  1  1  6  0  0  0
  2  5  1  0  0  0  0
  2  3  1  0  0  0  0
  3  4  1  0  0  0  0
  3 10  1  0  0  0  0
  5  6  1  0  0  0  0
  6  7  1  0  0  0  0
  7  8  1  0  0  0  0
  8  9  1  0  0  0  0
M  END
>  <CHROM.1>
-64.23160199,-30.98814422,175.42256137,-178.38909035,61.64727954,30.27954543
16.41677860,21.87273706,-0.46030014,-0.33361932,-2.01621332

>  <Name>
ligand

>  <RI>
0

>  <Rbt.Current_Directory>
/home/itssahil/PROJECTS/Mol_Feturizer/New_Systems/rnas/3DJ0

>  <Rbt.Executable>
rbdock ($Id: //depot/dev/client3/rdock/2013.1/src/exe/rbdock.cxx#4 $)

>  <Rbt.Library>
libRbt.so (2013.1, Build901 2013/11/27)

>  <Rbt.Parameter_File>
/export/apps/rDock/src/rDock_2013.1_src/data/scripts/dock_solv.prm

>  <Rbt.Receptor>
prm/pocket_docking_2.prm

>  <SCORE>
-6.89373

>  <SCORE.INTER>
-5.02665

>  <SCORE.INTER.CONST>
1

>  <SCORE.INTER.POLAR>
0

>  <SCORE.INTER.ROT>
5

>  <SCORE.INTER.SOLV>
18.1127

>  <SCORE.INTER.VDW>
-16.322

>  <SCORE.INTER.norm>
-0.502665

>  <SCORE.INTRA>
-1.86708

>  <SCORE.INTRA.DIHEDRAL>
-3.66027

>  <SCORE.INTRA.DIHEDRAL.0>
6.00299

>  <SCORE.INTRA.POLAR>
0

>  <SCORE.INTRA.POLAR.0>
0

>  <SCORE.INTRA.REPUL>
0

>  <SCORE.INTRA.REPUL.0>
0

>  <SCORE.INTRA.SOLV>
0.403659

>  <SCORE.INTRA.SOLV.lig_0>
-39.3257

>  <SCORE.INTRA.VDW>
-0.238776

>  <SCORE.INTRA.VDW.0>
-0.734044

>  <SCORE.INTRA.norm>
-0.186708

>  <SCORE.RESTR>
0

>  <SCORE.RESTR.CAVITY>
0

>  <SCORE.RESTR.norm>
0

>  <SCORE.SYSTEM>
0

>  <SCORE.SYSTEM.CONST>
0

>  <SCORE.SYSTEM.DIHEDRAL>
0

>  <SCORE.SYSTEM.SOLV>
0

>  <SCORE.SYSTEM.norm>
0

>  <SCORE.heavy>
10

>  <SCORE.norm>
-0.689373

>  <RMSD>
1.075

$$$$
ligand
 OpenBabel11021811473D
libRbt.so/2013.1/901 2013/11/27
 10  9  0  0  0  0  0  0  0  0999 V2000
   31.6267   16.6794   20.5775 N   0  0  0  0  0  0  0  0  0  0  0  0
   31.1329   17.2347   21.8238 C   0  0  2  0  0  0  0  0  0  0  0  0
   32.2727   17.5266   22.7627 C   0  0  0  0  0  0  0  0  0  0  0  0
   33.3026   16.8088   22.7117 O   0  0  0  0  0  0  0  0  0  0  0  0
   30.1554   16.2574   22.4623 C   0  0  0  0  0  0  0  0  0  0  0  0
   29.0218   16.1180   21.6095 O   0  0  0  0  0  0  0  0  0  0  0  0
   28.1562   15.1448   22.1938 C   0  0  0  0  0  0  0  0  0  0  0  0
   26.9584   14.9504   21.2666 C   0  0  0  0  0  0  0  0  0  0  0  0
   27.4073   14.5030   19.9595 N   0  0  0  0  0  0  0  0  0  0  0  0
   32.3524   18.7006   23.1769 O   0  0  0  0  0  0  0  0  0  0  0  0
  2  1  1  6  0  0  0
  2  5  1  0  0  0  0
  2  3  1  0  0  0  0
  3  4  1  0  0  0  0
  3 10  1  0  0  0  0
  5  6  1  0  0  0  0
  6  7  1  0  0  0  0
  7  8  1  0  0  0  0
  8  9  1  0  0  0  0
M  END
>  <CHROM.1>
-64.23102293,-30.80982994,176.92715178,-178.13489893,59.44941827,30.27257414
16.41231386,21.87521708,-0.46198802,-0.33061736,-2.02311728

>  <Name>
ligand

>  <RI>
0

>  <Rbt.Current_Directory>
/home/itssahil/PROJECTS/Mol_Feturizer/New_Systems/rnas/3DJ0

>  <Rbt.Executable>
rbdock ($Id: //depot/dev/client3/rdock/2013.1/src/exe/rbdock.cxx#4 $)

>  <Rbt.Library>
libRbt.so (2013.1, Build901 2013/11/27)

>  <Rbt.Parameter_File>
/export/apps/rDock/src/rDock_2013.1_src/data/scripts/dock_solv.prm

>  <Rbt.Receptor>
prm/pocket_docking_2.prm

>  <SCORE>
-6.91056

>  <SCORE.INTER>
-5.03534

>  <SCORE.INTER.CONST>
1

>  <SCORE.INTER.POLAR>
0

>  <SCORE.INTER.ROT>
5

>  <SCORE.INTER.SOLV>
18.0658

>  <SCORE.INTER.VDW>
-16.3122

>  <SCORE.INTER.norm>
-0.503534

>  <SCORE.INTRA>
-1.87522

>  <SCORE.INTRA.DIHEDRAL>
-3.71861

>  <SCORE.INTRA.DIHEDRAL.0>
6.00299

>  <SCORE.INTRA.POLAR>
0

>  <SCORE.INTRA.POLAR.0>
0

>  <SCORE.INTRA.REPUL>
0

>  <SCORE.INTRA.REPUL.0>
0

>  <SCORE.INTRA.SOLV>
0.425067

>  <SCORE.INTRA.SOLV.lig_0>
-39.3257

>  <SCORE.INTRA.VDW>
-0.228451

>  <SCORE.INTRA.VDW.0>
-0.734044

>  <SCORE.INTRA.norm>
-0.187522

>  <SCORE.RESTR>
0

>  <SCORE.RESTR.CAVITY>
0

>  <SCORE.RESTR.norm>
0

>  <SCORE.SYSTEM>
0

>  <SCORE.SYSTEM.CONST>
0

>  <SCORE.SYSTEM.DIHEDRAL>
0

>  <SCORE.SYSTEM.SOLV>
0

>  <SCORE.SYSTEM.norm>
0

>  <SCORE.heavy>
10

>  <SCORE.norm>
-0.691056

>  <RMSD>
1.077

$$$$
ligand
 OpenBabel11021811473D
libRbt.so/2013.1/901 2013/11/27
 10  9  0  0  0  0  0  0  0  0999 V2000
   33.4528   16.0998   20.5857 N   0  0  0  0  0  0  0  0  0  0  0  0
   32.1720   16.5276   21.1168 C   0  0  2  0  0  0  0  0  0  0  0  0
   32.3603   17.3126   22.3874 C   0  0  0  0  0  0  0  0  0  0  0  0
   33.4252   17.1704   23.0388 O   0  0  0  0  0  0  0  0  0  0  0  0
   31.2955   15.3086   21.3702 C   0  0  0  0  0  0  0  0  0  0  0  0
   29.9707   15.7473   21.6598 O   0  0  0  0  0  0  0  0  0  0  0  0
   29.1792   14.5901   21.9283 C   0  0  0  0  0  0  0  0  0  0  0  0
   27.7155   15.0184   22.0078 C   0  0  0  0  0  0  0  0  0  0  0  0
   27.2869   15.5678   20.7333 N   0  0  0  0  0  0  0  0  0  0  0  0
   31.7167   18.3778   22.4720 O   0  0  0  0  0  0  0  0  0  0  0  0
  2  1  1  1  0  0  0
  2  5  1  0  0  0  0
  2  3  1  0  0  0  0
  3  4  1  0  0  0  0
  3 10  1  0  0  0  0
  5  6  1  0  0  0  0
  6  7  1  0  0  0  0
  7  8  1  0  0  0  0
  8  9  1  0  0  0  0
M  END
>  <CHROM.1>
-169.70433974,-21.35325023,-178.46725998,-170.59719589,62.21085112,30.87269062
16.19972380,21.75710671,-0.38290052,-0.13255265,-2.52914612

>  <Name>
ligand

>  <RI>
0

>  <Rbt.Current_Directory>
/home/itssahil/PROJECTS/Mol_Feturizer/New_Systems/rnas/3DJ0

>  <Rbt.Executable>
rbdock ($Id: //depot/dev/client3/rdock/2013.1/src/exe/rbdock.cxx#4 $)

>  <Rbt.Library>
libRbt.so (2013.1, Build901 2013/11/27)

>  <Rbt.Parameter_File>
/export/apps/rDock/src/rDock_2013.1_src/data/scripts/dock_solv.prm

>  <Rbt.Receptor>
prm/pocket_docking_2.prm

>  <SCORE>
-6.46848

>  <SCORE.INTER>
-4.70372

>  <SCORE.INTER.CONST>
1

>  <SCORE.INTER.POLAR>
0

>  <SCORE.INTER.ROT>
5

>  <SCORE.INTER.SOLV>
21.0768

>  <SCORE.INTER.VDW>
-17.0948

>  <SCORE.INTER.norm>
-0.470372

>  <SCORE.INTRA>
-1.76475

>  <SCORE.INTRA.DIHEDRAL>
-2.83199

>  <SCORE.INTRA.DIHEDRAL.0>
6.00299

>  <SCORE.INTRA.POLAR>
0

>  <SCORE.INTRA.POLAR.0>
0

>  <SCORE.INTRA.REPUL>
0

>  <SCORE.INTRA.REPUL.0>
0

>  <SCORE.INTRA.SOLV>
-0.177653

>  <SCORE.INTRA.SOLV.lig_0>
-39.3257

>  <SCORE.INTRA.VDW>
-0.259932

>  <SCORE.INTRA.VDW.0>
-0.734044

>  <SCORE.INTRA.norm>
-0.176475

>  <SCORE.RESTR>
0

>  <SCORE.RESTR.CAVITY>
0

>  <SCORE.RESTR.norm>
0

>  <SCORE.SYSTEM>
0

>  <SCORE.SYSTEM.CONST>
0

>  <SCORE.SYSTEM.DIHEDRAL>
0

>  <SCORE.SYSTEM.SOLV>
0

>  <SCORE.SYSTEM.norm>
0

>  <SCORE.heavy>
10

>  <SCORE.norm>
-0.646848

>  <RMSD>
1.089

$$$$
ligand
 OpenBabel11021811473D
libRbt.so/2013.1/901 2013/11/27
 10  9  0  0  0  0  0  0  0  0999 V2000
   31.5035   16.7950   20.5575 N   0  0  0  0  0  0  0  0  0  0  0  0
   31.0906   17.2677   21.8658 C   0  0  2  0  0  0  0  0  0  0  0  0
   32.2882   17.4991   22.7482 C   0  0  0  0  0  0  0  0  0  0  0  0
   33.2591   16.7050   22.6775 O   0  0  0  0  0  0  0  0  0  0  0  0
   30.1522   16.2500   22.4998 C   0  0  0  0  0  0  0  0  0  0  0  0
   28.9906   16.1249   21.6833 O   0  0  0  0  0  0  0  0  0  0  0  0
   28.1690   15.1048   22.2508 C   0  0  0  0  0  0  0  0  0  0  0  0
   26.9797   14.8745   21.3208 C   0  0  0  0  0  0  0  0  0  0  0  0
   27.4463   14.4719   20.0055 N   0  0  0  0  0  0  0  0  0  0  0  0
   32.4719   18.6748   23.1225 O   0  0  0  0  0  0  0  0  0  0  0  0
  2  1  1  6  0  0  0
  2  5  1  0  0  0  0
  2  3  1  0  0  0  0
  3  4  1  0  0  0  0
  3 10  1  0  0  0  0
  5  6  1  0  0  0  0
  6  7  1  0  0  0  0
  7  8  1  0  0  0  0
  8  9  1  0  0  0  0
M  END
>  <CHROM.1>
-61.88660495,-37.76272506,176.29045076,-175.14513899,59.36094140,30.26994966
16.39538736,21.89306468,-0.42036980,-0.38101500,-1.93402073

>  <Name>
ligand

>  <RI>
0

>  <Rbt.Current_Directory>
/home/itssahil/PROJECTS/Mol_Feturizer/New_Systems/rnas/3DJ0

>  <Rbt.Executable>
rbdock ($Id: //depot/dev/client3/rdock/2013.1/src/exe/rbdock.cxx#4 $)

>  <Rbt.Library>
libRbt.so (2013.1, Build901 2013/11/27)

>  <Rbt.Parameter_File>
/export/apps/rDock/src/rDock_2013.1_src/data/scripts/dock_solv.prm

>  <Rbt.Receptor>
prm/pocket_docking_8.prm

>  <SCORE>
-7.03086

>  <SCORE.INTER>
-5.16041

>  <SCORE.INTER.CONST>
1

>  <SCORE.INTER.POLAR>
0

>  <SCORE.INTER.ROT>
5

>  <SCORE.INTER.SOLV>
18.0798

>  <SCORE.INTER.VDW>
-16.4002

>  <SCORE.INTER.norm>
-0.516041

>  <SCORE.INTRA>
-1.87045

>  <SCORE.INTRA.DIHEDRAL>
-3.74096

>  <SCORE.INTRA.DIHEDRAL.0>
6.00299

>  <SCORE.INTRA.POLAR>
0

>  <SCORE.INTRA.POLAR.0>
0

>  <SCORE.INTRA.REPUL>
0

>  <SCORE.INTRA.REPUL.0>
0

>  <SCORE.INTRA.SOLV>
0.481549

>  <SCORE.INTRA.SOLV.lig_0>
-39.3257

>  <SCORE.INTRA.VDW>
-0.240745

>  <SCORE.INTRA.VDW.0>
-0.734044

>  <SCORE.INTRA.norm>
-0.187045

>  <SCORE.RESTR>
0

>  <SCORE.RESTR.CAVITY>
0

>  <SCORE.RESTR.norm>
0

>  <SCORE.SYSTEM>
0

>  <SCORE.SYSTEM.CONST>
0

>  <SCORE.SYSTEM.DIHEDRAL>
0

>  <SCORE.SYSTEM.SOLV>
0

>  <SCORE.SYSTEM.norm>
0

>  <SCORE.heavy>
10

>  <SCORE.norm>
-0.703086

>  <RMSD>
1.116

$$$$
ligand
 OpenBabel11021811473D
libRbt.so/2013.1/901 2013/11/27
 10  9  0  0  0  0  0  0  0  0999 V2000
   33.4858   16.0631   20.6439 N   0  0  0  0  0  0  0  0  0  0  0  0
   32.1946   16.5290   21.1142 C   0  0  2  0  0  0  0  0  0  0  0  0
   32.3608   17.4544   22.2898 C   0  0  0  0  0  0  0  0  0  0  0  0
   31.3588   18.0785   22.7198 O   0  0  0  0  0  0  0  0  0  0  0  0
   31.3328   15.3334   21.4968 C   0  0  0  0  0  0  0  0  0  0  0  0
   29.9872   15.7722   21.6661 O   0  0  0  0  0  0  0  0  0  0  0  0
   29.1990   14.6325   22.0089 C   0  0  0  0  0  0  0  0  0  0  0  0
   27.7310   15.0531   22.0276 C   0  0  0  0  0  0  0  0  0  0  0  0
   27.3289   15.5180   20.7114 N   0  0  0  0  0  0  0  0  0  0  0  0
   33.3106   17.1981   23.0569 O   0  0  0  0  0  0  0  0  0  0  0  0
  2  1  1  1  0  0  0
  2  5  1  0  0  0  0
  2  3  1  0  0  0  0
  3  4  1  0  0  0  0
  3 10  1  0  0  0  0
  5  6  1  0  0  0  0
  6  7  1  0  0  0  0
  7  8  1  0  0  0  0
  8  9  1  0  0  0  0
M  END
>  <CHROM.1>
-167.08495147,171.38870910,179.36265516,-173.23463490,61.32353833,30.83849540
16.18678618,21.80390279,-0.35670102,-0.15645608,-2.44287874

>  <Name>
ligand

>  <RI>
0

>  <Rbt.Current_Directory>
/home/itssahil/PROJECTS/Mol_Feturizer/New_Systems/rnas/3DJ0

>  <Rbt.Executable>
rbdock ($Id: //depot/dev/client3/rdock/2013.1/src/exe/rbdock.cxx#4 $)

>  <Rbt.Library>
libRbt.so (2013.1, Build901 2013/11/27)

>  <Rbt.Parameter_File>
/export/apps/rDock/src/rDock_2013.1_src/data/scripts/dock_solv.prm

>  <Rbt.Receptor>
prm/pocket_docking_4.prm

>  <SCORE>
-6.51965

>  <SCORE.INTER>
-4.87228

>  <SCORE.INTER.CONST>
1

>  <SCORE.INTER.POLAR>
0

>  <SCORE.INTER.ROT>
5

>  <SCORE.INTER.SOLV>
20.5513

>  <SCORE.INTER.VDW>
-17.0319

>  <SCORE.INTER.norm>
-0.487228

>  <SCORE.INTRA>
-1.64737

>  <SCORE.INTRA.DIHEDRAL>
-2.9552

>  <SCORE.INTRA.DIHEDRAL.0>
6.00299

>  <SCORE.INTRA.POLAR>
0

>  <SCORE.INTRA.POLAR.0>
0

>  <SCORE.INTRA.REPUL>
0

>  <SCORE.INTRA.REPUL.0>
0

>  <SCORE.INTRA.SOLV>
-0.0834406

>  <SCORE.INTRA.SOLV.lig_0>
-39.3257

>  <SCORE.INTRA.VDW>
-0.128047

>  <SCORE.INTRA.VDW.0>
-0.734044

>  <SCORE.INTRA.norm>
-0.164737

>  <SCORE.RESTR>
0

>  <SCORE.RESTR.CAVITY>
0

>  <SCORE.RESTR.norm>
0

>  <SCORE.SYSTEM>
0

>  <SCORE.SYSTEM.CONST>
0

>  <SCORE.SYSTEM.DIHEDRAL>
0

>  <SCORE.SYSTEM.SOLV>
0

>  <SCORE.SYSTEM.norm>
0

>  <SCORE.heavy>
10

>  <SCORE.norm>
-0.651965

>  <RMSD>
1.117

$$$$
ligand
 OpenBabel11021811473D
libRbt.so/2013.1/901 2013/11/27
 10  9  0  0  0  0  0  0  0  0999 V2000
   33.4857   16.0528   20.6616 N   0  0  0  0  0  0  0  0  0  0  0  0
   32.1964   16.5259   21.1299 C   0  0  2  0  0  0  0  0  0  0  0  0
   32.3669   17.4616   22.2968 C   0  0  0  0  0  0  0  0  0  0  0  0
   31.3683   18.0960   22.7194 O   0  0  0  0  0  0  0  0  0  0  0  0
   31.3325   15.3359   21.5248 C   0  0  0  0  0  0  0  0  0  0  0  0
   29.9855   15.7763   21.6775 O   0  0  0  0  0  0  0  0  0  0  0  0
   29.1950   14.6411   22.0298 C   0  0  0  0  0  0  0  0  0  0  0  0
   27.7272   15.0628   22.0371 C   0  0  0  0  0  0  0  0  0  0  0  0
   27.3325   15.5171   20.7150 N   0  0  0  0  0  0  0  0  0  0  0  0
   33.3140   17.2067   23.0676 O   0  0  0  0  0  0  0  0  0  0  0  0
  2  1  1  1  0  0  0
  2  5  1  0  0  0  0
  2  3  1  0  0  0  0
  3  4  1  0  0  0  0
  3 10  1  0  0  0  0
  5  6  1  0  0  0  0
  6  7  1  0  0  0  0
  7  8  1  0  0  0  0
  8  9  1  0  0  0  0
M  END
>  <CHROM.1>
-166.42479483,171.09868134,179.25135878,-173.47976820,61.13327608,30.84000940
16.19144417,21.81611155,-0.35848013,-0.15288929,-2.45143159

>  <Name>
ligand

>  <RI>
0

>  <Rbt.Current_Directory>
/home/itssahil/PROJECTS/Mol_Feturizer/New_Systems/rnas/3DJ0

>  <Rbt.Executable>
rbdock ($Id: //depot/dev/client3/rdock/2013.1/src/exe/rbdock.cxx#4 $)

>  <Rbt.Library>
libRbt.so (2013.1, Build901 2013/11/27)

>  <Rbt.Parameter_File>
/export/apps/rDock/src/rDock_2013.1_src/data/scripts/dock_solv.prm

>  <Rbt.Receptor>
prm/pocket_docking_6.prm

>  <SCORE>
-6.53826

>  <SCORE.INTER>
-4.90304

>  <SCORE.INTER.CONST>
1

>  <SCORE.INTER.POLAR>
0

>  <SCORE.INTER.ROT>
5

>  <SCORE.INTER.SOLV>
20.5327

>  <SCORE.INTER.VDW>
-17.0463

>  <SCORE.INTER.norm>
-0.490304

>  <SCORE.INTRA>
-1.63523

>  <SCORE.INTRA.DIHEDRAL>
-2.90813

>  <SCORE.INTRA.DIHEDRAL.0>
6.00299

>  <SCORE.INTRA.POLAR>
0

>  <SCORE.INTRA.POLAR.0>
0

>  <SCORE.INTRA.REPUL>
0

>  <SCORE.INTRA.REPUL.0>
0

>  <SCORE.INTRA.SOLV>
-0.0882479

>  <SCORE.INTRA.SOLV.lig_0>
-39.3257

>  <SCORE.INTRA.VDW>
-0.137038

>  <SCORE.INTRA.VDW.0>
-0.734044

>  <SCORE.INTRA.norm>
-0.163523

>  <SCORE.RESTR>
0

>  <SCORE.RESTR.CAVITY>
0

>  <SCORE.RESTR.norm>
0

>  <SCORE.SYSTEM>
0

>  <SCORE.SYSTEM.CONST>
0

>  <SCORE.SYSTEM.DIHEDRAL>
0

>  <SCORE.SYSTEM.SOLV>
0

>  <SCORE.SYSTEM.norm>
0

>  <SCORE.heavy>
10

>  <SCORE.norm>
-0.653826

>  <RMSD>
1.118

$$$$
ligand
 OpenBabel11021811473D
libRbt.so/2013.1/901 2013/11/27
 10  9  0  0  0  0  0  0  0  0999 V2000
   31.4903   16.8326   20.5578 N   0  0  0  0  0  0  0  0  0  0  0  0
   31.1045   17.2758   21.8845 C   0  0  2  0  0  0  0  0  0  0  0  0
   32.3198   17.4853   22.7478 C   0  0  0  0  0  0  0  0  0  0  0  0
   33.2424   16.6331   22.7176 O   0  0  0  0  0  0  0  0  0  0  0  0
   30.1770   16.2451   22.5137 C   0  0  0  0  0  0  0  0  0  0  0  0
   29.0126   16.1182   21.7015 O   0  0  0  0  0  0  0  0  0  0  0  0
   28.2011   15.0875   22.2643 C   0  0  0  0  0  0  0  0  0  0  0  0
   26.9914   14.8799   21.3556 C   0  0  0  0  0  0  0  0  0  0  0  0
   27.4290   14.5368   20.0137 N   0  0  0  0  0  0  0  0  0  0  0  0
   32.5743   18.6672   23.0555 O   0  0  0  0  0  0  0  0  0  0  0  0
  2  1  1  6  0  0  0
  2  5  1  0  0  0  0
  2  3  1  0  0  0  0
  3  4  1  0  0  0  0
  3 10  1  0  0  0  0
  5  6  1  0  0  0  0
  6  7  1  0  0  0  0
  7  8  1  0  0  0  0
  8  9  1  0  0  0  0
M  END
>  <CHROM.1>
-60.58338762,-43.36685297,176.34083802,-176.51927738,57.99979485,30.28973933
16.39364465,21.90060871,-0.37194901,-0.41639138,-1.82674623

>  <Name>
ligand

>  <RI>
0

>  <Rbt.Current_Directory>
/home/itssahil/PROJECTS/Mol_Feturizer/New_Systems/rnas/3DJ0

>  <Rbt.Executable>
rbdock ($Id: //depot/dev/client3/rdock/2013.1/src/exe/rbdock.cxx#4 $)

>  <Rbt.Library>
libRbt.so (2013.1, Build901 2013/11/27)

>  <Rbt.Parameter_File>
/export/apps/rDock/src/rDock_2013.1_src/data/scripts/dock_solv.prm

>  <Rbt.Receptor>
prm/pocket_docking_4.prm

>  <SCORE>
-6.99886

>  <SCORE.INTER>
-5.12428

>  <SCORE.INTER.CONST>
1

>  <SCORE.INTER.POLAR>
0

>  <SCORE.INTER.ROT>
5

>  <SCORE.INTER.SOLV>
18.0353

>  <SCORE.INTER.VDW>
-16.3613

>  <SCORE.INTER.norm>
-0.512428

>  <SCORE.INTRA>
-1.87458

>  <SCORE.INTRA.DIHEDRAL>
-3.83813

>  <SCORE.INTRA.DIHEDRAL.0>
6.00299

>  <SCORE.INTRA.POLAR>
0

>  <SCORE.INTRA.POLAR.0>
0

>  <SCORE.INTRA.REPUL>
0

>  <SCORE.INTRA.REPUL.0>
0

>  <SCORE.INTRA.SOLV>
0.510977

>  <SCORE.INTRA.SOLV.lig_0>
-39.3257

>  <SCORE.INTRA.VDW>
-0.211002

>  <SCORE.INTRA.VDW.0>
-0.734044

>  <SCORE.INTRA.norm>
-0.187458

>  <SCORE.RESTR>
0

>  <SCORE.RESTR.CAVITY>
0

>  <SCORE.RESTR.norm>
0

>  <SCORE.SYSTEM>
0

>  <SCORE.SYSTEM.CONST>
0

>  <SCORE.SYSTEM.DIHEDRAL>
0

>  <SCORE.SYSTEM.SOLV>
0

>  <SCORE.SYSTEM.norm>
0

>  <SCORE.heavy>
10

>  <SCORE.norm>
-0.699886

>  <RMSD>
1.121

$$$$
ligand
 OpenBabel11021811473D
libRbt.so/2013.1/901 2013/11/27
 10  9  0  0  0  0  0  0  0  0999 V2000
   33.4809   16.0689   20.6989 N   0  0  0  0  0  0  0  0  0  0  0  0
   32.1704   16.5267   21.1214 C   0  0  2  0  0  0  0  0  0  0  0  0
   32.2909   17.4929   22.2694 C   0  0  0  0  0  0  0  0  0  0  0  0
   33.4330   17.8786   22.6232 O   0  0  0  0  0  0  0  0  0  0  0  0
   31.3197   15.3290   21.5218 C   0  0  0  0  0  0  0  0  0  0  0  0
   29.9659   15.7528   21.6609 O   0  0  0  0  0  0  0  0  0  0  0  0
   29.1974   14.6225   22.0724 C   0  0  0  0  0  0  0  0  0  0  0  0
   27.7195   15.0041   22.0234 C   0  0  0  0  0  0  0  0  0  0  0  0
   27.3321   15.3232   20.6603 N   0  0  0  0  0  0  0  0  0  0  0  0
   31.2965   18.2155   22.4820 O   0  0  0  0  0  0  0  0  0  0  0  0
  2  1  1  1  0  0  0
  2  5  1  0  0  0  0
  2  3  1  0  0  0  0
  3  4  1  0  0  0  0
  3 10  1  0  0  0  0
  5  6  1  0  0  0  0
  6  7  1  0  0  0  0
  7  8  1  0  0  0  0
  8  9  1  0  0  0  0
M  END
>  <CHROM.1>
-167.87325838,6.81020642,-178.39643222,-171.62478313,62.73057442,30.83160189
16.25409704,21.73616610,-0.42098127,-0.15700244,-2.60700503

>  <Name>
ligand

>  <RI>
0

>  <Rbt.Current_Directory>
/home/itssahil/PROJECTS/Mol_Feturizer/New_Systems/rnas/3DJ0

>  <Rbt.Executable>
rbdock ($Id: //depot/dev/client3/rdock/2013.1/src/exe/rbdock.cxx#4 $)

>  <Rbt.Library>
libRbt.so (2013.1, Build901 2013/11/27)

>  <Rbt.Parameter_File>
/export/apps/rDock/src/rDock_2013.1_src/data/scripts/dock_solv.prm

>  <Rbt.Receptor>
prm/pocket_docking_7.prm

>  <SCORE>
-6.44269

>  <SCORE.INTER>
-5.06978

>  <SCORE.INTER.CONST>
1

>  <SCORE.INTER.POLAR>
0

>  <SCORE.INTER.ROT>
5

>  <SCORE.INTER.SOLV>
20.2837

>  <SCORE.INTER.VDW>
-17.0744

>  <SCORE.INTER.norm>
-0.506978

>  <SCORE.INTRA>
-1.37291

>  <SCORE.INTRA.DIHEDRAL>
-2.31125

>  <SCORE.INTRA.DIHEDRAL.0>
6.00299

>  <SCORE.INTRA.POLAR>
0

>  <SCORE.INTRA.POLAR.0>
0

>  <SCORE.INTRA.REPUL>
0

>  <SCORE.INTRA.REPUL.0>
0

>  <SCORE.INTRA.SOLV>
-0.16088

>  <SCORE.INTRA.SOLV.lig_0>
-39.3257

>  <SCORE.INTRA.VDW>
-0.136845

>  <SCORE.INTRA.VDW.0>
-0.734044

>  <SCORE.INTRA.norm>
-0.137291

>  <SCORE.RESTR>
0

>  <SCORE.RESTR.CAVITY>
0

>  <SCORE.RESTR.norm>
0

>  <SCORE.SYSTEM>
0

>  <SCORE.SYSTEM.CONST>
0

>  <SCORE.SYSTEM.DIHEDRAL>
0

>  <SCORE.SYSTEM.SOLV>
0

>  <SCORE.SYSTEM.norm>
0

>  <SCORE.heavy>
10

>  <SCORE.norm>
-0.644269

>  <RMSD>
1.122

$$$$
ligand
 OpenBabel11021811473D
libRbt.so/2013.1/901 2013/11/27
 10  9  0  0  0  0  0  0  0  0999 V2000
   31.7607   15.9900   20.6016 N   0  0  0  0  0  0  0  0  0  0  0  0
   31.0454   16.5934   21.7106 C   0  0  2  0  0  0  0  0  0  0  0  0
   31.9293   17.5651   22.4458 C   0  0  0  0  0  0  0  0  0  0  0  0
   31.3973   18.4763   23.1278 O   0  0  0  0  0  0  0  0  0  0  0  0
   30.5567   15.5017   22.6528 C   0  0  0  0  0  0  0  0  0  0  0  0
   29.5375   14.7512   21.9973 O   0  0  0  0  0  0  0  0  0  0  0  0
   28.3373   15.5231   22.0359 C   0  0  0  0  0  0  0  0  0  0  0  0
   27.2575   14.7693   21.2626 C   0  0  0  0  0  0  0  0  0  0  0  0
   27.6247   14.6718   19.8606 N   0  0  0  0  0  0  0  0  0  0  0  0
   33.0688   17.1518   22.7407 O   0  0  0  0  0  0  0  0  0  0  0  0
  2  1  1  6  0  0  0
  2  5  1  0  0  0  0
  2  3  1  0  0  0  0
  3  4  1  0  0  0  0
  3 10  1  0  0  0  0
  5  6  1  0  0  0  0
  6  7  1  0  0  0  0
  7  8  1  0  0  0  0
  8  9  1  0  0  0  0
M  END
>  <CHROM.1>
-68.62587847,157.16049228,-77.24573671,176.59068085,-64.59117793,30.27886387
16.11435449,21.87269914,-0.58543543,-0.22910852,-2.27864718

>  <Name>
ligand

>  <RI>
0

>  <Rbt.Current_Directory>
/home/itssahil/PROJECTS/Mol_Feturizer/New_Systems/rnas/3DJ0

>  <Rbt.Executable>
rbdock ($Id: //depot/dev/client3/rdock/2013.1/src/exe/rbdock.cxx#4 $)

>  <Rbt.Library>
libRbt.so (2013.1, Build901 2013/11/27)

>  <Rbt.Parameter_File>
/export/apps/rDock/src/rDock_2013.1_src/data/scripts/dock_solv.prm

>  <Rbt.Receptor>
prm/pocket_docking_5.prm

>  <SCORE>
-5.70444

>  <SCORE.INTER>
-5.89869

>  <SCORE.INTER.CONST>
1

>  <SCORE.INTER.POLAR>
0

>  <SCORE.INTER.ROT>
5

>  <SCORE.INTER.SOLV>
17.1276

>  <SCORE.INTER.VDW>
-16.575

>  <SCORE.INTER.norm>
-0.589869

>  <SCORE.INTRA>
0.194249

>  <SCORE.INTRA.DIHEDRAL>
-1.72142

>  <SCORE.INTRA.DIHEDRAL.0>
6.00299

>  <SCORE.INTRA.POLAR>
0

>  <SCORE.INTRA.POLAR.0>
0

>  <SCORE.INTRA.REPUL>
0

>  <SCORE.INTRA.REPUL.0>
0

>  <SCORE.INTRA.SOLV>
0.781383

>  <SCORE.INTRA.SOLV.lig_0>
-39.3257

>  <SCORE.INTRA.VDW>
0.664268

>  <SCORE.INTRA.VDW.0>
-0.734044

>  <SCORE.INTRA.norm>
0.0194249

>  <SCORE.RESTR>
0

>  <SCORE.RESTR.CAVITY>
0

>  <SCORE.RESTR.norm>
0

>  <SCORE.SYSTEM>
0

>  <SCORE.SYSTEM.CONST>
0

>  <SCORE.SYSTEM.DIHEDRAL>
0

>  <SCORE.SYSTEM.SOLV>
0

>  <SCORE.SYSTEM.norm>
0

>  <SCORE.heavy>
10

>  <SCORE.norm>
-0.570444

>  <RMSD>
1.129

$$$$
ligand
 OpenBabel11021811473D
libRbt.so/2013.1/901 2013/11/27
 10  9  0  0  0  0  0  0  0  0999 V2000
   33.4793   16.0803   20.6508 N   0  0  0  0  0  0  0  0  0  0  0  0
   32.1746   16.5278   21.1013 C   0  0  2  0  0  0  0  0  0  0  0  0
   32.3086   17.4389   22.2922 C   0  0  0  0  0  0  0  0  0  0  0  0
   33.4573   17.7336   22.7070 O   0  0  0  0  0  0  0  0  0  0  0  0
   31.3168   15.3193   21.4507 C   0  0  0  0  0  0  0  0  0  0  0  0
   29.9741   15.7522   21.6544 O   0  0  0  0  0  0  0  0  0  0  0  0
   29.1940   14.6044   21.9886 C   0  0  0  0  0  0  0  0  0  0  0  0
   27.7259   15.0215   22.0418 C   0  0  0  0  0  0  0  0  0  0  0  0
   27.2980   15.5060   20.7409 N   0  0  0  0  0  0  0  0  0  0  0  0
   31.3552   18.2175   22.4945 O   0  0  0  0  0  0  0  0  0  0  0  0
  2  1  1  1  0  0  0
  2  5  1  0  0  0  0
  2  3  1  0  0  0  0
  3  4  1  0  0  0  0
  3 10  1  0  0  0  0
  5  6  1  0  0  0  0
  6  7  1  0  0  0  0
  7  8  1  0  0  0  0
  8  9  1  0  0  0  0
M  END
>  <CHROM.1>
-169.51326574,2.50937260,-179.62009514,-173.15747412,61.57375201,30.84023675
16.25123979,21.73625698,-0.39722452,-0.15030308,-2.59010913

>  <Name>
ligand

>  <RI>
0

>  <Rbt.Current_Directory>
/home/itssahil/PROJECTS/Mol_Feturizer/New_Systems/rnas/3DJ0

>  <Rbt.Executable>
rbdock ($Id: //depot/dev/client3/rdock/2013.1/src/exe/rbdock.cxx#4 $)

>  <Rbt.Library>
libRbt.so (2013.1, Build901 2013/11/27)

>  <Rbt.Parameter_File>
/export/apps/rDock/src/rDock_2013.1_src/data/scripts/dock_solv.prm

>  <Rbt.Receptor>
prm/pocket_docking_3.prm

>  <SCORE>
-6.44002

>  <SCORE.INTER>
-4.90955

>  <SCORE.INTER.CONST>
1

>  <SCORE.INTER.POLAR>
0

>  <SCORE.INTER.ROT>
5

>  <SCORE.INTER.SOLV>
20.6543

>  <SCORE.INTER.VDW>
-17.0912

>  <SCORE.INTER.norm>
-0.490955

>  <SCORE.INTRA>
-1.53047

>  <SCORE.INTRA.DIHEDRAL>
-2.61581

>  <SCORE.INTRA.DIHEDRAL.0>
6.00299

>  <SCORE.INTRA.POLAR>
0

>  <SCORE.INTRA.POLAR.0>
0

>  <SCORE.INTRA.REPUL>
0

>  <SCORE.INTRA.REPUL.0>
0

>  <SCORE.INTRA.SOLV>
-0.154331

>  <SCORE.INTRA.SOLV.lig_0>
-39.3257

>  <SCORE.INTRA.VDW>
-0.145397

>  <SCORE.INTRA.VDW.0>
-0.734044

>  <SCORE.INTRA.norm>
-0.153047

>  <SCORE.RESTR>
0

>  <SCORE.RESTR.CAVITY>
0

>  <SCORE.RESTR.norm>
0

>  <SCORE.SYSTEM>
0

>  <SCORE.SYSTEM.CONST>
0

>  <SCORE.SYSTEM.DIHEDRAL>
0

>  <SCORE.SYSTEM.SOLV>
0

>  <SCORE.SYSTEM.norm>
0

>  <SCORE.heavy>
10

>  <SCORE.norm>
-0.644002

>  <RMSD>
1.130

$$$$
ligand
 OpenBabel11021811473D
libRbt.so/2013.1/901 2013/11/27
 10  9  0  0  0  0  0  0  0  0999 V2000
   33.4898   16.0566   20.7276 N   0  0  0  0  0  0  0  0  0  0  0  0
   32.1696   16.5200   21.1121 C   0  0  2  0  0  0  0  0  0  0  0  0
   32.2670   17.5536   22.2021 C   0  0  0  0  0  0  0  0  0  0  0  0
   31.2205   18.1317   22.5882 O   0  0  0  0  0  0  0  0  0  0  0  0
   31.3317   15.3361   21.5756 C   0  0  0  0  0  0  0  0  0  0  0  0
   29.9673   15.7411   21.6534 O   0  0  0  0  0  0  0  0  0  0  0  0
   29.2104   14.6274   22.1273 C   0  0  0  0  0  0  0  0  0  0  0  0
   27.7277   14.9811   22.0342 C   0  0  0  0  0  0  0  0  0  0  0  0
   27.3560   15.2102   20.6488 N   0  0  0  0  0  0  0  0  0  0  0  0
   33.2374   17.4400   22.9777 O   0  0  0  0  0  0  0  0  0  0  0  0
  2  1  1  1  0  0  0
  2  5  1  0  0  0  0
  2  3  1  0  0  0  0
  3  4  1  0  0  0  0
  3 10  1  0  0  0  0
  5  6  1  0  0  0  0
  6  7  1  0  0  0  0
  7  8  1  0  0  0  0
  8  9  1  0  0  0  0
M  END
>  <CHROM.1>
-166.73686076,174.98150911,-178.30796202,-172.33145865,62.51434049,30.80579109
16.18643725,21.79286083,-0.40177103,-0.16752986,-2.51440207

>  <Name>
ligand

>  <RI>
0

>  <Rbt.Current_Directory>
/home/itssahil/PROJECTS/Mol_Feturizer/New_Systems/rnas/3DJ0

>  <Rbt.Executable>
rbdock ($Id: //depot/dev/client3/rdock/2013.1/src/exe/rbdock.cxx#4 $)

>  <Rbt.Library>
libRbt.so (2013.1, Build901 2013/11/27)

>  <Rbt.Parameter_File>
/export/apps/rDock/src/rDock_2013.1_src/data/scripts/dock_solv.prm

>  <Rbt.Receptor>
prm/pocket_docking_6.prm

>  <SCORE>
-6.53439

>  <SCORE.INTER>
-4.97019

>  <SCORE.INTER.CONST>
1

>  <SCORE.INTER.POLAR>
0

>  <SCORE.INTER.ROT>
5

>  <SCORE.INTER.SOLV>
20.0149

>  <SCORE.INTER.VDW>
-16.9184

>  <SCORE.INTER.norm>
-0.497019

>  <SCORE.INTRA>
-1.56421

>  <SCORE.INTRA.DIHEDRAL>
-2.89531

>  <SCORE.INTRA.DIHEDRAL.0>
6.00299

>  <SCORE.INTRA.POLAR>
0

>  <SCORE.INTRA.POLAR.0>
0

>  <SCORE.INTRA.REPUL>
0

>  <SCORE.INTRA.REPUL.0>
0

>  <SCORE.INTRA.SOLV>
-0.0736466

>  <SCORE.INTRA.SOLV.lig_0>
-39.3257

>  <SCORE.INTRA.VDW>
-0.0797299

>  <SCORE.INTRA.VDW.0>
-0.734044

>  <SCORE.INTRA.norm>
-0.156421

>  <SCORE.RESTR>
0

>  <SCORE.RESTR.CAVITY>
0

>  <SCORE.RESTR.norm>
0

>  <SCORE.SYSTEM>
0

>  <SCORE.SYSTEM.CONST>
0

>  <SCORE.SYSTEM.DIHEDRAL>
0

>  <SCORE.SYSTEM.SOLV>
0

>  <SCORE.SYSTEM.norm>
0

>  <SCORE.heavy>
10

>  <SCORE.norm>
-0.653439

>  <RMSD>
1.132

$$$$
ligand
 OpenBabel11021811473D
libRbt.so/2013.1/901 2013/11/27
 10  9  0  0  0  0  0  0  0  0999 V2000
   31.9282   15.8399   20.6602 N   0  0  0  0  0  0  0  0  0  0  0  0
   31.4028   16.5150   21.8322 C   0  0  2  0  0  0  0  0  0  0  0  0
   32.4286   17.4545   22.4074 C   0  0  0  0  0  0  0  0  0  0  0  0
   32.0736   18.6119   22.7435 O   0  0  0  0  0  0  0  0  0  0  0  0
   30.9884   15.4806   22.8700 C   0  0  0  0  0  0  0  0  0  0  0  0
   29.8960   14.7242   22.3542 O   0  0  0  0  0  0  0  0  0  0  0  0
   28.6990   15.4568   22.6156 C   0  0  0  0  0  0  0  0  0  0  0  0
   27.5905   14.8966   21.7271 C   0  0  0  0  0  0  0  0  0  0  0  0
   27.7808   15.3362   20.3557 N   0  0  0  0  0  0  0  0  0  0  0  0
   33.4101   16.9194   22.9609 O   0  0  0  0  0  0  0  0  0  0  0  0
  2  1  1  6  0  0  0
  2  5  1  0  0  0  0
  2  3  1  0  0  0  0
  3  4  1  0  0  0  0
  3 10  1  0  0  0  0
  5  6  1  0  0  0  0
  6  7  1  0  0  0  0
  7  8  1  0  0  0  0
  8  9  1  0  0  0  0
M  END
>  <CHROM.1>
-65.57855321,134.74373217,-84.03595582,163.24812191,-74.71309917,30.65007971
16.13742320,22.07818235,-0.42763440,0.30611337,2.96934655

>  <Name>
ligand

>  <RI>
0

>  <Rbt.Current_Directory>
/home/itssahil/PROJECTS/Mol_Feturizer/New_Systems/rnas/3DJ0

>  <Rbt.Executable>
rbdock ($Id: //depot/dev/client3/rdock/2013.1/src/exe/rbdock.cxx#4 $)

>  <Rbt.Library>
libRbt.so (2013.1, Build901 2013/11/27)

>  <Rbt.Parameter_File>
/export/apps/rDock/src/rDock_2013.1_src/data/scripts/dock_solv.prm

>  <Rbt.Receptor>
prm/pocket_docking_2.prm

>  <SCORE>
-3.87972

>  <SCORE.INTER>
-5.73228

>  <SCORE.INTER.CONST>
1

>  <SCORE.INTER.POLAR>
0

>  <SCORE.INTER.ROT>
5

>  <SCORE.INTER.SOLV>
16.9458

>  <SCORE.INTER.VDW>
-16.4034

>  <SCORE.INTER.norm>
-0.573228

>  <SCORE.INTRA>
1.85256

>  <SCORE.INTRA.DIHEDRAL>
1.47983

>  <SCORE.INTRA.DIHEDRAL.0>
6.00299

>  <SCORE.INTRA.POLAR>
0

>  <SCORE.INTRA.POLAR.0>
0

>  <SCORE.INTRA.REPUL>
0

>  <SCORE.INTRA.REPUL.0>
0

>  <SCORE.INTRA.SOLV>
1.17712

>  <SCORE.INTRA.SOLV.lig_0>
-39.3257

>  <SCORE.INTRA.VDW>
0.524087

>  <SCORE.INTRA.VDW.0>
-0.734044

>  <SCORE.INTRA.norm>
0.185256

>  <SCORE.RESTR>
0

>  <SCORE.RESTR.CAVITY>
0

>  <SCORE.RESTR.norm>
0

>  <SCORE.SYSTEM>
0

>  <SCORE.SYSTEM.CONST>
0

>  <SCORE.SYSTEM.DIHEDRAL>
0

>  <SCORE.SYSTEM.SOLV>
0

>  <SCORE.SYSTEM.norm>
0

>  <SCORE.heavy>
10

>  <SCORE.norm>
-0.387972

>  <RMSD>
1.134

$$$$
ligand
 OpenBabel11021811473D
libRbt.so/2013.1/901 2013/11/27
 10  9  0  0  0  0  0  0  0  0999 V2000
   31.7642   16.2405   20.6275 N   0  0  0  0  0  0  0  0  0  0  0  0
   31.0824   17.0742   21.5999 C   0  0  2  0  0  0  0  0  0  0  0  0
   32.0674   17.6743   22.5672 C   0  0  0  0  0  0  0  0  0  0  0  0
   31.6989   18.6266   23.2992 O   0  0  0  0  0  0  0  0  0  0  0  0
   30.0467   16.2422   22.3437 C   0  0  0  0  0  0  0  0  0  0  0  0
   28.9652   15.9574   21.4600 O   0  0  0  0  0  0  0  0  0  0  0  0
   28.0465   15.1150   22.1558 C   0  0  0  0  0  0  0  0  0  0  0  0
   26.8375   14.8763   21.2538 C   0  0  0  0  0  0  0  0  0  0  0  0
   27.2667   14.3228   19.9812 N   0  0  0  0  0  0  0  0  0  0  0  0
   32.9931   16.9255   22.9395 O   0  0  0  0  0  0  0  0  0  0  0  0
  2  1  1  6  0  0  0
  2  5  1  0  0  0  0
  2  3  1  0  0  0  0
  3  4  1  0  0  0  0
  3 10  1  0  0  0  0
  5  6  1  0  0  0  0
  6  7  1  0  0  0  0
  7  8  1  0  0  0  0
  8  9  1  0  0  0  0
M  END
>  <CHROM.1>
-71.64117105,165.63471727,176.76383634,176.32371252,55.89912630,30.10295906
16.32630521,21.85008228,-0.53875704,-0.26285700,-2.18513847

>  <Name>
ligand

>  <RI>
0

>  <Rbt.Current_Directory>
/home/itssahil/PROJECTS/Mol_Feturizer/New_Systems/rnas/3DJ0

>  <Rbt.Executable>
rbdock ($Id: //depot/dev/client3/rdock/2013.1/src/exe/rbdock.cxx#4 $)

>  <Rbt.Library>
libRbt.so (2013.1, Build901 2013/11/27)

>  <Rbt.Parameter_File>
/export/apps/rDock/src/rDock_2013.1_src/data/scripts/dock_solv.prm

>  <Rbt.Receptor>
prm/pocket_docking_2.prm

>  <SCORE>
-6.626

>  <SCORE.INTER>
-5.21828

>  <SCORE.INTER.CONST>
1

>  <SCORE.INTER.POLAR>
0

>  <SCORE.INTER.ROT>
5

>  <SCORE.INTER.SOLV>
18.642

>  <SCORE.INTER.VDW>
-16.6262

>  <SCORE.INTER.norm>
-0.521828

>  <SCORE.INTRA>
-1.40772

>  <SCORE.INTRA.DIHEDRAL>
-3.01335

>  <SCORE.INTRA.DIHEDRAL.0>
6.00299

>  <SCORE.INTRA.POLAR>
0

>  <SCORE.INTRA.POLAR.0>
0

>  <SCORE.INTRA.REPUL>
0

>  <SCORE.INTRA.REPUL.0>
0

>  <SCORE.INTRA.SOLV>
0.281529

>  <SCORE.INTRA.SOLV.lig_0>
-39.3257

>  <SCORE.INTRA.VDW>
-0.0418087

>  <SCORE.INTRA.VDW.0>
-0.734044

>  <SCORE.INTRA.norm>
-0.140772

>  <SCORE.RESTR>
0

>  <SCORE.RESTR.CAVITY>
0

>  <SCORE.RESTR.norm>
0

>  <SCORE.SYSTEM>
0

>  <SCORE.SYSTEM.CONST>
0

>  <SCORE.SYSTEM.DIHEDRAL>
0

>  <SCORE.SYSTEM.SOLV>
0

>  <SCORE.SYSTEM.norm>
0

>  <SCORE.heavy>
10

>  <SCORE.norm>
-0.6626

>  <RMSD>
1.147

$$$$
ligand
 OpenBabel11021811473D
libRbt.so/2013.1/901 2013/11/27
 10  9  0  0  0  0  0  0  0  0999 V2000
   33.4865   16.0831   20.7154 N   0  0  0  0  0  0  0  0  0  0  0  0
   32.1697   16.5389   21.1203 C   0  0  2  0  0  0  0  0  0  0  0  0
   32.2738   17.5105   22.2653 C   0  0  0  0  0  0  0  0  0  0  0  0
   33.4106   17.9006   22.6314 O   0  0  0  0  0  0  0  0  0  0  0  0
   31.3178   15.3405   21.5159 C   0  0  0  0  0  0  0  0  0  0  0  0
   29.9635   15.7639   21.6506 O   0  0  0  0  0  0  0  0  0  0  0  0
   29.1903   14.6283   22.0386 C   0  0  0  0  0  0  0  0  0  0  0  0
   27.7175   15.0321   22.0490 C   0  0  0  0  0  0  0  0  0  0  0  0
   27.2940   15.4069   20.7111 N   0  0  0  0  0  0  0  0  0  0  0  0
   31.2752   18.2317   22.4624 O   0  0  0  0  0  0  0  0  0  0  0  0
  2  1  1  1  0  0  0
  2  5  1  0  0  0  0
  2  3  1  0  0  0  0
  3  4  1  0  0  0  0
  3 10  1  0  0  0  0
  5  6  1  0  0  0  0
  6  7  1  0  0  0  0
  7  8  1  0  0  0  0
  8  9  1  0  0  0  0
M  END
>  <CHROM.1>
-168.46858880,6.77125282,-179.24042753,-174.33135664,62.96596197,30.82064672
16.27618883,21.73845322,-0.41645965,-0.14827079,-2.62787853

>  <Name>
ligand

>  <RI>
0

>  <Rbt.Current_Directory>
/home/itssahil/PROJECTS/Mol_Feturizer/New_Systems/rnas/3DJ0

>  <Rbt.Executable>
rbdock ($Id: //depot/dev/client3/rdock/2013.1/src/exe/rbdock.cxx#4 $)

>  <Rbt.Library>
libRbt.so (2013.1, Build901 2013/11/27)

>  <Rbt.Parameter_File>
/export/apps/rDock/src/rDock_2013.1_src/data/scripts/dock_solv.prm

>  <Rbt.Receptor>
prm/blind_docking_60.prm

>  <SCORE>
-6.50137

>  <SCORE.INTER>
-5.00684

>  <SCORE.INTER.CONST>
1

>  <SCORE.INTER.POLAR>
0

>  <SCORE.INTER.ROT>
5

>  <SCORE.INTER.SOLV>
20.4739

>  <SCORE.INTER.VDW>
-17.0959

>  <SCORE.INTER.norm>
-0.500684

>  <SCORE.INTRA>
-1.49453

>  <SCORE.INTRA.DIHEDRAL>
-2.5474

>  <SCORE.INTRA.DIHEDRAL.0>
6.00299

>  <SCORE.INTRA.POLAR>
0

>  <SCORE.INTRA.POLAR.0>
0

>  <SCORE.INTRA.REPUL>
0

>  <SCORE.INTRA.REPUL.0>
0

>  <SCORE.INTRA.SOLV>
-0.179871

>  <SCORE.INTRA.SOLV.lig_0>
-39.3257

>  <SCORE.INTRA.VDW>
-0.130897

>  <SCORE.INTRA.VDW.0>
-0.734044

>  <SCORE.INTRA.norm>
-0.149453

>  <SCORE.RESTR>
0

>  <SCORE.RESTR.CAVITY>
0

>  <SCORE.RESTR.norm>
0

>  <SCORE.SYSTEM>
0

>  <SCORE.SYSTEM.CONST>
0

>  <SCORE.SYSTEM.DIHEDRAL>
0

>  <SCORE.SYSTEM.SOLV>
0

>  <SCORE.SYSTEM.norm>
0

>  <SCORE.heavy>
10

>  <SCORE.norm>
-0.650137

>  <RMSD>
1.148

$$$$
ligand
 OpenBabel11021811473D
libRbt.so/2013.1/901 2013/11/27
 10  9  0  0  0  0  0  0  0  0999 V2000
   31.6056   16.3797   20.5992 N   0  0  0  0  0  0  0  0  0  0  0  0
   31.0076   16.7961   21.8540 C   0  0  2  0  0  0  0  0  0  0  0  0
   31.9488   17.6865   22.6204 C   0  0  0  0  0  0  0  0  0  0  0  0
   33.1871   17.5238   22.4845 O   0  0  0  0  0  0  0  0  0  0  0  0
   30.6499   15.5666   22.6779 C   0  0  0  0  0  0  0  0  0  0  0  0
   29.6364   14.8339   21.9940 O   0  0  0  0  0  0  0  0  0  0  0  0
   28.4072   15.5423   22.1523 C   0  0  0  0  0  0  0  0  0  0  0  0
   27.3143   14.7778   21.4084 C   0  0  0  0  0  0  0  0  0  0  0  0
   27.6449   14.6829   19.9971 N   0  0  0  0  0  0  0  0  0  0  0  0
   31.5001   18.8039   22.9463 O   0  0  0  0  0  0  0  0  0  0  0  0
  2  1  1  6  0  0  0
  2  5  1  0  0  0  0
  2  3  1  0  0  0  0
  3  4  1  0  0  0  0
  3 10  1  0  0  0  0
  5  6  1  0  0  0  0
  6  7  1  0  0  0  0
  7  8  1  0  0  0  0
  8  9  1  0  0  0  0
M  END
>  <CHROM.1>
-65.03636737,-30.18468479,-74.79914869,179.26607536,-60.15418751,30.32102598
16.27844302,21.89345438,-0.58254649,-0.30386597,-2.28816360

>  <Name>
ligand

>  <RI>
0

>  <Rbt.Current_Directory>
/home/itssahil/PROJECTS/Mol_Feturizer/New_Systems/rnas/3DJ0

>  <Rbt.Executable>
rbdock ($Id: //depot/dev/client3/rdock/2013.1/src/exe/rbdock.cxx#4 $)

>  <Rbt.Library>
libRbt.so (2013.1, Build901 2013/11/27)

>  <Rbt.Parameter_File>
/export/apps/rDock/src/rDock_2013.1_src/data/scripts/dock_solv.prm

>  <Rbt.Receptor>
prm/pocket_docking_7.prm

>  <SCORE>
-5.94231

>  <SCORE.INTER>
-5.83726

>  <SCORE.INTER.CONST>
1

>  <SCORE.INTER.POLAR>
0

>  <SCORE.INTER.ROT>
5

>  <SCORE.INTER.SOLV>
16.6562

>  <SCORE.INTER.VDW>
-16.3769

>  <SCORE.INTER.norm>
-0.583726

>  <SCORE.INTRA>
-0.105048

>  <SCORE.INTRA.DIHEDRAL>
-2.71658

>  <SCORE.INTRA.DIHEDRAL.0>
6.00299

>  <SCORE.INTRA.POLAR>
0

>  <SCORE.INTRA.POLAR.0>
0

>  <SCORE.INTRA.REPUL>
0

>  <SCORE.INTRA.REPUL.0>
0

>  <SCORE.INTRA.SOLV>
1.04094

>  <SCORE.INTRA.SOLV.lig_0>
-39.3257

>  <SCORE.INTRA.VDW>
0.732775

>  <SCORE.INTRA.VDW.0>
-0.734044

>  <SCORE.INTRA.norm>
-0.0105048

>  <SCORE.RESTR>
0

>  <SCORE.RESTR.CAVITY>
0

>  <SCORE.RESTR.norm>
0

>  <SCORE.SYSTEM>
0

>  <SCORE.SYSTEM.CONST>
0

>  <SCORE.SYSTEM.DIHEDRAL>
0

>  <SCORE.SYSTEM.SOLV>
0

>  <SCORE.SYSTEM.norm>
0

>  <SCORE.heavy>
10

>  <SCORE.norm>
-0.594231

>  <RMSD>
1.173

$$$$
ligand
 OpenBabel11021811473D
libRbt.so/2013.1/901 2013/11/27
 10  9  0  0  0  0  0  0  0  0999 V2000
   31.4482   15.5885   23.0764 N   0  0  0  0  0  0  0  0  0  0  0  0
   31.7886   15.8773   21.6958 C   0  0  2  0  0  0  0  0  0  0  0  0
   33.0020   16.7653   21.6234 C   0  0  0  0  0  0  0  0  0  0  0  0
   33.6574   16.8147   20.5527 O   0  0  0  0  0  0  0  0  0  0  0  0
   30.6027   16.5410   21.0092 C   0  0  0  0  0  0  0  0  0  0  0  0
   29.5100   15.6259   20.9927 O   0  0  0  0  0  0  0  0  0  0  0  0
   28.4179   16.2657   20.3326 C   0  0  0  0  0  0  0  0  0  0  0  0
   27.2554   15.2779   20.2619 C   0  0  0  0  0  0  0  0  0  0  0  0
   27.6130   14.1466   19.4238 N   0  0  0  0  0  0  0  0  0  0  0  0
   33.0162   17.7359   22.4070 O   0  0  0  0  0  0  0  0  0  0  0  0
  2  1  1  1  0  0  0
  2  5  1  0  0  0  0
  2  3  1  0  0  0  0
  3  4  1  0  0  0  0
  3 10  1  0  0  0  0
  5  6  1  0  0  0  0
  6  7  1  0  0  0  0
  7  8  1  0  0  0  0
  8  9  1  0  0  0  0
M  END
>  <CHROM.1>
-63.08439813,160.23208584,-179.39296883,177.95191593,-64.90276507,30.66548379
16.08779616,21.13761272,0.28164993,0.35109758,1.62241258

>  <Name>
ligand

>  <RI>
0

>  <Rbt.Current_Directory>
/home/itssahil/PROJECTS/Mol_Feturizer/New_Systems/rnas/3DJ0

>  <Rbt.Executable>
rbdock ($Id: //depot/dev/client3/rdock/2013.1/src/exe/rbdock.cxx#4 $)

>  <Rbt.Library>
libRbt.so (2013.1, Build901 2013/11/27)

>  <Rbt.Parameter_File>
/export/apps/rDock/src/rDock_2013.1_src/data/scripts/dock_solv.prm

>  <Rbt.Receptor>
prm/pocket_docking_8.prm

>  <SCORE>
-5.56267

>  <SCORE.INTER>
-3.91628

>  <SCORE.INTER.CONST>
1

>  <SCORE.INTER.POLAR>
0

>  <SCORE.INTER.ROT>
5

>  <SCORE.INTER.SOLV>
19.5786

>  <SCORE.INTER.VDW>
-16.0704

>  <SCORE.INTER.norm>
-0.391628

>  <SCORE.INTRA>
-1.64639

>  <SCORE.INTRA.DIHEDRAL>
-3.40425

>  <SCORE.INTRA.DIHEDRAL.0>
6.00299

>  <SCORE.INTRA.POLAR>
0

>  <SCORE.INTRA.POLAR.0>
0

>  <SCORE.INTRA.REPUL>
0

>  <SCORE.INTRA.REPUL.0>
0

>  <SCORE.INTRA.SOLV>
0.255447

>  <SCORE.INTRA.SOLV.lig_0>
-39.3257

>  <SCORE.INTRA.VDW>
-0.0719872

>  <SCORE.INTRA.VDW.0>
-0.734044

>  <SCORE.INTRA.norm>
-0.164639

>  <SCORE.RESTR>
0

>  <SCORE.RESTR.CAVITY>
0

>  <SCORE.RESTR.norm>
0

>  <SCORE.SYSTEM>
0

>  <SCORE.SYSTEM.CONST>
0

>  <SCORE.SYSTEM.DIHEDRAL>
0

>  <SCORE.SYSTEM.SOLV>
0

>  <SCORE.SYSTEM.norm>
0

>  <SCORE.heavy>
10

>  <SCORE.norm>
-0.556267

>  <RMSD>
1.398

$$$$
ligand
 OpenBabel11021811473D
libRbt.so/2013.1/901 2013/11/27
 10  9  0  0  0  0  0  0  0  0999 V2000
   32.0277   16.2572   20.4052 N   0  0  0  0  0  0  0  0  0  0  0  0
   30.9292   16.6730   21.2572 C   0  0  2  0  0  0  0  0  0  0  0  0
   31.4170   16.9496   22.6542 C   0  0  0  0  0  0  0  0  0  0  0  0
   32.2903   16.1975   23.1542 O   0  0  0  0  0  0  0  0  0  0  0  0
   29.8607   15.5884   21.2724 C   0  0  0  0  0  0  0  0  0  0  0  0
   28.7297   16.0675   21.9956 O   0  0  0  0  0  0  0  0  0  0  0  0
   27.7489   15.0304   22.0043 C   0  0  0  0  0  0  0  0  0  0  0  0
   26.9229   15.1412   20.7245 C   0  0  0  0  0  0  0  0  0  0  0  0
   27.7389   14.7962   19.5733 N   0  0  0  0  0  0  0  0  0  0  0  0
   31.3146   18.1298   23.0450 O   0  0  0  0  0  0  0  0  0  0  0  0
  2  1  1  6  0  0  0
  2  5  1  0  0  0  0
  2  3  1  0  0  0  0
  3  4  1  0  0  0  0
  3 10  1  0  0  0  0
  5  6  1  0  0  0  0
  6  7  1  0  0  0  0
  7  8  1  0  0  0  0
  8  9  1  0  0  0  0
M  END
>  <CHROM.1>
-173.92808777,-39.16344357,-179.54754794,-85.74267395,68.56384177,29.91630565
16.10242683,21.65030144,-0.49455241,-0.24814878,-1.96871703

>  <Name>
ligand

>  <RI>
0

>  <Rbt.Current_Directory>
/home/itssahil/PROJECTS/Mol_Feturizer/New_Systems/rnas/3DJ0

>  <Rbt.Executable>
rbdock ($Id: //depot/dev/client3/rdock/2013.1/src/exe/rbdock.cxx#4 $)

>  <Rbt.Library>
libRbt.so (2013.1, Build901 2013/11/27)

>  <Rbt.Parameter_File>
/export/apps/rDock/src/rDock_2013.1_src/data/scripts/dock_solv.prm

>  <Rbt.Receptor>
prm/pocket_docking_3.prm

>  <SCORE>
-4.19206

>  <SCORE.INTER>
-5.459

>  <SCORE.INTER.CONST>
1

>  <SCORE.INTER.POLAR>
0

>  <SCORE.INTER.ROT>
5

>  <SCORE.INTER.SOLV>
17.3277

>  <SCORE.INTER.VDW>
-16.3486

>  <SCORE.INTER.norm>
-0.5459

>  <SCORE.INTRA>
1.26693

>  <SCORE.INTRA.DIHEDRAL>
-0.737181

>  <SCORE.INTRA.DIHEDRAL.0>
6.00299

>  <SCORE.INTRA.POLAR>
0

>  <SCORE.INTRA.POLAR.0>
0

>  <SCORE.INTRA.REPUL>
0

>  <SCORE.INTRA.REPUL.0>
0

>  <SCORE.INTRA.SOLV>
1.18767

>  <SCORE.INTRA.SOLV.lig_0>
-39.3257

>  <SCORE.INTRA.VDW>
1.04169

>  <SCORE.INTRA.VDW.0>
-0.734044

>  <SCORE.INTRA.norm>
0.126693

>  <SCORE.RESTR>
0

>  <SCORE.RESTR.CAVITY>
0

>  <SCORE.RESTR.norm>
0

>  <SCORE.SYSTEM>
0

>  <SCORE.SYSTEM.CONST>
0

>  <SCORE.SYSTEM.DIHEDRAL>
0

>  <SCORE.SYSTEM.SOLV>
0

>  <SCORE.SYSTEM.norm>
0

>  <SCORE.heavy>
10

>  <SCORE.norm>
-0.419206

>  <RMSD>
1.407

$$$$
ligand
 OpenBabel11021811473D
libRbt.so/2013.1/901 2013/11/27
 10  9  0  0  0  0  0  0  0  0999 V2000
   31.4229   15.6589   23.0093 N   0  0  0  0  0  0  0  0  0  0  0  0
   31.6906   16.4786   21.8423 C   0  0  2  0  0  0  0  0  0  0  0  0
   32.4795   17.7027   22.2237 C   0  0  0  0  0  0  0  0  0  0  0  0
   31.9754   18.5256   23.0282 O   0  0  0  0  0  0  0  0  0  0  0  0
   30.3738   16.8771   21.1897 C   0  0  0  0  0  0  0  0  0  0  0  0
   29.6516   15.6953   20.8530 O   0  0  0  0  0  0  0  0  0  0  0  0
   28.4150   16.0957   20.2630 C   0  0  0  0  0  0  0  0  0  0  0  0
   27.6119   14.8391   19.9338 C   0  0  0  0  0  0  0  0  0  0  0  0
   28.3503   14.0060   19.0006 N   0  0  0  0  0  0  0  0  0  0  0  0
   33.7195   17.6050   22.1289 O   0  0  0  0  0  0  0  0  0  0  0  0
  2  1  1  1  0  0  0
  2  5  1  0  0  0  0
  2  3  1  0  0  0  0
  3  4  1  0  0  0  0
  3 10  1  0  0  0  0
  5  6  1  0  0  0  0
  6  7  1  0  0  0  0
  7  8  1  0  0  0  0
  8  9  1  0  0  0  0
M  END
>  <CHROM.1>
-57.52335633,-61.58362268,179.11949063,-178.37469239,-60.18737902,30.59785637
16.37649349,21.36469008,-0.64477847,0.35497034,-2.79368767

>  <Name>
ligand

>  <RI>
0

>  <Rbt.Current_Directory>
/home/itssahil/PROJECTS/Mol_Feturizer/New_Systems/rnas/3DJ0

>  <Rbt.Executable>
rbdock ($Id: //depot/dev/client3/rdock/2013.1/src/exe/rbdock.cxx#4 $)

>  <Rbt.Library>
libRbt.so (2013.1, Build901 2013/11/27)

>  <Rbt.Parameter_File>
/export/apps/rDock/src/rDock_2013.1_src/data/scripts/dock_solv.prm

>  <Rbt.Receptor>
prm/pocket_docking_2.prm

>  <SCORE>
-5.89066

>  <SCORE.INTER>
-4.11456

>  <SCORE.INTER.CONST>
1

>  <SCORE.INTER.POLAR>
0

>  <SCORE.INTER.ROT>
5

>  <SCORE.INTER.SOLV>
18.2328

>  <SCORE.INTER.VDW>
-15.754

>  <SCORE.INTER.norm>
-0.411456

>  <SCORE.INTRA>
-1.77611

>  <SCORE.INTRA.DIHEDRAL>
-3.84814

>  <SCORE.INTRA.DIHEDRAL.0>
6.00299

>  <SCORE.INTRA.POLAR>
0

>  <SCORE.INTRA.POLAR.0>
0

>  <SCORE.INTRA.REPUL>
0

>  <SCORE.INTRA.REPUL.0>
0

>  <SCORE.INTRA.SOLV>
0.495602

>  <SCORE.INTRA.SOLV.lig_0>
-39.3257

>  <SCORE.INTRA.VDW>
-0.0998395

>  <SCORE.INTRA.VDW.0>
-0.734044

>  <SCORE.INTRA.norm>
-0.177611

>  <SCORE.RESTR>
0

>  <SCORE.RESTR.CAVITY>
0

>  <SCORE.RESTR.norm>
0

>  <SCORE.SYSTEM>
0

>  <SCORE.SYSTEM.CONST>
0

>  <SCORE.SYSTEM.DIHEDRAL>
0

>  <SCORE.SYSTEM.SOLV>
0

>  <SCORE.SYSTEM.norm>
0

>  <SCORE.heavy>
10

>  <SCORE.norm>
-0.589066

>  <RMSD>
1.419

$$$$
ligand
 OpenBabel11021811473D
libRbt.so/2013.1/901 2013/11/27
 10  9  0  0  0  0  0  0  0  0999 V2000
   33.7280   16.6341   21.2663 N   0  0  0  0  0  0  0  0  0  0  0  0
   32.3461   16.9598   21.5658 C   0  0  2  0  0  0  0  0  0  0  0  0
   32.2693   17.9840   22.6663 C   0  0  0  0  0  0  0  0  0  0  0  0
   33.3335   18.3852   23.2000 O   0  0  0  0  0  0  0  0  0  0  0  0
   31.6018   15.6931   21.9658 C   0  0  0  0  0  0  0  0  0  0  0  0
   30.2013   15.9577   21.9469 O   0  0  0  0  0  0  0  0  0  0  0  0
   29.5288   14.7643   22.3485 C   0  0  0  0  0  0  0  0  0  0  0  0
   28.0286   14.9694   22.1495 C   0  0  0  0  0  0  0  0  0  0  0  0
   27.7371   15.1836   20.7427 N   0  0  0  0  0  0  0  0  0  0  0  0
   31.2612   18.7187   22.6595 O   0  0  0  0  0  0  0  0  0  0  0  0
  2  1  1  1  0  0  0
  2  5  1  0  0  0  0
  2  3  1  0  0  0  0
  3  4  1  0  0  0  0
  3 10  1  0  0  0  0
  5  6  1  0  0  0  0
  6  7  1  0  0  0  0
  7  8  1  0  0  0  0
  8  9  1  0  0  0  0
M  END
>  <CHROM.1>
-166.33257902,-2.19716794,-178.95345933,-172.31988135,62.71077157,31.00982215
16.55963531,22.07314921,-0.56915135,-0.11430752,-2.69421051

>  <Name>
ligand

>  <RI>
0

>  <Rbt.Current_Directory>
/home/itssahil/PROJECTS/Mol_Feturizer/New_Systems/rnas/3DJ0

>  <Rbt.Executable>
rbdock ($Id: //depot/dev/client3/rdock/2013.1/src/exe/rbdock.cxx#4 $)

>  <Rbt.Library>
libRbt.so (2013.1, Build901 2013/11/27)

>  <Rbt.Parameter_File>
/export/apps/rDock/src/rDock_2013.1_src/data/scripts/dock_solv.prm

>  <Rbt.Receptor>
prm/pocket_docking_4.prm

>  <SCORE>
-6.54772

>  <SCORE.INTER>
-5.08952

>  <SCORE.INTER.CONST>
1

>  <SCORE.INTER.POLAR>
0

>  <SCORE.INTER.ROT>
5

>  <SCORE.INTER.SOLV>
18.2629

>  <SCORE.INTER.VDW>
-16.414

>  <SCORE.INTER.norm>
-0.508952

>  <SCORE.INTRA>
-1.4582

>  <SCORE.INTRA.DIHEDRAL>
-2.33191

>  <SCORE.INTRA.DIHEDRAL.0>
6.00299

>  <SCORE.INTRA.POLAR>
0

>  <SCORE.INTRA.POLAR.0>
0

>  <SCORE.INTRA.REPUL>
0

>  <SCORE.INTRA.REPUL.0>
0

>  <SCORE.INTRA.SOLV>
-0.184985

>  <SCORE.INTRA.SOLV.lig_0>
-39.3257

>  <SCORE.INTRA.VDW>
-0.199753

>  <SCORE.INTRA.VDW.0>
-0.734044

>  <SCORE.INTRA.norm>
-0.14582

>  <SCORE.RESTR>
0

>  <SCORE.RESTR.CAVITY>
0

>  <SCORE.RESTR.norm>
0

>  <SCORE.SYSTEM>
0

>  <SCORE.SYSTEM.CONST>
0

>  <SCORE.SYSTEM.DIHEDRAL>
0

>  <SCORE.SYSTEM.SOLV>
0

>  <SCORE.SYSTEM.norm>
0

>  <SCORE.heavy>
10

>  <SCORE.norm>
-0.654772

>  <RMSD>
1.420

$$$$
ligand
 OpenBabel11021811473D
libRbt.so/2013.1/901 2013/11/27
 10  9  0  0  0  0  0  0  0  0999 V2000
   31.3014   15.6630   23.1273 N   0  0  0  0  0  0  0  0  0  0  0  0
   31.6681   15.9543   21.7540 C   0  0  2  0  0  0  0  0  0  0  0  0
   32.8579   16.8753   21.7069 C   0  0  0  0  0  0  0  0  0  0  0  0
   33.5444   16.9299   20.6561 O   0  0  0  0  0  0  0  0  0  0  0  0
   30.4818   16.5813   21.0344 C   0  0  0  0  0  0  0  0  0  0  0  0
   29.4205   15.6312   20.9836 O   0  0  0  0  0  0  0  0  0  0  0  0
   28.3030   16.2619   20.3582 C   0  0  0  0  0  0  0  0  0  0  0  0
   27.1637   15.2481   20.2778 C   0  0  0  0  0  0  0  0  0  0  0  0
   27.5310   14.1545   19.3952 N   0  0  0  0  0  0  0  0  0  0  0  0
   32.8209   17.8555   22.4776 O   0  0  0  0  0  0  0  0  0  0  0  0
  2  1  1  1  0  0  0
  2  5  1  0  0  0  0
  2  3  1  0  0  0  0
  3  4  1  0  0  0  0
  3 10  1  0  0  0  0
  5  6  1  0  0  0  0
  6  7  1  0  0  0  0
  7  8  1  0  0  0  0
  8  9  1  0  0  0  0
M  END
>  <CHROM.1>
-63.68083335,159.68880872,177.49393421,179.16010838,-65.34118098,30.54332723
16.13999705,21.17736869,0.30230567,0.36956077,1.60090406

>  <Name>
ligand

>  <RI>
0

>  <Rbt.Current_Directory>
/home/itssahil/PROJECTS/Mol_Feturizer/New_Systems/rnas/3DJ0

>  <Rbt.Executable>
rbdock ($Id: //depot/dev/client3/rdock/2013.1/src/exe/rbdock.cxx#4 $)

>  <Rbt.Library>
libRbt.so (2013.1, Build901 2013/11/27)

>  <Rbt.Parameter_File>
/export/apps/rDock/src/rDock_2013.1_src/data/scripts/dock_solv.prm

>  <Rbt.Receptor>
prm/pocket_docking_8.prm

>  <SCORE>
-5.59261

>  <SCORE.INTER>
-3.96391

>  <SCORE.INTER.CONST>
1

>  <SCORE.INTER.POLAR>
0

>  <SCORE.INTER.ROT>
5

>  <SCORE.INTER.SOLV>
19.3526

>  <SCORE.INTER.VDW>
-16.0268

>  <SCORE.INTER.norm>
-0.396391

>  <SCORE.INTRA>
-1.6287

>  <SCORE.INTRA.DIHEDRAL>
-3.35026

>  <SCORE.INTRA.DIHEDRAL.0>
6.00299

>  <SCORE.INTRA.POLAR>
0

>  <SCORE.INTRA.POLAR.0>
0

>  <SCORE.INTRA.REPUL>
0

>  <SCORE.INTRA.REPUL.0>
0

>  <SCORE.INTRA.SOLV>
0.24924

>  <SCORE.INTRA.SOLV.lig_0>
-39.3257

>  <SCORE.INTRA.VDW>
-0.0781911

>  <SCORE.INTRA.VDW.0>
-0.734044

>  <SCORE.INTRA.norm>
-0.16287

>  <SCORE.RESTR>
0

>  <SCORE.RESTR.CAVITY>
0

>  <SCORE.RESTR.norm>
0

>  <SCORE.SYSTEM>
0

>  <SCORE.SYSTEM.CONST>
0

>  <SCORE.SYSTEM.DIHEDRAL>
0

>  <SCORE.SYSTEM.SOLV>
0

>  <SCORE.SYSTEM.norm>
0

>  <SCORE.heavy>
10

>  <SCORE.norm>
-0.559261

>  <RMSD>
1.420

$$$$
ligand
 OpenBabel11021811473D
libRbt.so/2013.1/901 2013/11/27
 10  9  0  0  0  0  0  0  0  0999 V2000
   31.5772   15.7195   22.9675 N   0  0  0  0  0  0  0  0  0  0  0  0
   31.7663   15.8952   21.5396 C   0  0  2  0  0  0  0  0  0  0  0  0
   32.9983   16.7155   21.2649 C   0  0  0  0  0  0  0  0  0  0  0  0
   33.3288   17.6103   22.0825 O   0  0  0  0  0  0  0  0  0  0  0  0
   30.5367   16.5673   20.9441 C   0  0  0  0  0  0  0  0  0  0  0  0
   29.4372   15.6633   21.0191 O   0  0  0  0  0  0  0  0  0  0  0  0
   28.3017   16.3126   20.4474 C   0  0  0  0  0  0  0  0  0  0  0  0
   27.1332   15.3293   20.4546 C   0  0  0  0  0  0  0  0  0  0  0  0
   27.4353   14.1900   19.6057 N   0  0  0  0  0  0  0  0  0  0  0  0
   33.8656   16.1759   20.5488 O   0  0  0  0  0  0  0  0  0  0  0  0
  2  1  1  1  0  0  0
  2  5  1  0  0  0  0
  2  3  1  0  0  0  0
  3  4  1  0  0  0  0
  3 10  1  0  0  0  0
  5  6  1  0  0  0  0
  6  7  1  0  0  0  0
  7  8  1  0  0  0  0
  8  9  1  0  0  0  0
M  END
>  <CHROM.1>
-67.84972819,-32.47861075,-179.61024000,177.09850893,-63.65399820,30.67851286
16.03327989,21.08827097,0.31191603,0.16508172,1.18553498

>  <Name>
ligand

>  <RI>
0

>  <Rbt.Current_Directory>
/home/itssahil/PROJECTS/Mol_Feturizer/New_Systems/rnas/3DJ0

>  <Rbt.Executable>
rbdock ($Id: //depot/dev/client3/rdock/2013.1/src/exe/rbdock.cxx#4 $)

>  <Rbt.Library>
libRbt.so (2013.1, Build901 2013/11/27)

>  <Rbt.Parameter_File>
/export/apps/rDock/src/rDock_2013.1_src/data/scripts/dock_solv.prm

>  <Rbt.Receptor>
prm/pocket_docking_8.prm

>  <SCORE>
-6.31512

>  <SCORE.INTER>
-4.45366

>  <SCORE.INTER.CONST>
1

>  <SCORE.INTER.POLAR>
0

>  <SCORE.INTER.ROT>
5

>  <SCORE.INTER.SOLV>
19.6588

>  <SCORE.INTER.VDW>
-16.4554

>  <SCORE.INTER.norm>
-0.445366

>  <SCORE.INTRA>
-1.86146

>  <SCORE.INTRA.DIHEDRAL>
-3.56412

>  <SCORE.INTRA.DIHEDRAL.0>
6.00299

>  <SCORE.INTRA.POLAR>
0

>  <SCORE.INTRA.POLAR.0>
0

>  <SCORE.INTRA.REPUL>
0

>  <SCORE.INTRA.REPUL.0>
0

>  <SCORE.INTRA.SOLV>
0.321235

>  <SCORE.INTRA.SOLV.lig_0>
-39.3257

>  <SCORE.INTRA.VDW>
-0.240018

>  <SCORE.INTRA.VDW.0>
-0.734044

>  <SCORE.INTRA.norm>
-0.186146

>  <SCORE.RESTR>
0

>  <SCORE.RESTR.CAVITY>
0

>  <SCORE.RESTR.norm>
0

>  <SCORE.SYSTEM>
0

>  <SCORE.SYSTEM.CONST>
0

>  <SCORE.SYSTEM.DIHEDRAL>
0

>  <SCORE.SYSTEM.SOLV>
0

>  <SCORE.SYSTEM.norm>
0

>  <SCORE.heavy>
10

>  <SCORE.norm>
-0.631512

>  <RMSD>
1.422

$$$$
ligand
 OpenBabel11021811473D
libRbt.so/2013.1/901 2013/11/27
 10  9  0  0  0  0  0  0  0  0999 V2000
   31.6127   15.7180   22.9255 N   0  0  0  0  0  0  0  0  0  0  0  0
   31.8088   15.8401   21.4930 C   0  0  2  0  0  0  0  0  0  0  0  0
   33.0685   16.6081   21.1938 C   0  0  0  0  0  0  0  0  0  0  0  0
   33.4345   17.5104   21.9878 O   0  0  0  0  0  0  0  0  0  0  0  0
   30.6035   16.5340   20.8734 C   0  0  0  0  0  0  0  0  0  0  0  0
   29.4729   15.6723   20.9785 O   0  0  0  0  0  0  0  0  0  0  0  0
   28.3732   16.3191   20.3381 C   0  0  0  0  0  0  0  0  0  0  0  0
   27.1578   15.3988   20.4271 C   0  0  0  0  0  0  0  0  0  0  0  0
   27.4267   14.1498   19.7359 N   0  0  0  0  0  0  0  0  0  0  0  0
   33.9127   16.0198   20.4887 O   0  0  0  0  0  0  0  0  0  0  0  0
  2  1  1  1  0  0  0
  2  5  1  0  0  0  0
  2  3  1  0  0  0  0
  3  4  1  0  0  0  0
  3 10  1  0  0  0  0
  5  6  1  0  0  0  0
  6  7  1  0  0  0  0
  7  8  1  0  0  0  0
  8  9  1  0  0  0  0
M  END
>  <CHROM.1>
-67.73226489,-31.92936030,-177.42352395,179.28468897,-61.43556339,30.72808138
15.99128987,21.04434355,0.29421616,0.14221282,1.15925799

>  <Name>
ligand

>  <RI>
0

>  <Rbt.Current_Directory>
/home/itssahil/PROJECTS/Mol_Feturizer/New_Systems/rnas/3DJ0

>  <Rbt.Executable>
rbdock ($Id: //depot/dev/client3/rdock/2013.1/src/exe/rbdock.cxx#4 $)

>  <Rbt.Library>
libRbt.so (2013.1, Build901 2013/11/27)

>  <Rbt.Parameter_File>
/export/apps/rDock/src/rDock_2013.1_src/data/scripts/dock_solv.prm

>  <Rbt.Receptor>
prm/pocket_docking_5.prm

>  <SCORE>
-6.31869

>  <SCORE.INTER>
-4.43151

>  <SCORE.INTER.CONST>
1

>  <SCORE.INTER.POLAR>
0

>  <SCORE.INTER.ROT>
5

>  <SCORE.INTER.SOLV>
19.76

>  <SCORE.INTER.VDW>
-16.4743

>  <SCORE.INTER.norm>
-0.443151

>  <SCORE.INTRA>
-1.88718

>  <SCORE.INTRA.DIHEDRAL>
-3.61175

>  <SCORE.INTRA.DIHEDRAL.0>
6.00299

>  <SCORE.INTRA.POLAR>
0

>  <SCORE.INTRA.POLAR.0>
0

>  <SCORE.INTRA.REPUL>
0

>  <SCORE.INTRA.REPUL.0>
0

>  <SCORE.INTRA.SOLV>
0.328441

>  <SCORE.INTRA.SOLV.lig_0>
-39.3257

>  <SCORE.INTRA.VDW>
-0.245524

>  <SCORE.INTRA.VDW.0>
-0.734044

>  <SCORE.INTRA.norm>
-0.188718

>  <SCORE.RESTR>
0

>  <SCORE.RESTR.CAVITY>
0

>  <SCORE.RESTR.norm>
0

>  <SCORE.SYSTEM>
0

>  <SCORE.SYSTEM.CONST>
0

>  <SCORE.SYSTEM.DIHEDRAL>
0

>  <SCORE.SYSTEM.SOLV>
0

>  <SCORE.SYSTEM.norm>
0

>  <SCORE.heavy>
10

>  <SCORE.norm>
-0.631869

>  <RMSD>
1.453

$$$$
ligand
 OpenBabel11021811473D
libRbt.so/2013.1/901 2013/11/27
 10  9  0  0  0  0  0  0  0  0999 V2000
   31.0910   14.7621   21.9940 N   0  0  0  0  0  0  0  0  0  0  0  0
   31.2213   15.8747   21.0717 C   0  0  2  0  0  0  0  0  0  0  0  0
   32.5913   16.4901   21.1734 C   0  0  0  0  0  0  0  0  0  0  0  0
   33.0819   16.6995   22.3109 O   0  0  0  0  0  0  0  0  0  0  0  0
   30.1489   16.9124   21.3743 C   0  0  0  0  0  0  0  0  0  0  0  0
   28.9050   16.4540   20.8507 O   0  0  0  0  0  0  0  0  0  0  0  0
   28.3799   15.4887   21.7619 C   0  0  0  0  0  0  0  0  0  0  0  0
   27.0526   14.9772   21.2061 C   0  0  0  0  0  0  0  0  0  0  0  0
   27.2577   14.3765   19.8996 N   0  0  0  0  0  0  0  0  0  0  0  0
   33.3438   16.3130   20.1943 O   0  0  0  0  0  0  0  0  0  0  0  0
  2  1  1  1  0  0  0
  2  5  1  0  0  0  0
  2  3  1  0  0  0  0
  3  4  1  0  0  0  0
  3 10  1  0  0  0  0
  5  6  1  0  0  0  0
  6  7  1  0  0  0  0
  7  8  1  0  0  0  0
  8  9  1  0  0  0  0
M  END
>  <CHROM.1>
-77.12563293,-44.55975542,78.94006961,-179.41935440,59.39324518,30.34562774
15.85717277,21.18192145,0.16786529,0.19653245,1.18642316

>  <Name>
ligand

>  <RI>
0

>  <Rbt.Current_Directory>
/home/itssahil/PROJECTS/Mol_Feturizer/New_Systems/rnas/3DJ0

>  <Rbt.Executable>
rbdock ($Id: //depot/dev/client3/rdock/2013.1/src/exe/rbdock.cxx#4 $)

>  <Rbt.Library>
libRbt.so (2013.1, Build901 2013/11/27)

>  <Rbt.Parameter_File>
/export/apps/rDock/src/rDock_2013.1_src/data/scripts/dock_solv.prm

>  <Rbt.Receptor>
prm/pocket_docking_3.prm

>  <SCORE>
-4.42254

>  <SCORE.INTER>
-5.63764

>  <SCORE.INTER.CONST>
1

>  <SCORE.INTER.POLAR>
0

>  <SCORE.INTER.ROT>
5

>  <SCORE.INTER.SOLV>
19.8198

>  <SCORE.INTER.VDW>
-17.2984

>  <SCORE.INTER.norm>
-0.563764

>  <SCORE.INTRA>
1.2151

>  <SCORE.INTRA.DIHEDRAL>
-1.37299

>  <SCORE.INTRA.DIHEDRAL.0>
6.00299

>  <SCORE.INTRA.POLAR>
0

>  <SCORE.INTRA.POLAR.0>
0

>  <SCORE.INTRA.REPUL>
0

>  <SCORE.INTRA.REPUL.0>
0

>  <SCORE.INTRA.SOLV>
1.81974

>  <SCORE.INTRA.SOLV.lig_0>
-39.3257

>  <SCORE.INTRA.VDW>
0.991732

>  <SCORE.INTRA.VDW.0>
-0.734044

>  <SCORE.INTRA.norm>
0.12151

>  <SCORE.RESTR>
0

>  <SCORE.RESTR.CAVITY>
0

>  <SCORE.RESTR.norm>
0

>  <SCORE.SYSTEM>
0

>  <SCORE.SYSTEM.CONST>
0

>  <SCORE.SYSTEM.DIHEDRAL>
0

>  <SCORE.SYSTEM.SOLV>
0

>  <SCORE.SYSTEM.norm>
0

>  <SCORE.heavy>
10

>  <SCORE.norm>
-0.442254

>  <RMSD>
1.477

$$$$
ligand
 OpenBabel11021811473D
libRbt.so/2013.1/901 2013/11/27
 10  9  0  0  0  0  0  0  0  0999 V2000
   31.6605   15.7603   22.9304 N   0  0  0  0  0  0  0  0  0  0  0  0
   31.8213   15.8250   21.4898 C   0  0  2  0  0  0  0  0  0  0  0  0
   33.0886   16.5535   21.1300 C   0  0  0  0  0  0  0  0  0  0  0  0
   33.4930   17.4779   21.8785 O   0  0  0  0  0  0  0  0  0  0  0  0
   30.6150   16.5221   20.8757 C   0  0  0  0  0  0  0  0  0  0  0  0
   29.4773   15.6737   21.0080 O   0  0  0  0  0  0  0  0  0  0  0  0
   28.3849   16.3053   20.3404 C   0  0  0  0  0  0  0  0  0  0  0  0
   27.1641   15.3945   20.4515 C   0  0  0  0  0  0  0  0  0  0  0  0
   27.4147   14.1391   19.7650 N   0  0  0  0  0  0  0  0  0  0  0  0
   33.9025   15.9200   20.4282 O   0  0  0  0  0  0  0  0  0  0  0  0
  2  1  1  1  0  0  0
  2  5  1  0  0  0  0
  2  3  1  0  0  0  0
  3  4  1  0  0  0  0
  3 10  1  0  0  0  0
  5  6  1  0  0  0  0
  6  7  1  0  0  0  0
  7  8  1  0  0  0  0
  8  9  1  0  0  0  0
M  END
>  <CHROM.1>
-69.36248237,-32.06820675,-175.84814488,178.95540223,-63.27544436,30.74324556
15.97062033,21.02884341,0.28220159,0.13293156,1.13112453

>  <Name>
ligand

>  <RI>
0

>  <Rbt.Current_Directory>
/home/itssahil/PROJECTS/Mol_Feturizer/New_Systems/rnas/3DJ0

>  <Rbt.Executable>
rbdock ($Id: //depot/dev/client3/rdock/2013.1/src/exe/rbdock.cxx#4 $)

>  <Rbt.Library>
libRbt.so (2013.1, Build901 2013/11/27)

>  <Rbt.Parameter_File>
/export/apps/rDock/src/rDock_2013.1_src/data/scripts/dock_solv.prm

>  <Rbt.Receptor>
prm/pocket_docking_4.prm

>  <SCORE>
-6.31548

>  <SCORE.INTER>
-4.4856

>  <SCORE.INTER.CONST>
1

>  <SCORE.INTER.POLAR>
0

>  <SCORE.INTER.ROT>
5

>  <SCORE.INTER.SOLV>
19.8796

>  <SCORE.INTER.VDW>
-16.5503

>  <SCORE.INTER.norm>
-0.44856

>  <SCORE.INTRA>
-1.82988

>  <SCORE.INTRA.DIHEDRAL>
-3.43014

>  <SCORE.INTRA.DIHEDRAL.0>
6.00299

>  <SCORE.INTRA.POLAR>
0

>  <SCORE.INTRA.POLAR.0>
0

>  <SCORE.INTRA.REPUL>
0

>  <SCORE.INTRA.REPUL.0>
0

>  <SCORE.INTRA.SOLV>
0.281151

>  <SCORE.INTRA.SOLV.lig_0>
-39.3257

>  <SCORE.INTRA.VDW>
-0.255388

>  <SCORE.INTRA.VDW.0>
-0.734044

>  <SCORE.INTRA.norm>
-0.182988

>  <SCORE.RESTR>
0

>  <SCORE.RESTR.CAVITY>
0

>  <SCORE.RESTR.norm>
0

>  <SCORE.SYSTEM>
0

>  <SCORE.SYSTEM.CONST>
0

>  <SCORE.SYSTEM.DIHEDRAL>
0

>  <SCORE.SYSTEM.SOLV>
0

>  <SCORE.SYSTEM.norm>
0

>  <SCORE.heavy>
10

>  <SCORE.norm>
-0.631548

>  <RMSD>
1.479

$$$$
ligand
 OpenBabel11021811473D
libRbt.so/2013.1/901 2013/11/27
 10  9  0  0  0  0  0  0  0  0999 V2000
   31.4882   17.1232   23.0251 N   0  0  0  0  0  0  0  0  0  0  0  0
   31.8162   16.4307   21.7929 C   0  0  2  0  0  0  0  0  0  0  0  0
   33.1816   16.8350   21.3047 C   0  0  0  0  0  0  0  0  0  0  0  0
   33.8694   17.6215   22.0023 O   0  0  0  0  0  0  0  0  0  0  0  0
   30.7615   16.7423   20.7398 C   0  0  0  0  0  0  0  0  0  0  0  0
   29.5266   16.1518   21.1374 O   0  0  0  0  0  0  0  0  0  0  0  0
   28.5634   16.4356   20.1228 C   0  0  0  0  0  0  0  0  0  0  0  0
   27.2835   15.6690   20.4492 C   0  0  0  0  0  0  0  0  0  0  0  0
   27.5500   14.2413   20.4735 N   0  0  0  0  0  0  0  0  0  0  0  0
   33.7448   16.0339   20.5319 O   0  0  0  0  0  0  0  0  0  0  0  0
  2  1  1  1  0  0  0
  2  5  1  0  0  0  0
  2  3  1  0  0  0  0
  3  4  1  0  0  0  0
  3 10  1  0  0  0  0
  5  6  1  0  0  0  0
  6  7  1  0  0  0  0
  7  8  1  0  0  0  0
  8  9  1  0  0  0  0
M  END
>  <CHROM.1>
-67.44745816,3.32226864,-178.87613281,173.22822241,-60.52699591,30.82057448
16.33561757,21.15503282,0.31523755,0.10685643,0.95171585

>  <Name>
ligand

>  <RI>
0

>  <Rbt.Current_Directory>
/home/itssahil/PROJECTS/Mol_Feturizer/New_Systems/rnas/3DJ0

>  <Rbt.Executable>
rbdock ($Id: //depot/dev/client3/rdock/2013.1/src/exe/rbdock.cxx#4 $)

>  <Rbt.Library>
libRbt.so (2013.1, Build901 2013/11/27)

>  <Rbt.Parameter_File>
/export/apps/rDock/src/rDock_2013.1_src/data/scripts/dock_solv.prm

>  <Rbt.Receptor>
prm/blind_docking_60.prm

>  <SCORE>
-5.49702

>  <SCORE.INTER>
-4.2124

>  <SCORE.INTER.CONST>
1

>  <SCORE.INTER.POLAR>
0

>  <SCORE.INTER.ROT>
5

>  <SCORE.INTER.SOLV>
17.1615

>  <SCORE.INTER.VDW>
-15.4621

>  <SCORE.INTER.norm>
-0.42124

>  <SCORE.INTRA>
-1.28462

>  <SCORE.INTRA.DIHEDRAL>
-2.81584

>  <SCORE.INTRA.DIHEDRAL.0>
6.00299

>  <SCORE.INTRA.POLAR>
0

>  <SCORE.INTRA.POLAR.0>
0

>  <SCORE.INTRA.REPUL>
0

>  <SCORE.INTRA.REPUL.0>
0

>  <SCORE.INTRA.SOLV>
0.328884

>  <SCORE.INTRA.SOLV.lig_0>
-39.3257

>  <SCORE.INTRA.VDW>
-0.0411361

>  <SCORE.INTRA.VDW.0>
-0.734044

>  <SCORE.INTRA.norm>
-0.128462

>  <SCORE.RESTR>
0

>  <SCORE.RESTR.CAVITY>
0

>  <SCORE.RESTR.norm>
0

>  <SCORE.SYSTEM>
0

>  <SCORE.SYSTEM.CONST>
0

>  <SCORE.SYSTEM.DIHEDRAL>
0

>  <SCORE.SYSTEM.SOLV>
0

>  <SCORE.SYSTEM.norm>
0

>  <SCORE.heavy>
10

>  <SCORE.norm>
-0.549702

>  <RMSD>
1.599

$$$$
ligand
 OpenBabel11021811473D
libRbt.so/2013.1/901 2013/11/27
 10  9  0  0  0  0  0  0  0  0999 V2000
   31.4626   15.7042   22.9418 N   0  0  0  0  0  0  0  0  0  0  0  0
   31.6646   15.7944   21.5078 C   0  0  2  0  0  0  0  0  0  0  0  0
   32.8811   16.6240   21.1949 C   0  0  0  0  0  0  0  0  0  0  0  0
   33.1893   17.5674   21.9652 O   0  0  0  0  0  0  0  0  0  0  0  0
   30.4274   16.3993   20.8584 C   0  0  0  0  0  0  0  0  0  0  0  0
   29.3448   15.4814   20.9884 O   0  0  0  0  0  0  0  0  0  0  0  0
   28.1990   16.0720   20.3752 C   0  0  0  0  0  0  0  0  0  0  0  0
   27.0248   15.1068   20.5235 C   0  0  0  0  0  0  0  0  0  0  0  0
   26.7700   14.8443   21.9293 N   0  0  0  0  0  0  0  0  0  0  0  0
   33.7628   16.0651   20.5119 O   0  0  0  0  0  0  0  0  0  0  0  0
  2  1  1  1  0  0  0
  2  5  1  0  0  0  0
  2  3  1  0  0  0  0
  3  4  1  0  0  0  0
  3 10  1  0  0  0  0
  5  6  1  0  0  0  0
  6  7  1  0  0  0  0
  7  8  1  0  0  0  0
  8  9  1  0  0  0  0
M  END
>  <CHROM.1>
-67.37715762,-31.78812946,179.89453430,-179.24410529,59.14406212,30.51462266
15.97931798,21.27318964,0.03344211,0.23916568,1.69338720

>  <Name>
ligand

>  <RI>
0

>  <Rbt.Current_Directory>
/home/itssahil/PROJECTS/Mol_Feturizer/New_Systems/rnas/3DJ0

>  <Rbt.Executable>
rbdock ($Id: //depot/dev/client3/rdock/2013.1/src/exe/rbdock.cxx#4 $)

>  <Rbt.Library>
libRbt.so (2013.1, Build901 2013/11/27)

>  <Rbt.Parameter_File>
/export/apps/rDock/src/rDock_2013.1_src/data/scripts/dock_solv.prm

>  <Rbt.Receptor>
prm/pocket_docking_2.prm

>  <SCORE>
-6.46664

>  <SCORE.INTER>
-4.58466

>  <SCORE.INTER.CONST>
1

>  <SCORE.INTER.POLAR>
0

>  <SCORE.INTER.ROT>
5

>  <SCORE.INTER.SOLV>
22.1187

>  <SCORE.INTER.VDW>
-17.3627

>  <SCORE.INTER.norm>
-0.458466

>  <SCORE.INTRA>
-1.88197

>  <SCORE.INTRA.DIHEDRAL>
-3.6656

>  <SCORE.INTRA.DIHEDRAL.0>
6.00299

>  <SCORE.INTRA.POLAR>
0

>  <SCORE.INTRA.POLAR.0>
0

>  <SCORE.INTRA.REPUL>
0

>  <SCORE.INTRA.REPUL.0>
0

>  <SCORE.INTRA.SOLV>
0.374047

>  <SCORE.INTRA.SOLV.lig_0>
-39.3257

>  <SCORE.INTRA.VDW>
-0.236197

>  <SCORE.INTRA.VDW.0>
-0.734044

>  <SCORE.INTRA.norm>
-0.188197

>  <SCORE.RESTR>
0

>  <SCORE.RESTR.CAVITY>
0

>  <SCORE.RESTR.norm>
0

>  <SCORE.SYSTEM>
0

>  <SCORE.SYSTEM.CONST>
0

>  <SCORE.SYSTEM.DIHEDRAL>
0

>  <SCORE.SYSTEM.SOLV>
0

>  <SCORE.SYSTEM.norm>
0

>  <SCORE.heavy>
10

>  <SCORE.norm>
-0.646664

>  <RMSD>
1.643

$$$$
ligand
 OpenBabel11021811473D
libRbt.so/2013.1/901 2013/11/27
 10  9  0  0  0  0  0  0  0  0999 V2000
   31.6102   15.8300   22.9802 N   0  0  0  0  0  0  0  0  0  0  0  0
   31.7088   15.6542   21.5433 C   0  0  2  0  0  0  0  0  0  0  0  0
   33.0162   16.1969   21.0312 C   0  0  0  0  0  0  0  0  0  0  0  0
   33.3901   15.8910   19.8715 O   0  0  0  0  0  0  0  0  0  0  0  0
   30.5400   16.3559   20.8651 C   0  0  0  0  0  0  0  0  0  0  0  0
   29.3583   15.5868   21.0742 O   0  0  0  0  0  0  0  0  0  0  0  0
   28.2949   16.2241   20.3665 C   0  0  0  0  0  0  0  0  0  0  0  0
   27.0559   15.3365   20.4622 C   0  0  0  0  0  0  0  0  0  0  0  0
   27.3101   14.0556   19.8260 N   0  0  0  0  0  0  0  0  0  0  0  0
   33.4062   17.2624   21.5499 O   0  0  0  0  0  0  0  0  0  0  0  0
  2  1  1  1  0  0  0
  2  5  1  0  0  0  0
  2  3  1  0  0  0  0
  3  4  1  0  0  0  0
  3 10  1  0  0  0  0
  5  6  1  0  0  0  0
  6  7  1  0  0  0  0
  7  8  1  0  0  0  0
  8  9  1  0  0  0  0
M  END
>  <CHROM.1>
-74.15855019,165.67583945,-176.76372385,174.27982603,-62.29352899,30.60516460
15.85511050,20.94712236,0.21013599,0.19033646,1.32895360

>  <Name>
ligand

>  <RI>
0

>  <Rbt.Current_Directory>
/home/itssahil/PROJECTS/Mol_Feturizer/New_Systems/rnas/3DJ0

>  <Rbt.Executable>
rbdock ($Id: //depot/dev/client3/rdock/2013.1/src/exe/rbdock.cxx#4 $)

>  <Rbt.Library>
libRbt.so (2013.1, Build901 2013/11/27)

>  <Rbt.Parameter_File>
/export/apps/rDock/src/rDock_2013.1_src/data/scripts/dock_solv.prm

>  <Rbt.Receptor>
prm/pocket_docking_4.prm

>  <SCORE>
-5.57241

>  <SCORE.INTER>
-4.21655

>  <SCORE.INTER.CONST>
1

>  <SCORE.INTER.POLAR>
0

>  <SCORE.INTER.ROT>
5

>  <SCORE.INTER.SOLV>
20.3071

>  <SCORE.INTER.VDW>
-16.5134

>  <SCORE.INTER.norm>
-0.421655

>  <SCORE.INTRA>
-1.35587

>  <SCORE.INTRA.DIHEDRAL>
-2.74863

>  <SCORE.INTRA.DIHEDRAL.0>
6.00299

>  <SCORE.INTRA.POLAR>
0

>  <SCORE.INTRA.POLAR.0>
0

>  <SCORE.INTRA.REPUL>
0

>  <SCORE.INTRA.REPUL.0>
0

>  <SCORE.INTRA.SOLV>
0.194522

>  <SCORE.INTRA.SOLV.lig_0>
-39.3257

>  <SCORE.INTRA.VDW>
-0.0788102

>  <SCORE.INTRA.VDW.0>
-0.734044

>  <SCORE.INTRA.norm>
-0.135587

>  <SCORE.RESTR>
0

>  <SCORE.RESTR.CAVITY>
0

>  <SCORE.RESTR.norm>
0

>  <SCORE.SYSTEM>
0

>  <SCORE.SYSTEM.CONST>
0

>  <SCORE.SYSTEM.DIHEDRAL>
0

>  <SCORE.SYSTEM.SOLV>
0

>  <SCORE.SYSTEM.norm>
0

>  <SCORE.heavy>
10

>  <SCORE.norm>
-0.557241

>  <RMSD>
1.649

$$$$
ligand
 OpenBabel11021811473D
libRbt.so/2013.1/901 2013/11/27
 10  9  0  0  0  0  0  0  0  0999 V2000
   31.5724   15.6949   22.9084 N   0  0  0  0  0  0  0  0  0  0  0  0
   31.7306   15.7552   21.4673 C   0  0  2  0  0  0  0  0  0  0  0  0
   32.9563   16.5485   21.1011 C   0  0  0  0  0  0  0  0  0  0  0  0
   33.2919   17.5193   21.8245 O   0  0  0  0  0  0  0  0  0  0  0  0
   30.4883   16.3796   20.8465 C   0  0  0  0  0  0  0  0  0  0  0  0
   29.3896   15.4886   21.0216 O   0  0  0  0  0  0  0  0  0  0  0  0
   28.2423   16.0916   20.4236 C   0  0  0  0  0  0  0  0  0  0  0  0
   27.0652   15.1292   20.5672 C   0  0  0  0  0  0  0  0  0  0  0  0
   26.8373   14.8264   21.9695 N   0  0  0  0  0  0  0  0  0  0  0  0
   33.8182   15.9445   20.4314 O   0  0  0  0  0  0  0  0  0  0  0  0
  2  1  1  1  0  0  0
  2  5  1  0  0  0  0
  2  3  1  0  0  0  0
  3  4  1  0  0  0  0
  3 10  1  0  0  0  0
  5  6  1  0  0  0  0
  6  7  1  0  0  0  0
  7  8  1  0  0  0  0
  8  9  1  0  0  0  0
M  END
>  <CHROM.1>
-67.65429592,-33.65952274,-179.57788018,178.35251088,57.89180021,30.58118178
15.95056575,21.24867768,0.00772051,0.22207089,1.71152459

>  <Name>
ligand

>  <RI>
0

>  <Rbt.Current_Directory>
/home/itssahil/PROJECTS/Mol_Feturizer/New_Systems/rnas/3DJ0

>  <Rbt.Executable>
rbdock ($Id: //depot/dev/client3/rdock/2013.1/src/exe/rbdock.cxx#4 $)

>  <Rbt.Library>
libRbt.so (2013.1, Build901 2013/11/27)

>  <Rbt.Parameter_File>
/export/apps/rDock/src/rDock_2013.1_src/data/scripts/dock_solv.prm

>  <Rbt.Receptor>
prm/blind_docking_60.prm

>  <SCORE>
-6.47618

>  <SCORE.INTER>
-4.60207

>  <SCORE.INTER.CONST>
1

>  <SCORE.INTER.POLAR>
0

>  <SCORE.INTER.ROT>
5

>  <SCORE.INTER.SOLV>
22.3625

>  <SCORE.INTER.VDW>
-17.4556

>  <SCORE.INTER.norm>
-0.460207

>  <SCORE.INTRA>
-1.87411

>  <SCORE.INTRA.DIHEDRAL>
-3.6531

>  <SCORE.INTRA.DIHEDRAL.0>
6.00299

>  <SCORE.INTRA.POLAR>
0

>  <SCORE.INTRA.POLAR.0>
0

>  <SCORE.INTRA.REPUL>
0

>  <SCORE.INTRA.REPUL.0>
0

>  <SCORE.INTRA.SOLV>
0.374448

>  <SCORE.INTRA.SOLV.lig_0>
-39.3257

>  <SCORE.INTRA.VDW>
-0.234781

>  <SCORE.INTRA.VDW.0>
-0.734044

>  <SCORE.INTRA.norm>
-0.187411

>  <SCORE.RESTR>
0

>  <SCORE.RESTR.CAVITY>
0

>  <SCORE.RESTR.norm>
0

>  <SCORE.SYSTEM>
0

>  <SCORE.SYSTEM.CONST>
0

>  <SCORE.SYSTEM.DIHEDRAL>
0

>  <SCORE.SYSTEM.SOLV>
0

>  <SCORE.SYSTEM.norm>
0

>  <SCORE.heavy>
10

>  <SCORE.norm>
-0.647618

>  <RMSD>
1.655

$$$$
ligand
 OpenBabel11021811473D
libRbt.so/2013.1/901 2013/11/27
 10  9  0  0  0  0  0  0  0  0999 V2000
   31.5004   15.6501   22.9078 N   0  0  0  0  0  0  0  0  0  0  0  0
   31.6605   15.7579   21.4696 C   0  0  2  0  0  0  0  0  0  0  0  0
   32.8675   16.5915   21.1315 C   0  0  0  0  0  0  0  0  0  0  0  0
   33.1676   17.5583   21.8756 O   0  0  0  0  0  0  0  0  0  0  0  0
   30.4050   16.3706   20.8641 C   0  0  0  0  0  0  0  0  0  0  0  0
   29.3226   15.4580   21.0294 O   0  0  0  0  0  0  0  0  0  0  0  0
   28.1519   16.0709   20.4894 C   0  0  0  0  0  0  0  0  0  0  0  0
   26.9825   15.1036   20.6596 C   0  0  0  0  0  0  0  0  0  0  0  0
   26.7924   14.7940   22.0660 N   0  0  0  0  0  0  0  0  0  0  0  0
   33.7534   16.0237   20.4614 O   0  0  0  0  0  0  0  0  0  0  0  0
  2  1  1  1  0  0  0
  2  5  1  0  0  0  0
  2  3  1  0  0  0  0
  3  4  1  0  0  0  0
  3 10  1  0  0  0  0
  5  6  1  0  0  0  0
  6  7  1  0  0  0  0
  7  8  1  0  0  0  0
  8  9  1  0  0  0  0
M  END
>  <CHROM.1>
-66.65884349,-34.56151143,178.34926836,-179.99937421,59.09506446,30.50208783
15.95154010,21.28793348,-0.00987967,0.23244791,1.74125969

>  <Name>
ligand

>  <RI>
0

>  <Rbt.Current_Directory>
/home/itssahil/PROJECTS/Mol_Feturizer/New_Systems/rnas/3DJ0

>  <Rbt.Executable>
rbdock ($Id: //depot/dev/client3/rdock/2013.1/src/exe/rbdock.cxx#4 $)

>  <Rbt.Library>
libRbt.so (2013.1, Build901 2013/11/27)

>  <Rbt.Parameter_File>
/export/apps/rDock/src/rDock_2013.1_src/data/scripts/dock_solv.prm

>  <Rbt.Receptor>
prm/blind_docking_60.prm

>  <SCORE>
-6.50199

>  <SCORE.INTER>
-4.58939

>  <SCORE.INTER.CONST>
1

>  <SCORE.INTER.POLAR>
0

>  <SCORE.INTER.ROT>
5

>  <SCORE.INTER.SOLV>
22.4809

>  <SCORE.INTER.VDW>
-17.4866

>  <SCORE.INTER.norm>
-0.458939

>  <SCORE.INTRA>
-1.91261

>  <SCORE.INTRA.DIHEDRAL>
-3.72939

>  <SCORE.INTRA.DIHEDRAL.0>
6.00299

>  <SCORE.INTRA.POLAR>
0

>  <SCORE.INTRA.POLAR.0>
0

>  <SCORE.INTRA.REPUL>
0

>  <SCORE.INTRA.REPUL.0>
0

>  <SCORE.INTRA.SOLV>
0.389835

>  <SCORE.INTRA.SOLV.lig_0>
-39.3257

>  <SCORE.INTRA.VDW>
-0.242829

>  <SCORE.INTRA.VDW.0>
-0.734044

>  <SCORE.INTRA.norm>
-0.191261

>  <SCORE.RESTR>
0

>  <SCORE.RESTR.CAVITY>
0

>  <SCORE.RESTR.norm>
0

>  <SCORE.SYSTEM>
0

>  <SCORE.SYSTEM.CONST>
0

>  <SCORE.SYSTEM.DIHEDRAL>
0

>  <SCORE.SYSTEM.SOLV>
0

>  <SCORE.SYSTEM.norm>
0

>  <SCORE.heavy>
10

>  <SCORE.norm>
-0.650199

>  <RMSD>
1.664

$$$$
ligand
 OpenBabel11021811473D
libRbt.so/2013.1/901 2013/11/27
 10  9  0  0  0  0  0  0  0  0999 V2000
   31.7371   17.2847   22.8788 N   0  0  0  0  0  0  0  0  0  0  0  0
   32.0196   16.2464   21.9053 C   0  0  2  0  0  0  0  0  0  0  0  0
   33.2122   16.6176   21.0651 C   0  0  0  0  0  0  0  0  0  0  0  0
   34.0660   17.4097   21.5362 O   0  0  0  0  0  0  0  0  0  0  0  0
   30.7961   16.0302   21.0251 C   0  0  0  0  0  0  0  0  0  0  0  0
   29.7227   15.5614   21.8373 O   0  0  0  0  0  0  0  0  0  0  0  0
   28.5685   15.4436   21.0056 C   0  0  0  0  0  0  0  0  0  0  0  0
   27.4048   14.9571   21.8667 C   0  0  0  0  0  0  0  0  0  0  0  0
   26.1846   14.9181   21.0796 N   0  0  0  0  0  0  0  0  0  0  0  0
   33.5457   15.7895   20.1938 O   0  0  0  0  0  0  0  0  0  0  0  0
  2  1  1  1  0  0  0
  2  5  1  0  0  0  0
  2  3  1  0  0  0  0
  3  4  1  0  0  0  0
  3 10  1  0  0  0  0
  5  6  1  0  0  0  0
  6  7  1  0  0  0  0
  7  8  1  0  0  0  0
  8  9  1  0  0  0  0
M  END
>  <CHROM.1>
-63.31220281,25.13359174,176.58124004,-179.35111001,175.79811047,30.77037444
16.02948704,21.42827765,0.12488719,0.23549133,1.01012276

>  <Name>
ligand

>  <RI>
0

>  <Rbt.Current_Directory>
/home/itssahil/PROJECTS/Mol_Feturizer/New_Systems/rnas/3DJ0

>  <Rbt.Executable>
rbdock ($Id: //depot/dev/client3/rdock/2013.1/src/exe/rbdock.cxx#4 $)

>  <Rbt.Library>
libRbt.so (2013.1, Build901 2013/11/27)

>  <Rbt.Parameter_File>
/export/apps/rDock/src/rDock_2013.1_src/data/scripts/dock_solv.prm

>  <Rbt.Receptor>
prm/blind_docking_60.prm

>  <SCORE>
-6.15021

>  <SCORE.INTER>
-4.391

>  <SCORE.INTER.CONST>
1

>  <SCORE.INTER.POLAR>
0

>  <SCORE.INTER.ROT>
5

>  <SCORE.INTER.SOLV>
21.2456

>  <SCORE.INTER.VDW>
-16.9425

>  <SCORE.INTER.norm>
-0.4391

>  <SCORE.INTRA>
-1.75921

>  <SCORE.INTRA.DIHEDRAL>
-3.11871

>  <SCORE.INTRA.DIHEDRAL.0>
6.00299

>  <SCORE.INTRA.POLAR>
0

>  <SCORE.INTRA.POLAR.0>
0

>  <SCORE.INTRA.REPUL>
0

>  <SCORE.INTRA.REPUL.0>
0

>  <SCORE.INTRA.SOLV>
-0.78862

>  <SCORE.INTRA.SOLV.lig_0>
-39.3257

>  <SCORE.INTRA.VDW>
0.19446

>  <SCORE.INTRA.VDW.0>
-0.734044

>  <SCORE.INTRA.norm>
-0.175921

>  <SCORE.RESTR>
0

>  <SCORE.RESTR.CAVITY>
0

>  <SCORE.RESTR.norm>
0

>  <SCORE.SYSTEM>
0

>  <SCORE.SYSTEM.CONST>
0

>  <SCORE.SYSTEM.DIHEDRAL>
0

>  <SCORE.SYSTEM.SOLV>
0

>  <SCORE.SYSTEM.norm>
0

>  <SCORE.heavy>
10

>  <SCORE.norm>
-0.615021

>  <RMSD>
1.721

$$$$
ligand
 OpenBabel11021811473D
libRbt.so/2013.1/901 2013/11/27
 10  9  0  0  0  0  0  0  0  0999 V2000
   31.4406   15.8718   22.9303 N   0  0  0  0  0  0  0  0  0  0  0  0
   31.6054   15.7208   21.4966 C   0  0  2  0  0  0  0  0  0  0  0  0
   32.8188   16.4736   21.0202 C   0  0  0  0  0  0  0  0  0  0  0  0
   33.2852   17.3934   21.7377 O   0  0  0  0  0  0  0  0  0  0  0  0
   30.3557   16.2232   20.7867 C   0  0  0  0  0  0  0  0  0  0  0  0
   29.2698   15.3537   21.0972 O   0  0  0  0  0  0  0  0  0  0  0  0
   28.1466   15.7671   20.3192 C   0  0  0  0  0  0  0  0  0  0  0  0
   28.3471   15.2734   18.8880 C   0  0  0  0  0  0  0  0  0  0  0  0
   28.4201   13.8228   18.8667 N   0  0  0  0  0  0  0  0  0  0  0  0
   33.5650   15.8627   20.2288 O   0  0  0  0  0  0  0  0  0  0  0  0
  2  1  1  1  0  0  0
  2  5  1  0  0  0  0
  2  3  1  0  0  0  0
  3  4  1  0  0  0  0
  3 10  1  0  0  0  0
  5  6  1  0  0  0  0
  6  7  1  0  0  0  0
  7  8  1  0  0  0  0
  8  9  1  0  0  0  0
M  END
>  <CHROM.1>
-67.21261241,-20.05136244,-174.39404357,77.06743907,61.28836996,30.75884304
15.78955942,20.74145416,0.45727692,0.19080973,1.23327928

>  <Name>
ligand

>  <RI>
0

>  <Rbt.Current_Directory>
/home/itssahil/PROJECTS/Mol_Feturizer/New_Systems/rnas/3DJ0

>  <Rbt.Executable>
rbdock ($Id: //depot/dev/client3/rdock/2013.1/src/exe/rbdock.cxx#4 $)

>  <Rbt.Library>
libRbt.so (2013.1, Build901 2013/11/27)

>  <Rbt.Parameter_File>
/export/apps/rDock/src/rDock_2013.1_src/data/scripts/dock_solv.prm

>  <Rbt.Receptor>
prm/pocket_docking_3.prm

>  <SCORE>
-3.9153

>  <SCORE.INTER>
-4.57996

>  <SCORE.INTER.CONST>
1

>  <SCORE.INTER.POLAR>
0

>  <SCORE.INTER.ROT>
5

>  <SCORE.INTER.SOLV>
17.9449

>  <SCORE.INTER.VDW>
-15.9683

>  <SCORE.INTER.norm>
-0.457996

>  <SCORE.INTRA>
0.664658

>  <SCORE.INTRA.DIHEDRAL>
-1.95714

>  <SCORE.INTRA.DIHEDRAL.0>
6.00299

>  <SCORE.INTRA.POLAR>
0

>  <SCORE.INTRA.POLAR.0>
0

>  <SCORE.INTRA.REPUL>
0

>  <SCORE.INTRA.REPUL.0>
0

>  <SCORE.INTRA.SOLV>
0.766022

>  <SCORE.INTRA.SOLV.lig_0>
-39.3257

>  <SCORE.INTRA.VDW>
1.26022

>  <SCORE.INTRA.VDW.0>
-0.734044

>  <SCORE.INTRA.norm>
0.0664658

>  <SCORE.RESTR>
0

>  <SCORE.RESTR.CAVITY>
0

>  <SCORE.RESTR.norm>
0

>  <SCORE.SYSTEM>
0

>  <SCORE.SYSTEM.CONST>
0

>  <SCORE.SYSTEM.DIHEDRAL>
0

>  <SCORE.SYSTEM.SOLV>
0

>  <SCORE.SYSTEM.norm>
0

>  <SCORE.heavy>
10

>  <SCORE.norm>
-0.39153

>  <RMSD>
1.723

$$$$
ligand
 OpenBabel11021811473D
libRbt.so/2013.1/901 2013/11/27
 10  9  0  0  0  0  0  0  0  0999 V2000
   31.3056   17.3245   22.7158 N   0  0  0  0  0  0  0  0  0  0  0  0
   31.7647   16.0817   22.1242 C   0  0  2  0  0  0  0  0  0  0  0  0
   32.8115   16.3484   21.0757 C   0  0  0  0  0  0  0  0  0  0  0  0
   33.7202   17.1807   21.3206 O   0  0  0  0  0  0  0  0  0  0  0  0
   30.5809   15.3414   21.5169 C   0  0  0  0  0  0  0  0  0  0  0  0
   29.5361   15.2735   22.4840 O   0  0  0  0  0  0  0  0  0  0  0  0
   28.4781   14.4944   21.9260 C   0  0  0  0  0  0  0  0  0  0  0  0
   27.6429   15.3981   21.0215 C   0  0  0  0  0  0  0  0  0  0  0  0
   28.2933   15.5502   19.7316 N   0  0  0  0  0  0  0  0  0  0  0  0
   33.0152   15.4268   20.2601 O   0  0  0  0  0  0  0  0  0  0  0  0
  2  1  1  6  0  0  0
  2  5  1  0  0  0  0
  2  3  1  0  0  0  0
  3  4  1  0  0  0  0
  3 10  1  0  0  0  0
  5  6  1  0  0  0  0
  6  7  1  0  0  0  0
  7  8  1  0  0  0  0
  8  9  1  0  0  0  0
M  END
>  <CHROM.1>
-49.87368742,44.01947530,-175.92509738,-82.08043792,80.34394065,30.74959396
15.84143169,21.41255673,0.09994382,0.26609669,1.25832817

>  <Name>
ligand

>  <RI>
0

>  <Rbt.Current_Directory>
/home/itssahil/PROJECTS/Mol_Feturizer/New_Systems/rnas/3DJ0

>  <Rbt.Executable>
rbdock ($Id: //depot/dev/client3/rdock/2013.1/src/exe/rbdock.cxx#4 $)

>  <Rbt.Library>
libRbt.so (2013.1, Build901 2013/11/27)

>  <Rbt.Parameter_File>
/export/apps/rDock/src/rDock_2013.1_src/data/scripts/dock_solv.prm

>  <Rbt.Receptor>
prm/pocket_docking_6.prm

>  <SCORE>
-4.01411

>  <SCORE.INTER>
-6.92502

>  <SCORE.INTER.CONST>
1

>  <SCORE.INTER.POLAR>
0

>  <SCORE.INTER.ROT>
5

>  <SCORE.INTER.SOLV>
15.0639

>  <SCORE.INTER.VDW>
-16.5713

>  <SCORE.INTER.norm>
-0.692502

>  <SCORE.INTRA>
2.91091

>  <SCORE.INTRA.DIHEDRAL>
0.394101

>  <SCORE.INTRA.DIHEDRAL.0>
6.00299

>  <SCORE.INTRA.POLAR>
0

>  <SCORE.INTRA.POLAR.0>
0

>  <SCORE.INTRA.REPUL>
0

>  <SCORE.INTRA.REPUL.0>
0

>  <SCORE.INTRA.SOLV>
1.64025

>  <SCORE.INTRA.SOLV.lig_0>
-39.3257

>  <SCORE.INTRA.VDW>
1.89373

>  <SCORE.INTRA.VDW.0>
-0.734044

>  <SCORE.INTRA.norm>
0.291091

>  <SCORE.RESTR>
0

>  <SCORE.RESTR.CAVITY>
0

>  <SCORE.RESTR.norm>
0

>  <SCORE.SYSTEM>
0

>  <SCORE.SYSTEM.CONST>
0

>  <SCORE.SYSTEM.DIHEDRAL>
0

>  <SCORE.SYSTEM.SOLV>
0

>  <SCORE.SYSTEM.norm>
0

>  <SCORE.heavy>
10

>  <SCORE.norm>
-0.401411

>  <RMSD>
1.769

$$$$
ligand
 OpenBabel11021811473D
libRbt.so/2013.1/901 2013/11/27
 10  9  0  0  0  0  0  0  0  0999 V2000
   31.8809   17.8623   22.8675 N   0  0  0  0  0  0  0  0  0  0  0  0
   32.2408   16.4891   22.5671 C   0  0  2  0  0  0  0  0  0  0  0  0
   32.8062   16.3813   21.1761 C   0  0  0  0  0  0  0  0  0  0  0  0
   32.1229   16.7969   20.2073 O   0  0  0  0  0  0  0  0  0  0  0  0
   31.0134   15.5998   22.7123 C   0  0  0  0  0  0  0  0  0  0  0  0
   30.0137   16.0436   21.7983 O   0  0  0  0  0  0  0  0  0  0  0  0
   28.8659   15.2132   21.9739 C   0  0  0  0  0  0  0  0  0  0  0  0
   27.8051   15.6416   20.9622 C   0  0  0  0  0  0  0  0  0  0  0  0
   26.6093   14.8324   21.1210 N   0  0  0  0  0  0  0  0  0  0  0  0
   34.0505   16.3523   21.0929 O   0  0  0  0  0  0  0  0  0  0  0  0
  2  1  1  6  0  0  0
  2  5  1  0  0  0  0
  2  3  1  0  0  0  0
  3  4  1  0  0  0  0
  3 10  1  0  0  0  0
  5  6  1  0  0  0  0
  6  7  1  0  0  0  0
  7  8  1  0  0  0  0
  8  9  1  0  0  0  0
M  END
>  <CHROM.1>
60.22390228,-55.89673853,-178.79630559,-177.79560290,-179.14570810,30.77061803
16.12815646,21.61937667,0.08414789,0.25503130,1.35955745

>  <Name>
ligand

>  <RI>
0

>  <Rbt.Current_Directory>
/home/itssahil/PROJECTS/Mol_Feturizer/New_Systems/rnas/3DJ0

>  <Rbt.Executable>
rbdock ($Id: //depot/dev/client3/rdock/2013.1/src/exe/rbdock.cxx#4 $)

>  <Rbt.Library>
libRbt.so (2013.1, Build901 2013/11/27)

>  <Rbt.Parameter_File>
/export/apps/rDock/src/rDock_2013.1_src/data/scripts/dock_solv.prm

>  <Rbt.Receptor>
prm/pocket_docking_2.prm

>  <SCORE>
-5.94754

>  <SCORE.INTER>
-3.75223

>  <SCORE.INTER.CONST>
1

>  <SCORE.INTER.POLAR>
0

>  <SCORE.INTER.ROT>
5

>  <SCORE.INTER.SOLV>
21.0505

>  <SCORE.INTER.VDW>
-16.4517

>  <SCORE.INTER.norm>
-0.375223

>  <SCORE.INTRA>
-2.19532

>  <SCORE.INTRA.DIHEDRAL>
-3.91913

>  <SCORE.INTRA.DIHEDRAL.0>
6.00299

>  <SCORE.INTRA.POLAR>
0

>  <SCORE.INTRA.POLAR.0>
0

>  <SCORE.INTRA.REPUL>
0

>  <SCORE.INTRA.REPUL.0>
0

>  <SCORE.INTRA.SOLV>
-0.154904

>  <SCORE.INTRA.SOLV.lig_0>
-39.3257

>  <SCORE.INTRA.VDW>
-0.158302

>  <SCORE.INTRA.VDW.0>
-0.734044

>  <SCORE.INTRA.norm>
-0.219532

>  <SCORE.RESTR>
0

>  <SCORE.RESTR.CAVITY>
0

>  <SCORE.RESTR.norm>
0

>  <SCORE.SYSTEM>
0

>  <SCORE.SYSTEM.CONST>
0

>  <SCORE.SYSTEM.DIHEDRAL>
0

>  <SCORE.SYSTEM.SOLV>
0

>  <SCORE.SYSTEM.norm>
0

>  <SCORE.heavy>
10

>  <SCORE.norm>
-0.594754

>  <RMSD>
1.777

$$$$
ligand
 OpenBabel11021811473D
libRbt.so/2013.1/901 2013/11/27
 10  9  0  0  0  0  0  0  0  0999 V2000
   31.8930   17.8500   22.8544 N   0  0  0  0  0  0  0  0  0  0  0  0
   32.2560   16.4776   22.5541 C   0  0  2  0  0  0  0  0  0  0  0  0
   32.8051   16.3681   21.1567 C   0  0  0  0  0  0  0  0  0  0  0  0
   32.1291   16.8214   20.1997 O   0  0  0  0  0  0  0  0  0  0  0  0
   31.0349   15.5829   22.7169 C   0  0  0  0  0  0  0  0  0  0  0  0
   30.0150   16.0307   21.8275 O   0  0  0  0  0  0  0  0  0  0  0  0
   28.8829   15.1787   22.0011 C   0  0  0  0  0  0  0  0  0  0  0  0
   27.8071   15.6019   21.0032 C   0  0  0  0  0  0  0  0  0  0  0  0
   26.6186   14.7846   21.1752 N   0  0  0  0  0  0  0  0  0  0  0  0
   34.0467   16.2947   21.0618 O   0  0  0  0  0  0  0  0  0  0  0  0
  2  1  1  6  0  0  0
  2  5  1  0  0  0  0
  2  3  1  0  0  0  0
  3  4  1  0  0  0  0
  3 10  1  0  0  0  0
  5  6  1  0  0  0  0
  6  7  1  0  0  0  0
  7  8  1  0  0  0  0
  8  9  1  0  0  0  0
M  END
>  <CHROM.1>
59.39380328,-53.32954460,-179.90184239,-177.13670559,-178.23029011,30.77832339
16.10610413,21.62647324,0.07311218,0.26102746,1.35829915

>  <Name>
ligand

>  <RI>
0

>  <Rbt.Current_Directory>
/home/itssahil/PROJECTS/Mol_Feturizer/New_Systems/rnas/3DJ0

>  <Rbt.Executable>
rbdock ($Id: //depot/dev/client3/rdock/2013.1/src/exe/rbdock.cxx#4 $)

>  <Rbt.Library>
libRbt.so (2013.1, Build901 2013/11/27)

>  <Rbt.Parameter_File>
/export/apps/rDock/src/rDock_2013.1_src/data/scripts/dock_solv.prm

>  <Rbt.Receptor>
prm/pocket_docking_2.prm

>  <SCORE>
-5.93035

>  <SCORE.INTER>
-3.68178

>  <SCORE.INTER.CONST>
1

>  <SCORE.INTER.POLAR>
0

>  <SCORE.INTER.ROT>
5

>  <SCORE.INTER.SOLV>
21.1558

>  <SCORE.INTER.VDW>
-16.4398

>  <SCORE.INTER.norm>
-0.368178

>  <SCORE.INTRA>
-2.24858

>  <SCORE.INTRA.DIHEDRAL>
-3.91908

>  <SCORE.INTRA.DIHEDRAL.0>
6.00299

>  <SCORE.INTRA.POLAR>
0

>  <SCORE.INTRA.POLAR.0>
0

>  <SCORE.INTRA.REPUL>
0

>  <SCORE.INTRA.REPUL.0>
0

>  <SCORE.INTRA.SOLV>
-0.168902

>  <SCORE.INTRA.SOLV.lig_0>
-39.3257

>  <SCORE.INTRA.VDW>
-0.204588

>  <SCORE.INTRA.VDW.0>
-0.734044

>  <SCORE.INTRA.norm>
-0.224858

>  <SCORE.RESTR>
0

>  <SCORE.RESTR.CAVITY>
0

>  <SCORE.RESTR.norm>
0

>  <SCORE.SYSTEM>
0

>  <SCORE.SYSTEM.CONST>
0

>  <SCORE.SYSTEM.DIHEDRAL>
0

>  <SCORE.SYSTEM.SOLV>
0

>  <SCORE.SYSTEM.norm>
0

>  <SCORE.heavy>
10

>  <SCORE.norm>
-0.593035

>  <RMSD>
1.781

$$$$
ligand
 OpenBabel11021811473D
libRbt.so/2013.1/901 2013/11/27
 10  9  0  0  0  0  0  0  0  0999 V2000
   31.0939   17.0747   22.8382 N   0  0  0  0  0  0  0  0  0  0  0  0
   31.7405   15.9386   22.2084 C   0  0  2  0  0  0  0  0  0  0  0  0
   32.7476   16.3997   21.1890 C   0  0  0  0  0  0  0  0  0  0  0  0
   33.5510   17.3149   21.4977 O   0  0  0  0  0  0  0  0  0  0  0  0
   30.6877   15.0549   21.5533 C   0  0  0  0  0  0  0  0  0  0  0  0
   29.8317   14.5320   22.5660 O   0  0  0  0  0  0  0  0  0  0  0  0
   28.7229   15.4212   22.6988 C   0  0  0  0  0  0  0  0  0  0  0  0
   27.6048   14.9335   21.7800 C   0  0  0  0  0  0  0  0  0  0  0  0
   28.0186   15.0396   20.3916 N   0  0  0  0  0  0  0  0  0  0  0  0
   33.0589   15.5676   20.3134 O   0  0  0  0  0  0  0  0  0  0  0  0
  2  1  1  6  0  0  0
  2  5  1  0  0  0  0
  2  3  1  0  0  0  0
  3  4  1  0  0  0  0
  3 10  1  0  0  0  0
  5  6  1  0  0  0  0
  6  7  1  0  0  0  0
  7  8  1  0  0  0  0
  8  9  1  0  0  0  0
M  END
>  <CHROM.1>
-63.65067744,46.57846520,92.38564309,92.15051155,-65.31960973,30.74375885
15.72458084,21.69368587,0.05849865,0.32866961,1.10973096

>  <Name>
ligand

>  <RI>
0

>  <Rbt.Current_Directory>
/home/itssahil/PROJECTS/Mol_Feturizer/New_Systems/rnas/3DJ0

>  <Rbt.Executable>
rbdock ($Id: //depot/dev/client3/rdock/2013.1/src/exe/rbdock.cxx#4 $)

>  <Rbt.Library>
libRbt.so (2013.1, Build901 2013/11/27)

>  <Rbt.Parameter_File>
/export/apps/rDock/src/rDock_2013.1_src/data/scripts/dock_solv.prm

>  <Rbt.Receptor>
prm/pocket_docking_5.prm

>  <SCORE>
-2.31299

>  <SCORE.INTER>
-7.93721

>  <SCORE.INTER.CONST>
1

>  <SCORE.INTER.POLAR>
0

>  <SCORE.INTER.ROT>
5

>  <SCORE.INTER.SOLV>
14.8646

>  <SCORE.INTER.VDW>
-17.1797

>  <SCORE.INTER.norm>
-0.793721

>  <SCORE.INTRA>
5.62422

>  <SCORE.INTRA.DIHEDRAL>
4.52452

>  <SCORE.INTRA.DIHEDRAL.0>
6.00299

>  <SCORE.INTRA.POLAR>
0

>  <SCORE.INTRA.POLAR.0>
0

>  <SCORE.INTRA.REPUL>
0

>  <SCORE.INTRA.REPUL.0>
0

>  <SCORE.INTRA.SOLV>
2.66553

>  <SCORE.INTRA.SOLV.lig_0>
-39.3257

>  <SCORE.INTRA.VDW>
2.02919

>  <SCORE.INTRA.VDW.0>
-0.734044

>  <SCORE.INTRA.norm>
0.562422

>  <SCORE.RESTR>
0

>  <SCORE.RESTR.CAVITY>
0

>  <SCORE.RESTR.norm>
0

>  <SCORE.SYSTEM>
0

>  <SCORE.SYSTEM.CONST>
0

>  <SCORE.SYSTEM.DIHEDRAL>
0

>  <SCORE.SYSTEM.SOLV>
0

>  <SCORE.SYSTEM.norm>
0

>  <SCORE.heavy>
10

>  <SCORE.norm>
-0.231299

>  <RMSD>
1.790

$$$$
ligand
 OpenBabel11021811473D
libRbt.so/2013.1/901 2013/11/27
 10  9  0  0  0  0  0  0  0  0999 V2000
   30.4055   17.6495   21.5627 N   0  0  0  0  0  0  0  0  0  0  0  0
   30.7258   16.4909   22.3754 C   0  0  2  0  0  0  0  0  0  0  0  0
   32.1395   16.0400   22.1221 C   0  0  0  0  0  0  0  0  0  0  0  0
   32.5072   15.8240   20.9403 O   0  0  0  0  0  0  0  0  0  0  0  0
   29.7460   15.3674   22.0654 C   0  0  0  0  0  0  0  0  0  0  0  0
   28.4371   15.7799   22.4503 O   0  0  0  0  0  0  0  0  0  0  0  0
   27.5170   14.7912   21.9882 C   0  0  0  0  0  0  0  0  0  0  0  0
   27.0392   15.1950   20.5950 C   0  0  0  0  0  0  0  0  0  0  0  0
   28.1573   15.2038   19.6678 N   0  0  0  0  0  0  0  0  0  0  0  0
   32.9794   16.3640   22.9856 O   0  0  0  0  0  0  0  0  0  0  0  0
  2  1  1  6  0  0  0
  2  5  1  0  0  0  0
  2  3  1  0  0  0  0
  3  4  1  0  0  0  0
  3 10  1  0  0  0  0
  5  6  1  0  0  0  0
  6  7  1  0  0  0  0
  7  8  1  0  0  0  0
  8  9  1  0  0  0  0
M  END
>  <CHROM.1>
-64.09965381,-52.73447798,172.33663022,-91.39399853,63.25391662,30.00021019
15.86977655,21.68602643,-0.25543946,-0.19655959,-1.72231986

>  <Name>
ligand

>  <RI>
0

>  <Rbt.Current_Directory>
/home/itssahil/PROJECTS/Mol_Feturizer/New_Systems/rnas/3DJ0

>  <Rbt.Executable>
rbdock ($Id: //depot/dev/client3/rdock/2013.1/src/exe/rbdock.cxx#4 $)

>  <Rbt.Library>
libRbt.so (2013.1, Build901 2013/11/27)

>  <Rbt.Parameter_File>
/export/apps/rDock/src/rDock_2013.1_src/data/scripts/dock_solv.prm

>  <Rbt.Receptor>
prm/pocket_docking_4.prm

>  <SCORE>
-5.28313

>  <SCORE.INTER>
-7.42431

>  <SCORE.INTER.CONST>
1

>  <SCORE.INTER.POLAR>
0

>  <SCORE.INTER.ROT>
5

>  <SCORE.INTER.SOLV>
16.1893

>  <SCORE.INTER.VDW>
-17.2793

>  <SCORE.INTER.norm>
-0.742431

>  <SCORE.INTRA>
2.14118

>  <SCORE.INTRA.DIHEDRAL>
0.270396

>  <SCORE.INTRA.DIHEDRAL.0>
6.00299

>  <SCORE.INTRA.POLAR>
0

>  <SCORE.INTRA.POLAR.0>
0

>  <SCORE.INTRA.REPUL>
0

>  <SCORE.INTRA.REPUL.0>
0

>  <SCORE.INTRA.SOLV>
2.87175

>  <SCORE.INTRA.SOLV.lig_0>
-39.3257

>  <SCORE.INTRA.VDW>
0.57011

>  <SCORE.INTRA.VDW.0>
-0.734044

>  <SCORE.INTRA.norm>
0.214118

>  <SCORE.RESTR>
0

>  <SCORE.RESTR.CAVITY>
0

>  <SCORE.RESTR.norm>
0

>  <SCORE.SYSTEM>
0

>  <SCORE.SYSTEM.CONST>
0

>  <SCORE.SYSTEM.DIHEDRAL>
0

>  <SCORE.SYSTEM.SOLV>
0

>  <SCORE.SYSTEM.norm>
0

>  <SCORE.heavy>
10

>  <SCORE.norm>
-0.528313

>  <RMSD>
1.819

$$$$
ligand
 OpenBabel11021811473D
libRbt.so/2013.1/901 2013/11/27
 10  9  0  0  0  0  0  0  0  0999 V2000
   31.5732   15.8008   22.9600 N   0  0  0  0  0  0  0  0  0  0  0  0
   31.6811   15.5819   21.5297 C   0  0  2  0  0  0  0  0  0  0  0  0
   32.9486   16.1922   20.9940 C   0  0  0  0  0  0  0  0  0  0  0  0
   33.2906   15.9449   19.8107 O   0  0  0  0  0  0  0  0  0  0  0  0
   30.4671   16.1802   20.8321 C   0  0  0  0  0  0  0  0  0  0  0  0
   29.3308   15.3646   21.1067 O   0  0  0  0  0  0  0  0  0  0  0  0
   28.2067   15.9513   20.4511 C   0  0  0  0  0  0  0  0  0  0  0  0
   26.9935   15.0537   20.6843 C   0  0  0  0  0  0  0  0  0  0  0  0
   26.8069   14.8275   22.1070 N   0  0  0  0  0  0  0  0  0  0  0  0
   33.3187   17.2508   21.5403 O   0  0  0  0  0  0  0  0  0  0  0  0
  2  1  1  1  0  0  0
  2  5  1  0  0  0  0
  2  3  1  0  0  0  0
  3  4  1  0  0  0  0
  3 10  1  0  0  0  0
  5  6  1  0  0  0  0
  6  7  1  0  0  0  0
  7  8  1  0  0  0  0
  8  9  1  0  0  0  0
M  END
>  <CHROM.1>
-72.37589223,170.61222061,179.57654924,177.48630086,54.30606198,30.49850286
15.82920830,21.18469639,-0.03346217,0.21041376,1.61466785

>  <Name>
ligand

>  <RI>
0

>  <Rbt.Current_Directory>
/home/itssahil/PROJECTS/Mol_Feturizer/New_Systems/rnas/3DJ0

>  <Rbt.Executable>
rbdock ($Id: //depot/dev/client3/rdock/2013.1/src/exe/rbdock.cxx#4 $)

>  <Rbt.Library>
libRbt.so (2013.1, Build901 2013/11/27)

>  <Rbt.Parameter_File>
/export/apps/rDock/src/rDock_2013.1_src/data/scripts/dock_solv.prm

>  <Rbt.Receptor>
prm/pocket_docking_7.prm

>  <SCORE>
-5.96036

>  <SCORE.INTER>
-4.57301

>  <SCORE.INTER.CONST>
1

>  <SCORE.INTER.POLAR>
0

>  <SCORE.INTER.ROT>
5

>  <SCORE.INTER.SOLV>
22.7558

>  <SCORE.INTER.VDW>
-17.5673

>  <SCORE.INTER.norm>
-0.457301

>  <SCORE.INTRA>
-1.38734

>  <SCORE.INTRA.DIHEDRAL>
-3.08028

>  <SCORE.INTRA.DIHEDRAL.0>
6.00299

>  <SCORE.INTRA.POLAR>
0

>  <SCORE.INTRA.POLAR.0>
0

>  <SCORE.INTRA.REPUL>
0

>  <SCORE.INTRA.REPUL.0>
0

>  <SCORE.INTRA.SOLV>
0.306531

>  <SCORE.INTRA.SOLV.lig_0>
-39.3257

>  <SCORE.INTRA.VDW>
-0.000471898

>  <SCORE.INTRA.VDW.0>
-0.734044

>  <SCORE.INTRA.norm>
-0.138734

>  <SCORE.RESTR>
0

>  <SCORE.RESTR.CAVITY>
0

>  <SCORE.RESTR.norm>
0

>  <SCORE.SYSTEM>
0

>  <SCORE.SYSTEM.CONST>
0

>  <SCORE.SYSTEM.DIHEDRAL>
0

>  <SCORE.SYSTEM.SOLV>
0

>  <SCORE.SYSTEM.norm>
0

>  <SCORE.heavy>
10

>  <SCORE.norm>
-0.596036

>  <RMSD>
1.831

$$$$
ligand
 OpenBabel11021811473D
libRbt.so/2013.1/901 2013/11/27
 10  9  0  0  0  0  0  0  0  0999 V2000
   31.5615   15.8284   22.9242 N   0  0  0  0  0  0  0  0  0  0  0  0
   31.6612   15.5772   21.4986 C   0  0  2  0  0  0  0  0  0  0  0  0
   32.9339   16.1604   20.9451 C   0  0  0  0  0  0  0  0  0  0  0  0
   33.2715   15.8784   19.7683 O   0  0  0  0  0  0  0  0  0  0  0  0
   30.4517   16.1748   20.7926 C   0  0  0  0  0  0  0  0  0  0  0  0
   29.3102   15.3695   21.0754 O   0  0  0  0  0  0  0  0  0  0  0  0
   28.1917   15.9520   20.4065 C   0  0  0  0  0  0  0  0  0  0  0  0
   26.9835   15.0404   20.6100 C   0  0  0  0  0  0  0  0  0  0  0  0
   26.7530   14.8276   22.0283 N   0  0  0  0  0  0  0  0  0  0  0  0
   33.3153   17.2295   21.4626 O   0  0  0  0  0  0  0  0  0  0  0  0
  2  1  1  1  0  0  0
  2  5  1  0  0  0  0
  2  3  1  0  0  0  0
  3  4  1  0  0  0  0
  3 10  1  0  0  0  0
  5  6  1  0  0  0  0
  6  7  1  0  0  0  0
  7  8  1  0  0  0  0
  8  9  1  0  0  0  0
M  END
>  <CHROM.1>
-73.09472399,170.28213214,179.84175023,175.63073635,55.84887825,30.48027890
15.81764208,21.13410275,-0.02614552,0.20613398,1.59259145

>  <Name>
ligand

>  <RI>
0

>  <Rbt.Current_Directory>
/home/itssahil/PROJECTS/Mol_Feturizer/New_Systems/rnas/3DJ0

>  <Rbt.Executable>
rbdock ($Id: //depot/dev/client3/rdock/2013.1/src/exe/rbdock.cxx#4 $)

>  <Rbt.Library>
libRbt.so (2013.1, Build901 2013/11/27)

>  <Rbt.Parameter_File>
/export/apps/rDock/src/rDock_2013.1_src/data/scripts/dock_solv.prm

>  <Rbt.Receptor>
prm/pocket_docking_4.prm

>  <SCORE>
-5.93242

>  <SCORE.INTER>
-4.56618

>  <SCORE.INTER.CONST>
1

>  <SCORE.INTER.POLAR>
0

>  <SCORE.INTER.ROT>
5

>  <SCORE.INTER.SOLV>
22.615

>  <SCORE.INTER.VDW>
-17.5158

>  <SCORE.INTER.norm>
-0.456618

>  <SCORE.INTRA>
-1.36625

>  <SCORE.INTRA.DIHEDRAL>
-3.0081

>  <SCORE.INTRA.DIHEDRAL.0>
6.00299

>  <SCORE.INTRA.POLAR>
0

>  <SCORE.INTRA.POLAR.0>
0

>  <SCORE.INTRA.REPUL>
0

>  <SCORE.INTRA.REPUL.0>
0

>  <SCORE.INTRA.SOLV>
0.269292

>  <SCORE.INTRA.SOLV.lig_0>
-39.3257

>  <SCORE.INTRA.VDW>
0.00315578

>  <SCORE.INTRA.VDW.0>
-0.734044

>  <SCORE.INTRA.norm>
-0.136625

>  <SCORE.RESTR>
0

>  <SCORE.RESTR.CAVITY>
0

>  <SCORE.RESTR.norm>
0

>  <SCORE.SYSTEM>
0

>  <SCORE.SYSTEM.CONST>
0

>  <SCORE.SYSTEM.DIHEDRAL>
0

>  <SCORE.SYSTEM.SOLV>
0

>  <SCORE.SYSTEM.norm>
0

>  <SCORE.heavy>
10

>  <SCORE.norm>
-0.593242

>  <RMSD>
1.849

$$$$
ligand
 OpenBabel11021811473D
libRbt.so/2013.1/901 2013/11/27
 10  9  0  0  0  0  0  0  0  0999 V2000
   33.0198   16.3018   21.4899 N   0  0  0  0  0  0  0  0  0  0  0  0
   31.6353   16.6614   21.2462 C   0  0  2  0  0  0  0  0  0  0  0  0
   31.0085   17.2310   22.4907 C   0  0  0  0  0  0  0  0  0  0  0  0
   30.7369   16.4589   23.4438 O   0  0  0  0  0  0  0  0  0  0  0  0
   30.8670   15.4328   20.7788 C   0  0  0  0  0  0  0  0  0  0  0  0
   29.4931   15.7805   20.6261 O   0  0  0  0  0  0  0  0  0  0  0  0
   28.8037   14.6255   20.1479 C   0  0  0  0  0  0  0  0  0  0  0  0
   27.3062   14.9249   20.1530 C   0  0  0  0  0  0  0  0  0  0  0  0
   26.8496   15.1599   21.5118 N   0  0  0  0  0  0  0  0  0  0  0  0
   31.2331   18.4379   22.7123 O   0  0  0  0  0  0  0  0  0  0  0  0
  2  1  1  1  0  0  0
  2  5  1  0  0  0  0
  2  3  1  0  0  0  0
  3  4  1  0  0  0  0
  3 10  1  0  0  0  0
  5  6  1  0  0  0  0
  6  7  1  0  0  0  0
  7  8  1  0  0  0  0
  8  9  1  0  0  0  0
M  END
>  <CHROM.1>
176.32004173,-72.64883125,178.21218308,172.69833207,-63.34444761,30.09431476
16.12224050,21.48719729,-0.57847886,-0.15474213,-2.24931178

>  <Name>
ligand

>  <RI>
0

>  <Rbt.Current_Directory>
/home/itssahil/PROJECTS/Mol_Feturizer/New_Systems/rnas/3DJ0

>  <Rbt.Executable>
rbdock ($Id: //depot/dev/client3/rdock/2013.1/src/exe/rbdock.cxx#4 $)

>  <Rbt.Library>
libRbt.so (2013.1, Build901 2013/11/27)

>  <Rbt.Parameter_File>
/export/apps/rDock/src/rDock_2013.1_src/data/scripts/dock_solv.prm

>  <Rbt.Receptor>
prm/blind_docking_60.prm

>  <SCORE>
-4.3754

>  <SCORE.INTER>
-2.76203

>  <SCORE.INTER.CONST>
1

>  <SCORE.INTER.POLAR>
0

>  <SCORE.INTER.ROT>
5

>  <SCORE.INTER.SOLV>
20.5529

>  <SCORE.INTER.VDW>
-15.6257

>  <SCORE.INTER.norm>
-0.276203

>  <SCORE.INTRA>
-1.61337

>  <SCORE.INTRA.DIHEDRAL>
-3.33182

>  <SCORE.INTRA.DIHEDRAL.0>
6.00299

>  <SCORE.INTRA.POLAR>
0

>  <SCORE.INTRA.POLAR.0>
0

>  <SCORE.INTRA.REPUL>
0

>  <SCORE.INTRA.REPUL.0>
0

>  <SCORE.INTRA.SOLV>
-0.0361342

>  <SCORE.INTRA.SOLV.lig_0>
-39.3257

>  <SCORE.INTRA.VDW>
0.0706078

>  <SCORE.INTRA.VDW.0>
-0.734044

>  <SCORE.INTRA.norm>
-0.161337

>  <SCORE.RESTR>
0

>  <SCORE.RESTR.CAVITY>
0

>  <SCORE.RESTR.norm>
0

>  <SCORE.SYSTEM>
0

>  <SCORE.SYSTEM.CONST>
0

>  <SCORE.SYSTEM.DIHEDRAL>
0

>  <SCORE.SYSTEM.SOLV>
0

>  <SCORE.SYSTEM.norm>
0

>  <SCORE.heavy>
10

>  <SCORE.norm>
-0.43754

>  <RMSD>
1.852

$$$$
ligand
 OpenBabel11021811473D
libRbt.so/2013.1/901 2013/11/27
 10  9  0  0  0  0  0  0  0  0999 V2000
   31.6341   17.8149   22.8841 N   0  0  0  0  0  0  0  0  0  0  0  0
   32.0920   16.4869   22.5207 C   0  0  2  0  0  0  0  0  0  0  0  0
   32.5164   16.4490   21.0769 C   0  0  0  0  0  0  0  0  0  0  0  0
   33.2465   15.5061   20.6815 O   0  0  0  0  0  0  0  0  0  0  0  0
   30.9786   15.4797   22.7739 C   0  0  0  0  0  0  0  0  0  0  0  0
   29.8510   15.8307   21.9757 O   0  0  0  0  0  0  0  0  0  0  0  0
   28.8203   14.8786   22.2381 C   0  0  0  0  0  0  0  0  0  0  0  0
   27.6303   15.1997   21.3364 C   0  0  0  0  0  0  0  0  0  0  0  0
   28.0184   15.0898   19.9409 N   0  0  0  0  0  0  0  0  0  0  0  0
   31.7655   17.0345   20.2711 O   0  0  0  0  0  0  0  0  0  0  0  0
  2  1  1  6  0  0  0
  2  5  1  0  0  0  0
  2  3  1  0  0  0  0
  3  4  1  0  0  0  0
  3 10  1  0  0  0  0
  5  6  1  0  0  0  0
  6  7  1  0  0  0  0
  7  8  1  0  0  0  0
  8  9  1  0  0  0  0
M  END
>  <CHROM.1>
60.30300992,161.95680637,-179.59779142,-177.13600227,61.41534664,30.67214114
15.97601604,21.54238430,0.13299882,0.29472236,1.33060318

>  <Name>
ligand

>  <RI>
0

>  <Rbt.Current_Directory>
/home/itssahil/PROJECTS/Mol_Feturizer/New_Systems/rnas/3DJ0

>  <Rbt.Executable>
rbdock ($Id: //depot/dev/client3/rdock/2013.1/src/exe/rbdock.cxx#4 $)

>  <Rbt.Library>
libRbt.so (2013.1, Build901 2013/11/27)

>  <Rbt.Parameter_File>
/export/apps/rDock/src/rDock_2013.1_src/data/scripts/dock_solv.prm

>  <Rbt.Receptor>
prm/pocket_docking_2.prm

>  <SCORE>
-6.63019

>  <SCORE.INTER>
-5.1119

>  <SCORE.INTER.CONST>
1

>  <SCORE.INTER.POLAR>
0

>  <SCORE.INTER.ROT>
5

>  <SCORE.INTER.SOLV>
15.7429

>  <SCORE.INTER.VDW>
-15.5889

>  <SCORE.INTER.norm>
-0.51119

>  <SCORE.INTRA>
-1.51828

>  <SCORE.INTRA.DIHEDRAL>
-3.5358

>  <SCORE.INTRA.DIHEDRAL.0>
6.00299

>  <SCORE.INTRA.POLAR>
0

>  <SCORE.INTRA.POLAR.0>
0

>  <SCORE.INTRA.REPUL>
0

>  <SCORE.INTRA.REPUL.0>
0

>  <SCORE.INTRA.SOLV>
0.941687

>  <SCORE.INTRA.SOLV.lig_0>
-39.3257

>  <SCORE.INTRA.VDW>
-0.221226

>  <SCORE.INTRA.VDW.0>
-0.734044

>  <SCORE.INTRA.norm>
-0.151828

>  <SCORE.RESTR>
0

>  <SCORE.RESTR.CAVITY>
0

>  <SCORE.RESTR.norm>
0

>  <SCORE.SYSTEM>
0

>  <SCORE.SYSTEM.CONST>
0

>  <SCORE.SYSTEM.DIHEDRAL>
0

>  <SCORE.SYSTEM.SOLV>
0

>  <SCORE.SYSTEM.norm>
0

>  <SCORE.heavy>
10

>  <SCORE.norm>
-0.663019

>  <RMSD>
1.853

$$$$
ligand
 OpenBabel11021811473D
libRbt.so/2013.1/901 2013/11/27
 10  9  0  0  0  0  0  0  0  0999 V2000
   31.4998   17.7181   22.8645 N   0  0  0  0  0  0  0  0  0  0  0  0
   31.9114   16.3616   22.5551 C   0  0  2  0  0  0  0  0  0  0  0  0
   32.4700   16.2822   21.1595 C   0  0  0  0  0  0  0  0  0  0  0  0
   33.4598   16.9950   20.8584 O   0  0  0  0  0  0  0  0  0  0  0  0
   30.7213   15.4238   22.7052 C   0  0  0  0  0  0  0  0  0  0  0  0
   29.6779   15.8631   21.8392 O   0  0  0  0  0  0  0  0  0  0  0  0
   28.5699   14.9797   22.0116 C   0  0  0  0  0  0  0  0  0  0  0  0
   27.4908   15.3612   21.0006 C   0  0  0  0  0  0  0  0  0  0  0  0
   28.0009   15.2155   19.6483 N   0  0  0  0  0  0  0  0  0  0  0  0
   32.2629   15.2149   20.5479 O   0  0  0  0  0  0  0  0  0  0  0  0
  2  1  1  6  0  0  0
  2  5  1  0  0  0  0
  2  3  1  0  0  0  0
  3  4  1  0  0  0  0
  3 10  1  0  0  0  0
  5  6  1  0  0  0  0
  6  7  1  0  0  0  0
  7  8  1  0  0  0  0
  8  9  1  0  0  0  0
M  END
>  <CHROM.1>
57.95181979,58.60003649,-179.24488538,-174.98903186,61.12824511,30.63357628
15.93945896,21.49640645,0.21192378,0.23555207,1.21517758

>  <Name>
ligand

>  <RI>
0

>  <Rbt.Current_Directory>
/home/itssahil/PROJECTS/Mol_Feturizer/New_Systems/rnas/3DJ0

>  <Rbt.Executable>
rbdock ($Id: //depot/dev/client3/rdock/2013.1/src/exe/rbdock.cxx#4 $)

>  <Rbt.Library>
libRbt.so (2013.1, Build901 2013/11/27)

>  <Rbt.Parameter_File>
/export/apps/rDock/src/rDock_2013.1_src/data/scripts/dock_solv.prm

>  <Rbt.Receptor>
prm/pocket_docking_5.prm

>  <SCORE>
-6.98818

>  <SCORE.INTER>
-6.37936

>  <SCORE.INTER.CONST>
1

>  <SCORE.INTER.POLAR>
0

>  <SCORE.INTER.ROT>
5

>  <SCORE.INTER.SOLV>
15.9875

>  <SCORE.INTER.VDW>
-16.5154

>  <SCORE.INTER.norm>
-0.637936

>  <SCORE.INTRA>
-0.608818

>  <SCORE.INTRA.DIHEDRAL>
-3.74678

>  <SCORE.INTRA.DIHEDRAL.0>
6.00299

>  <SCORE.INTRA.POLAR>
0

>  <SCORE.INTRA.POLAR.0>
0

>  <SCORE.INTRA.REPUL>
0

>  <SCORE.INTRA.REPUL.0>
0

>  <SCORE.INTRA.SOLV>
0.753034

>  <SCORE.INTRA.SOLV.lig_0>
-39.3257

>  <SCORE.INTRA.VDW>
0.888057

>  <SCORE.INTRA.VDW.0>
-0.734044

>  <SCORE.INTRA.norm>
-0.0608818

>  <SCORE.RESTR>
0

>  <SCORE.RESTR.CAVITY>
0

>  <SCORE.RESTR.norm>
0

>  <SCORE.SYSTEM>
0

>  <SCORE.SYSTEM.CONST>
0

>  <SCORE.SYSTEM.DIHEDRAL>
0

>  <SCORE.SYSTEM.SOLV>
0

>  <SCORE.SYSTEM.norm>
0

>  <SCORE.heavy>
10

>  <SCORE.norm>
-0.698818

>  <RMSD>
1.866

$$$$
ligand
 OpenBabel11021811473D
libRbt.so/2013.1/901 2013/11/27
 10  9  0  0  0  0  0  0  0  0999 V2000
   31.0738   17.5417   23.0747 N   0  0  0  0  0  0  0  0  0  0  0  0
   31.5448   16.2386   22.6441 C   0  0  2  0  0  0  0  0  0  0  0  0
   32.1115   16.3132   21.2515 C   0  0  0  0  0  0  0  0  0  0  0  0
   31.4832   16.9535   20.3720 O   0  0  0  0  0  0  0  0  0  0  0  0
   30.3959   15.2409   22.6976 C   0  0  0  0  0  0  0  0  0  0  0  0
   29.3585   15.6876   21.8282 O   0  0  0  0  0  0  0  0  0  0  0  0
   28.2926   14.7409   21.9020 C   0  0  0  0  0  0  0  0  0  0  0  0
   27.2332   15.1307   20.8734 C   0  0  0  0  0  0  0  0  0  0  0  0
   27.7920   15.0678   19.5341 N   0  0  0  0  0  0  0  0  0  0  0  0
   33.3476   16.1749   21.1565 O   0  0  0  0  0  0  0  0  0  0  0  0
  2  1  1  6  0  0  0
  2  5  1  0  0  0  0
  2  3  1  0  0  0  0
  3  4  1  0  0  0  0
  3 10  1  0  0  0  0
  5  6  1  0  0  0  0
  6  7  1  0  0  0  0
  7  8  1  0  0  0  0
  8  9  1  0  0  0  0
M  END
>  <CHROM.1>
60.16052947,-44.58481185,-179.69027294,-174.44996668,62.34844219,30.28818528
15.91865286,21.51065869,0.19398921,0.31745686,1.51376392

>  <Name>
ligand

>  <RI>
0

>  <Rbt.Current_Directory>
/home/itssahil/PROJECTS/Mol_Feturizer/New_Systems/rnas/3DJ0

>  <Rbt.Executable>
rbdock ($Id: //depot/dev/client3/rdock/2013.1/src/exe/rbdock.cxx#4 $)

>  <Rbt.Library>
libRbt.so (2013.1, Build901 2013/11/27)

>  <Rbt.Parameter_File>
/export/apps/rDock/src/rDock_2013.1_src/data/scripts/dock_solv.prm

>  <Rbt.Receptor>
prm/pocket_docking_7.prm

>  <SCORE>
-7.28241

>  <SCORE.INTER>
-5.49493

>  <SCORE.INTER.CONST>
1

>  <SCORE.INTER.POLAR>
0

>  <SCORE.INTER.ROT>
5

>  <SCORE.INTER.SOLV>
16.6642

>  <SCORE.INTER.VDW>
-16.1514

>  <SCORE.INTER.norm>
-0.549493

>  <SCORE.INTRA>
-1.78748

>  <SCORE.INTRA.DIHEDRAL>
-3.81199

>  <SCORE.INTRA.DIHEDRAL.0>
6.00299

>  <SCORE.INTRA.POLAR>
0

>  <SCORE.INTRA.POLAR.0>
0

>  <SCORE.INTRA.REPUL>
0

>  <SCORE.INTRA.REPUL.0>
0

>  <SCORE.INTRA.SOLV>
0.972068

>  <SCORE.INTRA.SOLV.lig_0>
-39.3257

>  <SCORE.INTRA.VDW>
-0.367524

>  <SCORE.INTRA.VDW.0>
-0.734044

>  <SCORE.INTRA.norm>
-0.178748

>  <SCORE.RESTR>
0

>  <SCORE.RESTR.CAVITY>
0

>  <SCORE.RESTR.norm>
0

>  <SCORE.SYSTEM>
0

>  <SCORE.SYSTEM.CONST>
0

>  <SCORE.SYSTEM.DIHEDRAL>
0

>  <SCORE.SYSTEM.SOLV>
0

>  <SCORE.SYSTEM.norm>
0

>  <SCORE.heavy>
10

>  <SCORE.norm>
-0.728241

>  <RMSD>
1.868

$$$$
ligand
 OpenBabel11021811473D
libRbt.so/2013.1/901 2013/11/27
 10  9  0  0  0  0  0  0  0  0999 V2000
   31.6096   17.7171   22.8679 N   0  0  0  0  0  0  0  0  0  0  0  0
   31.9917   16.3627   22.5140 C   0  0  2  0  0  0  0  0  0  0  0  0
   32.6052   16.3268   21.1399 C   0  0  0  0  0  0  0  0  0  0  0  0
   33.5911   17.0656   20.8938 O   0  0  0  0  0  0  0  0  0  0  0  0
   30.7679   15.4587   22.5734 C   0  0  0  0  0  0  0  0  0  0  0  0
   29.7885   15.9505   21.6621 O   0  0  0  0  0  0  0  0  0  0  0  0
   28.6182   15.1460   21.8068 C   0  0  0  0  0  0  0  0  0  0  0  0
   27.5740   15.6343   20.8051 C   0  0  0  0  0  0  0  0  0  0  0  0
   26.3320   14.9024   20.9832 N   0  0  0  0  0  0  0  0  0  0  0  0
   32.4437   15.2701   20.4969 O   0  0  0  0  0  0  0  0  0  0  0  0
  2  1  1  6  0  0  0
  2  5  1  0  0  0  0
  2  3  1  0  0  0  0
  3  4  1  0  0  0  0
  3 10  1  0  0  0  0
  5  6  1  0  0  0  0
  6  7  1  0  0  0  0
  7  8  1  0  0  0  0
  8  9  1  0  0  0  0
M  END
>  <CHROM.1>
59.39065036,55.37296062,-175.86922573,-178.27399616,-176.02281991,30.56577868
15.98287393,21.54782995,0.17208169,0.18947891,1.00224743

>  <Name>
ligand

>  <RI>
0

>  <Rbt.Current_Directory>
/home/itssahil/PROJECTS/Mol_Feturizer/New_Systems/rnas/3DJ0

>  <Rbt.Executable>
rbdock ($Id: //depot/dev/client3/rdock/2013.1/src/exe/rbdock.cxx#4 $)

>  <Rbt.Library>
libRbt.so (2013.1, Build901 2013/11/27)

>  <Rbt.Parameter_File>
/export/apps/rDock/src/rDock_2013.1_src/data/scripts/dock_solv.prm

>  <Rbt.Receptor>
prm/pocket_docking_2.prm

>  <SCORE>
-5.86269

>  <SCORE.INTER>
-4.72958

>  <SCORE.INTER.CONST>
1

>  <SCORE.INTER.POLAR>
0

>  <SCORE.INTER.ROT>
5

>  <SCORE.INTER.SOLV>
21.5632

>  <SCORE.INTER.VDW>
-17.2741

>  <SCORE.INTER.norm>
-0.472958

>  <SCORE.INTRA>
-1.13311

>  <SCORE.INTRA.DIHEDRAL>
-3.68405

>  <SCORE.INTRA.DIHEDRAL.0>
6.00299

>  <SCORE.INTRA.POLAR>
0

>  <SCORE.INTRA.POLAR.0>
0

>  <SCORE.INTRA.REPUL>
0

>  <SCORE.INTRA.REPUL.0>
0

>  <SCORE.INTRA.SOLV>
-0.372738

>  <SCORE.INTRA.SOLV.lig_0>
-39.3257

>  <SCORE.INTRA.VDW>
0.895282

>  <SCORE.INTRA.VDW.0>
-0.734044

>  <SCORE.INTRA.norm>
-0.113311

>  <SCORE.RESTR>
0

>  <SCORE.RESTR.CAVITY>
0

>  <SCORE.RESTR.norm>
0

>  <SCORE.SYSTEM>
0

>  <SCORE.SYSTEM.CONST>
0

>  <SCORE.SYSTEM.DIHEDRAL>
0

>  <SCORE.SYSTEM.SOLV>
0

>  <SCORE.SYSTEM.norm>
0

>  <SCORE.heavy>
10

>  <SCORE.norm>
-0.586269

>  <RMSD>
1.871

$$$$
ligand
 OpenBabel11021811473D
libRbt.so/2013.1/901 2013/11/27
 10  9  0  0  0  0  0  0  0  0999 V2000
   31.3247   17.6773   22.8523 N   0  0  0  0  0  0  0  0  0  0  0  0
   31.7635   16.3329   22.5274 C   0  0  2  0  0  0  0  0  0  0  0  0
   32.3710   16.2917   21.1507 C   0  0  0  0  0  0  0  0  0  0  0  0
   33.3778   17.0030   20.9079 O   0  0  0  0  0  0  0  0  0  0  0  0
   30.5806   15.3783   22.6150 C   0  0  0  0  0  0  0  0  0  0  0  0
   29.5714   15.8124   21.7069 O   0  0  0  0  0  0  0  0  0  0  0  0
   28.4654   14.9180   21.8271 C   0  0  0  0  0  0  0  0  0  0  0  0
   27.4097   15.3202   20.7995 C   0  0  0  0  0  0  0  0  0  0  0  0
   27.9619   15.2360   19.4586 N   0  0  0  0  0  0  0  0  0  0  0  0
   32.1757   15.2465   20.4984 O   0  0  0  0  0  0  0  0  0  0  0  0
  2  1  1  6  0  0  0
  2  5  1  0  0  0  0
  2  3  1  0  0  0  0
  3  4  1  0  0  0  0
  3 10  1  0  0  0  0
  5  6  1  0  0  0  0
  6  7  1  0  0  0  0
  7  8  1  0  0  0  0
  8  9  1  0  0  0  0
M  END
>  <CHROM.1>
58.90309699,59.97502546,-178.88521255,-176.61939084,60.16474662,30.52809292
15.92007680,21.41250721,0.24916075,0.23375494,1.23553452

>  <Name>
ligand

>  <RI>
0

>  <Rbt.Current_Directory>
/home/itssahil/PROJECTS/Mol_Feturizer/New_Systems/rnas/3DJ0

>  <Rbt.Executable>
rbdock ($Id: //depot/dev/client3/rdock/2013.1/src/exe/rbdock.cxx#4 $)

>  <Rbt.Library>
libRbt.so (2013.1, Build901 2013/11/27)

>  <Rbt.Parameter_File>
/export/apps/rDock/src/rDock_2013.1_src/data/scripts/dock_solv.prm

>  <Rbt.Receptor>
prm/pocket_docking_8.prm

>  <SCORE>
-6.96142

>  <SCORE.INTER>
-6.36436

>  <SCORE.INTER.CONST>
1

>  <SCORE.INTER.POLAR>
0

>  <SCORE.INTER.ROT>
5

>  <SCORE.INTER.SOLV>
16.4981

>  <SCORE.INTER.VDW>
-16.6756

>  <SCORE.INTER.norm>
-0.636436

>  <SCORE.INTRA>
-0.59706

>  <SCORE.INTRA.DIHEDRAL>
-3.8433

>  <SCORE.INTRA.DIHEDRAL.0>
6.00299

>  <SCORE.INTRA.POLAR>
0

>  <SCORE.INTRA.POLAR.0>
0

>  <SCORE.INTRA.REPUL>
0

>  <SCORE.INTRA.REPUL.0>
0

>  <SCORE.INTRA.SOLV>
0.754611

>  <SCORE.INTRA.SOLV.lig_0>
-39.3257

>  <SCORE.INTRA.VDW>
0.947283

>  <SCORE.INTRA.VDW.0>
-0.734044

>  <SCORE.INTRA.norm>
-0.059706

>  <SCORE.RESTR>
0

>  <SCORE.RESTR.CAVITY>
0

>  <SCORE.RESTR.norm>
0

>  <SCORE.SYSTEM>
0

>  <SCORE.SYSTEM.CONST>
0

>  <SCORE.SYSTEM.DIHEDRAL>
0

>  <SCORE.SYSTEM.SOLV>
0

>  <SCORE.SYSTEM.norm>
0

>  <SCORE.heavy>
10

>  <SCORE.norm>
-0.696142

>  <RMSD>
1.875

$$$$
ligand
 OpenBabel11021811473D
libRbt.so/2013.1/901 2013/11/27
 10  9  0  0  0  0  0  0  0  0999 V2000
   31.0400   17.5509   23.1152 N   0  0  0  0  0  0  0  0  0  0  0  0
   31.5143   16.2465   22.6922 C   0  0  2  0  0  0  0  0  0  0  0  0
   32.0969   16.3181   21.3059 C   0  0  0  0  0  0  0  0  0  0  0  0
   31.4668   16.9362   20.4119 O   0  0  0  0  0  0  0  0  0  0  0  0
   30.3636   15.2504   22.7342 C   0  0  0  0  0  0  0  0  0  0  0  0
   29.3419   15.6905   21.8431 O   0  0  0  0  0  0  0  0  0  0  0  0
   28.2525   14.7737   21.9451 C   0  0  0  0  0  0  0  0  0  0  0  0
   27.2174   15.1392   20.8834 C   0  0  0  0  0  0  0  0  0  0  0  0
   27.8111   15.0588   19.5601 N   0  0  0  0  0  0  0  0  0  0  0  0
   33.3366   16.2041   21.2277 O   0  0  0  0  0  0  0  0  0  0  0  0
  2  1  1  6  0  0  0
  2  5  1  0  0  0  0
  2  3  1  0  0  0  0
  3  4  1  0  0  0  0
  3 10  1  0  0  0  0
  5  6  1  0  0  0  0
  6  7  1  0  0  0  0
  7  8  1  0  0  0  0
  8  9  1  0  0  0  0
M  END
>  <CHROM.1>
60.68210261,-45.92843920,-177.48204693,-173.63426158,59.75965984,30.26920202
15.92640587,21.54909215,0.20310973,0.31600660,1.50381452

>  <Name>
ligand

>  <RI>
0

>  <Rbt.Current_Directory>
/home/itssahil/PROJECTS/Mol_Feturizer/New_Systems/rnas/3DJ0

>  <Rbt.Executable>
rbdock ($Id: //depot/dev/client3/rdock/2013.1/src/exe/rbdock.cxx#4 $)

>  <Rbt.Library>
libRbt.so (2013.1, Build901 2013/11/27)

>  <Rbt.Parameter_File>
/export/apps/rDock/src/rDock_2013.1_src/data/scripts/dock_solv.prm

>  <Rbt.Receptor>
prm/pocket_docking_5.prm

>  <SCORE>
-7.29124

>  <SCORE.INTER>
-5.59015

>  <SCORE.INTER.CONST>
1

>  <SCORE.INTER.POLAR>
0

>  <SCORE.INTER.ROT>
5

>  <SCORE.INTER.SOLV>
16.5664

>  <SCORE.INTER.VDW>
-16.1822

>  <SCORE.INTER.norm>
-0.559015

>  <SCORE.INTRA>
-1.7011

>  <SCORE.INTRA.DIHEDRAL>
-3.75623

>  <SCORE.INTRA.DIHEDRAL.0>
6.00299

>  <SCORE.INTRA.POLAR>
0

>  <SCORE.INTRA.POLAR.0>
0

>  <SCORE.INTRA.REPUL>
0

>  <SCORE.INTRA.REPUL.0>
0

>  <SCORE.INTRA.SOLV>
1.04589

>  <SCORE.INTRA.SOLV.lig_0>
-39.3257

>  <SCORE.INTRA.VDW>
-0.345922

>  <SCORE.INTRA.VDW.0>
-0.734044

>  <SCORE.INTRA.norm>
-0.17011

>  <SCORE.RESTR>
0

>  <SCORE.RESTR.CAVITY>
0

>  <SCORE.RESTR.norm>
0

>  <SCORE.SYSTEM>
0

>  <SCORE.SYSTEM.CONST>
0

>  <SCORE.SYSTEM.DIHEDRAL>
0

>  <SCORE.SYSTEM.SOLV>
0

>  <SCORE.SYSTEM.norm>
0

>  <SCORE.heavy>
10

>  <SCORE.norm>
-0.729124

>  <RMSD>
1.877

$$$$
ligand
 OpenBabel11021811473D
libRbt.so/2013.1/901 2013/11/27
 10  9  0  0  0  0  0  0  0  0999 V2000
   31.2082   15.7366   23.0135 N   0  0  0  0  0  0  0  0  0  0  0  0
   31.2335   15.4724   21.5869 C   0  0  2  0  0  0  0  0  0  0  0  0
   32.3584   16.2250   20.9281 C   0  0  0  0  0  0  0  0  0  0  0  0
   32.9046   17.1704   21.5497 O   0  0  0  0  0  0  0  0  0  0  0  0
   29.8975   15.8696   20.9739 C   0  0  0  0  0  0  0  0  0  0  0  0
   28.8696   15.0712   21.5550 O   0  0  0  0  0  0  0  0  0  0  0  0
   27.6446   15.3949   20.8974 C   0  0  0  0  0  0  0  0  0  0  0  0
   27.5244   14.5212   19.6507 C   0  0  0  0  0  0  0  0  0  0  0  0
   28.5263   14.9078   18.6726 N   0  0  0  0  0  0  0  0  0  0  0  0
   32.9983   15.6002   20.0585 O   0  0  0  0  0  0  0  0  0  0  0  0
  2  1  1  1  0  0  0
  2  5  1  0  0  0  0
  2  3  1  0  0  0  0
  3  4  1  0  0  0  0
  3 10  1  0  0  0  0
  5  6  1  0  0  0  0
  6  7  1  0  0  0  0
  7  8  1  0  0  0  0
  8  9  1  0  0  0  0
M  END
>  <CHROM.1>
-62.01906635,-16.10419537,-175.94102399,86.76682794,-68.34761755,30.34831826
15.60787537,20.89027760,0.29789182,0.24237309,1.41078250

>  <Name>
ligand

>  <RI>
0

>  <Rbt.Current_Directory>
/home/itssahil/PROJECTS/Mol_Feturizer/New_Systems/rnas/3DJ0

>  <Rbt.Executable>
rbdock ($Id: //depot/dev/client3/rdock/2013.1/src/exe/rbdock.cxx#4 $)

>  <Rbt.Library>
libRbt.so (2013.1, Build901 2013/11/27)

>  <Rbt.Parameter_File>
/export/apps/rDock/src/rDock_2013.1_src/data/scripts/dock_solv.prm

>  <Rbt.Receptor>
prm/pocket_docking_5.prm

>  <SCORE>
-4.0548

>  <SCORE.INTER>
-5.84559

>  <SCORE.INTER.CONST>
1

>  <SCORE.INTER.POLAR>
0

>  <SCORE.INTER.ROT>
5

>  <SCORE.INTER.SOLV>
17.3727

>  <SCORE.INTER.VDW>
-16.6213

>  <SCORE.INTER.norm>
-0.584559

>  <SCORE.INTRA>
1.79079

>  <SCORE.INTRA.DIHEDRAL>
-0.213306

>  <SCORE.INTRA.DIHEDRAL.0>
6.00299

>  <SCORE.INTRA.POLAR>
0

>  <SCORE.INTRA.POLAR.0>
0

>  <SCORE.INTRA.REPUL>
0

>  <SCORE.INTRA.REPUL.0>
0

>  <SCORE.INTRA.SOLV>
1.77284

>  <SCORE.INTRA.SOLV.lig_0>
-39.3257

>  <SCORE.INTRA.VDW>
1.01103

>  <SCORE.INTRA.VDW.0>
-0.734044

>  <SCORE.INTRA.norm>
0.179079

>  <SCORE.RESTR>
0

>  <SCORE.RESTR.CAVITY>
0

>  <SCORE.RESTR.norm>
0

>  <SCORE.SYSTEM>
0

>  <SCORE.SYSTEM.CONST>
0

>  <SCORE.SYSTEM.DIHEDRAL>
0

>  <SCORE.SYSTEM.SOLV>
0

>  <SCORE.SYSTEM.norm>
0

>  <SCORE.heavy>
10

>  <SCORE.norm>
-0.40548

>  <RMSD>
1.887

$$$$
ligand
 OpenBabel11021811473D
libRbt.so/2013.1/901 2013/11/27
 10  9  0  0  0  0  0  0  0  0999 V2000
   31.1978   17.5913   22.9291 N   0  0  0  0  0  0  0  0  0  0  0  0
   31.6747   16.2695   22.5675 C   0  0  2  0  0  0  0  0  0  0  0  0
   32.3059   16.2889   21.2011 C   0  0  0  0  0  0  0  0  0  0  0  0
   33.3170   17.0091   21.0077 O   0  0  0  0  0  0  0  0  0  0  0  0
   30.5141   15.2845   22.6029 C   0  0  0  0  0  0  0  0  0  0  0  0
   29.4906   15.7486   21.7262 O   0  0  0  0  0  0  0  0  0  0  0  0
   28.3865   14.8501   21.8338 C   0  0  0  0  0  0  0  0  0  0  0  0
   27.3113   15.2910   20.8430 C   0  0  0  0  0  0  0  0  0  0  0  0
   27.8291   15.2331   19.4871 N   0  0  0  0  0  0  0  0  0  0  0  0
   32.1215   15.2740   20.4995 O   0  0  0  0  0  0  0  0  0  0  0  0
  2  1  1  6  0  0  0
  2  5  1  0  0  0  0
  2  3  1  0  0  0  0
  3  4  1  0  0  0  0
  3 10  1  0  0  0  0
  5  6  1  0  0  0  0
  6  7  1  0  0  0  0
  7  8  1  0  0  0  0
  8  9  1  0  0  0  0
M  END
>  <CHROM.1>
56.94982366,61.54659110,-176.81722186,-176.93357596,61.27027693,30.44351517
15.88353638,21.44796874,0.24631271,0.23779345,1.26129324

>  <Name>
ligand

>  <RI>
0

>  <Rbt.Current_Directory>
/home/itssahil/PROJECTS/Mol_Feturizer/New_Systems/rnas/3DJ0

>  <Rbt.Executable>
rbdock ($Id: //depot/dev/client3/rdock/2013.1/src/exe/rbdock.cxx#4 $)

>  <Rbt.Library>
libRbt.so (2013.1, Build901 2013/11/27)

>  <Rbt.Parameter_File>
/export/apps/rDock/src/rDock_2013.1_src/data/scripts/dock_solv.prm

>  <Rbt.Receptor>
prm/pocket_docking_4.prm

>  <SCORE>
-6.90128

>  <SCORE.INTER>
-6.38575

>  <SCORE.INTER.CONST>
1

>  <SCORE.INTER.POLAR>
0

>  <SCORE.INTER.ROT>
5

>  <SCORE.INTER.SOLV>
16.886

>  <SCORE.INTER.VDW>
-16.8192

>  <SCORE.INTER.norm>
-0.638575

>  <SCORE.INTRA>
-0.515532

>  <SCORE.INTRA.DIHEDRAL>
-3.79424

>  <SCORE.INTRA.DIHEDRAL.0>
6.00299

>  <SCORE.INTRA.POLAR>
0

>  <SCORE.INTRA.POLAR.0>
0

>  <SCORE.INTRA.REPUL>
0

>  <SCORE.INTRA.REPUL.0>
0

>  <SCORE.INTRA.SOLV>
0.752222

>  <SCORE.INTRA.SOLV.lig_0>
-39.3257

>  <SCORE.INTRA.VDW>
1.00548

>  <SCORE.INTRA.VDW.0>
-0.734044

>  <SCORE.INTRA.norm>
-0.0515532

>  <SCORE.RESTR>
0

>  <SCORE.RESTR.CAVITY>
0

>  <SCORE.RESTR.norm>
0

>  <SCORE.SYSTEM>
0

>  <SCORE.SYSTEM.CONST>
0

>  <SCORE.SYSTEM.DIHEDRAL>
0

>  <SCORE.SYSTEM.SOLV>
0

>  <SCORE.SYSTEM.norm>
0

>  <SCORE.heavy>
10

>  <SCORE.norm>
-0.690128

>  <RMSD>
1.890

$$$$
ligand
 OpenBabel11021811473D
libRbt.so/2013.1/901 2013/11/27
 10  9  0  0  0  0  0  0  0  0999 V2000
   31.1687   17.8237   22.5805 N   0  0  0  0  0  0  0  0  0  0  0  0
   31.7651   16.5029   22.5070 C   0  0  2  0  0  0  0  0  0  0  0  0
   32.4802   16.3163   21.1956 C   0  0  0  0  0  0  0  0  0  0  0  0
   33.4977   17.0120   20.9525 O   0  0  0  0  0  0  0  0  0  0  0  0
   30.6812   15.4470   22.6763 C   0  0  0  0  0  0  0  0  0  0  0  0
   29.7475   15.5712   21.6064 O   0  0  0  0  0  0  0  0  0  0  0  0
   28.6994   14.6291   21.8336 C   0  0  0  0  0  0  0  0  0  0  0  0
   27.7903   14.6183   20.6066 C   0  0  0  0  0  0  0  0  0  0  0  0
   27.2935   15.9576   20.3426 N   0  0  0  0  0  0  0  0  0  0  0  0
   32.3450   15.2010   20.6534 O   0  0  0  0  0  0  0  0  0  0  0  0
  2  1  1  6  0  0  0
  2  5  1  0  0  0  0
  2  3  1  0  0  0  0
  3  4  1  0  0  0  0
  3 10  1  0  0  0  0
  5  6  1  0  0  0  0
  6  7  1  0  0  0  0
  7  8  1  0  0  0  0
  8  9  1  0  0  0  0
M  END
>  <CHROM.1>
62.08472094,66.07149449,-176.40128142,-172.58566781,-56.36791997,30.57923870
15.90143822,21.47305298,0.28551914,0.15377064,0.81538592

>  <Name>
ligand

>  <RI>
0

>  <Rbt.Current_Directory>
/home/itssahil/PROJECTS/Mol_Feturizer/New_Systems/rnas/3DJ0

>  <Rbt.Executable>
rbdock ($Id: //depot/dev/client3/rdock/2013.1/src/exe/rbdock.cxx#4 $)

>  <Rbt.Library>
libRbt.so (2013.1, Build901 2013/11/27)

>  <Rbt.Parameter_File>
/export/apps/rDock/src/rDock_2013.1_src/data/scripts/dock_solv.prm

>  <Rbt.Receptor>
prm/blind_docking_60.prm

>  <SCORE>
-5.12905

>  <SCORE.INTER>
-4.99296

>  <SCORE.INTER.CONST>
1

>  <SCORE.INTER.POLAR>
0

>  <SCORE.INTER.ROT>
5

>  <SCORE.INTER.SOLV>
19.6961

>  <SCORE.INTER.VDW>
-16.8273

>  <SCORE.INTER.norm>
-0.499296

>  <SCORE.INTRA>
-0.136095

>  <SCORE.INTRA.DIHEDRAL>
-3.57005

>  <SCORE.INTRA.DIHEDRAL.0>
6.00299

>  <SCORE.INTRA.POLAR>
0

>  <SCORE.INTRA.POLAR.0>
0

>  <SCORE.INTRA.REPUL>
0

>  <SCORE.INTRA.REPUL.0>
0

>  <SCORE.INTRA.SOLV>
0.757953

>  <SCORE.INTRA.SOLV.lig_0>
-39.3257

>  <SCORE.INTRA.VDW>
1.26996

>  <SCORE.INTRA.VDW.0>
-0.734044

>  <SCORE.INTRA.norm>
-0.0136095

>  <SCORE.RESTR>
0

>  <SCORE.RESTR.CAVITY>
0

>  <SCORE.RESTR.norm>
0

>  <SCORE.SYSTEM>
0

>  <SCORE.SYSTEM.CONST>
0

>  <SCORE.SYSTEM.DIHEDRAL>
0

>  <SCORE.SYSTEM.SOLV>
0

>  <SCORE.SYSTEM.norm>
0

>  <SCORE.heavy>
10

>  <SCORE.norm>
-0.512905

>  <RMSD>
1.893

$$$$
ligand
 OpenBabel11021811473D
libRbt.so/2013.1/901 2013/11/27
 10  9  0  0  0  0  0  0  0  0999 V2000
   32.9186   17.5276   22.8613 N   0  0  0  0  0  0  0  0  0  0  0  0
   32.1918   16.4168   22.2754 C   0  0  2  0  0  0  0  0  0  0  0  0
   32.5465   16.2592   20.8210 C   0  0  0  0  0  0  0  0  0  0  0  0
   33.5710   16.8359   20.3782 O   0  0  0  0  0  0  0  0  0  0  0  0
   30.6955   16.6491   22.4354 C   0  0  0  0  0  0  0  0  0  0  0  0
   29.9953   15.5526   21.8531 O   0  0  0  0  0  0  0  0  0  0  0  0
   28.5988   15.7791   22.0433 C   0  0  0  0  0  0  0  0  0  0  0  0
   27.8301   14.7076   21.2731 C   0  0  0  0  0  0  0  0  0  0  0  0
   28.0865   14.8370   19.8491 N   0  0  0  0  0  0  0  0  0  0  0  0
   32.1253   15.2250   20.2649 O   0  0  0  0  0  0  0  0  0  0  0  0
  2  1  1  6  0  0  0
  2  5  1  0  0  0  0
  2  3  1  0  0  0  0
  3  4  1  0  0  0  0
  3 10  1  0  0  0  0
  5  6  1  0  0  0  0
  6  7  1  0  0  0  0
  7  8  1  0  0  0  0
  8  9  1  0  0  0  0
M  END
>  <CHROM.1>
179.86674426,15.64768322,178.67930099,172.91565678,-63.57389645,30.87763882
15.96947132,21.37994946,0.21239975,0.28028774,1.11095859

>  <Name>
ligand

>  <RI>
0

>  <Rbt.Current_Directory>
/home/itssahil/PROJECTS/Mol_Feturizer/New_Systems/rnas/3DJ0

>  <Rbt.Executable>
rbdock ($Id: //depot/dev/client3/rdock/2013.1/src/exe/rbdock.cxx#4 $)

>  <Rbt.Library>
libRbt.so (2013.1, Build901 2013/11/27)

>  <Rbt.Parameter_File>
/export/apps/rDock/src/rDock_2013.1_src/data/scripts/dock_solv.prm

>  <Rbt.Receptor>
prm/pocket_docking_5.prm

>  <SCORE>
-6.17515

>  <SCORE.INTER>
-4.91068

>  <SCORE.INTER.CONST>
1

>  <SCORE.INTER.POLAR>
0

>  <SCORE.INTER.ROT>
5

>  <SCORE.INTER.SOLV>
16.1382

>  <SCORE.INTER.VDW>
-15.5865

>  <SCORE.INTER.norm>
-0.491068

>  <SCORE.INTRA>
-1.26447

>  <SCORE.INTRA.DIHEDRAL>
-2.90069

>  <SCORE.INTRA.DIHEDRAL.0>
6.00299

>  <SCORE.INTRA.POLAR>
0

>  <SCORE.INTRA.POLAR.0>
0

>  <SCORE.INTRA.REPUL>
0

>  <SCORE.INTRA.REPUL.0>
0

>  <SCORE.INTRA.SOLV>
0.108201

>  <SCORE.INTRA.SOLV.lig_0>
-39.3257

>  <SCORE.INTRA.VDW>
0.13177

>  <SCORE.INTRA.VDW.0>
-0.734044

>  <SCORE.INTRA.norm>
-0.126447

>  <SCORE.RESTR>
0

>  <SCORE.RESTR.CAVITY>
0

>  <SCORE.RESTR.norm>
0

>  <SCORE.SYSTEM>
0

>  <SCORE.SYSTEM.CONST>
0

>  <SCORE.SYSTEM.DIHEDRAL>
0

>  <SCORE.SYSTEM.SOLV>
0

>  <SCORE.SYSTEM.norm>
0

>  <SCORE.heavy>
10

>  <SCORE.norm>
-0.617515

>  <RMSD>
1.914

$$$$
ligand
 OpenBabel11021811473D
libRbt.so/2013.1/901 2013/11/27
 10  9  0  0  0  0  0  0  0  0999 V2000
   32.5573   17.6547   22.8159 N   0  0  0  0  0  0  0  0  0  0  0  0
   31.9066   16.5363   22.1592 C   0  0  2  0  0  0  0  0  0  0  0  0
   32.6770   16.1189   20.9352 C   0  0  0  0  0  0  0  0  0  0  0  0
   32.1822   15.2541   20.1698 O   0  0  0  0  0  0  0  0  0  0  0  0
   30.4835   16.9267   21.7839 C   0  0  0  0  0  0  0  0  0  0  0  0
   29.7980   15.7687   21.3141 O   0  0  0  0  0  0  0  0  0  0  0  0
   28.4633   16.1566   20.9889 C   0  0  0  0  0  0  0  0  0  0  0  0
   27.7241   14.9308   20.4566 C   0  0  0  0  0  0  0  0  0  0  0  0
   28.3691   14.4454   19.2490 N   0  0  0  0  0  0  0  0  0  0  0  0
   33.4868   16.9556   20.4876 O   0  0  0  0  0  0  0  0  0  0  0  0
  2  1  1  6  0  0  0
  2  5  1  0  0  0  0
  2  3  1  0  0  0  0
  3  4  1  0  0  0  0
  3 10  1  0  0  0  0
  5  6  1  0  0  0  0
  6  7  1  0  0  0  0
  7  8  1  0  0  0  0
  8  9  1  0  0  0  0
M  END
>  <CHROM.1>
-171.90363964,-172.76957478,179.13042234,178.86022625,-61.58869492,30.78695594
16.06788300,21.01331900,0.40937785,0.14340280,0.92444737

>  <Name>
ligand

>  <RI>
0

>  <Rbt.Current_Directory>
/home/itssahil/PROJECTS/Mol_Feturizer/New_Systems/rnas/3DJ0

>  <Rbt.Executable>
rbdock ($Id: //depot/dev/client3/rdock/2013.1/src/exe/rbdock.cxx#4 $)

>  <Rbt.Library>
libRbt.so (2013.1, Build901 2013/11/27)

>  <Rbt.Parameter_File>
/export/apps/rDock/src/rDock_2013.1_src/data/scripts/dock_solv.prm

>  <Rbt.Receptor>
prm/pocket_docking_2.prm

>  <SCORE>
-6.1316

>  <SCORE.INTER>
-4.66285

>  <SCORE.INTER.CONST>
1

>  <SCORE.INTER.POLAR>
0

>  <SCORE.INTER.ROT>
5

>  <SCORE.INTER.SOLV>
16.3973

>  <SCORE.INTER.VDW>
-15.5077

>  <SCORE.INTER.norm>
-0.466285

>  <SCORE.INTRA>
-1.46875

>  <SCORE.INTRA.DIHEDRAL>
-3.71782

>  <SCORE.INTRA.DIHEDRAL.0>
6.00299

>  <SCORE.INTRA.POLAR>
0

>  <SCORE.INTRA.POLAR.0>
0

>  <SCORE.INTRA.REPUL>
0

>  <SCORE.INTRA.REPUL.0>
0

>  <SCORE.INTRA.SOLV>
0.247077

>  <SCORE.INTRA.SOLV.lig_0>
-39.3257

>  <SCORE.INTRA.VDW>
0.266623

>  <SCORE.INTRA.VDW.0>
-0.734044

>  <SCORE.INTRA.norm>
-0.146875

>  <SCORE.RESTR>
0

>  <SCORE.RESTR.CAVITY>
0

>  <SCORE.RESTR.norm>
0

>  <SCORE.SYSTEM>
0

>  <SCORE.SYSTEM.CONST>
0

>  <SCORE.SYSTEM.DIHEDRAL>
0

>  <SCORE.SYSTEM.SOLV>
0

>  <SCORE.SYSTEM.norm>
0

>  <SCORE.heavy>
10

>  <SCORE.norm>
-0.61316

>  <RMSD>
1.921

$$$$
ligand
 OpenBabel11021811473D
libRbt.so/2013.1/901 2013/11/27
 10  9  0  0  0  0  0  0  0  0999 V2000
   31.1009   15.6988   22.8549 N   0  0  0  0  0  0  0  0  0  0  0  0
   31.2187   15.7557   21.4098 C   0  0  2  0  0  0  0  0  0  0  0  0
   32.6536   15.9589   21.0024 C   0  0  0  0  0  0  0  0  0  0  0  0
   33.0027   15.6600   19.8331 O   0  0  0  0  0  0  0  0  0  0  0  0
   30.3492   16.8850   20.8741 C   0  0  0  0  0  0  0  0  0  0  0  0
   28.9826   16.5774   21.1376 O   0  0  0  0  0  0  0  0  0  0  0  0
   28.5660   15.6002   20.1840 C   0  0  0  0  0  0  0  0  0  0  0  0
   27.1007   15.2635   20.4515 C   0  0  0  0  0  0  0  0  0  0  0  0
   26.9473   14.7401   21.7978 N   0  0  0  0  0  0  0  0  0  0  0  0
   33.2837   16.8288   21.6367 O   0  0  0  0  0  0  0  0  0  0  0  0
  2  1  1  1  0  0  0
  2  5  1  0  0  0  0
  2  3  1  0  0  0  0
  3  4  1  0  0  0  0
  3 10  1  0  0  0  0
  5  6  1  0  0  0  0
  6  7  1  0  0  0  0
  7  8  1  0  0  0  0
  8  9  1  0  0  0  0
M  END
>  <CHROM.1>
-64.95697831,160.02871005,-76.91753190,-179.82677790,-59.74541540,30.35724950
15.91640165,21.10640818,0.01837103,0.15836193,1.54536346

>  <Name>
ligand

>  <RI>
0

>  <Rbt.Current_Directory>
/home/itssahil/PROJECTS/Mol_Feturizer/New_Systems/rnas/3DJ0

>  <Rbt.Executable>
rbdock ($Id: //depot/dev/client3/rdock/2013.1/src/exe/rbdock.cxx#4 $)

>  <Rbt.Library>
libRbt.so (2013.1, Build901 2013/11/27)

>  <Rbt.Parameter_File>
/export/apps/rDock/src/rDock_2013.1_src/data/scripts/dock_solv.prm

>  <Rbt.Receptor>
prm/pocket_docking_5.prm

>  <SCORE>
-5.18815

>  <SCORE.INTER>
-5.27214

>  <SCORE.INTER.CONST>
1

>  <SCORE.INTER.POLAR>
0

>  <SCORE.INTER.ROT>
5

>  <SCORE.INTER.SOLV>
21.138

>  <SCORE.INTER.VDW>
-17.4941

>  <SCORE.INTER.norm>
-0.527214

>  <SCORE.INTRA>
0.0839904

>  <SCORE.INTRA.DIHEDRAL>
-2.13757

>  <SCORE.INTRA.DIHEDRAL.0>
6.00299

>  <SCORE.INTRA.POLAR>
0

>  <SCORE.INTRA.POLAR.0>
0

>  <SCORE.INTRA.REPUL>
0

>  <SCORE.INTRA.REPUL.0>
0

>  <SCORE.INTRA.SOLV>
0.852718

>  <SCORE.INTRA.SOLV.lig_0>
-39.3257

>  <SCORE.INTRA.VDW>
0.726414

>  <SCORE.INTRA.VDW.0>
-0.734044

>  <SCORE.INTRA.norm>
0.00839904

>  <SCORE.RESTR>
0

>  <SCORE.RESTR.CAVITY>
0

>  <SCORE.RESTR.norm>
0

>  <SCORE.SYSTEM>
0

>  <SCORE.SYSTEM.CONST>
0

>  <SCORE.SYSTEM.DIHEDRAL>
0

>  <SCORE.SYSTEM.SOLV>
0

>  <SCORE.SYSTEM.norm>
0

>  <SCORE.heavy>
10

>  <SCORE.norm>
-0.518815

>  <RMSD>
1.937

$$$$
ligand
 OpenBabel11021811473D
libRbt.so/2013.1/901 2013/11/27
 10  9  0  0  0  0  0  0  0  0999 V2000
   32.3481   17.5660   22.8415 N   0  0  0  0  0  0  0  0  0  0  0  0
   31.7538   16.4626   22.1102 C   0  0  2  0  0  0  0  0  0  0  0  0
   32.6174   16.0763   20.9392 C   0  0  0  0  0  0  0  0  0  0  0  0
   32.1808   15.2387   20.1108 O   0  0  0  0  0  0  0  0  0  0  0  0
   30.3623   16.8594   21.6362 C   0  0  0  0  0  0  0  0  0  0  0  0
   29.7003   15.7013   21.1339 O   0  0  0  0  0  0  0  0  0  0  0  0
   28.4114   16.1045   20.6714 C   0  0  0  0  0  0  0  0  0  0  0  0
   27.6815   14.8690   20.1489 C   0  0  0  0  0  0  0  0  0  0  0  0
   28.3902   14.3171   19.0073 N   0  0  0  0  0  0  0  0  0  0  0  0
   33.4646   16.9199   20.5834 O   0  0  0  0  0  0  0  0  0  0  0  0
  2  1  1  6  0  0  0
  2  5  1  0  0  0  0
  2  3  1  0  0  0  0
  3  4  1  0  0  0  0
  3 10  1  0  0  0  0
  5  6  1  0  0  0  0
  6  7  1  0  0  0  0
  7  8  1  0  0  0  0
  8  9  1  0  0  0  0
M  END
>  <CHROM.1>
-169.73471978,-172.11004530,-178.81463097,-179.16418698,-63.28611220,30.71501400
16.00551774,20.89711214,0.46327409,0.10897417,0.92146422

>  <Name>
ligand

>  <RI>
0

>  <Rbt.Current_Directory>
/home/itssahil/PROJECTS/Mol_Feturizer/New_Systems/rnas/3DJ0

>  <Rbt.Executable>
rbdock ($Id: //depot/dev/client3/rdock/2013.1/src/exe/rbdock.cxx#4 $)

>  <Rbt.Library>
libRbt.so (2013.1, Build901 2013/11/27)

>  <Rbt.Parameter_File>
/export/apps/rDock/src/rDock_2013.1_src/data/scripts/dock_solv.prm

>  <Rbt.Receptor>
prm/pocket_docking_2.prm

>  <SCORE>
-5.96462

>  <SCORE.INTER>
-4.50221

>  <SCORE.INTER.CONST>
1

>  <SCORE.INTER.POLAR>
0

>  <SCORE.INTER.ROT>
5

>  <SCORE.INTER.SOLV>
16.5543

>  <SCORE.INTER.VDW>
-15.4529

>  <SCORE.INTER.norm>
-0.450221

>  <SCORE.INTRA>
-1.46241

>  <SCORE.INTRA.DIHEDRAL>
-3.55045

>  <SCORE.INTRA.DIHEDRAL.0>
6.00299

>  <SCORE.INTRA.POLAR>
0

>  <SCORE.INTRA.POLAR.0>
0

>  <SCORE.INTRA.REPUL>
0

>  <SCORE.INTRA.REPUL.0>
0

>  <SCORE.INTRA.SOLV>
0.16327

>  <SCORE.INTRA.SOLV.lig_0>
-39.3257

>  <SCORE.INTRA.VDW>
0.23118

>  <SCORE.INTRA.VDW.0>
-0.734044

>  <SCORE.INTRA.norm>
-0.146241

>  <SCORE.RESTR>
0

>  <SCORE.RESTR.CAVITY>
0

>  <SCORE.RESTR.norm>
0

>  <SCORE.SYSTEM>
0

>  <SCORE.SYSTEM.CONST>
0

>  <SCORE.SYSTEM.DIHEDRAL>
0

>  <SCORE.SYSTEM.SOLV>
0

>  <SCORE.SYSTEM.norm>
0

>  <SCORE.heavy>
10

>  <SCORE.norm>
-0.596462

>  <RMSD>
1.945

$$$$
ligand
 OpenBabel11021811473D
libRbt.so/2013.1/901 2013/11/27
 10  9  0  0  0  0  0  0  0  0999 V2000
   32.2434   17.5616   22.8061 N   0  0  0  0  0  0  0  0  0  0  0  0
   31.6673   16.4775   22.0326 C   0  0  2  0  0  0  0  0  0  0  0  0
   32.4659   16.2376   20.7793 C   0  0  0  0  0  0  0  0  0  0  0  0
   33.6214   16.7228   20.6914 O   0  0  0  0  0  0  0  0  0  0  0  0
   30.2231   16.8133   21.6864 C   0  0  0  0  0  0  0  0  0  0  0  0
   29.6158   15.6702   21.0895 O   0  0  0  0  0  0  0  0  0  0  0  0
   28.2556   15.9989   20.8075 C   0  0  0  0  0  0  0  0  0  0  0  0
   27.5895   14.7799   20.1731 C   0  0  0  0  0  0  0  0  0  0  0  0
   28.2379   14.4565   18.9141 N   0  0  0  0  0  0  0  0  0  0  0  0
   32.1697   15.2143   20.1302 O   0  0  0  0  0  0  0  0  0  0  0  0
  2  1  1  6  0  0  0
  2  5  1  0  0  0  0
  2  3  1  0  0  0  0
  3  4  1  0  0  0  0
  3 10  1  0  0  0  0
  5  6  1  0  0  0  0
  6  7  1  0  0  0  0
  7  8  1  0  0  0  0
  8  9  1  0  0  0  0
M  END
>  <CHROM.1>
-172.13536873,15.94750380,178.48591366,-179.73269623,-62.40687577,30.63768562
15.98304900,20.89284934,0.43126623,0.11103542,0.93673875

>  <Name>
ligand

>  <RI>
0

>  <Rbt.Current_Directory>
/home/itssahil/PROJECTS/Mol_Feturizer/New_Systems/rnas/3DJ0

>  <Rbt.Executable>
rbdock ($Id: //depot/dev/client3/rdock/2013.1/src/exe/rbdock.cxx#4 $)

>  <Rbt.Library>
libRbt.so (2013.1, Build901 2013/11/27)

>  <Rbt.Parameter_File>
/export/apps/rDock/src/rDock_2013.1_src/data/scripts/dock_solv.prm

>  <Rbt.Receptor>
prm/pocket_docking_8.prm

>  <SCORE>
-6.4342

>  <SCORE.INTER>
-4.91394

>  <SCORE.INTER.CONST>
1

>  <SCORE.INTER.POLAR>
0

>  <SCORE.INTER.ROT>
5

>  <SCORE.INTER.SOLV>
16.6373

>  <SCORE.INTER.VDW>
-15.7551

>  <SCORE.INTER.norm>
-0.491394

>  <SCORE.INTRA>
-1.52027

>  <SCORE.INTRA.DIHEDRAL>
-2.94495

>  <SCORE.INTRA.DIHEDRAL.0>
6.00299

>  <SCORE.INTRA.POLAR>
0

>  <SCORE.INTRA.POLAR.0>
0

>  <SCORE.INTRA.REPUL>
0

>  <SCORE.INTRA.REPUL.0>
0

>  <SCORE.INTRA.SOLV>
-0.0721156

>  <SCORE.INTRA.SOLV.lig_0>
-39.3257

>  <SCORE.INTRA.VDW>
-0.0117364

>  <SCORE.INTRA.VDW.0>
-0.734044

>  <SCORE.INTRA.norm>
-0.152027

>  <SCORE.RESTR>
0

>  <SCORE.RESTR.CAVITY>
0

>  <SCORE.RESTR.norm>
0

>  <SCORE.SYSTEM>
0

>  <SCORE.SYSTEM.CONST>
0

>  <SCORE.SYSTEM.DIHEDRAL>
0

>  <SCORE.SYSTEM.SOLV>
0

>  <SCORE.SYSTEM.norm>
0

>  <SCORE.heavy>
10

>  <SCORE.norm>
-0.64342

>  <RMSD>
1.945

$$$$
ligand
 OpenBabel11021811473D
libRbt.so/2013.1/901 2013/11/27
 10  9  0  0  0  0  0  0  0  0999 V2000
   31.2060   17.5773   22.9109 N   0  0  0  0  0  0  0  0  0  0  0  0
   31.6127   16.2287   22.5625 C   0  0  2  0  0  0  0  0  0  0  0  0
   32.1919   16.1917   21.1735 C   0  0  0  0  0  0  0  0  0  0  0  0
   33.1946   16.9024   20.9128 O   0  0  0  0  0  0  0  0  0  0  0  0
   30.4139   15.2955   22.6634 C   0  0  0  0  0  0  0  0  0  0  0  0
   29.3902   15.7663   21.7904 O   0  0  0  0  0  0  0  0  0  0  0  0
   28.2869   14.8660   21.8899 C   0  0  0  0  0  0  0  0  0  0  0  0
   27.2448   15.2679   20.8485 C   0  0  0  0  0  0  0  0  0  0  0  0
   27.8182   15.1955   19.5159 N   0  0  0  0  0  0  0  0  0  0  0  0
   31.9817   15.1492   20.5215 O   0  0  0  0  0  0  0  0  0  0  0  0
  2  1  1  6  0  0  0
  2  5  1  0  0  0  0
  2  3  1  0  0  0  0
  3  4  1  0  0  0  0
  3 10  1  0  0  0  0
  5  6  1  0  0  0  0
  6  7  1  0  0  0  0
  7  8  1  0  0  0  0
  8  9  1  0  0  0  0
M  END
>  <CHROM.1>
58.32713228,58.89361776,179.22877339,-173.81976552,60.04461716,30.36118799
15.84269088,21.45695499,0.23699224,0.23021642,1.24909302

>  <Name>
ligand

>  <RI>
0

>  <Rbt.Current_Directory>
/home/itssahil/PROJECTS/Mol_Feturizer/New_Systems/rnas/3DJ0

>  <Rbt.Executable>
rbdock ($Id: //depot/dev/client3/rdock/2013.1/src/exe/rbdock.cxx#4 $)

>  <Rbt.Library>
libRbt.so (2013.1, Build901 2013/11/27)

>  <Rbt.Parameter_File>
/export/apps/rDock/src/rDock_2013.1_src/data/scripts/dock_solv.prm

>  <Rbt.Receptor>
prm/pocket_docking_5.prm

>  <SCORE>
-7.02322

>  <SCORE.INTER>
-6.4708

>  <SCORE.INTER.CONST>
1

>  <SCORE.INTER.POLAR>
0

>  <SCORE.INTER.ROT>
5

>  <SCORE.INTER.SOLV>
16.8489

>  <SCORE.INTER.VDW>
-16.8635

>  <SCORE.INTER.norm>
-0.64708

>  <SCORE.INTRA>
-0.552421

>  <SCORE.INTRA.DIHEDRAL>
-3.69659

>  <SCORE.INTRA.DIHEDRAL.0>
6.00299

>  <SCORE.INTRA.POLAR>
0

>  <SCORE.INTRA.POLAR.0>
0

>  <SCORE.INTRA.REPUL>
0

>  <SCORE.INTRA.REPUL.0>
0

>  <SCORE.INTRA.SOLV>
0.798189

>  <SCORE.INTRA.SOLV.lig_0>
-39.3257

>  <SCORE.INTRA.VDW>
0.896777

>  <SCORE.INTRA.VDW.0>
-0.734044

>  <SCORE.INTRA.norm>
-0.0552421

>  <SCORE.RESTR>
0

>  <SCORE.RESTR.CAVITY>
0

>  <SCORE.RESTR.norm>
0

>  <SCORE.SYSTEM>
0

>  <SCORE.SYSTEM.CONST>
0

>  <SCORE.SYSTEM.DIHEDRAL>
0

>  <SCORE.SYSTEM.SOLV>
0

>  <SCORE.SYSTEM.norm>
0

>  <SCORE.heavy>
10

>  <SCORE.norm>
-0.702322

>  <RMSD>
1.947

$$$$
ligand
 OpenBabel11021811473D
libRbt.so/2013.1/901 2013/11/27
 10  9  0  0  0  0  0  0  0  0999 V2000
   33.0923   17.3944   22.9521 N   0  0  0  0  0  0  0  0  0  0  0  0
   32.3147   16.3206   22.3625 C   0  0  2  0  0  0  0  0  0  0  0  0
   32.5289   16.2665   20.8735 C   0  0  0  0  0  0  0  0  0  0  0  0
   33.4732   16.9245   20.3699 O   0  0  0  0  0  0  0  0  0  0  0  0
   30.8402   16.5286   22.6802 C   0  0  0  0  0  0  0  0  0  0  0  0
   30.0865   15.4850   22.0683 O   0  0  0  0  0  0  0  0  0  0  0  0
   28.7143   15.6844   22.4075 C   0  0  0  0  0  0  0  0  0  0  0  0
   27.8728   14.6990   21.5994 C   0  0  0  0  0  0  0  0  0  0  0  0
   28.0411   14.9482   20.1783 N   0  0  0  0  0  0  0  0  0  0  0  0
   32.1067   15.2437   20.2975 O   0  0  0  0  0  0  0  0  0  0  0  0
  2  1  1  6  0  0  0
  2  5  1  0  0  0  0
  2  3  1  0  0  0  0
  3  4  1  0  0  0  0
  3 10  1  0  0  0  0
  5  6  1  0  0  0  0
  6  7  1  0  0  0  0
  7  8  1  0  0  0  0
  8  9  1  0  0  0  0
M  END
>  <CHROM.1>
178.62428619,12.81161027,178.62167460,171.92852040,-61.35361618,30.92630042
15.94195141,21.55098913,0.12754010,0.31502596,1.21197783

>  <Name>
ligand

>  <RI>
0

>  <Rbt.Current_Directory>
/home/itssahil/PROJECTS/Mol_Feturizer/New_Systems/rnas/3DJ0

>  <Rbt.Executable>
rbdock ($Id: //depot/dev/client3/rdock/2013.1/src/exe/rbdock.cxx#4 $)

>  <Rbt.Library>
libRbt.so (2013.1, Build901 2013/11/27)

>  <Rbt.Parameter_File>
/export/apps/rDock/src/rDock_2013.1_src/data/scripts/dock_solv.prm

>  <Rbt.Receptor>
prm/blind_docking_60.prm

>  <SCORE>
-6.28695

>  <SCORE.INTER>
-5.04432

>  <SCORE.INTER.CONST>
1

>  <SCORE.INTER.POLAR>
0

>  <SCORE.INTER.ROT>
5

>  <SCORE.INTER.SOLV>
16.6254

>  <SCORE.INTER.VDW>
-15.838

>  <SCORE.INTER.norm>
-0.504432

>  <SCORE.INTRA>
-1.24262

>  <SCORE.INTRA.DIHEDRAL>
-2.85751

>  <SCORE.INTRA.DIHEDRAL.0>
6.00299

>  <SCORE.INTRA.POLAR>
0

>  <SCORE.INTRA.POLAR.0>
0

>  <SCORE.INTRA.REPUL>
0

>  <SCORE.INTRA.REPUL.0>
0

>  <SCORE.INTRA.SOLV>
0.145261

>  <SCORE.INTRA.SOLV.lig_0>
-39.3257

>  <SCORE.INTRA.VDW>
0.113502

>  <SCORE.INTRA.VDW.0>
-0.734044

>  <SCORE.INTRA.norm>
-0.124262

>  <SCORE.RESTR>
0

>  <SCORE.RESTR.CAVITY>
0

>  <SCORE.RESTR.norm>
0

>  <SCORE.SYSTEM>
0

>  <SCORE.SYSTEM.CONST>
0

>  <SCORE.SYSTEM.DIHEDRAL>
0

>  <SCORE.SYSTEM.SOLV>
0

>  <SCORE.SYSTEM.norm>
0

>  <SCORE.heavy>
10

>  <SCORE.norm>
-0.628695

>  <RMSD>
1.961

$$$$
ligand
 OpenBabel11021811473D
libRbt.so/2013.1/901 2013/11/27
 10  9  0  0  0  0  0  0  0  0999 V2000
   32.5862   17.6053   22.7752 N   0  0  0  0  0  0  0  0  0  0  0  0
   31.9515   16.5921   21.9529 C   0  0  2  0  0  0  0  0  0  0  0  0
   32.8337   16.2240   20.7900 C   0  0  0  0  0  0  0  0  0  0  0  0
   34.0711   16.4225   20.8777 O   0  0  0  0  0  0  0  0  0  0  0  0
   30.6078   17.1094   21.4577 C   0  0  0  0  0  0  0  0  0  0  0  0
   29.8865   16.0283   20.8724 O   0  0  0  0  0  0  0  0  0  0  0  0
   28.6597   16.5506   20.3626 C   0  0  0  0  0  0  0  0  0  0  0  0
   27.8169   15.3835   19.8528 C   0  0  0  0  0  0  0  0  0  0  0  0
   27.5485   14.4525   20.9350 N   0  0  0  0  0  0  0  0  0  0  0  0
   32.3988   15.3308   20.0355 O   0  0  0  0  0  0  0  0  0  0  0  0
  2  1  1  6  0  0  0
  2  5  1  0  0  0  0
  2  3  1  0  0  0  0
  3  4  1  0  0  0  0
  3 10  1  0  0  0  0
  5  6  1  0  0  0  0
  6  7  1  0  0  0  0
  7  8  1  0  0  0  0
  8  9  1  0  0  0  0
M  END
>  <CHROM.1>
-169.03942267,23.38898963,-177.39786316,-174.63033612,59.73476585,30.86720142
16.15663821,20.96936785,0.28244255,0.05219124,0.81208511

>  <Name>
ligand

>  <RI>
0

>  <Rbt.Current_Directory>
/home/itssahil/PROJECTS/Mol_Feturizer/New_Systems/rnas/3DJ0

>  <Rbt.Executable>
rbdock ($Id: //depot/dev/client3/rdock/2013.1/src/exe/rbdock.cxx#4 $)

>  <Rbt.Library>
libRbt.so (2013.1, Build901 2013/11/27)

>  <Rbt.Parameter_File>
/export/apps/rDock/src/rDock_2013.1_src/data/scripts/dock_solv.prm

>  <Rbt.Receptor>
prm/pocket_docking_7.prm

>  <SCORE>
-5.77161

>  <SCORE.INTER>
-4.47459

>  <SCORE.INTER.CONST>
1

>  <SCORE.INTER.POLAR>
0

>  <SCORE.INTER.ROT>
5

>  <SCORE.INTER.SOLV>
18.0053

>  <SCORE.INTER.VDW>
-15.9182

>  <SCORE.INTER.norm>
-0.447459

>  <SCORE.INTRA>
-1.29701

>  <SCORE.INTRA.DIHEDRAL>
-2.65775

>  <SCORE.INTRA.DIHEDRAL.0>
6.00299

>  <SCORE.INTRA.POLAR>
0

>  <SCORE.INTRA.POLAR.0>
0

>  <SCORE.INTRA.REPUL>
0

>  <SCORE.INTRA.REPUL.0>
0

>  <SCORE.INTRA.SOLV>
-0.118093

>  <SCORE.INTRA.SOLV.lig_0>
-39.3257

>  <SCORE.INTRA.VDW>
0.0909076

>  <SCORE.INTRA.VDW.0>
-0.734044

>  <SCORE.INTRA.norm>
-0.129701

>  <SCORE.RESTR>
0

>  <SCORE.RESTR.CAVITY>
0

>  <SCORE.RESTR.norm>
0

>  <SCORE.SYSTEM>
0

>  <SCORE.SYSTEM.CONST>
0

>  <SCORE.SYSTEM.DIHEDRAL>
0

>  <SCORE.SYSTEM.SOLV>
0

>  <SCORE.SYSTEM.norm>
0

>  <SCORE.heavy>
10

>  <SCORE.norm>
-0.577161

>  <RMSD>
1.966

$$$$
ligand
 OpenBabel11021811473D
libRbt.so/2013.1/901 2013/11/27
 10  9  0  0  0  0  0  0  0  0999 V2000
   32.0062   17.6481   22.7977 N   0  0  0  0  0  0  0  0  0  0  0  0
   31.5592   16.5607   21.9472 C   0  0  2  0  0  0  0  0  0  0  0  0
   32.4843   16.3922   20.7717 C   0  0  0  0  0  0  0  0  0  0  0  0
   33.5821   17.0032   20.7684 O   0  0  0  0  0  0  0  0  0  0  0  0
   30.1402   16.8398   21.4710 C   0  0  0  0  0  0  0  0  0  0  0  0
   29.6247   15.6654   20.8491 O   0  0  0  0  0  0  0  0  0  0  0  0
   28.3009   15.9567   20.4015 C   0  0  0  0  0  0  0  0  0  0  0  0
   27.7354   14.7063   19.7314 C   0  0  0  0  0  0  0  0  0  0  0  0
   28.5704   14.3228   18.6064 N   0  0  0  0  0  0  0  0  0  0  0  0
   32.3605   15.3318   20.1265 O   0  0  0  0  0  0  0  0  0  0  0  0
  2  1  1  1  0  0  0
  2  5  1  0  0  0  0
  2  3  1  0  0  0  0
  3  4  1  0  0  0  0
  3 10  1  0  0  0  0
  5  6  1  0  0  0  0
  6  7  1  0  0  0  0
  7  8  1  0  0  0  0
  8  9  1  0  0  0  0
M  END
>  <CHROM.1>
-169.35104019,11.31331073,-179.47382156,179.96517704,-59.56341729,30.66719118
16.03488868,20.73172809,0.53109242,0.10021686,0.91887475

>  <Name>
ligand

>  <RI>
0

>  <Rbt.Current_Directory>
/home/itssahil/PROJECTS/Mol_Feturizer/New_Systems/rnas/3DJ0

>  <Rbt.Executable>
rbdock ($Id: //depot/dev/client3/rdock/2013.1/src/exe/rbdock.cxx#4 $)

>  <Rbt.Library>
libRbt.so (2013.1, Build901 2013/11/27)

>  <Rbt.Parameter_File>
/export/apps/rDock/src/rDock_2013.1_src/data/scripts/dock_solv.prm

>  <Rbt.Receptor>
prm/pocket_docking_8.prm

>  <SCORE>
-6.46296

>  <SCORE.INTER>
-4.91556

>  <SCORE.INTER.CONST>
1

>  <SCORE.INTER.POLAR>
0

>  <SCORE.INTER.ROT>
5

>  <SCORE.INTER.SOLV>
17.0281

>  <SCORE.INTER.VDW>
-15.8864

>  <SCORE.INTER.norm>
-0.491556

>  <SCORE.INTRA>
-1.54739

>  <SCORE.INTRA.DIHEDRAL>
-2.78978

>  <SCORE.INTRA.DIHEDRAL.0>
6.00299

>  <SCORE.INTRA.POLAR>
0

>  <SCORE.INTRA.POLAR.0>
0

>  <SCORE.INTRA.REPUL>
0

>  <SCORE.INTRA.REPUL.0>
0

>  <SCORE.INTRA.SOLV>
-0.0701697

>  <SCORE.INTRA.SOLV.lig_0>
-39.3257

>  <SCORE.INTRA.VDW>
-0.11742

>  <SCORE.INTRA.VDW.0>
-0.734044

>  <SCORE.INTRA.norm>
-0.154739

>  <SCORE.RESTR>
0

>  <SCORE.RESTR.CAVITY>
0

>  <SCORE.RESTR.norm>
0

>  <SCORE.SYSTEM>
0

>  <SCORE.SYSTEM.CONST>
0

>  <SCORE.SYSTEM.DIHEDRAL>
0

>  <SCORE.SYSTEM.SOLV>
0

>  <SCORE.SYSTEM.norm>
0

>  <SCORE.heavy>
10

>  <SCORE.norm>
-0.646296

>  <RMSD>
1.978

$$$$
ligand
 OpenBabel11021811473D
libRbt.so/2013.1/901 2013/11/27
 10  9  0  0  0  0  0  0  0  0999 V2000
   32.0236   17.6307   22.7857 N   0  0  0  0  0  0  0  0  0  0  0  0
   31.5466   16.5437   21.9512 C   0  0  2  0  0  0  0  0  0  0  0  0
   32.4560   16.3449   20.7682 C   0  0  0  0  0  0  0  0  0  0  0  0
   33.5731   16.9198   20.7556 O   0  0  0  0  0  0  0  0  0  0  0  0
   30.1285   16.8460   21.4864 C   0  0  0  0  0  0  0  0  0  0  0  0
   29.5946   15.6853   20.8546 O   0  0  0  0  0  0  0  0  0  0  0  0
   28.2614   15.9887   20.4444 C   0  0  0  0  0  0  0  0  0  0  0  0
   27.6729   14.7500   19.7725 C   0  0  0  0  0  0  0  0  0  0  0  0
   28.4441   14.4110   18.5892 N   0  0  0  0  0  0  0  0  0  0  0  0
   32.2925   15.2889   20.1247 O   0  0  0  0  0  0  0  0  0  0  0  0
  2  1  1  6  0  0  0
  2  5  1  0  0  0  0
  2  3  1  0  0  0  0
  3  4  1  0  0  0  0
  3 10  1  0  0  0  0
  5  6  1  0  0  0  0
  6  7  1  0  0  0  0
  7  8  1  0  0  0  0
  8  9  1  0  0  0  0
M  END
>  <CHROM.1>
-170.67174868,12.24746261,179.26163087,-179.66014778,-61.97218023,30.62995292
16.03212414,20.73760323,0.51242154,0.08794796,0.92609825

>  <Name>
ligand

>  <RI>
0

>  <Rbt.Current_Directory>
/home/itssahil/PROJECTS/Mol_Feturizer/New_Systems/rnas/3DJ0

>  <Rbt.Executable>
rbdock ($Id: //depot/dev/client3/rdock/2013.1/src/exe/rbdock.cxx#4 $)

>  <Rbt.Library>
libRbt.so (2013.1, Build901 2013/11/27)

>  <Rbt.Parameter_File>
/export/apps/rDock/src/rDock_2013.1_src/data/scripts/dock_solv.prm

>  <Rbt.Receptor>
prm/pocket_docking_5.prm

>  <SCORE>
-6.52815

>  <SCORE.INTER>
-4.95646

>  <SCORE.INTER.CONST>
1

>  <SCORE.INTER.POLAR>
0

>  <SCORE.INTER.ROT>
5

>  <SCORE.INTER.SOLV>
17.0796

>  <SCORE.INTER.VDW>
-15.9308

>  <SCORE.INTER.norm>
-0.495646

>  <SCORE.INTRA>
-1.57169

>  <SCORE.INTRA.DIHEDRAL>
-2.86493

>  <SCORE.INTRA.DIHEDRAL.0>
6.00299

>  <SCORE.INTRA.POLAR>
0

>  <SCORE.INTRA.POLAR.0>
0

>  <SCORE.INTRA.REPUL>
0

>  <SCORE.INTRA.REPUL.0>
0

>  <SCORE.INTRA.SOLV>
-0.119614

>  <SCORE.INTRA.SOLV.lig_0>
-39.3257

>  <SCORE.INTRA.VDW>
-0.0794165

>  <SCORE.INTRA.VDW.0>
-0.734044

>  <SCORE.INTRA.norm>
-0.157169

>  <SCORE.RESTR>
0

>  <SCORE.RESTR.CAVITY>
0

>  <SCORE.RESTR.norm>
0

>  <SCORE.SYSTEM>
0

>  <SCORE.SYSTEM.CONST>
0

>  <SCORE.SYSTEM.DIHEDRAL>
0

>  <SCORE.SYSTEM.SOLV>
0

>  <SCORE.SYSTEM.norm>
0

>  <SCORE.heavy>
10

>  <SCORE.norm>
-0.652815

>  <RMSD>
1.986

$$$$
ligand
 OpenBabel11021811473D
libRbt.so/2013.1/901 2013/11/27
 10  9  0  0  0  0  0  0  0  0999 V2000
   30.8738   17.6413   22.4001 N   0  0  0  0  0  0  0  0  0  0  0  0
   31.2640   16.2557   22.5831 C   0  0  2  0  0  0  0  0  0  0  0  0
   32.0657   15.7706   21.4049 C   0  0  0  0  0  0  0  0  0  0  0  0
   31.4609   15.4038   20.3666 O   0  0  0  0  0  0  0  0  0  0  0  0
   30.0193   15.3986   22.7681 C   0  0  0  0  0  0  0  0  0  0  0  0
   29.1303   15.6382   21.6800 O   0  0  0  0  0  0  0  0  0  0  0  0
   27.9463   14.8748   21.9106 C   0  0  0  0  0  0  0  0  0  0  0  0
   26.9961   15.0974   20.7360 C   0  0  0  0  0  0  0  0  0  0  0  0
   27.6400   14.7085   19.4934 N   0  0  0  0  0  0  0  0  0  0  0  0
   33.2345   16.1992   21.3256 O   0  0  0  0  0  0  0  0  0  0  0  0
  2  1  1  6  0  0  0
  2  5  1  0  0  0  0
  2  3  1  0  0  0  0
  3  4  1  0  0  0  0
  3 10  1  0  0  0  0
  5  6  1  0  0  0  0
  6  7  1  0  0  0  0
  7  8  1  0  0  0  0
  8  9  1  0  0  0  0
M  END
>  <CHROM.1>
53.41799713,-81.17542845,-177.19333378,-178.75170611,58.16745321,30.09068846
15.69627624,21.44554363,0.28191141,0.17422988,1.14142627

>  <Name>
ligand

>  <RI>
0

>  <Rbt.Current_Directory>
/home/itssahil/PROJECTS/Mol_Feturizer/New_Systems/rnas/3DJ0

>  <Rbt.Executable>
rbdock ($Id: //depot/dev/client3/rdock/2013.1/src/exe/rbdock.cxx#4 $)

>  <Rbt.Library>
libRbt.so (2013.1, Build901 2013/11/27)

>  <Rbt.Parameter_File>
/export/apps/rDock/src/rDock_2013.1_src/data/scripts/dock_solv.prm

>  <Rbt.Receptor>
prm/pocket_docking_6.prm

>  <SCORE>
-7.29265

>  <SCORE.INTER>
-6.48814

>  <SCORE.INTER.CONST>
1

>  <SCORE.INTER.POLAR>
0

>  <SCORE.INTER.ROT>
5

>  <SCORE.INTER.SOLV>
17.4748

>  <SCORE.INTER.VDW>
-17.0837

>  <SCORE.INTER.norm>
-0.648814

>  <SCORE.INTRA>
-0.804503

>  <SCORE.INTRA.DIHEDRAL>
-3.31092

>  <SCORE.INTRA.DIHEDRAL.0>
6.00299

>  <SCORE.INTRA.POLAR>
0

>  <SCORE.INTRA.POLAR.0>
0

>  <SCORE.INTRA.REPUL>
0

>  <SCORE.INTRA.REPUL.0>
0

>  <SCORE.INTRA.SOLV>
1.38042

>  <SCORE.INTRA.SOLV.lig_0>
-39.3257

>  <SCORE.INTRA.VDW>
0.160748

>  <SCORE.INTRA.VDW.0>
-0.734044

>  <SCORE.INTRA.norm>
-0.0804503

>  <SCORE.RESTR>
0

>  <SCORE.RESTR.CAVITY>
0

>  <SCORE.RESTR.norm>
0

>  <SCORE.SYSTEM>
0

>  <SCORE.SYSTEM.CONST>
0

>  <SCORE.SYSTEM.DIHEDRAL>
0

>  <SCORE.SYSTEM.SOLV>
0

>  <SCORE.SYSTEM.norm>
0

>  <SCORE.heavy>
10

>  <SCORE.norm>
-0.729265

>  <RMSD>
1.986

$$$$
ligand
 OpenBabel11021811473D
libRbt.so/2013.1/901 2013/11/27
 10  9  0  0  0  0  0  0  0  0999 V2000
   32.8998   17.7326   22.8529 N   0  0  0  0  0  0  0  0  0  0  0  0
   32.2169   16.5567   22.3466 C   0  0  2  0  0  0  0  0  0  0  0  0
   32.7965   16.1360   21.0225 C   0  0  0  0  0  0  0  0  0  0  0  0
   32.2068   15.2513   20.3533 O   0  0  0  0  0  0  0  0  0  0  0  0
   30.7305   16.8551   22.2053 C   0  0  0  0  0  0  0  0  0  0  0  0
   30.0479   15.6464   21.8819 O   0  0  0  0  0  0  0  0  0  0  0  0
   28.6698   15.9646   21.6885 C   0  0  0  0  0  0  0  0  0  0  0  0
   27.9218   14.6749   21.3581 C   0  0  0  0  0  0  0  0  0  0  0  0
   26.5126   14.9564   21.1457 N   0  0  0  0  0  0  0  0  0  0  0  0
   33.5096   16.9810   20.4450 O   0  0  0  0  0  0  0  0  0  0  0  0
  2  1  1  6  0  0  0
  2  5  1  0  0  0  0
  2  3  1  0  0  0  0
  3  4  1  0  0  0  0
  3 10  1  0  0  0  0
  5  6  1  0  0  0  0
  6  7  1  0  0  0  0
  7  8  1  0  0  0  0
  8  9  1  0  0  0  0
M  END
>  <CHROM.1>
-172.26240845,-170.23048687,-177.11150590,-179.30236976,-179.67454323,30.77501361
16.06687489,21.50154710,0.18505514,0.24015962,0.91714153

>  <Name>
ligand

>  <RI>
0

>  <Rbt.Current_Directory>
/home/itssahil/PROJECTS/Mol_Feturizer/New_Systems/rnas/3DJ0

>  <Rbt.Executable>
rbdock ($Id: //depot/dev/client3/rdock/2013.1/src/exe/rbdock.cxx#4 $)

>  <Rbt.Library>
libRbt.so (2013.1, Build901 2013/11/27)

>  <Rbt.Parameter_File>
/export/apps/rDock/src/rDock_2013.1_src/data/scripts/dock_solv.prm

>  <Rbt.Receptor>
prm/pocket_docking_7.prm

>  <SCORE>
-5.77703

>  <SCORE.INTER>
-3.81479

>  <SCORE.INTER.CONST>
1

>  <SCORE.INTER.POLAR>
0

>  <SCORE.INTER.ROT>
5

>  <SCORE.INTER.SOLV>
21.711

>  <SCORE.INTER.VDW>
-16.7135

>  <SCORE.INTER.norm>
-0.381479

>  <SCORE.INTRA>
-1.96223

>  <SCORE.INTRA.DIHEDRAL>
-3.72423

>  <SCORE.INTRA.DIHEDRAL.0>
6.00299

>  <SCORE.INTRA.POLAR>
0

>  <SCORE.INTRA.POLAR.0>
0

>  <SCORE.INTRA.REPUL>
0

>  <SCORE.INTRA.REPUL.0>
0

>  <SCORE.INTRA.SOLV>
-1.07947

>  <SCORE.INTRA.SOLV.lig_0>
-39.3257

>  <SCORE.INTRA.VDW>
0.439619

>  <SCORE.INTRA.VDW.0>
-0.734044

>  <SCORE.INTRA.norm>
-0.196223

>  <SCORE.RESTR>
0

>  <SCORE.RESTR.CAVITY>
0

>  <SCORE.RESTR.norm>
0

>  <SCORE.SYSTEM>
0

>  <SCORE.SYSTEM.CONST>
0

>  <SCORE.SYSTEM.DIHEDRAL>
0

>  <SCORE.SYSTEM.SOLV>
0

>  <SCORE.SYSTEM.norm>
0

>  <SCORE.heavy>
10

>  <SCORE.norm>
-0.577703

>  <RMSD>
1.986

$$$$
ligand
 OpenBabel11021811473D
libRbt.so/2013.1/901 2013/11/27
 10  9  0  0  0  0  0  0  0  0999 V2000
   32.3242   17.5555   22.7428 N   0  0  0  0  0  0  0  0  0  0  0  0
   31.6757   16.4565   22.0520 C   0  0  2  0  0  0  0  0  0  0  0  0
   32.4843   16.0312   20.8556 C   0  0  0  0  0  0  0  0  0  0  0  0
   32.0235   15.1456   20.0929 O   0  0  0  0  0  0  0  0  0  0  0  0
   30.2772   16.8807   21.6247 C   0  0  0  0  0  0  0  0  0  0  0  0
   29.5950   15.7472   21.0944 O   0  0  0  0  0  0  0  0  0  0  0  0
   28.2794   16.1640   20.7293 C   0  0  0  0  0  0  0  0  0  0  0  0
   27.5287   14.9536   20.1785 C   0  0  0  0  0  0  0  0  0  0  0  0
   28.2077   14.4389   19.0020 N   0  0  0  0  0  0  0  0  0  0  0  0
   33.2919   16.8735   20.4146 O   0  0  0  0  0  0  0  0  0  0  0  0
  2  1  1  6  0  0  0
  2  5  1  0  0  0  0
  2  3  1  0  0  0  0
  3  4  1  0  0  0  0
  3 10  1  0  0  0  0
  5  6  1  0  0  0  0
  6  7  1  0  0  0  0
  7  8  1  0  0  0  0
  8  9  1  0  0  0  0
M  END
>  <CHROM.1>
-173.04827657,-175.48175058,178.74651856,-179.15157970,-60.82091283,30.59157837
16.01739965,20.85648907,0.43078123,0.10023288,0.91970964

>  <Name>
ligand

>  <RI>
0

>  <Rbt.Current_Directory>
/home/itssahil/PROJECTS/Mol_Feturizer/New_Systems/rnas/3DJ0

>  <Rbt.Executable>
rbdock ($Id: //depot/dev/client3/rdock/2013.1/src/exe/rbdock.cxx#4 $)

>  <Rbt.Library>
libRbt.so (2013.1, Build901 2013/11/27)

>  <Rbt.Parameter_File>
/export/apps/rDock/src/rDock_2013.1_src/data/scripts/dock_solv.prm

>  <Rbt.Receptor>
prm/pocket_docking_6.prm

>  <SCORE>
-6.24265

>  <SCORE.INTER>
-4.69235

>  <SCORE.INTER.CONST>
1

>  <SCORE.INTER.POLAR>
0

>  <SCORE.INTER.ROT>
5

>  <SCORE.INTER.SOLV>
16.6425

>  <SCORE.INTER.VDW>
-15.6091

>  <SCORE.INTER.norm>
-0.469235

>  <SCORE.INTRA>
-1.5503

>  <SCORE.INTRA.DIHEDRAL>
-3.76617

>  <SCORE.INTRA.DIHEDRAL.0>
6.00299

>  <SCORE.INTRA.POLAR>
0

>  <SCORE.INTRA.POLAR.0>
0

>  <SCORE.INTRA.REPUL>
0

>  <SCORE.INTRA.REPUL.0>
0

>  <SCORE.INTRA.SOLV>
0.21963

>  <SCORE.INTRA.SOLV.lig_0>
-39.3257

>  <SCORE.INTRA.VDW>
0.222969

>  <SCORE.INTRA.VDW.0>
-0.734044

>  <SCORE.INTRA.norm>
-0.15503

>  <SCORE.RESTR>
0

>  <SCORE.RESTR.CAVITY>
0

>  <SCORE.RESTR.norm>
0

>  <SCORE.SYSTEM>
0

>  <SCORE.SYSTEM.CONST>
0

>  <SCORE.SYSTEM.DIHEDRAL>
0

>  <SCORE.SYSTEM.SOLV>
0

>  <SCORE.SYSTEM.norm>
0

>  <SCORE.heavy>
10

>  <SCORE.norm>
-0.624265

>  <RMSD>
1.990

$$$$
ligand
 OpenBabel11021811473D
libRbt.so/2013.1/901 2013/11/27
 10  9  0  0  0  0  0  0  0  0999 V2000
   32.7056   17.8835   22.7785 N   0  0  0  0  0  0  0  0  0  0  0  0
   32.0371   16.7461   22.1745 C   0  0  2  0  0  0  0  0  0  0  0  0
   32.8410   16.2100   21.0202 C   0  0  0  0  0  0  0  0  0  0  0  0
   32.3606   15.2823   20.3224 O   0  0  0  0  0  0  0  0  0  0  0  0
   30.6492   17.1631   21.7073 C   0  0  0  0  0  0  0  0  0  0  0  0
   29.9143   15.9952   21.3502 O   0  0  0  0  0  0  0  0  0  0  0  0
   28.6508   16.4174   20.8372 C   0  0  0  0  0  0  0  0  0  0  0  0
   27.7969   15.1766   20.5854 C   0  0  0  0  0  0  0  0  0  0  0  0
   27.5793   14.4602   21.8302 N   0  0  0  0  0  0  0  0  0  0  0  0
   33.6743   16.9945   20.5238 O   0  0  0  0  0  0  0  0  0  0  0  0
  2  1  1  6  0  0  0
  2  5  1  0  0  0  0
  2  3  1  0  0  0  0
  3  4  1  0  0  0  0
  3 10  1  0  0  0  0
  5  6  1  0  0  0  0
  6  7  1  0  0  0  0
  7  8  1  0  0  0  0
  8  9  1  0  0  0  0
M  END
>  <CHROM.1>
-169.20429070,-174.97496332,-176.40123960,-174.22686277,61.25280819,30.84618893
16.22361709,21.28485520,0.24338637,0.20471631,0.78403122

>  <Name>
ligand

>  <RI>
0

>  <Rbt.Current_Directory>
/home/itssahil/PROJECTS/Mol_Feturizer/New_Systems/rnas/3DJ0

>  <Rbt.Executable>
rbdock ($Id: //depot/dev/client3/rdock/2013.1/src/exe/rbdock.cxx#4 $)

>  <Rbt.Library>
libRbt.so (2013.1, Build901 2013/11/27)

>  <Rbt.Parameter_File>
/export/apps/rDock/src/rDock_2013.1_src/data/scripts/dock_solv.prm

>  <Rbt.Receptor>
prm/pocket_docking_2.prm

>  <SCORE>
-4.97767

>  <SCORE.INTER>
-3.50267

>  <SCORE.INTER.CONST>
1

>  <SCORE.INTER.POLAR>
0

>  <SCORE.INTER.ROT>
5

>  <SCORE.INTER.SOLV>
20.1797

>  <SCORE.INTER.VDW>
-15.995

>  <SCORE.INTER.norm>
-0.350267

>  <SCORE.INTRA>
-1.475

>  <SCORE.INTRA.DIHEDRAL>
-3.31214

>  <SCORE.INTRA.DIHEDRAL.0>
6.00299

>  <SCORE.INTRA.POLAR>
0

>  <SCORE.INTRA.POLAR.0>
0

>  <SCORE.INTRA.REPUL>
0

>  <SCORE.INTRA.REPUL.0>
0

>  <SCORE.INTRA.SOLV>
-0.000652471

>  <SCORE.INTRA.SOLV.lig_0>
-39.3257

>  <SCORE.INTRA.VDW>
0.181397

>  <SCORE.INTRA.VDW.0>
-0.734044

>  <SCORE.INTRA.norm>
-0.1475

>  <SCORE.RESTR>
0

>  <SCORE.RESTR.CAVITY>
0

>  <SCORE.RESTR.norm>
0

>  <SCORE.SYSTEM>
0

>  <SCORE.SYSTEM.CONST>
0

>  <SCORE.SYSTEM.DIHEDRAL>
0

>  <SCORE.SYSTEM.SOLV>
0

>  <SCORE.SYSTEM.norm>
0

>  <SCORE.heavy>
10

>  <SCORE.norm>
-0.497767

>  <RMSD>
1.999

$$$$
ligand
 OpenBabel11021811473D
libRbt.so/2013.1/901 2013/11/27
 10  9  0  0  0  0  0  0  0  0999 V2000
   31.0234   17.1702   23.1348 N   0  0  0  0  0  0  0  0  0  0  0  0
   31.2914   15.8657   22.5588 C   0  0  2  0  0  0  0  0  0  0  0  0
   31.7442   16.0000   21.1295 C   0  0  0  0  0  0  0  0  0  0  0  0
   31.3009   16.9501   20.4371 O   0  0  0  0  0  0  0  0  0  0  0  0
   30.0360   15.0079   22.6402 C   0  0  0  0  0  0  0  0  0  0  0  0
   29.0495   15.5529   21.7676 O   0  0  0  0  0  0  0  0  0  0  0  0
   27.8733   14.7532   21.8888 C   0  0  0  0  0  0  0  0  0  0  0  0
   26.9092   15.1463   20.7716 C   0  0  0  0  0  0  0  0  0  0  0  0
   27.5154   14.8894   19.4768 N   0  0  0  0  0  0  0  0  0  0  0  0
   32.8527   15.4965   20.8579 O   0  0  0  0  0  0  0  0  0  0  0  0
  2  1  1  6  0  0  0
  2  5  1  0  0  0  0
  2  3  1  0  0  0  0
  3  4  1  0  0  0  0
  3 10  1  0  0  0  0
  5  6  1  0  0  0  0
  6  7  1  0  0  0  0
  7  8  1  0  0  0  0
  8  9  1  0  0  0  0
M  END
>  <CHROM.1>
67.88649280,-31.64264521,-178.48916185,-168.96252463,61.30603970,29.98349330
15.69264234,21.44278976,0.19558600,0.25331237,1.48592512

>  <Name>
ligand

>  <RI>
0

>  <Rbt.Current_Directory>
/home/itssahil/PROJECTS/Mol_Feturizer/New_Systems/rnas/3DJ0

>  <Rbt.Executable>
rbdock ($Id: //depot/dev/client3/rdock/2013.1/src/exe/rbdock.cxx#4 $)

>  <Rbt.Library>
libRbt.so (2013.1, Build901 2013/11/27)

>  <Rbt.Parameter_File>
/export/apps/rDock/src/rDock_2013.1_src/data/scripts/dock_solv.prm

>  <Rbt.Receptor>
prm/pocket_docking_8.prm

>  <SCORE>
-7.34133

>  <SCORE.INTER>
-6.0015

>  <SCORE.INTER.CONST>
1

>  <SCORE.INTER.POLAR>
0

>  <SCORE.INTER.ROT>
5

>  <SCORE.INTER.SOLV>
17.4414

>  <SCORE.INTER.VDW>
-16.7481

>  <SCORE.INTER.norm>
-0.60015

>  <SCORE.INTRA>
-1.33983

>  <SCORE.INTRA.DIHEDRAL>
-3.02953

>  <SCORE.INTRA.DIHEDRAL.0>
6.00299

>  <SCORE.INTRA.POLAR>
0

>  <SCORE.INTRA.POLAR.0>
0

>  <SCORE.INTRA.REPUL>
0

>  <SCORE.INTRA.REPUL.0>
0

>  <SCORE.INTRA.SOLV>
0.855903

>  <SCORE.INTRA.SOLV.lig_0>
-39.3257

>  <SCORE.INTRA.VDW>
-0.253022

>  <SCORE.INTRA.VDW.0>
-0.734044

>  <SCORE.INTRA.norm>
-0.133983

>  <SCORE.RESTR>
0

>  <SCORE.RESTR.CAVITY>
0

>  <SCORE.RESTR.norm>
0

>  <SCORE.SYSTEM>
0

>  <SCORE.SYSTEM.CONST>
0

>  <SCORE.SYSTEM.DIHEDRAL>
0

>  <SCORE.SYSTEM.SOLV>
0

>  <SCORE.SYSTEM.norm>
0

>  <SCORE.heavy>
10

>  <SCORE.norm>
-0.734133

>  <RMSD>
2.038

$$$$
ligand
 OpenBabel11021811473D
libRbt.so/2013.1/901 2013/11/27
 10  9  0  0  0  0  0  0  0  0999 V2000
   30.9562   17.1887   23.1249 N   0  0  0  0  0  0  0  0  0  0  0  0
   31.2511   15.8843   22.5618 C   0  0  2  0  0  0  0  0  0  0  0  0
   31.7221   16.0156   21.1381 C   0  0  0  0  0  0  0  0  0  0  0  0
   31.2323   16.9192   20.4156 O   0  0  0  0  0  0  0  0  0  0  0  0
   30.0072   15.0089   22.6315 C   0  0  0  0  0  0  0  0  0  0  0  0
   29.0056   15.5652   21.7835 O   0  0  0  0  0  0  0  0  0  0  0  0
   27.8460   14.7386   21.8814 C   0  0  0  0  0  0  0  0  0  0  0  0
   26.8840   15.1277   20.7610 C   0  0  0  0  0  0  0  0  0  0  0  0
   27.5123   14.9156   19.4686 N   0  0  0  0  0  0  0  0  0  0  0  0
   32.8658   15.5790   20.8985 O   0  0  0  0  0  0  0  0  0  0  0  0
  2  1  1  6  0  0  0
  2  5  1  0  0  0  0
  2  3  1  0  0  0  0
  3  4  1  0  0  0  0
  3 10  1  0  0  0  0
  5  6  1  0  0  0  0
  6  7  1  0  0  0  0
  7  8  1  0  0  0  0
  8  9  1  0  0  0  0
M  END
>  <CHROM.1>
65.49702727,-34.67208292,-179.17894867,-167.50967821,60.76273089,29.95208643
15.70404446,21.44336201,0.19394527,0.25881764,1.49669498

>  <Name>
ligand

>  <RI>
0

>  <Rbt.Current_Directory>
/home/itssahil/PROJECTS/Mol_Feturizer/New_Systems/rnas/3DJ0

>  <Rbt.Executable>
rbdock ($Id: //depot/dev/client3/rdock/2013.1/src/exe/rbdock.cxx#4 $)

>  <Rbt.Library>
libRbt.so (2013.1, Build901 2013/11/27)

>  <Rbt.Parameter_File>
/export/apps/rDock/src/rDock_2013.1_src/data/scripts/dock_solv.prm

>  <Rbt.Receptor>
prm/pocket_docking_3.prm

>  <SCORE>
-7.41136

>  <SCORE.INTER>
-6.0352

>  <SCORE.INTER.CONST>
1

>  <SCORE.INTER.POLAR>
0

>  <SCORE.INTER.ROT>
5

>  <SCORE.INTER.SOLV>
17.4984

>  <SCORE.INTER.VDW>
-16.7896

>  <SCORE.INTER.norm>
-0.60352

>  <SCORE.INTRA>
-1.37616

>  <SCORE.INTRA.DIHEDRAL>
-3.04117

>  <SCORE.INTRA.DIHEDRAL.0>
6.00299

>  <SCORE.INTRA.POLAR>
0

>  <SCORE.INTRA.POLAR.0>
0

>  <SCORE.INTRA.REPUL>
0

>  <SCORE.INTRA.REPUL.0>
0

>  <SCORE.INTRA.SOLV>
0.898081

>  <SCORE.INTRA.SOLV.lig_0>
-39.3257

>  <SCORE.INTRA.VDW>
-0.304614

>  <SCORE.INTRA.VDW.0>
-0.734044

>  <SCORE.INTRA.norm>
-0.137616

>  <SCORE.RESTR>
0

>  <SCORE.RESTR.CAVITY>
0

>  <SCORE.RESTR.norm>
0

>  <SCORE.SYSTEM>
0

>  <SCORE.SYSTEM.CONST>
0

>  <SCORE.SYSTEM.DIHEDRAL>
0

>  <SCORE.SYSTEM.SOLV>
0

>  <SCORE.SYSTEM.norm>
0

>  <SCORE.heavy>
10

>  <SCORE.norm>
-0.741136

>  <RMSD>
2.053

$$$$
ligand
 OpenBabel11021811473D
libRbt.so/2013.1/901 2013/11/27
 10  9  0  0  0  0  0  0  0  0999 V2000
   33.2762   16.6830   23.0559 N   0  0  0  0  0  0  0  0  0  0  0  0
   32.1158   16.2373   22.3074 C   0  0  2  0  0  0  0  0  0  0  0  0
   32.4374   16.1381   20.8401 C   0  0  0  0  0  0  0  0  0  0  0  0
   33.5122   16.6327   20.4176 O   0  0  0  0  0  0  0  0  0  0  0  0
   30.9632   17.2059   22.5345 C   0  0  0  0  0  0  0  0  0  0  0  0
   29.8038   16.7033   21.8750 O   0  0  0  0  0  0  0  0  0  0  0  0
   29.3284   15.5853   22.6245 C   0  0  0  0  0  0  0  0  0  0  0  0
   27.9812   15.1582   22.0459 C   0  0  0  0  0  0  0  0  0  0  0  0
   28.1291   14.8092   20.6437 N   0  0  0  0  0  0  0  0  0  0  0  0
   31.9046   15.1915   20.2268 O   0  0  0  0  0  0  0  0  0  0  0  0
  2  1  1  1  0  0  0
  2  5  1  0  0  0  0
  2  3  1  0  0  0  0
  3  4  1  0  0  0  0
  3 10  1  0  0  0  0
  5  6  1  0  0  0  0
  6  7  1  0  0  0  0
  7  8  1  0  0  0  0
  8  9  1  0  0  0  0
M  END
>  <CHROM.1>
-175.73338648,-11.48250216,72.85507619,172.14388006,58.92744678,30.95926933
16.03820129,21.62467693,0.05521124,0.24092579,1.11675621

>  <Name>
ligand

>  <RI>
0

>  <Rbt.Current_Directory>
/home/itssahil/PROJECTS/Mol_Feturizer/New_Systems/rnas/3DJ0

>  <Rbt.Executable>
rbdock ($Id: //depot/dev/client3/rdock/2013.1/src/exe/rbdock.cxx#4 $)

>  <Rbt.Library>
libRbt.so (2013.1, Build901 2013/11/27)

>  <Rbt.Parameter_File>
/export/apps/rDock/src/rDock_2013.1_src/data/scripts/dock_solv.prm

>  <Rbt.Receptor>
prm/pocket_docking_6.prm

>  <SCORE>
-5.3319

>  <SCORE.INTER>
-5.50358

>  <SCORE.INTER.CONST>
1

>  <SCORE.INTER.POLAR>
0

>  <SCORE.INTER.ROT>
5

>  <SCORE.INTER.SOLV>
17.6573

>  <SCORE.INTER.VDW>
-16.4882

>  <SCORE.INTER.norm>
-0.550358

>  <SCORE.INTRA>
0.171676

>  <SCORE.INTRA.DIHEDRAL>
-2.30883

>  <SCORE.INTRA.DIHEDRAL.0>
6.00299

>  <SCORE.INTRA.POLAR>
0

>  <SCORE.INTRA.POLAR.0>
0

>  <SCORE.INTRA.REPUL>
0

>  <SCORE.INTRA.REPUL.0>
0

>  <SCORE.INTRA.SOLV>
0.933995

>  <SCORE.INTRA.SOLV.lig_0>
-39.3257

>  <SCORE.INTRA.VDW>
0.859092

>  <SCORE.INTRA.VDW.0>
-0.734044

>  <SCORE.INTRA.norm>
0.0171676

>  <SCORE.RESTR>
0

>  <SCORE.RESTR.CAVITY>
0

>  <SCORE.RESTR.norm>
0

>  <SCORE.SYSTEM>
0

>  <SCORE.SYSTEM.CONST>
0

>  <SCORE.SYSTEM.DIHEDRAL>
0

>  <SCORE.SYSTEM.SOLV>
0

>  <SCORE.SYSTEM.norm>
0

>  <SCORE.heavy>
10

>  <SCORE.norm>
-0.53319

>  <RMSD>
2.061

$$$$
ligand
 OpenBabel11021811473D
libRbt.so/2013.1/901 2013/11/27
 10  9  0  0  0  0  0  0  0  0999 V2000
   30.9933   17.1442   23.1429 N   0  0  0  0  0  0  0  0  0  0  0  0
   31.2528   15.8426   22.5565 C   0  0  2  0  0  0  0  0  0  0  0  0
   31.7013   15.9850   21.1267 C   0  0  0  0  0  0  0  0  0  0  0  0
   31.2161   16.9076   20.4254 O   0  0  0  0  0  0  0  0  0  0  0  0
   29.9935   14.9904   22.6361 C   0  0  0  0  0  0  0  0  0  0  0  0
   28.9995   15.5589   21.7872 O   0  0  0  0  0  0  0  0  0  0  0  0
   27.8204   14.7630   21.9061 C   0  0  0  0  0  0  0  0  0  0  0  0
   26.8720   15.1387   20.7697 C   0  0  0  0  0  0  0  0  0  0  0  0
   27.5022   14.8768   19.4874 N   0  0  0  0  0  0  0  0  0  0  0  0
   32.8323   15.5306   20.8609 O   0  0  0  0  0  0  0  0  0  0  0  0
  2  1  1  6  0  0  0
  2  5  1  0  0  0  0
  2  3  1  0  0  0  0
  3  4  1  0  0  0  0
  3 10  1  0  0  0  0
  5  6  1  0  0  0  0
  6  7  1  0  0  0  0
  7  8  1  0  0  0  0
  8  9  1  0  0  0  0
M  END
>  <CHROM.1>
66.96930282,-34.71474839,-178.52886545,-166.34119458,60.50617616,29.94178313
15.68368611,21.44643966,0.19183337,0.25177246,1.49013843

>  <Name>
ligand

>  <RI>
0

>  <Rbt.Current_Directory>
/home/itssahil/PROJECTS/Mol_Feturizer/New_Systems/rnas/3DJ0

>  <Rbt.Executable>
rbdock ($Id: //depot/dev/client3/rdock/2013.1/src/exe/rbdock.cxx#4 $)

>  <Rbt.Library>
libRbt.so (2013.1, Build901 2013/11/27)

>  <Rbt.Parameter_File>
/export/apps/rDock/src/rDock_2013.1_src/data/scripts/dock_solv.prm

>  <Rbt.Receptor>
prm/pocket_docking_8.prm

>  <SCORE>
-7.44017

>  <SCORE.INTER>
-6.1973

>  <SCORE.INTER.CONST>
1

>  <SCORE.INTER.POLAR>
0

>  <SCORE.INTER.ROT>
5

>  <SCORE.INTER.SOLV>
17.4431

>  <SCORE.INTER.VDW>
-16.8792

>  <SCORE.INTER.norm>
-0.61973

>  <SCORE.INTRA>
-1.24287

>  <SCORE.INTRA.DIHEDRAL>
-2.83044

>  <SCORE.INTRA.DIHEDRAL.0>
6.00299

>  <SCORE.INTRA.POLAR>
0

>  <SCORE.INTRA.POLAR.0>
0

>  <SCORE.INTRA.REPUL>
0

>  <SCORE.INTRA.REPUL.0>
0

>  <SCORE.INTRA.SOLV>
0.904279

>  <SCORE.INTRA.SOLV.lig_0>
-39.3257

>  <SCORE.INTRA.VDW>
-0.279786

>  <SCORE.INTRA.VDW.0>
-0.734044

>  <SCORE.INTRA.norm>
-0.124287

>  <SCORE.RESTR>
0

>  <SCORE.RESTR.CAVITY>
0

>  <SCORE.RESTR.norm>
0

>  <SCORE.SYSTEM>
0

>  <SCORE.SYSTEM.CONST>
0

>  <SCORE.SYSTEM.DIHEDRAL>
0

>  <SCORE.SYSTEM.SOLV>
0

>  <SCORE.SYSTEM.norm>
0

>  <SCORE.heavy>
10

>  <SCORE.norm>
-0.744017

>  <RMSD>
2.064

$$$$
ligand
 OpenBabel11021811473D
libRbt.so/2013.1/901 2013/11/27
 10  9  0  0  0  0  0  0  0  0999 V2000
   30.8845   17.5850   22.3727 N   0  0  0  0  0  0  0  0  0  0  0  0
   31.1920   16.1794   22.5602 C   0  0  2  0  0  0  0  0  0  0  0  0
   31.9225   15.6321   21.3631 C   0  0  0  0  0  0  0  0  0  0  0  0
   31.2597   15.2643   20.3612 O   0  0  0  0  0  0  0  0  0  0  0  0
   29.9022   15.4051   22.7954 C   0  0  0  0  0  0  0  0  0  0  0  0
   29.0081   15.6627   21.7156 O   0  0  0  0  0  0  0  0  0  0  0  0
   27.8200   14.9055   21.9458 C   0  0  0  0  0  0  0  0  0  0  0  0
   26.8819   15.1131   20.7588 C   0  0  0  0  0  0  0  0  0  0  0  0
   27.5250   14.6741   19.5325 N   0  0  0  0  0  0  0  0  0  0  0  0
   33.1030   16.0102   21.2236 O   0  0  0  0  0  0  0  0  0  0  0  0
  2  1  1  6  0  0  0
  2  5  1  0  0  0  0
  2  3  1  0  0  0  0
  3  4  1  0  0  0  0
  3 10  1  0  0  0  0
  5  6  1  0  0  0  0
  6  7  1  0  0  0  0
  7  8  1  0  0  0  0
  8  9  1  0  0  0  0
M  END
>  <CHROM.1>
54.89538879,-82.84640327,178.84111638,-177.01320284,59.54700485,29.97581235
15.63942485,21.44116002,0.26356708,0.15077612,1.11862681

>  <Name>
ligand

>  <RI>
0

>  <Rbt.Current_Directory>
/home/itssahil/PROJECTS/Mol_Feturizer/New_Systems/rnas/3DJ0

>  <Rbt.Executable>
rbdock ($Id: //depot/dev/client3/rdock/2013.1/src/exe/rbdock.cxx#4 $)

>  <Rbt.Library>
libRbt.so (2013.1, Build901 2013/11/27)

>  <Rbt.Parameter_File>
/export/apps/rDock/src/rDock_2013.1_src/data/scripts/dock_solv.prm

>  <Rbt.Receptor>
prm/pocket_docking_8.prm

>  <SCORE>
-7.37371

>  <SCORE.INTER>
-6.64611

>  <SCORE.INTER.CONST>
1

>  <SCORE.INTER.POLAR>
0

>  <SCORE.INTER.ROT>
5

>  <SCORE.INTER.SOLV>
17.6893

>  <SCORE.INTER.VDW>
-17.2605

>  <SCORE.INTER.norm>
-0.664611

>  <SCORE.INTRA>
-0.727591

>  <SCORE.INTRA.DIHEDRAL>
-3.3453

>  <SCORE.INTRA.DIHEDRAL.0>
6.00299

>  <SCORE.INTRA.POLAR>
0

>  <SCORE.INTRA.POLAR.0>
0

>  <SCORE.INTRA.REPUL>
0

>  <SCORE.INTRA.REPUL.0>
0

>  <SCORE.INTRA.SOLV>
1.45981

>  <SCORE.INTRA.SOLV.lig_0>
-39.3257

>  <SCORE.INTRA.VDW>
0.215155

>  <SCORE.INTRA.VDW.0>
-0.734044

>  <SCORE.INTRA.norm>
-0.0727591

>  <SCORE.RESTR>
0

>  <SCORE.RESTR.CAVITY>
0

>  <SCORE.RESTR.norm>
0

>  <SCORE.SYSTEM>
0

>  <SCORE.SYSTEM.CONST>
0

>  <SCORE.SYSTEM.DIHEDRAL>
0

>  <SCORE.SYSTEM.SOLV>
0

>  <SCORE.SYSTEM.norm>
0

>  <SCORE.heavy>
10

>  <SCORE.norm>
-0.737371

>  <RMSD>
2.071

$$$$
ligand
 OpenBabel11021811473D
libRbt.so/2013.1/901 2013/11/27
 10  9  0  0  0  0  0  0  0  0999 V2000
   29.1233   16.9141   21.0282 N   0  0  0  0  0  0  0  0  0  0  0  0
   28.0382   16.0497   20.6030 C   0  0  2  0  0  0  0  0  0  0  0  0
   27.4816   15.2830   21.7728 C   0  0  0  0  0  0  0  0  0  0  0  0
   26.3827   14.6880   21.6434 O   0  0  0  0  0  0  0  0  0  0  0  0
   28.5425   15.0924   19.5317 C   0  0  0  0  0  0  0  0  0  0  0  0
   27.4573   14.2777   19.0956 O   0  0  0  0  0  0  0  0  0  0  0  0
   28.0030   13.1944   18.3429 C   0  0  0  0  0  0  0  0  0  0  0  0
   26.8525   12.2984   17.8894 C   0  0  0  0  0  0  0  0  0  0  0  0
   27.3689   11.0267   17.4138 N   0  0  0  0  0  0  0  0  0  0  0  0
   28.3160   14.8745   22.6052 O   0  0  0  0  0  0  0  0  0  0  0  0
  2  1  1  1  0  0  0
  2  5  1  0  0  0  0
  2  3  1  0  0  0  0
  3  4  1  0  0  0  0
  3 10  1  0  0  0  0
  5  6  1  0  0  0  0
  6  7  1  0  0  0  0
  7  8  1  0  0  0  0
  8  9  1  0  0  0  0
M  END
>  <CHROM.1>
-178.27827242,166.40574656,-166.44344275,179.01642014,-165.95631471,27.74118930
14.36186777,20.02216815,-1.33196544,-0.90272309,-2.14920944

>  <Name>
ligand

>  <RI>
0

>  <Rbt.Current_Directory>
/home/itssahil/PROJECTS/Mol_Feturizer/New_Systems/rnas/3DJ0

>  <Rbt.Executable>
rbdock ($Id: //depot/dev/client3/rdock/2013.1/src/exe/rbdock.cxx#4 $)

>  <Rbt.Library>
libRbt.so (2013.1, Build901 2013/11/27)

>  <Rbt.Parameter_File>
/export/apps/rDock/src/rDock_2013.1_src/data/scripts/dock_solv.prm

>  <Rbt.Receptor>
prm/blind_docking_60.prm

>  <SCORE>
-5.91305

>  <SCORE.INTER>
-4.28349

>  <SCORE.INTER.CONST>
1

>  <SCORE.INTER.POLAR>
0

>  <SCORE.INTER.ROT>
5

>  <SCORE.INTER.SOLV>
23.8254

>  <SCORE.INTER.VDW>
-17.7308

>  <SCORE.INTER.norm>
-0.428349

>  <SCORE.INTRA>
-1.62956

>  <SCORE.INTRA.DIHEDRAL>
-2.07765

>  <SCORE.INTRA.DIHEDRAL.0>
6.00299

>  <SCORE.INTRA.POLAR>
0

>  <SCORE.INTRA.POLAR.0>
0

>  <SCORE.INTRA.REPUL>
0

>  <SCORE.INTRA.REPUL.0>
0

>  <SCORE.INTRA.SOLV>
-1.11731

>  <SCORE.INTRA.SOLV.lig_0>
-39.3257

>  <SCORE.INTRA.VDW>
-0.032081

>  <SCORE.INTRA.VDW.0>
-0.734044

>  <SCORE.INTRA.norm>
-0.162956

>  <SCORE.RESTR>
0

>  <SCORE.RESTR.CAVITY>
0

>  <SCORE.RESTR.norm>
0

>  <SCORE.SYSTEM>
0

>  <SCORE.SYSTEM.CONST>
0

>  <SCORE.SYSTEM.DIHEDRAL>
0

>  <SCORE.SYSTEM.SOLV>
0

>  <SCORE.SYSTEM.norm>
0

>  <SCORE.heavy>
10

>  <SCORE.norm>
-0.591305

>  <RMSD>
4.827

$$$$
ligand
 OpenBabel11021811473D
libRbt.so/2013.1/901 2013/11/27
 10  9  0  0  0  0  0  0  0  0999 V2000
   27.6595   15.9412   20.1048 N   0  0  0  0  0  0  0  0  0  0  0  0
   28.8230   15.5674   20.8871 C   0  0  2  0  0  0  0  0  0  0  0  0
   28.4081   14.8619   22.1505 C   0  0  0  0  0  0  0  0  0  0  0  0
   27.1843   14.7512   22.4123 O   0  0  0  0  0  0  0  0  0  0  0  0
   29.6345   16.8131   21.2161 C   0  0  0  0  0  0  0  0  0  0  0  0
   30.8971   16.4132   21.7428 O   0  0  0  0  0  0  0  0  0  0  0  0
   31.5831   17.5910   22.1670 C   0  0  0  0  0  0  0  0  0  0  0  0
   33.0264   17.2137   22.4938 C   0  0  0  0  0  0  0  0  0  0  0  0
   33.6950   16.7216   21.3018 N   0  0  0  0  0  0  0  0  0  0  0  0
   29.2189   14.0285   22.6024 O   0  0  0  0  0  0  0  0  0  0  0  0
  2  1  1  1  0  0  0
  2  5  1  0  0  0  0
  2  3  1  0  0  0  0
  3  4  1  0  0  0  0
  3 10  1  0  0  0  0
  5  6  1  0  0  0  0
  6  7  1  0  0  0  0
  7  8  1  0  0  0  0
  8  9  1  0  0  0  0
M  END
>  <CHROM.1>
-168.43880642,-3.93658987,-174.27423678,-169.77793283,62.64498622,29.99487699
15.96300590,21.73314277,2.88225781,0.31570865,2.37211712

>  <Name>
ligand

>  <RI>
0

>  <Rbt.Current_Directory>
/home/itssahil/PROJECTS/Mol_Feturizer/New_Systems/rnas/3DJ0

>  <Rbt.Executable>
rbdock ($Id: //depot/dev/client3/rdock/2013.1/src/exe/rbdock.cxx#4 $)

>  <Rbt.Library>
libRbt.so (2013.1, Build901 2013/11/27)

>  <Rbt.Parameter_File>
/export/apps/rDock/src/rDock_2013.1_src/data/scripts/dock_solv.prm

>  <Rbt.Receptor>
prm/pocket_docking_3.prm

>  <SCORE>
-6.05246

>  <SCORE.INTER>
-4.6936

>  <SCORE.INTER.CONST>
1

>  <SCORE.INTER.POLAR>
0

>  <SCORE.INTER.ROT>
5

>  <SCORE.INTER.SOLV>
20.1051

>  <SCORE.INTER.VDW>
-16.7641

>  <SCORE.INTER.norm>
-0.46936

>  <SCORE.INTRA>
-1.35886

>  <SCORE.INTRA.DIHEDRAL>
-2.16681

>  <SCORE.INTRA.DIHEDRAL.0>
6.00299

>  <SCORE.INTRA.POLAR>
0

>  <SCORE.INTRA.POLAR.0>
0

>  <SCORE.INTRA.REPUL>
0

>  <SCORE.INTRA.REPUL.0>
0

>  <SCORE.INTRA.SOLV>
-0.15106

>  <SCORE.INTRA.SOLV.lig_0>
-39.3257

>  <SCORE.INTRA.VDW>
-0.199925

>  <SCORE.INTRA.VDW.0>
-0.734044

>  <SCORE.INTRA.norm>
-0.135886

>  <SCORE.RESTR>
0

>  <SCORE.RESTR.CAVITY>
0

>  <SCORE.RESTR.norm>
0

>  <SCORE.SYSTEM>
0

>  <SCORE.SYSTEM.CONST>
0

>  <SCORE.SYSTEM.DIHEDRAL>
0

>  <SCORE.SYSTEM.SOLV>
0

>  <SCORE.SYSTEM.norm>
0

>  <SCORE.heavy>
10

>  <SCORE.norm>
-0.605246

>  <RMSD>
4.919

$$$$
ligand
 OpenBabel11021811473D
libRbt.so/2013.1/901 2013/11/27
 10  9  0  0  0  0  0  0  0  0999 V2000
   26.3495   14.9813   21.0038 N   0  0  0  0  0  0  0  0  0  0  0  0
   27.6771   15.5266   21.2176 C   0  0  2  0  0  0  0  0  0  0  0  0
   28.3688   15.7689   19.9027 C   0  0  0  0  0  0  0  0  0  0  0  0
   28.1705   14.9695   18.9540 O   0  0  0  0  0  0  0  0  0  0  0  0
   28.4881   14.5650   22.0755 C   0  0  0  0  0  0  0  0  0  0  0  0
   29.5655   15.2805   22.6746 O   0  0  0  0  0  0  0  0  0  0  0  0
   30.6751   15.2249   21.7782 C   0  0  0  0  0  0  0  0  0  0  0  0
   31.8560   15.9388   22.4323 C   0  0  0  0  0  0  0  0  0  0  0  0
   31.5253   17.3329   22.6713 N   0  0  0  0  0  0  0  0  0  0  0  0
   28.6903   16.9504   19.6641 O   0  0  0  0  0  0  0  0  0  0  0  0
  2  1  1  6  0  0  0
  2  5  1  0  0  0  0
  2  3  1  0  0  0  0
  3  4  1  0  0  0  0
  3 10  1  0  0  0  0
  5  6  1  0  0  0  0
  6  7  1  0  0  0  0
  7  8  1  0  0  0  0
  8  9  1  0  0  0  0
M  END
>  <CHROM.1>
-159.26927487,-35.61666258,-89.16112819,-177.70602173,-61.50884770,29.13879401
15.65709356,21.21358610,2.73617130,-0.45003202,-1.13046340

>  <Name>
ligand

>  <RI>
0

>  <Rbt.Current_Directory>
/home/itssahil/PROJECTS/Mol_Feturizer/New_Systems/rnas/3DJ0

>  <Rbt.Executable>
rbdock ($Id: //depot/dev/client3/rdock/2013.1/src/exe/rbdock.cxx#4 $)

>  <Rbt.Library>
libRbt.so (2013.1, Build901 2013/11/27)

>  <Rbt.Parameter_File>
/export/apps/rDock/src/rDock_2013.1_src/data/scripts/dock_solv.prm

>  <Rbt.Receptor>
prm/pocket_docking_8.prm

>  <SCORE>
-5.34488

>  <SCORE.INTER>
-6.49537

>  <SCORE.INTER.CONST>
1

>  <SCORE.INTER.POLAR>
0

>  <SCORE.INTER.ROT>
5

>  <SCORE.INTER.SOLV>
19.474

>  <SCORE.INTER.VDW>
-17.7549

>  <SCORE.INTER.norm>
-0.649537

>  <SCORE.INTRA>
1.15049

>  <SCORE.INTRA.DIHEDRAL>
0.977485

>  <SCORE.INTRA.DIHEDRAL.0>
6.00299

>  <SCORE.INTRA.POLAR>
0

>  <SCORE.INTRA.POLAR.0>
0

>  <SCORE.INTRA.REPUL>
0

>  <SCORE.INTRA.REPUL.0>
0

>  <SCORE.INTRA.SOLV>
0.659711

>  <SCORE.INTRA.SOLV.lig_0>
-39.3257

>  <SCORE.INTRA.VDW>
0.331894

>  <SCORE.INTRA.VDW.0>
-0.734044

>  <SCORE.INTRA.norm>
0.115049

>  <SCORE.RESTR>
0

>  <SCORE.RESTR.CAVITY>
0

>  <SCORE.RESTR.norm>
0

>  <SCORE.SYSTEM>
0

>  <SCORE.SYSTEM.CONST>
0

>  <SCORE.SYSTEM.DIHEDRAL>
0

>  <SCORE.SYSTEM.SOLV>
0

>  <SCORE.SYSTEM.norm>
0

>  <SCORE.heavy>
10

>  <SCORE.norm>
-0.534488

>  <RMSD>
4.923

$$$$
ligand
 OpenBabel11021811473D
libRbt.so/2013.1/901 2013/11/27
 10  9  0  0  0  0  0  0  0  0999 V2000
   26.3802   14.9529   21.0829 N   0  0  0  0  0  0  0  0  0  0  0  0
   27.7106   15.5122   21.2331 C   0  0  2  0  0  0  0  0  0  0  0  0
   28.3823   15.6500   19.8930 C   0  0  0  0  0  0  0  0  0  0  0  0
   28.1851   14.7686   19.0197 O   0  0  0  0  0  0  0  0  0  0  0  0
   28.5349   14.6204   22.1515 C   0  0  0  0  0  0  0  0  0  0  0  0
   29.6203   15.3802   22.6772 O   0  0  0  0  0  0  0  0  0  0  0  0
   30.7051   15.2831   21.7544 C   0  0  0  0  0  0  0  0  0  0  0  0
   31.8892   16.0622   22.3230 C   0  0  0  0  0  0  0  0  0  0  0  0
   31.5379   17.4637   22.4728 N   0  0  0  0  0  0  0  0  0  0  0  0
   28.6819   16.8110   19.5488 O   0  0  0  0  0  0  0  0  0  0  0  0
  2  1  1  6  0  0  0
  2  5  1  0  0  0  0
  2  3  1  0  0  0  0
  3  4  1  0  0  0  0
  3 10  1  0  0  0  0
  5  6  1  0  0  0  0
  6  7  1  0  0  0  0
  7  8  1  0  0  0  0
  8  9  1  0  0  0  0
M  END
>  <CHROM.1>
-159.21486788,-36.63182830,-87.66919560,-178.49618057,-61.63028902,29.16469941
15.65133312,21.19174438,2.75660804,-0.45272851,-1.20379387

>  <Name>
ligand

>  <RI>
0

>  <Rbt.Current_Directory>
/home/itssahil/PROJECTS/Mol_Feturizer/New_Systems/rnas/3DJ0

>  <Rbt.Executable>
rbdock ($Id: //depot/dev/client3/rdock/2013.1/src/exe/rbdock.cxx#4 $)

>  <Rbt.Library>
libRbt.so (2013.1, Build901 2013/11/27)

>  <Rbt.Parameter_File>
/export/apps/rDock/src/rDock_2013.1_src/data/scripts/dock_solv.prm

>  <Rbt.Receptor>
prm/pocket_docking_8.prm

>  <SCORE>
-5.38002

>  <SCORE.INTER>
-6.51093

>  <SCORE.INTER.CONST>
1

>  <SCORE.INTER.POLAR>
0

>  <SCORE.INTER.ROT>
5

>  <SCORE.INTER.SOLV>
19.4001

>  <SCORE.INTER.VDW>
-17.7407

>  <SCORE.INTER.norm>
-0.651093

>  <SCORE.INTRA>
1.13091

>  <SCORE.INTRA.DIHEDRAL>
0.67863

>  <SCORE.INTRA.DIHEDRAL.0>
6.00299

>  <SCORE.INTRA.POLAR>
0

>  <SCORE.INTRA.POLAR.0>
0

>  <SCORE.INTRA.REPUL>
0

>  <SCORE.INTRA.REPUL.0>
0

>  <SCORE.INTRA.SOLV>
0.720764

>  <SCORE.INTRA.SOLV.lig_0>
-39.3257

>  <SCORE.INTRA.VDW>
0.431211

>  <SCORE.INTRA.VDW.0>
-0.734044

>  <SCORE.INTRA.norm>
0.113091

>  <SCORE.RESTR>
0

>  <SCORE.RESTR.CAVITY>
0

>  <SCORE.RESTR.norm>
0

>  <SCORE.SYSTEM>
0

>  <SCORE.SYSTEM.CONST>
0

>  <SCORE.SYSTEM.DIHEDRAL>
0

>  <SCORE.SYSTEM.SOLV>
0

>  <SCORE.SYSTEM.norm>
0

>  <SCORE.heavy>
10

>  <SCORE.norm>
-0.538002

>  <RMSD>
4.931

$$$$
ligand
 OpenBabel11021811473D
libRbt.so/2013.1/901 2013/11/27
 10  9  0  0  0  0  0  0  0  0999 V2000
   26.7482   14.7716   21.2086 N   0  0  0  0  0  0  0  0  0  0  0  0
   27.7921   15.6394   20.6961 C   0  0  2  0  0  0  0  0  0  0  0  0
   28.4952   14.9930   19.5326 C   0  0  0  0  0  0  0  0  0  0  0  0
   28.7754   13.7698   19.5937 O   0  0  0  0  0  0  0  0  0  0  0  0
   28.7833   15.9522   21.8088 C   0  0  0  0  0  0  0  0  0  0  0  0
   29.7341   16.8974   21.3250 O   0  0  0  0  0  0  0  0  0  0  0  0
   30.6862   17.1258   22.3638 C   0  0  0  0  0  0  0  0  0  0  0  0
   31.6790   15.9654   22.3677 C   0  0  0  0  0  0  0  0  0  0  0  0
   32.4362   15.9531   21.1282 N   0  0  0  0  0  0  0  0  0  0  0  0
   28.3308   15.5389   18.4231 O   0  0  0  0  0  0  0  0  0  0  0  0
  2  1  1  1  0  0  0
  2  5  1  0  0  0  0
  2  3  1  0  0  0  0
  3  4  1  0  0  0  0
  3 10  1  0  0  0  0
  5  6  1  0  0  0  0
  6  7  1  0  0  0  0
  7  8  1  0  0  0  0
  8  9  1  0  0  0  0
M  END
>  <CHROM.1>
-174.91088067,-41.86028891,-177.33062951,79.39027936,64.61716769,29.34641881
15.65495159,20.81120504,2.50939955,-0.10784244,-2.05440605

>  <Name>
ligand

>  <RI>
0

>  <Rbt.Current_Directory>
/home/itssahil/PROJECTS/Mol_Feturizer/New_Systems/rnas/3DJ0

>  <Rbt.Executable>
rbdock ($Id: //depot/dev/client3/rdock/2013.1/src/exe/rbdock.cxx#4 $)

>  <Rbt.Library>
libRbt.so (2013.1, Build901 2013/11/27)

>  <Rbt.Parameter_File>
/export/apps/rDock/src/rDock_2013.1_src/data/scripts/dock_solv.prm

>  <Rbt.Receptor>
prm/pocket_docking_6.prm

>  <SCORE>
-4.22495

>  <SCORE.INTER>
-4.2612

>  <SCORE.INTER.CONST>
1

>  <SCORE.INTER.POLAR>
0

>  <SCORE.INTER.ROT>
5

>  <SCORE.INTER.SOLV>
20.2229

>  <SCORE.INTER.VDW>
-16.5151

>  <SCORE.INTER.norm>
-0.42612

>  <SCORE.INTRA>
0.035863

>  <SCORE.INTRA.DIHEDRAL>
-2.05849

>  <SCORE.INTRA.DIHEDRAL.0>
6.00299

>  <SCORE.INTRA.POLAR>
0

>  <SCORE.INTRA.POLAR.0>
0

>  <SCORE.INTRA.REPUL>
0

>  <SCORE.INTRA.REPUL.0>
0

>  <SCORE.INTRA.SOLV>
0.340605

>  <SCORE.INTRA.SOLV.lig_0>
-39.3257

>  <SCORE.INTRA.VDW>
0.894805

>  <SCORE.INTRA.VDW.0>
-0.734044

>  <SCORE.INTRA.norm>
0.0035863

>  <SCORE.RESTR>
0.000391633

>  <SCORE.RESTR.CAVITY>
0.000391633

>  <SCORE.RESTR.norm>
3.91633e-05

>  <SCORE.SYSTEM>
0

>  <SCORE.SYSTEM.CONST>
0

>  <SCORE.SYSTEM.DIHEDRAL>
0

>  <SCORE.SYSTEM.SOLV>
0

>  <SCORE.SYSTEM.norm>
0

>  <SCORE.heavy>
10

>  <SCORE.norm>
-0.422495

>  <RMSD>
4.965

$$$$
ligand
 OpenBabel11021811473D
libRbt.so/2013.1/901 2013/11/27
 10  9  0  0  0  0  0  0  0  0999 V2000
   29.0609   14.2468   19.4610 N   0  0  0  0  0  0  0  0  0  0  0  0
   28.2855   14.4122   20.6763 C   0  0  2  0  0  0  0  0  0  0  0  0
   27.4157   15.6376   20.5876 C   0  0  0  0  0  0  0  0  0  0  0  0
   27.9195   16.7136   20.1794 O   0  0  0  0  0  0  0  0  0  0  0  0
   29.2271   14.5140   21.8686 C   0  0  0  0  0  0  0  0  0  0  0  0
   30.1504   15.5746   21.6358 O   0  0  0  0  0  0  0  0  0  0  0  0
   31.0545   15.6130   22.7399 C   0  0  0  0  0  0  0  0  0  0  0  0
   32.0840   16.7103   22.4784 C   0  0  0  0  0  0  0  0  0  0  0  0
   31.4301   18.0066   22.4329 N   0  0  0  0  0  0  0  0  0  0  0  0
   26.1932   15.4310   20.4494 O   0  0  0  0  0  0  0  0  0  0  0  0
  2  1  1  6  0  0  0
  2  5  1  0  0  0  0
  2  3  1  0  0  0  0
  3  4  1  0  0  0  0
  3 10  1  0  0  0  0
  5  6  1  0  0  0  0
  6  7  1  0  0  0  0
  7  8  1  0  0  0  0
  8  9  1  0  0  0  0
M  END
>  <CHROM.1>
55.50236622,-46.88342377,-177.63912999,177.82652813,63.85865249,29.25279494
15.70415338,21.23929595,-2.77429156,-0.43852196,0.14292138

>  <Name>
ligand

>  <RI>
0

>  <Rbt.Current_Directory>
/home/itssahil/PROJECTS/Mol_Feturizer/New_Systems/rnas/3DJ0

>  <Rbt.Executable>
rbdock ($Id: //depot/dev/client3/rdock/2013.1/src/exe/rbdock.cxx#4 $)

>  <Rbt.Library>
libRbt.so (2013.1, Build901 2013/11/27)

>  <Rbt.Parameter_File>
/export/apps/rDock/src/rDock_2013.1_src/data/scripts/dock_solv.prm

>  <Rbt.Receptor>
prm/pocket_docking_6.prm

>  <SCORE>
-6.92883

>  <SCORE.INTER>
-5.09133

>  <SCORE.INTER.CONST>
1

>  <SCORE.INTER.POLAR>
0

>  <SCORE.INTER.ROT>
5

>  <SCORE.INTER.SOLV>
19.267

>  <SCORE.INTER.VDW>
-16.7499

>  <SCORE.INTER.norm>
-0.509133

>  <SCORE.INTRA>
-1.83749

>  <SCORE.INTRA.DIHEDRAL>
-3.81272

>  <SCORE.INTRA.DIHEDRAL.0>
6.00299

>  <SCORE.INTRA.POLAR>
0

>  <SCORE.INTRA.POLAR.0>
0

>  <SCORE.INTRA.REPUL>
0

>  <SCORE.INTRA.REPUL.0>
0

>  <SCORE.INTRA.SOLV>
0.873776

>  <SCORE.INTRA.SOLV.lig_0>
-39.3257

>  <SCORE.INTRA.VDW>
-0.36802

>  <SCORE.INTRA.VDW.0>
-0.734044

>  <SCORE.INTRA.norm>
-0.183749

>  <SCORE.RESTR>
0

>  <SCORE.RESTR.CAVITY>
0

>  <SCORE.RESTR.norm>
0

>  <SCORE.SYSTEM>
0

>  <SCORE.SYSTEM.CONST>
0

>  <SCORE.SYSTEM.DIHEDRAL>
0

>  <SCORE.SYSTEM.SOLV>
0

>  <SCORE.SYSTEM.norm>
0

>  <SCORE.heavy>
10

>  <SCORE.norm>
-0.692883

>  <RMSD>
4.978

$$$$
ligand
 OpenBabel11021811473D
libRbt.so/2013.1/901 2013/11/27
 10  9  0  0  0  0  0  0  0  0999 V2000
   28.2865   14.5647   19.3052 N   0  0  0  0  0  0  0  0  0  0  0  0
   28.5906   14.7717   20.7089 C   0  0  2  0  0  0  0  0  0  0  0  0
   27.3471   15.1434   21.4716 C   0  0  0  0  0  0  0  0  0  0  0  0
   26.2321   15.0516   20.9001 O   0  0  0  0  0  0  0  0  0  0  0  0
   29.6433   15.8635   20.8440 C   0  0  0  0  0  0  0  0  0  0  0  0
   29.9550   16.0329   22.2245 O   0  0  0  0  0  0  0  0  0  0  0  0
   30.8955   17.1017   22.3291 C   0  0  0  0  0  0  0  0  0  0  0  0
   32.3020   16.5085   22.2842 C   0  0  0  0  0  0  0  0  0  0  0  0
   32.5419   15.8917   20.9912 N   0  0  0  0  0  0  0  0  0  0  0  0
   27.4195   15.0498   22.7134 O   0  0  0  0  0  0  0  0  0  0  0  0
  2  1  1  6  0  0  0
  2  5  1  0  0  0  0
  2  3  1  0  0  0  0
  3  4  1  0  0  0  0
  3 10  1  0  0  0  0
  5  6  1  0  0  0  0
  6  7  1  0  0  0  0
  7  8  1  0  0  0  0
  8  9  1  0  0  0  0
M  END
>  <CHROM.1>
-178.61431556,9.62600967,-177.35281023,-91.98979506,64.63545248,29.28030103
15.59798346,21.40494454,-2.88981200,0.22758954,1.20181105

>  <Name>
ligand

>  <RI>
0

>  <Rbt.Current_Directory>
/home/itssahil/PROJECTS/Mol_Feturizer/New_Systems/rnas/3DJ0

>  <Rbt.Executable>
rbdock ($Id: //depot/dev/client3/rdock/2013.1/src/exe/rbdock.cxx#4 $)

>  <Rbt.Library>
libRbt.so (2013.1, Build901 2013/11/27)

>  <Rbt.Parameter_File>
/export/apps/rDock/src/rDock_2013.1_src/data/scripts/dock_solv.prm

>  <Rbt.Receptor>
prm/pocket_docking_7.prm

>  <SCORE>
-4.55253

>  <SCORE.INTER>
-6.52626

>  <SCORE.INTER.CONST>
1

>  <SCORE.INTER.POLAR>
0

>  <SCORE.INTER.ROT>
5

>  <SCORE.INTER.SOLV>
17.4447

>  <SCORE.INTER.VDW>
-17.0991

>  <SCORE.INTER.norm>
-0.652626

>  <SCORE.INTRA>
1.97373

>  <SCORE.INTRA.DIHEDRAL>
0.897328

>  <SCORE.INTRA.DIHEDRAL.0>
6.00299

>  <SCORE.INTRA.POLAR>
0

>  <SCORE.INTRA.POLAR.0>
0

>  <SCORE.INTRA.REPUL>
0

>  <SCORE.INTRA.REPUL.0>
0

>  <SCORE.INTRA.SOLV>
1.18903

>  <SCORE.INTRA.SOLV.lig_0>
-39.3257

>  <SCORE.INTRA.VDW>
0.930554

>  <SCORE.INTRA.VDW.0>
-0.734044

>  <SCORE.INTRA.norm>
0.197373

>  <SCORE.RESTR>
0

>  <SCORE.RESTR.CAVITY>
0

>  <SCORE.RESTR.norm>
0

>  <SCORE.SYSTEM>
0

>  <SCORE.SYSTEM.CONST>
0

>  <SCORE.SYSTEM.DIHEDRAL>
0

>  <SCORE.SYSTEM.SOLV>
0

>  <SCORE.SYSTEM.norm>
0

>  <SCORE.heavy>
10

>  <SCORE.norm>
-0.455253

>  <RMSD>
5.006

$$$$
ligand
 OpenBabel11021811473D
libRbt.so/2013.1/901 2013/11/27
 10  9  0  0  0  0  0  0  0  0999 V2000
   29.1381   14.2318   19.7818 N   0  0  0  0  0  0  0  0  0  0  0  0
   28.3655   14.3376   21.0055 C   0  0  2  0  0  0  0  0  0  0  0  0
   27.3353   15.4291   20.8893 C   0  0  0  0  0  0  0  0  0  0  0  0
   27.5906   16.4344   20.1805 O   0  0  0  0  0  0  0  0  0  0  0  0
   29.3018   14.6128   22.1742 C   0  0  0  0  0  0  0  0  0  0  0  0
   30.1087   15.7450   21.8599 O   0  0  0  0  0  0  0  0  0  0  0  0
   31.0766   15.8900   22.8991 C   0  0  0  0  0  0  0  0  0  0  0  0
   31.9918   17.0592   22.5419 C   0  0  0  0  0  0  0  0  0  0  0  0
   32.7438   16.7535   21.3372 N   0  0  0  0  0  0  0  0  0  0  0  0
   26.1511   15.0849   21.0774 O   0  0  0  0  0  0  0  0  0  0  0  0
  2  1  1  6  0  0  0
  2  5  1  0  0  0  0
  2  3  1  0  0  0  0
  3  4  1  0  0  0  0
  3 10  1  0  0  0  0
  5  6  1  0  0  0  0
  6  7  1  0  0  0  0
  7  8  1  0  0  0  0
  8  9  1  0  0  0  0
M  END
>  <CHROM.1>
53.02724389,-31.72193636,-173.54600970,177.30355434,-64.65235628,29.34255488
15.57537276,21.36710526,-2.96106167,-0.35549362,-0.27508489

>  <Name>
ligand

>  <RI>
0

>  <Rbt.Current_Directory>
/home/itssahil/PROJECTS/Mol_Feturizer/New_Systems/rnas/3DJ0

>  <Rbt.Executable>
rbdock ($Id: //depot/dev/client3/rdock/2013.1/src/exe/rbdock.cxx#4 $)

>  <Rbt.Library>
libRbt.so (2013.1, Build901 2013/11/27)

>  <Rbt.Parameter_File>
/export/apps/rDock/src/rDock_2013.1_src/data/scripts/dock_solv.prm

>  <Rbt.Receptor>
prm/pocket_docking_5.prm

>  <SCORE>
-7.49393

>  <SCORE.INTER>
-5.89683

>  <SCORE.INTER.CONST>
1

>  <SCORE.INTER.POLAR>
0

>  <SCORE.INTER.ROT>
5

>  <SCORE.INTER.SOLV>
17.7542

>  <SCORE.INTER.VDW>
-16.7826

>  <SCORE.INTER.norm>
-0.589683

>  <SCORE.INTRA>
-1.5971

>  <SCORE.INTRA.DIHEDRAL>
-3.3695

>  <SCORE.INTRA.DIHEDRAL.0>
6.00299

>  <SCORE.INTRA.POLAR>
0

>  <SCORE.INTRA.POLAR.0>
0

>  <SCORE.INTRA.REPUL>
0

>  <SCORE.INTRA.REPUL.0>
0

>  <SCORE.INTRA.SOLV>
0.850602

>  <SCORE.INTRA.SOLV.lig_0>
-39.3257

>  <SCORE.INTRA.VDW>
-0.337646

>  <SCORE.INTRA.VDW.0>
-0.734044

>  <SCORE.INTRA.norm>
-0.15971

>  <SCORE.RESTR>
0

>  <SCORE.RESTR.CAVITY>
0

>  <SCORE.RESTR.norm>
0

>  <SCORE.SYSTEM>
0

>  <SCORE.SYSTEM.CONST>
0

>  <SCORE.SYSTEM.DIHEDRAL>
0

>  <SCORE.SYSTEM.SOLV>
0

>  <SCORE.SYSTEM.norm>
0

>  <SCORE.heavy>
10

>  <SCORE.norm>
-0.749393

>  <RMSD>
5.013

$$$$
ligand
 OpenBabel11021811473D
libRbt.so/2013.1/901 2013/11/27
 10  9  0  0  0  0  0  0  0  0999 V2000
   26.3364   14.7100   21.3926 N   0  0  0  0  0  0  0  0  0  0  0  0
   27.5146   15.5413   21.2304 C   0  0  2  0  0  0  0  0  0  0  0  0
   27.9940   15.5090   19.8038 C   0  0  0  0  0  0  0  0  0  0  0  0
   28.6953   16.4593   19.3755 O   0  0  0  0  0  0  0  0  0  0  0  0
   28.6102   15.0570   22.1703 C   0  0  0  0  0  0  0  0  0  0  0  0
   29.7285   15.9344   22.0633 O   0  0  0  0  0  0  0  0  0  0  0  0
   30.7472   15.2519   21.3326 C   0  0  0  0  0  0  0  0  0  0  0  0
   31.8829   16.2359   21.0605 C   0  0  0  0  0  0  0  0  0  0  0  0
   32.4009   16.7580   22.3132 N   0  0  0  0  0  0  0  0  0  0  0  0
   28.0963   14.3781   19.2873 O   0  0  0  0  0  0  0  0  0  0  0  0
  2  1  1  6  0  0  0
  2  5  1  0  0  0  0
  2  3  1  0  0  0  0
  3  4  1  0  0  0  0
  3 10  1  0  0  0  0
  5  6  1  0  0  0  0
  6  7  1  0  0  0  0
  7  8  1  0  0  0  0
  8  9  1  0  0  0  0
M  END
>  <CHROM.1>
-176.26325026,157.07719917,-106.19952933,173.11860391,58.46074090,29.20600320
15.58454747,20.97825990,2.87499791,-0.29918124,-1.50099820

>  <Name>
ligand

>  <RI>
0

>  <Rbt.Current_Directory>
/home/itssahil/PROJECTS/Mol_Feturizer/New_Systems/rnas/3DJ0

>  <Rbt.Executable>
rbdock ($Id: //depot/dev/client3/rdock/2013.1/src/exe/rbdock.cxx#4 $)

>  <Rbt.Library>
libRbt.so (2013.1, Build901 2013/11/27)

>  <Rbt.Parameter_File>
/export/apps/rDock/src/rDock_2013.1_src/data/scripts/dock_solv.prm

>  <Rbt.Receptor>
prm/pocket_docking_8.prm

>  <SCORE>
-4.12735

>  <SCORE.INTER>
-5.99296

>  <SCORE.INTER.CONST>
1

>  <SCORE.INTER.POLAR>
0

>  <SCORE.INTER.ROT>
5

>  <SCORE.INTER.SOLV>
19.4478

>  <SCORE.INTER.VDW>
-17.4112

>  <SCORE.INTER.norm>
-0.599296

>  <SCORE.INTRA>
1.86561

>  <SCORE.INTRA.DIHEDRAL>
3.10795

>  <SCORE.INTRA.DIHEDRAL.0>
6.00299

>  <SCORE.INTRA.POLAR>
0

>  <SCORE.INTRA.POLAR.0>
0

>  <SCORE.INTRA.REPUL>
0

>  <SCORE.INTRA.REPUL.0>
0

>  <SCORE.INTRA.SOLV>
0.586891

>  <SCORE.INTRA.SOLV.lig_0>
-39.3257

>  <SCORE.INTRA.VDW>
0.0181866

>  <SCORE.INTRA.VDW.0>
-0.734044

>  <SCORE.INTRA.norm>
0.186561

>  <SCORE.RESTR>
0

>  <SCORE.RESTR.CAVITY>
0

>  <SCORE.RESTR.norm>
0

>  <SCORE.SYSTEM>
0

>  <SCORE.SYSTEM.CONST>
0

>  <SCORE.SYSTEM.DIHEDRAL>
0

>  <SCORE.SYSTEM.SOLV>
0

>  <SCORE.SYSTEM.norm>
0

>  <SCORE.heavy>
10

>  <SCORE.norm>
-0.412735

>  <RMSD>
5.022

$$$$
ligand
 OpenBabel11021811473D
libRbt.so/2013.1/901 2013/11/27
 10  9  0  0  0  0  0  0  0  0999 V2000
   26.6007   14.7524   21.7891 N   0  0  0  0  0  0  0  0  0  0  0  0
   27.8698   15.4161   21.5563 C   0  0  2  0  0  0  0  0  0  0  0  0
   28.1064   15.6058   20.0818 C   0  0  0  0  0  0  0  0  0  0  0  0
   27.5313   14.8393   19.2693 O   0  0  0  0  0  0  0  0  0  0  0  0
   28.9929   14.5935   22.1732 C   0  0  0  0  0  0  0  0  0  0  0  0
   30.2398   15.2065   21.8550 O   0  0  0  0  0  0  0  0  0  0  0  0
   30.3793   16.3614   22.6823 C   0  0  0  0  0  0  0  0  0  0  0  0
   31.5848   17.1600   22.1912 C   0  0  0  0  0  0  0  0  0  0  0  0
   32.7834   16.3418   22.2529 N   0  0  0  0  0  0  0  0  0  0  0  0
   28.4393   16.7539   19.7252 O   0  0  0  0  0  0  0  0  0  0  0  0
  2  1  1  6  0  0  0
  2  5  1  0  0  0  0
  2  3  1  0  0  0  0
  3  4  1  0  0  0  0
  3 10  1  0  0  0  0
  5  6  1  0  0  0  0
  6  7  1  0  0  0  0
  7  8  1  0  0  0  0
  8  9  1  0  0  0  0
M  END
>  <CHROM.1>
175.89890961,-24.25473689,75.34397463,-170.36995470,-59.08946497,29.24915294
15.70156247,21.32085975,2.89571574,-0.42715086,-1.12867496

>  <Name>
ligand

>  <RI>
0

>  <Rbt.Current_Directory>
/home/itssahil/PROJECTS/Mol_Feturizer/New_Systems/rnas/3DJ0

>  <Rbt.Executable>
rbdock ($Id: //depot/dev/client3/rdock/2013.1/src/exe/rbdock.cxx#4 $)

>  <Rbt.Library>
libRbt.so (2013.1, Build901 2013/11/27)

>  <Rbt.Parameter_File>
/export/apps/rDock/src/rDock_2013.1_src/data/scripts/dock_solv.prm

>  <Rbt.Receptor>
prm/pocket_docking_3.prm

>  <SCORE>
-5.18822

>  <SCORE.INTER>
-5.185

>  <SCORE.INTER.CONST>
1

>  <SCORE.INTER.POLAR>
0

>  <SCORE.INTER.ROT>
5

>  <SCORE.INTER.SOLV>
21.0304

>  <SCORE.INTER.VDW>
-17.4001

>  <SCORE.INTER.norm>
-0.5185

>  <SCORE.INTRA>
-0.00322782

>  <SCORE.INTRA.DIHEDRAL>
-2.11757

>  <SCORE.INTRA.DIHEDRAL.0>
6.00299

>  <SCORE.INTRA.POLAR>
0

>  <SCORE.INTRA.POLAR.0>
0

>  <SCORE.INTRA.REPUL>
0

>  <SCORE.INTRA.REPUL.0>
0

>  <SCORE.INTRA.SOLV>
0.477477

>  <SCORE.INTRA.SOLV.lig_0>
-39.3257

>  <SCORE.INTRA.VDW>
0.816818

>  <SCORE.INTRA.VDW.0>
-0.734044

>  <SCORE.INTRA.norm>
-0.000322782

>  <SCORE.RESTR>
0

>  <SCORE.RESTR.CAVITY>
0

>  <SCORE.RESTR.norm>
0

>  <SCORE.SYSTEM>
0

>  <SCORE.SYSTEM.CONST>
0

>  <SCORE.SYSTEM.DIHEDRAL>
0

>  <SCORE.SYSTEM.SOLV>
0

>  <SCORE.SYSTEM.norm>
0

>  <SCORE.heavy>
10

>  <SCORE.norm>
-0.518822

>  <RMSD>
5.023

$$$$
ligand
 OpenBabel11021811473D
libRbt.so/2013.1/901 2013/11/27
 10  9  0  0  0  0  0  0  0  0999 V2000
   27.4520   15.8947   20.0354 N   0  0  0  0  0  0  0  0  0  0  0  0
   28.6557   15.4574   20.7174 C   0  0  2  0  0  0  0  0  0  0  0  0
   28.3092   14.7039   21.9738 C   0  0  0  0  0  0  0  0  0  0  0  0
   29.2254   14.1232   22.6076 O   0  0  0  0  0  0  0  0  0  0  0  0
   29.5210   16.6668   21.0446 C   0  0  0  0  0  0  0  0  0  0  0  0
   30.7667   16.2127   21.5677 O   0  0  0  0  0  0  0  0  0  0  0  0
   31.5304   17.3629   21.9301 C   0  0  0  0  0  0  0  0  0  0  0  0
   32.8735   16.8916   22.4836 C   0  0  0  0  0  0  0  0  0  0  0  0
   33.6828   18.0349   22.8683 N   0  0  0  0  0  0  0  0  0  0  0  0
   27.2818   15.0819   22.5718 O   0  0  0  0  0  0  0  0  0  0  0  0
  2  1  1  1  0  0  0
  2  5  1  0  0  0  0
  2  3  1  0  0  0  0
  3  4  1  0  0  0  0
  3 10  1  0  0  0  0
  5  6  1  0  0  0  0
  6  7  1  0  0  0  0
  7  8  1  0  0  0  0
  8  9  1  0  0  0  0
M  END
>  <CHROM.1>
-173.14558296,172.01731866,-177.05594020,-179.59983505,-179.87454234,29.91547297
16.01908495,21.80547662,2.98786471,0.44428359,2.29356565

>  <Name>
ligand

>  <RI>
0

>  <Rbt.Current_Directory>
/home/itssahil/PROJECTS/Mol_Feturizer/New_Systems/rnas/3DJ0

>  <Rbt.Executable>
rbdock ($Id: //depot/dev/client3/rdock/2013.1/src/exe/rbdock.cxx#4 $)

>  <Rbt.Library>
libRbt.so (2013.1, Build901 2013/11/27)

>  <Rbt.Parameter_File>
/export/apps/rDock/src/rDock_2013.1_src/data/scripts/dock_solv.prm

>  <Rbt.Receptor>
prm/blind_docking_60.prm

>  <SCORE>
-6.64736

>  <SCORE.INTER>
-4.27955

>  <SCORE.INTER.CONST>
1

>  <SCORE.INTER.POLAR>
0

>  <SCORE.INTER.ROT>
5

>  <SCORE.INTER.SOLV>
20.4629

>  <SCORE.INTER.VDW>
-16.6073

>  <SCORE.INTER.norm>
-0.427955

>  <SCORE.INTRA>
-2.36781

>  <SCORE.INTRA.DIHEDRAL>
-3.56999

>  <SCORE.INTRA.DIHEDRAL.0>
6.00299

>  <SCORE.INTRA.POLAR>
0

>  <SCORE.INTRA.POLAR.0>
0

>  <SCORE.INTRA.REPUL>
0

>  <SCORE.INTRA.REPUL.0>
0

>  <SCORE.INTRA.SOLV>
-1.17016

>  <SCORE.INTRA.SOLV.lig_0>
-39.3257

>  <SCORE.INTRA.VDW>
0.00226878

>  <SCORE.INTRA.VDW.0>
-0.734044

>  <SCORE.INTRA.norm>
-0.236781

>  <SCORE.RESTR>
0

>  <SCORE.RESTR.CAVITY>
0

>  <SCORE.RESTR.norm>
0

>  <SCORE.SYSTEM>
0

>  <SCORE.SYSTEM.CONST>
0

>  <SCORE.SYSTEM.DIHEDRAL>
0

>  <SCORE.SYSTEM.SOLV>
0

>  <SCORE.SYSTEM.norm>
0

>  <SCORE.heavy>
10

>  <SCORE.norm>
-0.664736

>  <RMSD>
5.041

$$$$
ligand
 OpenBabel11021811473D
libRbt.so/2013.1/901 2013/11/27
 10  9  0  0  0  0  0  0  0  0999 V2000
   27.4479   15.9076   20.0751 N   0  0  0  0  0  0  0  0  0  0  0  0
   28.6558   15.4737   20.7519 C   0  0  2  0  0  0  0  0  0  0  0  0
   28.3167   14.7023   21.9993 C   0  0  0  0  0  0  0  0  0  0  0  0
   29.2394   14.1288   22.6302 O   0  0  0  0  0  0  0  0  0  0  0  0
   29.5098   16.6872   21.0931 C   0  0  0  0  0  0  0  0  0  0  0  0
   30.7623   16.2387   21.6045 O   0  0  0  0  0  0  0  0  0  0  0  0
   31.5150   17.3914   21.9818 C   0  0  0  0  0  0  0  0  0  0  0  0
   32.8930   16.9312   22.4525 C   0  0  0  0  0  0  0  0  0  0  0  0
   33.6978   18.0784   22.8351 N   0  0  0  0  0  0  0  0  0  0  0  0
   27.2819   15.0588   22.5977 O   0  0  0  0  0  0  0  0  0  0  0  0
  2  1  1  1  0  0  0
  2  5  1  0  0  0  0
  2  3  1  0  0  0  0
  3  4  1  0  0  0  0
  3 10  1  0  0  0  0
  5  6  1  0  0  0  0
  6  7  1  0  0  0  0
  7  8  1  0  0  0  0
  8  9  1  0  0  0  0
M  END
>  <CHROM.1>
-172.85742603,172.39786958,-176.99660923,-176.60063579,179.46858408,29.91761853
16.03547544,21.82772057,2.96849780,0.44083954,2.31162740

>  <Name>
ligand

>  <RI>
0

>  <Rbt.Current_Directory>
/home/itssahil/PROJECTS/Mol_Feturizer/New_Systems/rnas/3DJ0

>  <Rbt.Executable>
rbdock ($Id: //depot/dev/client3/rdock/2013.1/src/exe/rbdock.cxx#4 $)

>  <Rbt.Library>
libRbt.so (2013.1, Build901 2013/11/27)

>  <Rbt.Parameter_File>
/export/apps/rDock/src/rDock_2013.1_src/data/scripts/dock_solv.prm

>  <Rbt.Receptor>
prm/pocket_docking_5.prm

>  <SCORE>
-6.6195

>  <SCORE.INTER>
-4.28737

>  <SCORE.INTER.CONST>
1

>  <SCORE.INTER.POLAR>
0

>  <SCORE.INTER.ROT>
5

>  <SCORE.INTER.SOLV>
20.5012

>  <SCORE.INTER.VDW>
-16.6253

>  <SCORE.INTER.norm>
-0.428737

>  <SCORE.INTRA>
-2.33213

>  <SCORE.INTRA.DIHEDRAL>
-3.50364

>  <SCORE.INTRA.DIHEDRAL.0>
6.00299

>  <SCORE.INTRA.POLAR>
0

>  <SCORE.INTRA.POLAR.0>
0

>  <SCORE.INTRA.REPUL>
0

>  <SCORE.INTRA.REPUL.0>
0

>  <SCORE.INTRA.SOLV>
-1.17357

>  <SCORE.INTRA.SOLV.lig_0>
-39.3257

>  <SCORE.INTRA.VDW>
0.00647084

>  <SCORE.INTRA.VDW.0>
-0.734044

>  <SCORE.INTRA.norm>
-0.233213

>  <SCORE.RESTR>
0

>  <SCORE.RESTR.CAVITY>
0

>  <SCORE.RESTR.norm>
0

>  <SCORE.SYSTEM>
0

>  <SCORE.SYSTEM.CONST>
0

>  <SCORE.SYSTEM.DIHEDRAL>
0

>  <SCORE.SYSTEM.SOLV>
0

>  <SCORE.SYSTEM.norm>
0

>  <SCORE.heavy>
10

>  <SCORE.norm>
-0.66195

>  <RMSD>
5.046

$$$$
ligand
 OpenBabel11021811473D
libRbt.so/2013.1/901 2013/11/27
 10  9  0  0  0  0  0  0  0  0999 V2000
   29.1152   14.5557   19.5676 N   0  0  0  0  0  0  0  0  0  0  0  0
   28.7661   15.2307   20.8037 C   0  0  2  0  0  0  0  0  0  0  0  0
   27.3299   14.9628   21.1668 C   0  0  0  0  0  0  0  0  0  0  0  0
   27.0116   14.8923   22.3801 O   0  0  0  0  0  0  0  0  0  0  0  0
   29.0052   16.7265   20.6498 C   0  0  0  0  0  0  0  0  0  0  0  0
   30.4092   16.9714   20.6644 O   0  0  0  0  0  0  0  0  0  0  0  0
   30.8606   16.8293   22.0111 C   0  0  0  0  0  0  0  0  0  0  0  0
   32.3569   17.1324   22.0497 C   0  0  0  0  0  0  0  0  0  0  0  0
   33.0720   16.2257   21.1684 N   0  0  0  0  0  0  0  0  0  0  0  0
   26.4797   15.3016   20.3192 O   0  0  0  0  0  0  0  0  0  0  0  0
  2  1  1  6  0  0  0
  2  5  1  0  0  0  0
  2  3  1  0  0  0  0
  3  4  1  0  0  0  0
  3 10  1  0  0  0  0
  5  6  1  0  0  0  0
  6  7  1  0  0  0  0
  7  8  1  0  0  0  0
  8  9  1  0  0  0  0
M  END
>  <CHROM.1>
-73.34947259,147.04047548,-74.46084024,-178.23655455,-58.77582448,29.39913857
15.88734207,21.08135473,-2.93854554,0.28011077,1.21509801

>  <Name>
ligand

>  <RI>
0

>  <Rbt.Current_Directory>
/home/itssahil/PROJECTS/Mol_Feturizer/New_Systems/rnas/3DJ0

>  <Rbt.Executable>
rbdock ($Id: //depot/dev/client3/rdock/2013.1/src/exe/rbdock.cxx#4 $)

>  <Rbt.Library>
libRbt.so (2013.1, Build901 2013/11/27)

>  <Rbt.Parameter_File>
/export/apps/rDock/src/rDock_2013.1_src/data/scripts/dock_solv.prm

>  <Rbt.Receptor>
prm/pocket_docking_6.prm

>  <SCORE>
-5.50441

>  <SCORE.INTER>
-5.90088

>  <SCORE.INTER.CONST>
1

>  <SCORE.INTER.POLAR>
0

>  <SCORE.INTER.ROT>
5

>  <SCORE.INTER.SOLV>
18.2058

>  <SCORE.INTER.VDW>
-16.9359

>  <SCORE.INTER.norm>
-0.590088

>  <SCORE.INTRA>
0.39647

>  <SCORE.INTRA.DIHEDRAL>
-1.69505

>  <SCORE.INTRA.DIHEDRAL.0>
6.00299

>  <SCORE.INTRA.POLAR>
0

>  <SCORE.INTRA.POLAR.0>
0

>  <SCORE.INTRA.REPUL>
0

>  <SCORE.INTRA.REPUL.0>
0

>  <SCORE.INTRA.SOLV>
0.688579

>  <SCORE.INTRA.SOLV.lig_0>
-39.3257

>  <SCORE.INTRA.VDW>
0.899706

>  <SCORE.INTRA.VDW.0>
-0.734044

>  <SCORE.INTRA.norm>
0.039647

>  <SCORE.RESTR>
0

>  <SCORE.RESTR.CAVITY>
0

>  <SCORE.RESTR.norm>
0

>  <SCORE.SYSTEM>
0

>  <SCORE.SYSTEM.CONST>
0

>  <SCORE.SYSTEM.DIHEDRAL>
0

>  <SCORE.SYSTEM.SOLV>
0

>  <SCORE.SYSTEM.norm>
0

>  <SCORE.heavy>
10

>  <SCORE.norm>
-0.550441

>  <RMSD>
5.063

$$$$
ligand
 OpenBabel11021811473D
libRbt.so/2013.1/901 2013/11/27
 10  9  0  0  0  0  0  0  0  0999 V2000
   29.0552   14.2671   19.9065 N   0  0  0  0  0  0  0  0  0  0  0  0
   28.3126   14.3344   21.1512 C   0  0  2  0  0  0  0  0  0  0  0  0
   27.1664   15.3032   21.0331 C   0  0  0  0  0  0  0  0  0  0  0  0
   27.2734   16.2805   20.2509 O   0  0  0  0  0  0  0  0  0  0  0  0
   29.2478   14.7525   22.2777 C   0  0  0  0  0  0  0  0  0  0  0  0
   29.9880   15.8967   21.8598 O   0  0  0  0  0  0  0  0  0  0  0  0
   30.8793   16.2474   22.9182 C   0  0  0  0  0  0  0  0  0  0  0  0
   31.7894   17.3707   22.4261 C   0  0  0  0  0  0  0  0  0  0  0  0
   32.5962   16.9061   21.3111 N   0  0  0  0  0  0  0  0  0  0  0  0
   26.0380   14.8513   21.3137 O   0  0  0  0  0  0  0  0  0  0  0  0
  2  1  1  6  0  0  0
  2  5  1  0  0  0  0
  2  3  1  0  0  0  0
  3  4  1  0  0  0  0
  3 10  1  0  0  0  0
  5  6  1  0  0  0  0
  6  7  1  0  0  0  0
  7  8  1  0  0  0  0
  8  9  1  0  0  0  0
M  END
>  <CHROM.1>
48.84199028,-29.53336363,-178.56378652,173.64031391,-62.73270333,29.19482414
15.63448133,21.43754212,-2.74966410,0.16494690,0.99207382

>  <Name>
ligand

>  <RI>
0

>  <Rbt.Current_Directory>
/home/itssahil/PROJECTS/Mol_Feturizer/New_Systems/rnas/3DJ0

>  <Rbt.Executable>
rbdock ($Id: //depot/dev/client3/rdock/2013.1/src/exe/rbdock.cxx#4 $)

>  <Rbt.Library>
libRbt.so (2013.1, Build901 2013/11/27)

>  <Rbt.Parameter_File>
/export/apps/rDock/src/rDock_2013.1_src/data/scripts/dock_solv.prm

>  <Rbt.Receptor>
prm/pocket_docking_4.prm

>  <SCORE>
-7.55353

>  <SCORE.INTER>
-6.08785

>  <SCORE.INTER.CONST>
1

>  <SCORE.INTER.POLAR>
0

>  <SCORE.INTER.ROT>
5

>  <SCORE.INTER.SOLV>
17.7732

>  <SCORE.INTER.VDW>
-16.9163

>  <SCORE.INTER.norm>
-0.608785

>  <SCORE.INTRA>
-1.46568

>  <SCORE.INTRA.DIHEDRAL>
-3.1585

>  <SCORE.INTRA.DIHEDRAL.0>
6.00299

>  <SCORE.INTRA.POLAR>
0

>  <SCORE.INTRA.POLAR.0>
0

>  <SCORE.INTRA.REPUL>
0

>  <SCORE.INTRA.REPUL.0>
0

>  <SCORE.INTRA.SOLV>
0.884787

>  <SCORE.INTRA.SOLV.lig_0>
-39.3257

>  <SCORE.INTRA.VDW>
-0.32882

>  <SCORE.INTRA.VDW.0>
-0.734044

>  <SCORE.INTRA.norm>
-0.146568

>  <SCORE.RESTR>
0

>  <SCORE.RESTR.CAVITY>
0

>  <SCORE.RESTR.norm>
0

>  <SCORE.SYSTEM>
0

>  <SCORE.SYSTEM.CONST>
0

>  <SCORE.SYSTEM.DIHEDRAL>
0

>  <SCORE.SYSTEM.SOLV>
0

>  <SCORE.SYSTEM.norm>
0

>  <SCORE.heavy>
10

>  <SCORE.norm>
-0.755353

>  <RMSD>
5.083

$$$$
ligand
 OpenBabel11021811473D
libRbt.so/2013.1/901 2013/11/27
 10  9  0  0  0  0  0  0  0  0999 V2000
   27.6474   14.9246   19.1124 N   0  0  0  0  0  0  0  0  0  0  0  0
   28.3738   15.2232   20.3325 C   0  0  2  0  0  0  0  0  0  0  0  0
   27.4901   15.0319   21.5361 C   0  0  0  0  0  0  0  0  0  0  0  0
   26.2610   14.8366   21.3641 O   0  0  0  0  0  0  0  0  0  0  0  0
   28.8929   16.6535   20.2764 C   0  0  0  0  0  0  0  0  0  0  0  0
   29.7595   16.8718   21.3868 O   0  0  0  0  0  0  0  0  0  0  0  0
   30.9796   16.1775   21.1283 C   0  0  0  0  0  0  0  0  0  0  0  0
   31.8752   16.3078   22.3584 C   0  0  0  0  0  0  0  0  0  0  0  0
   32.2254   17.7008   22.5747 N   0  0  0  0  0  0  0  0  0  0  0  0
   28.0512   14.5990   22.5626 O   0  0  0  0  0  0  0  0  0  0  0  0
  2  1  1  6  0  0  0
  2  5  1  0  0  0  0
  2  3  1  0  0  0  0
  3  4  1  0  0  0  0
  3 10  1  0  0  0  0
  5  6  1  0  0  0  0
  6  7  1  0  0  0  0
  7  8  1  0  0  0  0
  8  9  1  0  0  0  0
M  END
>  <CHROM.1>
-171.86050836,-9.45215767,73.45419255,-175.46751264,-63.70588269,29.12603316
15.82611071,21.28880149,-2.98820549,0.47069207,1.78441689

>  <Name>
ligand

>  <RI>
0

>  <Rbt.Current_Directory>
/home/itssahil/PROJECTS/Mol_Feturizer/New_Systems/rnas/3DJ0

>  <Rbt.Executable>
rbdock ($Id: //depot/dev/client3/rdock/2013.1/src/exe/rbdock.cxx#4 $)

>  <Rbt.Library>
libRbt.so (2013.1, Build901 2013/11/27)

>  <Rbt.Parameter_File>
/export/apps/rDock/src/rDock_2013.1_src/data/scripts/dock_solv.prm

>  <Rbt.Receptor>
prm/pocket_docking_5.prm

>  <SCORE>
-6.55068

>  <SCORE.INTER>
-6.51309

>  <SCORE.INTER.CONST>
1

>  <SCORE.INTER.POLAR>
0

>  <SCORE.INTER.ROT>
5

>  <SCORE.INTER.SOLV>
18.6566

>  <SCORE.INTER.VDW>
-17.4943

>  <SCORE.INTER.norm>
-0.651309

>  <SCORE.INTRA>
-0.0375895

>  <SCORE.INTRA.DIHEDRAL>
-2.17749

>  <SCORE.INTRA.DIHEDRAL.0>
6.00299

>  <SCORE.INTRA.POLAR>
0

>  <SCORE.INTRA.POLAR.0>
0

>  <SCORE.INTRA.REPUL>
0

>  <SCORE.INTRA.REPUL.0>
0

>  <SCORE.INTRA.SOLV>
0.399938

>  <SCORE.INTRA.SOLV.lig_0>
-39.3257

>  <SCORE.INTRA.VDW>
0.851188

>  <SCORE.INTRA.VDW.0>
-0.734044

>  <SCORE.INTRA.norm>
-0.00375895

>  <SCORE.RESTR>
0

>  <SCORE.RESTR.CAVITY>
0

>  <SCORE.RESTR.norm>
0

>  <SCORE.SYSTEM>
0

>  <SCORE.SYSTEM.CONST>
0

>  <SCORE.SYSTEM.DIHEDRAL>
0

>  <SCORE.SYSTEM.SOLV>
0

>  <SCORE.SYSTEM.norm>
0

>  <SCORE.heavy>
10

>  <SCORE.norm>
-0.655068

>  <RMSD>
5.093

$$$$
ligand
 OpenBabel11021811473D
libRbt.so/2013.1/901 2013/11/27
 10  9  0  0  0  0  0  0  0  0999 V2000
   26.2468   14.7783   21.3097 N   0  0  0  0  0  0  0  0  0  0  0  0
   27.4335   15.5830   21.0867 C   0  0  2  0  0  0  0  0  0  0  0  0
   27.8832   15.4788   19.6539 C   0  0  0  0  0  0  0  0  0  0  0  0
   28.6742   16.3427   19.1996 O   0  0  0  0  0  0  0  0  0  0  0  0
   28.5408   15.1246   22.0259 C   0  0  0  0  0  0  0  0  0  0  0  0
   29.6607   15.9934   21.8746 O   0  0  0  0  0  0  0  0  0  0  0  0
   30.6987   15.5164   22.7306 C   0  0  0  0  0  0  0  0  0  0  0  0
   31.9080   16.4361   22.5759 C   0  0  0  0  0  0  0  0  0  0  0  0
   32.3876   16.4026   21.2052 N   0  0  0  0  0  0  0  0  0  0  0  0
   27.8564   14.3359   19.1546 O   0  0  0  0  0  0  0  0  0  0  0  0
  2  1  1  6  0  0  0
  2  5  1  0  0  0  0
  2  3  1  0  0  0  0
  3  4  1  0  0  0  0
  3 10  1  0  0  0  0
  5  6  1  0  0  0  0
  6  7  1  0  0  0  0
  7  8  1  0  0  0  0
  8  9  1  0  0  0  0
M  END
>  <CHROM.1>
-175.22631372,162.58092312,-178.07966592,179.83483442,-61.48374759,29.13312510
15.59842952,21.05028911,2.74988724,-0.29872172,-1.47594989

>  <Name>
ligand

>  <RI>
0

>  <Rbt.Current_Directory>
/home/itssahil/PROJECTS/Mol_Feturizer/New_Systems/rnas/3DJ0

>  <Rbt.Executable>
rbdock ($Id: //depot/dev/client3/rdock/2013.1/src/exe/rbdock.cxx#4 $)

>  <Rbt.Library>
libRbt.so (2013.1, Build901 2013/11/27)

>  <Rbt.Parameter_File>
/export/apps/rDock/src/rDock_2013.1_src/data/scripts/dock_solv.prm

>  <Rbt.Receptor>
prm/pocket_docking_7.prm

>  <SCORE>
-7.5622

>  <SCORE.INTER>
-5.60435

>  <SCORE.INTER.CONST>
1

>  <SCORE.INTER.POLAR>
0

>  <SCORE.INTER.ROT>
5

>  <SCORE.INTER.SOLV>
20.4157

>  <SCORE.INTER.VDW>
-17.4748

>  <SCORE.INTER.norm>
-0.560435

>  <SCORE.INTRA>
-1.95785

>  <SCORE.INTRA.DIHEDRAL>
-3.48657

>  <SCORE.INTRA.DIHEDRAL.0>
6.00299

>  <SCORE.INTRA.POLAR>
0

>  <SCORE.INTRA.POLAR.0>
0

>  <SCORE.INTRA.REPUL>
0

>  <SCORE.INTRA.REPUL.0>
0

>  <SCORE.INTRA.SOLV>
-0.0361695

>  <SCORE.INTRA.SOLV.lig_0>
-39.3257

>  <SCORE.INTRA.VDW>
-0.196474

>  <SCORE.INTRA.VDW.0>
-0.734044

>  <SCORE.INTRA.norm>
-0.195785

>  <SCORE.RESTR>
0

>  <SCORE.RESTR.CAVITY>
0

>  <SCORE.RESTR.norm>
0

>  <SCORE.SYSTEM>
0

>  <SCORE.SYSTEM.CONST>
0

>  <SCORE.SYSTEM.DIHEDRAL>
0

>  <SCORE.SYSTEM.SOLV>
0

>  <SCORE.SYSTEM.norm>
0

>  <SCORE.heavy>
10

>  <SCORE.norm>
-0.75622

>  <RMSD>
5.101

$$$$
ligand
 OpenBabel11021811473D
libRbt.so/2013.1/901 2013/11/27
 10  9  0  0  0  0  0  0  0  0999 V2000
   26.6104   14.8327   21.9153 N   0  0  0  0  0  0  0  0  0  0  0  0
   27.8964   15.3638   21.5035 C   0  0  2  0  0  0  0  0  0  0  0  0
   27.9110   15.6281   20.0216 C   0  0  0  0  0  0  0  0  0  0  0  0
   28.7224   16.4695   19.5612 O   0  0  0  0  0  0  0  0  0  0  0  0
   28.9954   14.3789   21.8785 C   0  0  0  0  0  0  0  0  0  0  0  0
   30.2438   14.8833   21.4110 O   0  0  0  0  0  0  0  0  0  0  0  0
   30.6606   15.9111   22.3097 C   0  0  0  0  0  0  0  0  0  0  0  0
   31.9790   16.4886   21.7992 C   0  0  0  0  0  0  0  0  0  0  0  0
   32.4132   17.5756   22.6594 N   0  0  0  0  0  0  0  0  0  0  0  0
   27.4988   14.7001   19.2970 O   0  0  0  0  0  0  0  0  0  0  0  0
  2  1  1  6  0  0  0
  2  5  1  0  0  0  0
  2  3  1  0  0  0  0
  3  4  1  0  0  0  0
  3 10  1  0  0  0  0
  5  6  1  0  0  0  0
  6  7  1  0  0  0  0
  7  8  1  0  0  0  0
  8  9  1  0  0  0  0
M  END
>  <CHROM.1>
177.23209117,156.51650536,77.32038019,-178.43031479,177.81439145,29.29311119
15.61360402,21.19492087,2.93620732,-0.47021820,-1.16995558

>  <Name>
ligand

>  <RI>
0

>  <Rbt.Current_Directory>
/home/itssahil/PROJECTS/Mol_Feturizer/New_Systems/rnas/3DJ0

>  <Rbt.Executable>
rbdock ($Id: //depot/dev/client3/rdock/2013.1/src/exe/rbdock.cxx#4 $)

>  <Rbt.Library>
libRbt.so (2013.1, Build901 2013/11/27)

>  <Rbt.Parameter_File>
/export/apps/rDock/src/rDock_2013.1_src/data/scripts/dock_solv.prm

>  <Rbt.Receptor>
prm/pocket_docking_8.prm

>  <SCORE>
-6.03357

>  <SCORE.INTER>
-5.51657

>  <SCORE.INTER.CONST>
1

>  <SCORE.INTER.POLAR>
0

>  <SCORE.INTER.ROT>
5

>  <SCORE.INTER.SOLV>
20.3464

>  <SCORE.INTER.VDW>
-17.3932

>  <SCORE.INTER.norm>
-0.551657

>  <SCORE.INTRA>
-0.516993

>  <SCORE.INTRA.DIHEDRAL>
-2.03635

>  <SCORE.INTRA.DIHEDRAL.0>
6.00299

>  <SCORE.INTRA.POLAR>
0

>  <SCORE.INTRA.POLAR.0>
0

>  <SCORE.INTRA.REPUL>
0

>  <SCORE.INTRA.REPUL.0>
0

>  <SCORE.INTRA.SOLV>
-0.578385

>  <SCORE.INTRA.SOLV.lig_0>
-39.3257

>  <SCORE.INTRA.VDW>
0.790373

>  <SCORE.INTRA.VDW.0>
-0.734044

>  <SCORE.INTRA.norm>
-0.0516993

>  <SCORE.RESTR>
0

>  <SCORE.RESTR.CAVITY>
0

>  <SCORE.RESTR.norm>
0

>  <SCORE.SYSTEM>
0

>  <SCORE.SYSTEM.CONST>
0

>  <SCORE.SYSTEM.DIHEDRAL>
0

>  <SCORE.SYSTEM.SOLV>
0

>  <SCORE.SYSTEM.norm>
0

>  <SCORE.heavy>
10

>  <SCORE.norm>
-0.603357

>  <RMSD>
5.102

$$$$
ligand
 OpenBabel11021811473D
libRbt.so/2013.1/901 2013/11/27
 10  9  0  0  0  0  0  0  0  0999 V2000
   26.6253   14.8078   21.9544 N   0  0  0  0  0  0  0  0  0  0  0  0
   27.8988   15.3649   21.5381 C   0  0  2  0  0  0  0  0  0  0  0  0
   27.9037   15.6269   20.0557 C   0  0  0  0  0  0  0  0  0  0  0  0
   28.6905   16.4900   19.5926 O   0  0  0  0  0  0  0  0  0  0  0  0
   29.0191   14.4037   21.9115 C   0  0  0  0  0  0  0  0  0  0  0  0
   30.2543   14.9288   21.4316 O   0  0  0  0  0  0  0  0  0  0  0  0
   30.6711   15.9523   22.3352 C   0  0  0  0  0  0  0  0  0  0  0  0
   31.9835   16.5401   21.8213 C   0  0  0  0  0  0  0  0  0  0  0  0
   32.4044   17.6394   22.6724 N   0  0  0  0  0  0  0  0  0  0  0  0
   27.5166   14.6865   19.3333 O   0  0  0  0  0  0  0  0  0  0  0  0
  2  1  1  6  0  0  0
  2  5  1  0  0  0  0
  2  3  1  0  0  0  0
  3  4  1  0  0  0  0
  3 10  1  0  0  0  0
  5  6  1  0  0  0  0
  6  7  1  0  0  0  0
  7  8  1  0  0  0  0
  8  9  1  0  0  0  0
M  END
>  <CHROM.1>
176.84118090,156.09591107,78.44997563,-179.11314894,176.76444572,29.29662442
15.63464612,21.22383695,2.94695934,-0.48065801,-1.16524705

>  <Name>
ligand

>  <RI>
0

>  <Rbt.Current_Directory>
/home/itssahil/PROJECTS/Mol_Feturizer/New_Systems/rnas/3DJ0

>  <Rbt.Executable>
rbdock ($Id: //depot/dev/client3/rdock/2013.1/src/exe/rbdock.cxx#4 $)

>  <Rbt.Library>
libRbt.so (2013.1, Build901 2013/11/27)

>  <Rbt.Parameter_File>
/export/apps/rDock/src/rDock_2013.1_src/data/scripts/dock_solv.prm

>  <Rbt.Receptor>
prm/pocket_docking_6.prm

>  <SCORE>
-6.04494

>  <SCORE.INTER>
-5.56447

>  <SCORE.INTER.CONST>
1

>  <SCORE.INTER.POLAR>
0

>  <SCORE.INTER.ROT>
5

>  <SCORE.INTER.SOLV>
20.4718

>  <SCORE.INTER.VDW>
-17.4669

>  <SCORE.INTER.norm>
-0.556447

>  <SCORE.INTRA>
-0.480473

>  <SCORE.INTRA.DIHEDRAL>
-1.83531

>  <SCORE.INTRA.DIHEDRAL.0>
6.00299

>  <SCORE.INTRA.POLAR>
0

>  <SCORE.INTRA.POLAR.0>
0

>  <SCORE.INTRA.REPUL>
0

>  <SCORE.INTRA.REPUL.0>
0

>  <SCORE.INTRA.SOLV>
-0.593176

>  <SCORE.INTRA.SOLV.lig_0>
-39.3257

>  <SCORE.INTRA.VDW>
0.733772

>  <SCORE.INTRA.VDW.0>
-0.734044

>  <SCORE.INTRA.norm>
-0.0480473

>  <SCORE.RESTR>
0

>  <SCORE.RESTR.CAVITY>
0

>  <SCORE.RESTR.norm>
0

>  <SCORE.SYSTEM>
0

>  <SCORE.SYSTEM.CONST>
0

>  <SCORE.SYSTEM.DIHEDRAL>
0

>  <SCORE.SYSTEM.SOLV>
0

>  <SCORE.SYSTEM.norm>
0

>  <SCORE.heavy>
10

>  <SCORE.norm>
-0.604494

>  <RMSD>
5.103

$$$$
ligand
 OpenBabel11021811473D
libRbt.so/2013.1/901 2013/11/27
 10  9  0  0  0  0  0  0  0  0999 V2000
   26.2784   14.7038   21.3503 N   0  0  0  0  0  0  0  0  0  0  0  0
   27.4522   15.5254   21.1211 C   0  0  2  0  0  0  0  0  0  0  0  0
   27.8727   15.4584   19.6773 C   0  0  0  0  0  0  0  0  0  0  0  0
   28.6765   16.3176   19.2367 O   0  0  0  0  0  0  0  0  0  0  0  0
   28.5835   15.0572   22.0264 C   0  0  0  0  0  0  0  0  0  0  0  0
   29.7125   15.9041   21.8265 O   0  0  0  0  0  0  0  0  0  0  0  0
   30.7450   15.4665   22.7098 C   0  0  0  0  0  0  0  0  0  0  0  0
   31.9525   16.3835   22.5273 C   0  0  0  0  0  0  0  0  0  0  0  0
   32.4508   16.2863   21.1663 N   0  0  0  0  0  0  0  0  0  0  0  0
   27.8084   14.3339   19.1411 O   0  0  0  0  0  0  0  0  0  0  0  0
  2  1  1  6  0  0  0
  2  5  1  0  0  0  0
  2  3  1  0  0  0  0
  3  4  1  0  0  0  0
  3 10  1  0  0  0  0
  5  6  1  0  0  0  0
  6  7  1  0  0  0  0
  7  8  1  0  0  0  0
  8  9  1  0  0  0  0
M  END
>  <CHROM.1>
-177.85369144,164.65495853,178.52215254,-178.85551285,-61.99347465,29.15674000
15.54336240,21.04623895,2.77054794,-0.29281786,-1.45789145

>  <Name>
ligand

>  <RI>
0

>  <Rbt.Current_Directory>
/home/itssahil/PROJECTS/Mol_Feturizer/New_Systems/rnas/3DJ0

>  <Rbt.Executable>
rbdock ($Id: //depot/dev/client3/rdock/2013.1/src/exe/rbdock.cxx#4 $)

>  <Rbt.Library>
libRbt.so (2013.1, Build901 2013/11/27)

>  <Rbt.Parameter_File>
/export/apps/rDock/src/rDock_2013.1_src/data/scripts/dock_solv.prm

>  <Rbt.Receptor>
prm/pocket_docking_7.prm

>  <SCORE>
-7.52402

>  <SCORE.INTER>
-5.59826

>  <SCORE.INTER.CONST>
1

>  <SCORE.INTER.POLAR>
0

>  <SCORE.INTER.ROT>
5

>  <SCORE.INTER.SOLV>
20.6936

>  <SCORE.INTER.VDW>
-17.5634

>  <SCORE.INTER.norm>
-0.559826

>  <SCORE.INTRA>
-1.92577

>  <SCORE.INTRA.DIHEDRAL>
-3.59076

>  <SCORE.INTRA.DIHEDRAL.0>
6.00299

>  <SCORE.INTRA.POLAR>
0

>  <SCORE.INTRA.POLAR.0>
0

>  <SCORE.INTRA.REPUL>
0

>  <SCORE.INTRA.REPUL.0>
0

>  <SCORE.INTRA.SOLV>
-0.0405927

>  <SCORE.INTRA.SOLV.lig_0>
-39.3257

>  <SCORE.INTRA.VDW>
-0.110089

>  <SCORE.INTRA.VDW.0>
-0.734044

>  <SCORE.INTRA.norm>
-0.192577

>  <SCORE.RESTR>
0

>  <SCORE.RESTR.CAVITY>
0

>  <SCORE.RESTR.norm>
0

>  <SCORE.SYSTEM>
0

>  <SCORE.SYSTEM.CONST>
0

>  <SCORE.SYSTEM.DIHEDRAL>
0

>  <SCORE.SYSTEM.SOLV>
0

>  <SCORE.SYSTEM.norm>
0

>  <SCORE.heavy>
10

>  <SCORE.norm>
-0.752402

>  <RMSD>
5.103

$$$$
ligand
 OpenBabel11021811473D
libRbt.so/2013.1/901 2013/11/27
 10  9  0  0  0  0  0  0  0  0999 V2000
   26.0527   14.9623   21.0280 N   0  0  0  0  0  0  0  0  0  0  0  0
   27.4158   15.4492   21.1300 C   0  0  2  0  0  0  0  0  0  0  0  0
   28.1952   15.1077   19.8883 C   0  0  0  0  0  0  0  0  0  0  0  0
   27.7735   14.1932   19.1370 O   0  0  0  0  0  0  0  0  0  0  0  0
   28.0804   14.8423   22.3582 C   0  0  0  0  0  0  0  0  0  0  0  0
   29.1113   15.7200   22.8039 O   0  0  0  0  0  0  0  0  0  0  0  0
   30.2981   15.3991   22.0786 C   0  0  0  0  0  0  0  0  0  0  0  0
   31.4071   16.3467   22.5306 C   0  0  0  0  0  0  0  0  0  0  0  0
   32.6054   16.1245   21.7402 N   0  0  0  0  0  0  0  0  0  0  0  0
   28.9034   16.0212   19.4192 O   0  0  0  0  0  0  0  0  0  0  0  0
  2  1  1  6  0  0  0
  2  5  1  0  0  0  0
  2  3  1  0  0  0  0
  3  4  1  0  0  0  0
  3 10  1  0  0  0  0
  5  6  1  0  0  0  0
  6  7  1  0  0  0  0
  7  8  1  0  0  0  0
  8  9  1  0  0  0  0
M  END
>  <CHROM.1>
-153.76721203,-19.38826832,-86.47995888,179.14324477,-175.48075085,28.98474385
15.41419809,21.19004204,2.70825287,-0.23008243,-1.65076606

>  <Name>
ligand

>  <RI>
0

>  <Rbt.Current_Directory>
/home/itssahil/PROJECTS/Mol_Feturizer/New_Systems/rnas/3DJ0

>  <Rbt.Executable>
rbdock ($Id: //depot/dev/client3/rdock/2013.1/src/exe/rbdock.cxx#4 $)

>  <Rbt.Library>
libRbt.so (2013.1, Build901 2013/11/27)

>  <Rbt.Parameter_File>
/export/apps/rDock/src/rDock_2013.1_src/data/scripts/dock_solv.prm

>  <Rbt.Receptor>
prm/pocket_docking_2.prm

>  <SCORE>
-4.5924

>  <SCORE.INTER>
-5.55345

>  <SCORE.INTER.CONST>
1

>  <SCORE.INTER.POLAR>
0

>  <SCORE.INTER.ROT>
5

>  <SCORE.INTER.SOLV>
20.7105

>  <SCORE.INTER.VDW>
-17.5391

>  <SCORE.INTER.norm>
-0.555345

>  <SCORE.INTRA>
0.961051

>  <SCORE.INTRA.DIHEDRAL>
1.51904

>  <SCORE.INTRA.DIHEDRAL.0>
6.00299

>  <SCORE.INTRA.POLAR>
0

>  <SCORE.INTRA.POLAR.0>
0

>  <SCORE.INTRA.REPUL>
0

>  <SCORE.INTRA.REPUL.0>
0

>  <SCORE.INTRA.SOLV>
-0.70021

>  <SCORE.INTRA.SOLV.lig_0>
-39.3257

>  <SCORE.INTRA.VDW>
0.551636

>  <SCORE.INTRA.VDW.0>
-0.734044

>  <SCORE.INTRA.norm>
0.0961051

>  <SCORE.RESTR>
0

>  <SCORE.RESTR.CAVITY>
0

>  <SCORE.RESTR.norm>
0

>  <SCORE.SYSTEM>
0

>  <SCORE.SYSTEM.CONST>
0

>  <SCORE.SYSTEM.DIHEDRAL>
0

>  <SCORE.SYSTEM.SOLV>
0

>  <SCORE.SYSTEM.norm>
0

>  <SCORE.heavy>
10

>  <SCORE.norm>
-0.45924

>  <RMSD>
5.106

$$$$
ligand
 OpenBabel11021811473D
libRbt.so/2013.1/901 2013/11/27
 10  9  0  0  0  0  0  0  0  0999 V2000
   26.5786   14.8226   21.9208 N   0  0  0  0  0  0  0  0  0  0  0  0
   27.8677   15.3510   21.5151 C   0  0  2  0  0  0  0  0  0  0  0  0
   27.8899   15.6152   20.0333 C   0  0  0  0  0  0  0  0  0  0  0  0
   28.6997   16.4609   19.5777 O   0  0  0  0  0  0  0  0  0  0  0  0
   28.9628   14.3638   21.8953 C   0  0  0  0  0  0  0  0  0  0  0  0
   30.2120   14.8565   21.4174 O   0  0  0  0  0  0  0  0  0  0  0  0
   30.6509   15.8730   22.3184 C   0  0  0  0  0  0  0  0  0  0  0  0
   31.9770   16.4292   21.8042 C   0  0  0  0  0  0  0  0  0  0  0  0
   32.4307   17.5096   22.6627 N   0  0  0  0  0  0  0  0  0  0  0  0
   27.4870   14.6850   19.3063 O   0  0  0  0  0  0  0  0  0  0  0  0
  2  1  1  6  0  0  0
  2  5  1  0  0  0  0
  2  3  1  0  0  0  0
  3  4  1  0  0  0  0
  3 10  1  0  0  0  0
  5  6  1  0  0  0  0
  6  7  1  0  0  0  0
  7  8  1  0  0  0  0
  8  9  1  0  0  0  0
M  END
>  <CHROM.1>
176.42892184,156.08869995,78.42527572,-178.94825019,177.51533392,29.27555093
15.58732400,21.20441171,2.93419930,-0.45927315,-1.17099201

>  <Name>
ligand

>  <RI>
0

>  <Rbt.Current_Directory>
/home/itssahil/PROJECTS/Mol_Feturizer/New_Systems/rnas/3DJ0

>  <Rbt.Executable>
rbdock ($Id: //depot/dev/client3/rdock/2013.1/src/exe/rbdock.cxx#4 $)

>  <Rbt.Library>
libRbt.so (2013.1, Build901 2013/11/27)

>  <Rbt.Parameter_File>
/export/apps/rDock/src/rDock_2013.1_src/data/scripts/dock_solv.prm

>  <Rbt.Receptor>
prm/blind_docking_60.prm

>  <SCORE>
-6.02507

>  <SCORE.INTER>
-5.55192

>  <SCORE.INTER.CONST>
1

>  <SCORE.INTER.POLAR>
0

>  <SCORE.INTER.ROT>
5

>  <SCORE.INTER.SOLV>
20.4474

>  <SCORE.INTER.VDW>
-17.4504

>  <SCORE.INTER.norm>
-0.555192

>  <SCORE.INTRA>
-0.473148

>  <SCORE.INTRA.DIHEDRAL>
-1.84393

>  <SCORE.INTRA.DIHEDRAL.0>
6.00299

>  <SCORE.INTRA.POLAR>
0

>  <SCORE.INTRA.POLAR.0>
0

>  <SCORE.INTRA.REPUL>
0

>  <SCORE.INTRA.REPUL.0>
0

>  <SCORE.INTRA.SOLV>
-0.587957

>  <SCORE.INTRA.SOLV.lig_0>
-39.3257

>  <SCORE.INTRA.VDW>
0.742796

>  <SCORE.INTRA.VDW.0>
-0.734044

>  <SCORE.INTRA.norm>
-0.0473148

>  <SCORE.RESTR>
0

>  <SCORE.RESTR.CAVITY>
0

>  <SCORE.RESTR.norm>
0

>  <SCORE.SYSTEM>
0

>  <SCORE.SYSTEM.CONST>
0

>  <SCORE.SYSTEM.DIHEDRAL>
0

>  <SCORE.SYSTEM.SOLV>
0

>  <SCORE.SYSTEM.norm>
0

>  <SCORE.heavy>
10

>  <SCORE.norm>
-0.602507

>  <RMSD>
5.110

$$$$
ligand
 OpenBabel11021811473D
libRbt.so/2013.1/901 2013/11/27
 10  9  0  0  0  0  0  0  0  0999 V2000
   28.6432   15.3581   19.6661 N   0  0  0  0  0  0  0  0  0  0  0  0
   28.6881   14.6317   20.9213 C   0  0  2  0  0  0  0  0  0  0  0  0
   27.5994   15.1049   21.8470 C   0  0  0  0  0  0  0  0  0  0  0  0
   26.4037   14.8411   21.5657 O   0  0  0  0  0  0  0  0  0  0  0  0
   30.0540   14.8196   21.5674 C   0  0  0  0  0  0  0  0  0  0  0  0
   30.2794   16.2126   21.7687 O   0  0  0  0  0  0  0  0  0  0  0  0
   31.5770   16.3636   22.3443 C   0  0  0  0  0  0  0  0  0  0  0  0
   31.8600   17.8558   22.5037 C   0  0  0  0  0  0  0  0  0  0  0  0
   33.2079   18.0565   23.0067 N   0  0  0  0  0  0  0  0  0  0  0  0
   27.9334   15.2875   23.0350 O   0  0  0  0  0  0  0  0  0  0  0  0
  2  1  1  6  0  0  0
  2  5  1  0  0  0  0
  2  3  1  0  0  0  0
  3  4  1  0  0  0  0
  3 10  1  0  0  0  0
  5  6  1  0  0  0  0
  6  7  1  0  0  0  0
  7  8  1  0  0  0  0
  8  9  1  0  0  0  0
M  END
>  <CHROM.1>
58.25581850,69.34804324,-178.61661460,177.31567921,-176.31123019,29.58669664
15.84998372,21.84120844,-2.78188657,0.39740034,1.22652420

>  <Name>
ligand

>  <RI>
0

>  <Rbt.Current_Directory>
/home/itssahil/PROJECTS/Mol_Feturizer/New_Systems/rnas/3DJ0

>  <Rbt.Executable>
rbdock ($Id: //depot/dev/client3/rdock/2013.1/src/exe/rbdock.cxx#4 $)

>  <Rbt.Library>
libRbt.so (2013.1, Build901 2013/11/27)

>  <Rbt.Parameter_File>
/export/apps/rDock/src/rDock_2013.1_src/data/scripts/dock_solv.prm

>  <Rbt.Receptor>
prm/pocket_docking_2.prm

>  <SCORE>
-6.75821

>  <SCORE.INTER>
-5.9776

>  <SCORE.INTER.CONST>
1

>  <SCORE.INTER.POLAR>
0

>  <SCORE.INTER.ROT>
5

>  <SCORE.INTER.SOLV>
17.0442

>  <SCORE.INTER.VDW>
-16.5998

>  <SCORE.INTER.norm>
-0.59776

>  <SCORE.INTRA>
-0.780613

>  <SCORE.INTRA.DIHEDRAL>
-3.87868

>  <SCORE.INTRA.DIHEDRAL.0>
6.00299

>  <SCORE.INTRA.POLAR>
0

>  <SCORE.INTRA.POLAR.0>
0

>  <SCORE.INTRA.REPUL>
0

>  <SCORE.INTRA.REPUL.0>
0

>  <SCORE.INTRA.SOLV>
-0.362539

>  <SCORE.INTRA.SOLV.lig_0>
-39.3257

>  <SCORE.INTRA.VDW>
1.34

>  <SCORE.INTRA.VDW.0>
-0.734044

>  <SCORE.INTRA.norm>
-0.0780613

>  <SCORE.RESTR>
0

>  <SCORE.RESTR.CAVITY>
0

>  <SCORE.RESTR.norm>
0

>  <SCORE.SYSTEM>
0

>  <SCORE.SYSTEM.CONST>
0

>  <SCORE.SYSTEM.DIHEDRAL>
0

>  <SCORE.SYSTEM.SOLV>
0

>  <SCORE.SYSTEM.norm>
0

>  <SCORE.heavy>
10

>  <SCORE.norm>
-0.675821

>  <RMSD>
5.112

$$$$
ligand
 OpenBabel11021811473D
libRbt.so/2013.1/901 2013/11/27
 10  9  0  0  0  0  0  0  0  0999 V2000
   28.9641   14.3782   19.5120 N   0  0  0  0  0  0  0  0  0  0  0  0
   28.5359   14.3016   20.8963 C   0  0  2  0  0  0  0  0  0  0  0  0
   27.1869   14.9466   21.0705 C   0  0  0  0  0  0  0  0  0  0  0  0
   26.5839   14.8109   22.1642 O   0  0  0  0  0  0  0  0  0  0  0  0
   29.5687   14.9813   21.7849 C   0  0  0  0  0  0  0  0  0  0  0  0
   29.7199   16.3341   21.3619 O   0  0  0  0  0  0  0  0  0  0  0  0
   30.7662   16.9173   22.1383 C   0  0  0  0  0  0  0  0  0  0  0  0
   32.1039   16.4749   21.5492 C   0  0  0  0  0  0  0  0  0  0  0  0
   33.1985   17.0732   22.2935 N   0  0  0  0  0  0  0  0  0  0  0  0
   26.9614   15.9433   20.3550 O   0  0  0  0  0  0  0  0  0  0  0  0
  2  1  1  6  0  0  0
  2  5  1  0  0  0  0
  2  3  1  0  0  0  0
  3  4  1  0  0  0  0
  3 10  1  0  0  0  0
  5  6  1  0  0  0  0
  6  7  1  0  0  0  0
  7  8  1  0  0  0  0
  8  9  1  0  0  0  0
M  END
>  <CHROM.1>
58.08182772,170.40310532,-175.47348271,79.62293993,178.68145078,29.31353924
15.63325543,21.31651893,-2.79000305,0.18077288,0.94573098

>  <Name>
ligand

>  <RI>
0

>  <Rbt.Current_Directory>
/home/itssahil/PROJECTS/Mol_Feturizer/New_Systems/rnas/3DJ0

>  <Rbt.Executable>
rbdock ($Id: //depot/dev/client3/rdock/2013.1/src/exe/rbdock.cxx#4 $)

>  <Rbt.Library>
libRbt.so (2013.1, Build901 2013/11/27)

>  <Rbt.Parameter_File>
/export/apps/rDock/src/rDock_2013.1_src/data/scripts/dock_solv.prm

>  <Rbt.Receptor>
prm/pocket_docking_6.prm

>  <SCORE>
-5.49697

>  <SCORE.INTER>
-5.98678

>  <SCORE.INTER.CONST>
1

>  <SCORE.INTER.POLAR>
0

>  <SCORE.INTER.ROT>
5

>  <SCORE.INTER.SOLV>
18.2232

>  <SCORE.INTER.VDW>
-16.9989

>  <SCORE.INTER.norm>
-0.598678

>  <SCORE.INTRA>
0.489804

>  <SCORE.INTRA.DIHEDRAL>
-1.89758

>  <SCORE.INTRA.DIHEDRAL.0>
6.00299

>  <SCORE.INTRA.POLAR>
0

>  <SCORE.INTRA.POLAR.0>
0

>  <SCORE.INTRA.REPUL>
0

>  <SCORE.INTRA.REPUL.0>
0

>  <SCORE.INTRA.SOLV>
0.47183

>  <SCORE.INTRA.SOLV.lig_0>
-39.3257

>  <SCORE.INTRA.VDW>
1.20268

>  <SCORE.INTRA.VDW.0>
-0.734044

>  <SCORE.INTRA.norm>
0.0489804

>  <SCORE.RESTR>
0

>  <SCORE.RESTR.CAVITY>
0

>  <SCORE.RESTR.norm>
0

>  <SCORE.SYSTEM>
0

>  <SCORE.SYSTEM.CONST>
0

>  <SCORE.SYSTEM.DIHEDRAL>
0

>  <SCORE.SYSTEM.SOLV>
0

>  <SCORE.SYSTEM.norm>
0

>  <SCORE.heavy>
10

>  <SCORE.norm>
-0.549697

>  <RMSD>
5.112

$$$$
ligand
 OpenBabel11021811473D
libRbt.so/2013.1/901 2013/11/27
 10  9  0  0  0  0  0  0  0  0999 V2000
   26.2227   14.7173   21.3626 N   0  0  0  0  0  0  0  0  0  0  0  0
   27.4031   15.5252   21.1189 C   0  0  2  0  0  0  0  0  0  0  0  0
   27.8466   15.3972   19.6861 C   0  0  0  0  0  0  0  0  0  0  0  0
   28.6297   16.2577   19.2119 O   0  0  0  0  0  0  0  0  0  0  0  0
   28.5178   15.0916   22.0610 C   0  0  0  0  0  0  0  0  0  0  0  0
   29.6435   15.9433   21.8640 O   0  0  0  0  0  0  0  0  0  0  0  0
   30.6804   15.5019   22.7401 C   0  0  0  0  0  0  0  0  0  0  0  0
   31.8849   16.4232   22.5598 C   0  0  0  0  0  0  0  0  0  0  0  0
   32.3566   16.3641   21.1871 N   0  0  0  0  0  0  0  0  0  0  0  0
   27.8252   14.2451   19.2083 O   0  0  0  0  0  0  0  0  0  0  0  0
  2  1  1  6  0  0  0
  2  5  1  0  0  0  0
  2  3  1  0  0  0  0
  3  4  1  0  0  0  0
  3 10  1  0  0  0  0
  5  6  1  0  0  0  0
  6  7  1  0  0  0  0
  7  8  1  0  0  0  0
  8  9  1  0  0  0  0
M  END
>  <CHROM.1>
-176.68678536,162.56848604,-178.99287603,-178.90001867,-60.49361725,29.10514876
15.54521092,21.06840659,2.75916865,-0.30206646,-1.49041618

>  <Name>
ligand

>  <RI>
0

>  <Rbt.Current_Directory>
/home/itssahil/PROJECTS/Mol_Feturizer/New_Systems/rnas/3DJ0

>  <Rbt.Executable>
rbdock ($Id: //depot/dev/client3/rdock/2013.1/src/exe/rbdock.cxx#4 $)

>  <Rbt.Library>
libRbt.so (2013.1, Build901 2013/11/27)

>  <Rbt.Parameter_File>
/export/apps/rDock/src/rDock_2013.1_src/data/scripts/dock_solv.prm

>  <Rbt.Receptor>
prm/pocket_docking_6.prm

>  <SCORE>
-7.63611

>  <SCORE.INTER>
-5.68495

>  <SCORE.INTER.CONST>
1

>  <SCORE.INTER.POLAR>
0

>  <SCORE.INTER.ROT>
5

>  <SCORE.INTER.SOLV>
20.5906

>  <SCORE.INTER.VDW>
-17.5868

>  <SCORE.INTER.norm>
-0.568495

>  <SCORE.INTRA>
-1.95116

>  <SCORE.INTRA.DIHEDRAL>
-3.54426

>  <SCORE.INTRA.DIHEDRAL.0>
6.00299

>  <SCORE.INTRA.POLAR>
0

>  <SCORE.INTRA.POLAR.0>
0

>  <SCORE.INTRA.REPUL>
0

>  <SCORE.INTRA.REPUL.0>
0

>  <SCORE.INTRA.SOLV>
-0.0207999

>  <SCORE.INTRA.SOLV.lig_0>
-39.3257

>  <SCORE.INTRA.VDW>
-0.168631

>  <SCORE.INTRA.VDW.0>
-0.734044

>  <SCORE.INTRA.norm>
-0.195116

>  <SCORE.RESTR>
0

>  <SCORE.RESTR.CAVITY>
0

>  <SCORE.RESTR.norm>
0

>  <SCORE.SYSTEM>
0

>  <SCORE.SYSTEM.CONST>
0

>  <SCORE.SYSTEM.DIHEDRAL>
0

>  <SCORE.SYSTEM.SOLV>
0

>  <SCORE.SYSTEM.norm>
0

>  <SCORE.heavy>
10

>  <SCORE.norm>
-0.763611

>  <RMSD>
5.118

$$$$
ligand
 OpenBabel11021811473D
libRbt.so/2013.1/901 2013/11/27
 10  9  0  0  0  0  0  0  0  0999 V2000
   26.5579   14.8400   21.9048 N   0  0  0  0  0  0  0  0  0  0  0  0
   27.8561   15.3409   21.4933 C   0  0  2  0  0  0  0  0  0  0  0  0
   27.8922   15.5603   20.0045 C   0  0  0  0  0  0  0  0  0  0  0  0
   28.7084   16.3898   19.5309 O   0  0  0  0  0  0  0  0  0  0  0  0
   28.9366   14.3527   21.9111 C   0  0  0  0  0  0  0  0  0  0  0  0
   30.1960   14.8204   21.4351 O   0  0  0  0  0  0  0  0  0  0  0  0
   30.6261   15.8687   22.3033 C   0  0  0  0  0  0  0  0  0  0  0  0
   31.9687   16.3906   21.7962 C   0  0  0  0  0  0  0  0  0  0  0  0
   32.4227   17.4907   22.6292 N   0  0  0  0  0  0  0  0  0  0  0  0
   27.4930   14.6097   19.3022 O   0  0  0  0  0  0  0  0  0  0  0  0
  2  1  1  6  0  0  0
  2  5  1  0  0  0  0
  2  3  1  0  0  0  0
  3  4  1  0  0  0  0
  3 10  1  0  0  0  0
  5  6  1  0  0  0  0
  6  7  1  0  0  0  0
  7  8  1  0  0  0  0
  8  9  1  0  0  0  0
M  END
>  <CHROM.1>
176.77537800,155.56214933,77.58439672,-179.38807517,178.17571126,29.26600787
15.55580806,21.19063618,2.91940899,-0.45535448,-1.20621995

>  <Name>
ligand

>  <RI>
0

>  <Rbt.Current_Directory>
/home/itssahil/PROJECTS/Mol_Feturizer/New_Systems/rnas/3DJ0

>  <Rbt.Executable>
rbdock ($Id: //depot/dev/client3/rdock/2013.1/src/exe/rbdock.cxx#4 $)

>  <Rbt.Library>
libRbt.so (2013.1, Build901 2013/11/27)

>  <Rbt.Parameter_File>
/export/apps/rDock/src/rDock_2013.1_src/data/scripts/dock_solv.prm

>  <Rbt.Receptor>
prm/pocket_docking_7.prm

>  <SCORE>
-5.99146

>  <SCORE.INTER>
-5.49042

>  <SCORE.INTER.CONST>
1

>  <SCORE.INTER.POLAR>
0

>  <SCORE.INTER.ROT>
5

>  <SCORE.INTER.SOLV>
20.3867

>  <SCORE.INTER.VDW>
-17.3892

>  <SCORE.INTER.norm>
-0.549042

>  <SCORE.INTRA>
-0.501034

>  <SCORE.INTRA.DIHEDRAL>
-1.98444

>  <SCORE.INTRA.DIHEDRAL.0>
6.00299

>  <SCORE.INTRA.POLAR>
0

>  <SCORE.INTRA.POLAR.0>
0

>  <SCORE.INTRA.REPUL>
0

>  <SCORE.INTRA.REPUL.0>
0

>  <SCORE.INTRA.SOLV>
-0.583974

>  <SCORE.INTRA.SOLV.lig_0>
-39.3257

>  <SCORE.INTRA.VDW>
0.783172

>  <SCORE.INTRA.VDW.0>
-0.734044

>  <SCORE.INTRA.norm>
-0.0501034

>  <SCORE.RESTR>
0

>  <SCORE.RESTR.CAVITY>
0

>  <SCORE.RESTR.norm>
0

>  <SCORE.SYSTEM>
0

>  <SCORE.SYSTEM.CONST>
0

>  <SCORE.SYSTEM.DIHEDRAL>
0

>  <SCORE.SYSTEM.SOLV>
0

>  <SCORE.SYSTEM.norm>
0

>  <SCORE.heavy>
10

>  <SCORE.norm>
-0.599146

>  <RMSD>
5.118

$$$$
ligand
 OpenBabel11021811473D
libRbt.so/2013.1/901 2013/11/27
 10  9  0  0  0  0  0  0  0  0999 V2000
   26.2242   14.7834   21.3593 N   0  0  0  0  0  0  0  0  0  0  0  0
   27.4169   15.5692   21.1035 C   0  0  2  0  0  0  0  0  0  0  0  0
   27.8446   15.4316   19.6668 C   0  0  0  0  0  0  0  0  0  0  0  0
   28.6686   16.2545   19.1953 O   0  0  0  0  0  0  0  0  0  0  0  0
   28.5323   15.1161   22.0357 C   0  0  0  0  0  0  0  0  0  0  0  0
   29.6680   15.9536   21.8347 O   0  0  0  0  0  0  0  0  0  0  0  0
   30.7049   15.4944   22.7016 C   0  0  0  0  0  0  0  0  0  0  0  0
   31.9119   16.4150   22.5350 C   0  0  0  0  0  0  0  0  0  0  0  0
   32.4292   16.3184   21.1811 N   0  0  0  0  0  0  0  0  0  0  0  0
   27.7601   14.2866   19.1789 O   0  0  0  0  0  0  0  0  0  0  0  0
  2  1  1  6  0  0  0
  2  5  1  0  0  0  0
  2  3  1  0  0  0  0
  3  4  1  0  0  0  0
  3 10  1  0  0  0  0
  5  6  1  0  0  0  0
  6  7  1  0  0  0  0
  7  8  1  0  0  0  0
  8  9  1  0  0  0  0
M  END
>  <CHROM.1>
-176.22711557,164.60084618,-179.01069964,-177.92415682,-63.80623205,29.11965367
15.56052694,21.04738579,2.76039548,-0.28402058,-1.49710901

>  <Name>
ligand

>  <RI>
0

>  <Rbt.Current_Directory>
/home/itssahil/PROJECTS/Mol_Feturizer/New_Systems/rnas/3DJ0

>  <Rbt.Executable>
rbdock ($Id: //depot/dev/client3/rdock/2013.1/src/exe/rbdock.cxx#4 $)

>  <Rbt.Library>
libRbt.so (2013.1, Build901 2013/11/27)

>  <Rbt.Parameter_File>
/export/apps/rDock/src/rDock_2013.1_src/data/scripts/dock_solv.prm

>  <Rbt.Receptor>
prm/pocket_docking_7.prm

>  <SCORE>
-7.55922

>  <SCORE.INTER>
-5.61606

>  <SCORE.INTER.CONST>
1

>  <SCORE.INTER.POLAR>
0

>  <SCORE.INTER.ROT>
5

>  <SCORE.INTER.SOLV>
20.6846

>  <SCORE.INTER.VDW>
-17.5722

>  <SCORE.INTER.norm>
-0.561606

>  <SCORE.INTRA>
-1.94315

>  <SCORE.INTRA.DIHEDRAL>
-3.50557

>  <SCORE.INTRA.DIHEDRAL.0>
6.00299

>  <SCORE.INTRA.POLAR>
0

>  <SCORE.INTRA.POLAR.0>
0

>  <SCORE.INTRA.REPUL>
0

>  <SCORE.INTRA.REPUL.0>
0

>  <SCORE.INTRA.SOLV>
-0.0879694

>  <SCORE.INTRA.SOLV.lig_0>
-39.3257

>  <SCORE.INTRA.VDW>
-0.146381

>  <SCORE.INTRA.VDW.0>
-0.734044

>  <SCORE.INTRA.norm>
-0.194315

>  <SCORE.RESTR>
0

>  <SCORE.RESTR.CAVITY>
0

>  <SCORE.RESTR.norm>
0

>  <SCORE.SYSTEM>
0

>  <SCORE.SYSTEM.CONST>
0

>  <SCORE.SYSTEM.DIHEDRAL>
0

>  <SCORE.SYSTEM.SOLV>
0

>  <SCORE.SYSTEM.norm>
0

>  <SCORE.heavy>
10

>  <SCORE.norm>
-0.755922

>  <RMSD>
5.125

$$$$
ligand
 OpenBabel11021811473D
libRbt.so/2013.1/901 2013/11/27
 10  9  0  0  0  0  0  0  0  0999 V2000
   27.8455   13.8437   19.0402 N   0  0  0  0  0  0  0  0  0  0  0  0
   28.4165   14.2865   20.2985 C   0  0  2  0  0  0  0  0  0  0  0  0
   27.4893   15.2484   20.9922 C   0  0  0  0  0  0  0  0  0  0  0  0
   27.0039   16.2050   20.3382 O   0  0  0  0  0  0  0  0  0  0  0  0
   29.7662   14.9422   20.0400 C   0  0  0  0  0  0  0  0  0  0  0  0
   30.3584   15.2835   21.2908 O   0  0  0  0  0  0  0  0  0  0  0  0
   31.6400   15.8525   21.0234 C   0  0  0  0  0  0  0  0  0  0  0  0
   32.2348   16.3360   22.3442 C   0  0  0  0  0  0  0  0  0  0  0  0
   31.3918   17.3680   22.9224 N   0  0  0  0  0  0  0  0  0  0  0  0
   26.8805   14.8008   21.9847 O   0  0  0  0  0  0  0  0  0  0  0  0
  2  1  1  6  0  0  0
  2  5  1  0  0  0  0
  2  3  1  0  0  0  0
  3  4  1  0  0  0  0
  3 10  1  0  0  0  0
  5  6  1  0  0  0  0
  6  7  1  0  0  0  0
  7  8  1  0  0  0  0
  8  9  1  0  0  0  0
M  END
>  <CHROM.1>
-175.80771646,-48.55962230,178.00882588,175.07793456,-61.89773988,29.27131173
15.42621432,21.04007642,-2.64935378,0.05748568,0.91597829

>  <Name>
ligand

>  <RI>
0

>  <Rbt.Current_Directory>
/home/itssahil/PROJECTS/Mol_Feturizer/New_Systems/rnas/3DJ0

>  <Rbt.Executable>
rbdock ($Id: //depot/dev/client3/rdock/2013.1/src/exe/rbdock.cxx#4 $)

>  <Rbt.Library>
libRbt.so (2013.1, Build901 2013/11/27)

>  <Rbt.Parameter_File>
/export/apps/rDock/src/rDock_2013.1_src/data/scripts/dock_solv.prm

>  <Rbt.Receptor>
prm/pocket_docking_7.prm

>  <SCORE>
-6.187

>  <SCORE.INTER>
-3.96873

>  <SCORE.INTER.CONST>
1

>  <SCORE.INTER.POLAR>
0

>  <SCORE.INTER.ROT>
5

>  <SCORE.INTER.SOLV>
19.2086

>  <SCORE.INTER.VDW>
-15.982

>  <SCORE.INTER.norm>
-0.396873

>  <SCORE.INTRA>
-2.21827

>  <SCORE.INTRA.DIHEDRAL>
-3.77124

>  <SCORE.INTRA.DIHEDRAL.0>
6.00299

>  <SCORE.INTRA.POLAR>
0

>  <SCORE.INTRA.POLAR.0>
0

>  <SCORE.INTRA.REPUL>
0

>  <SCORE.INTRA.REPUL.0>
0

>  <SCORE.INTRA.SOLV>
-0.160889

>  <SCORE.INTRA.SOLV.lig_0>
-39.3257

>  <SCORE.INTRA.VDW>
-0.252208

>  <SCORE.INTRA.VDW.0>
-0.734044

>  <SCORE.INTRA.norm>
-0.221827

>  <SCORE.RESTR>
0

>  <SCORE.RESTR.CAVITY>
0

>  <SCORE.RESTR.norm>
0

>  <SCORE.SYSTEM>
0

>  <SCORE.SYSTEM.CONST>
0

>  <SCORE.SYSTEM.DIHEDRAL>
0

>  <SCORE.SYSTEM.SOLV>
0

>  <SCORE.SYSTEM.norm>
0

>  <SCORE.heavy>
10

>  <SCORE.norm>
-0.6187

>  <RMSD>
5.125

$$$$
ligand
 OpenBabel11021811473D
libRbt.so/2013.1/901 2013/11/27
 10  9  0  0  0  0  0  0  0  0999 V2000
   28.4891   14.7678   19.4161 N   0  0  0  0  0  0  0  0  0  0  0  0
   28.4971   14.4724   20.8367 C   0  0  2  0  0  0  0  0  0  0  0  0
   27.2956   15.0787   21.5112 C   0  0  0  0  0  0  0  0  0  0  0  0
   26.1986   15.0972   20.8992 O   0  0  0  0  0  0  0  0  0  0  0  0
   29.7808   15.0054   21.4583 C   0  0  0  0  0  0  0  0  0  0  0  0
   29.8794   16.4006   21.1841 O   0  0  0  0  0  0  0  0  0  0  0  0
   31.1146   16.8639   21.7294 C   0  0  0  0  0  0  0  0  0  0  0  0
   32.2401   16.4559   20.7812 C   0  0  0  0  0  0  0  0  0  0  0  0
   33.5160   16.9292   21.2893 N   0  0  0  0  0  0  0  0  0  0  0  0
   27.3124   15.0810   22.7585 O   0  0  0  0  0  0  0  0  0  0  0  0
  2  1  1  6  0  0  0
  2  5  1  0  0  0  0
  2  3  1  0  0  0  0
  3  4  1  0  0  0  0
  3 10  1  0  0  0  0
  5  6  1  0  0  0  0
  6  7  1  0  0  0  0
  7  8  1  0  0  0  0
  8  9  1  0  0  0  0
M  END
>  <CHROM.1>
56.34686097,36.81394072,-177.69571672,78.09772990,179.04006654,29.38624124
15.62324622,21.20437708,-3.05345517,0.31005728,1.24564786

>  <Name>
ligand

>  <RI>
0

>  <Rbt.Current_Directory>
/home/itssahil/PROJECTS/Mol_Feturizer/New_Systems/rnas/3DJ0

>  <Rbt.Executable>
rbdock ($Id: //depot/dev/client3/rdock/2013.1/src/exe/rbdock.cxx#4 $)

>  <Rbt.Library>
libRbt.so (2013.1, Build901 2013/11/27)

>  <Rbt.Parameter_File>
/export/apps/rDock/src/rDock_2013.1_src/data/scripts/dock_solv.prm

>  <Rbt.Receptor>
prm/pocket_docking_4.prm

>  <SCORE>
-5.44179

>  <SCORE.INTER>
-6.38271

>  <SCORE.INTER.CONST>
1

>  <SCORE.INTER.POLAR>
0

>  <SCORE.INTER.ROT>
5

>  <SCORE.INTER.SOLV>
18.0887

>  <SCORE.INTER.VDW>
-17.2181

>  <SCORE.INTER.norm>
-0.638271

>  <SCORE.INTRA>
0.940918

>  <SCORE.INTRA.DIHEDRAL>
-1.90578

>  <SCORE.INTRA.DIHEDRAL.0>
6.00299

>  <SCORE.INTRA.POLAR>
0

>  <SCORE.INTRA.POLAR.0>
0

>  <SCORE.INTRA.REPUL>
0

>  <SCORE.INTRA.REPUL.0>
0

>  <SCORE.INTRA.SOLV>
0.273667

>  <SCORE.INTRA.SOLV.lig_0>
-39.3257

>  <SCORE.INTRA.VDW>
1.75697

>  <SCORE.INTRA.VDW.0>
-0.734044

>  <SCORE.INTRA.norm>
0.0940918

>  <SCORE.RESTR>
0

>  <SCORE.RESTR.CAVITY>
0

>  <SCORE.RESTR.norm>
0

>  <SCORE.SYSTEM>
0

>  <SCORE.SYSTEM.CONST>
0

>  <SCORE.SYSTEM.DIHEDRAL>
0

>  <SCORE.SYSTEM.SOLV>
0

>  <SCORE.SYSTEM.norm>
0

>  <SCORE.heavy>
10

>  <SCORE.norm>
-0.544179

>  <RMSD>
5.127

$$$$
ligand
 OpenBabel11021811473D
libRbt.so/2013.1/901 2013/11/27
 10  9  0  0  0  0  0  0  0  0999 V2000
   28.2967   14.9715   19.3349 N   0  0  0  0  0  0  0  0  0  0  0  0
   28.5514   15.2229   20.7411 C   0  0  2  0  0  0  0  0  0  0  0  0
   27.3324   14.9060   21.5656 C   0  0  0  0  0  0  0  0  0  0  0  0
   27.3798   15.0702   22.8103 O   0  0  0  0  0  0  0  0  0  0  0  0
   28.9576   16.6780   20.9306 C   0  0  0  0  0  0  0  0  0  0  0  0
   30.1807   16.9080   20.2357 O   0  0  0  0  0  0  0  0  0  0  0  0
   31.2354   16.3445   21.0154 C   0  0  0  0  0  0  0  0  0  0  0  0
   31.6210   17.3501   22.0981 C   0  0  0  0  0  0  0  0  0  0  0  0
   32.7628   16.8594   22.8501 N   0  0  0  0  0  0  0  0  0  0  0  0
   26.2380   14.9718   20.9706 O   0  0  0  0  0  0  0  0  0  0  0  0
  2  1  1  6  0  0  0
  2  5  1  0  0  0  0
  2  3  1  0  0  0  0
  3  4  1  0  0  0  0
  3 10  1  0  0  0  0
  5  6  1  0  0  0  0
  6  7  1  0  0  0  0
  7  8  1  0  0  0  0
  8  9  1  0  0  0  0
M  END
>  <CHROM.1>
-63.28371951,-179.89958152,-76.52307260,-82.49318376,-175.57423913,29.21927966
15.92887885,21.26015069,-3.01047385,0.39769045,1.61397898

>  <Name>
ligand

>  <RI>
0

>  <Rbt.Current_Directory>
/home/itssahil/PROJECTS/Mol_Feturizer/New_Systems/rnas/3DJ0

>  <Rbt.Executable>
rbdock ($Id: //depot/dev/client3/rdock/2013.1/src/exe/rbdock.cxx#4 $)

>  <Rbt.Library>
libRbt.so (2013.1, Build901 2013/11/27)

>  <Rbt.Parameter_File>
/export/apps/rDock/src/rDock_2013.1_src/data/scripts/dock_solv.prm

>  <Rbt.Receptor>
prm/pocket_docking_4.prm

>  <SCORE>
-3.38447

>  <SCORE.INTER>
-5.35846

>  <SCORE.INTER.CONST>
1

>  <SCORE.INTER.POLAR>
0

>  <SCORE.INTER.ROT>
5

>  <SCORE.INTER.SOLV>
17.7786

>  <SCORE.INTER.VDW>
-16.4318

>  <SCORE.INTER.norm>
-0.535846

>  <SCORE.INTRA>
1.97398

>  <SCORE.INTRA.DIHEDRAL>
-0.314118

>  <SCORE.INTRA.DIHEDRAL.0>
6.00299

>  <SCORE.INTRA.POLAR>
0

>  <SCORE.INTRA.POLAR.0>
0

>  <SCORE.INTRA.REPUL>
0

>  <SCORE.INTRA.REPUL.0>
0

>  <SCORE.INTRA.SOLV>
0.0358332

>  <SCORE.INTRA.SOLV.lig_0>
-39.3257

>  <SCORE.INTRA.VDW>
2.11313

>  <SCORE.INTRA.VDW.0>
-0.734044

>  <SCORE.INTRA.norm>
0.197398

>  <SCORE.RESTR>
0

>  <SCORE.RESTR.CAVITY>
0

>  <SCORE.RESTR.norm>
0

>  <SCORE.SYSTEM>
0

>  <SCORE.SYSTEM.CONST>
0

>  <SCORE.SYSTEM.DIHEDRAL>
0

>  <SCORE.SYSTEM.SOLV>
0

>  <SCORE.SYSTEM.norm>
0

>  <SCORE.heavy>
10

>  <SCORE.norm>
-0.338447

>  <RMSD>
5.127

$$$$
ligand
 OpenBabel11021811473D
libRbt.so/2013.1/901 2013/11/27
 10  9  0  0  0  0  0  0  0  0999 V2000
   28.7777   16.6963   20.7318 N   0  0  0  0  0  0  0  0  0  0  0  0
   28.8493   15.2472   20.7517 C   0  0  2  0  0  0  0  0  0  0  0  0
   27.4968   14.6456   20.4782 C   0  0  0  0  0  0  0  0  0  0  0  0
   26.5156   15.0126   21.1717 O   0  0  0  0  0  0  0  0  0  0  0  0
   29.3733   14.7839   22.1042 C   0  0  0  0  0  0  0  0  0  0  0  0
   30.7807   15.0042   22.1518 O   0  0  0  0  0  0  0  0  0  0  0  0
   30.9943   16.3777   22.4768 C   0  0  0  0  0  0  0  0  0  0  0  0
   32.4991   16.6378   22.4943 C   0  0  0  0  0  0  0  0  0  0  0  0
   33.0609   16.4022   21.1757 N   0  0  0  0  0  0  0  0  0  0  0  0
   27.3148   14.2133   19.3223 O   0  0  0  0  0  0  0  0  0  0  0  0
  2  1  1  1  0  0  0
  2  5  1  0  0  0  0
  2  3  1  0  0  0  0
  3  4  1  0  0  0  0
  3 10  1  0  0  0  0
  5  6  1  0  0  0  0
  6  7  1  0  0  0  0
  7  8  1  0  0  0  0
  8  9  1  0  0  0  0
M  END
>  <CHROM.1>
-76.22652165,-52.93190118,81.25974614,-178.49271136,62.44666870,29.52941768
15.47841237,21.27874524,-2.82203987,0.29162987,1.54049670

>  <Name>
ligand

>  <RI>
0

>  <Rbt.Current_Directory>
/home/itssahil/PROJECTS/Mol_Feturizer/New_Systems/rnas/3DJ0

>  <Rbt.Executable>
rbdock ($Id: //depot/dev/client3/rdock/2013.1/src/exe/rbdock.cxx#4 $)

>  <Rbt.Library>
libRbt.so (2013.1, Build901 2013/11/27)

>  <Rbt.Parameter_File>
/export/apps/rDock/src/rDock_2013.1_src/data/scripts/dock_solv.prm

>  <Rbt.Receptor>
prm/pocket_docking_3.prm

>  <SCORE>
-4.54963

>  <SCORE.INTER>
-5.77735

>  <SCORE.INTER.CONST>
1

>  <SCORE.INTER.POLAR>
0

>  <SCORE.INTER.ROT>
5

>  <SCORE.INTER.SOLV>
19.0299

>  <SCORE.INTER.VDW>
-17.1282

>  <SCORE.INTER.norm>
-0.577735

>  <SCORE.INTRA>
1.22771

>  <SCORE.INTRA.DIHEDRAL>
-1.04739

>  <SCORE.INTRA.DIHEDRAL.0>
6.00299

>  <SCORE.INTRA.POLAR>
0

>  <SCORE.INTRA.POLAR.0>
0

>  <SCORE.INTRA.REPUL>
0

>  <SCORE.INTRA.REPUL.0>
0

>  <SCORE.INTRA.SOLV>
1.87475

>  <SCORE.INTRA.SOLV.lig_0>
-39.3257

>  <SCORE.INTRA.VDW>
0.814034

>  <SCORE.INTRA.VDW.0>
-0.734044

>  <SCORE.INTRA.norm>
0.122771

>  <SCORE.RESTR>
0

>  <SCORE.RESTR.CAVITY>
0

>  <SCORE.RESTR.norm>
0

>  <SCORE.SYSTEM>
0

>  <SCORE.SYSTEM.CONST>
0

>  <SCORE.SYSTEM.DIHEDRAL>
0

>  <SCORE.SYSTEM.SOLV>
0

>  <SCORE.SYSTEM.norm>
0

>  <SCORE.heavy>
10

>  <SCORE.norm>
-0.454963

>  <RMSD>
5.129

$$$$
ligand
 OpenBabel11021811473D
libRbt.so/2013.1/901 2013/11/27
 10  9  0  0  0  0  0  0  0  0999 V2000
   29.0411   14.5849   19.7311 N   0  0  0  0  0  0  0  0  0  0  0  0
   28.4286   14.4586   21.0404 C   0  0  2  0  0  0  0  0  0  0  0  0
   26.9808   14.8675   20.9902 C   0  0  0  0  0  0  0  0  0  0  0  0
   26.2370   14.5952   21.9654 O   0  0  0  0  0  0  0  0  0  0  0  0
   29.1891   15.3181   22.0411 C   0  0  0  0  0  0  0  0  0  0  0  0
   30.5458   14.8828   22.0832 O   0  0  0  0  0  0  0  0  0  0  0  0
   31.2462   15.7327   22.9914 C   0  0  0  0  0  0  0  0  0  0  0  0
   31.5909   17.0307   22.2644 C   0  0  0  0  0  0  0  0  0  0  0  0
   32.5642   16.7723   21.2175 N   0  0  0  0  0  0  0  0  0  0  0  0
   26.7127   15.8394   20.2555 O   0  0  0  0  0  0  0  0  0  0  0  0
  2  1  1  6  0  0  0
  2  5  1  0  0  0  0
  2  3  1  0  0  0  0
  3  4  1  0  0  0  0
  3 10  1  0  0  0  0
  5  6  1  0  0  0  0
  6  7  1  0  0  0  0
  7  8  1  0  0  0  0
  8  9  1  0  0  0  0
M  END
>  <CHROM.1>
-59.28593884,167.25911758,178.00363349,-80.18102085,-67.35514692,29.21647966
15.40614630,21.46354277,-2.97164211,0.29966037,1.69695228

>  <Name>
ligand

>  <RI>
0

>  <Rbt.Current_Directory>
/home/itssahil/PROJECTS/Mol_Feturizer/New_Systems/rnas/3DJ0

>  <Rbt.Executable>
rbdock ($Id: //depot/dev/client3/rdock/2013.1/src/exe/rbdock.cxx#4 $)

>  <Rbt.Library>
libRbt.so (2013.1, Build901 2013/11/27)

>  <Rbt.Parameter_File>
/export/apps/rDock/src/rDock_2013.1_src/data/scripts/dock_solv.prm

>  <Rbt.Receptor>
prm/pocket_docking_4.prm

>  <SCORE>
-5.62391

>  <SCORE.INTER>
-6.35974

>  <SCORE.INTER.CONST>
1

>  <SCORE.INTER.POLAR>
0

>  <SCORE.INTER.ROT>
5

>  <SCORE.INTER.SOLV>
17.5347

>  <SCORE.INTER.VDW>
-17.0181

>  <SCORE.INTER.norm>
-0.635974

>  <SCORE.INTRA>
0.735832

>  <SCORE.INTRA.DIHEDRAL>
-1.64035

>  <SCORE.INTRA.DIHEDRAL.0>
6.00299

>  <SCORE.INTRA.POLAR>
0

>  <SCORE.INTRA.POLAR.0>
0

>  <SCORE.INTRA.REPUL>
0

>  <SCORE.INTRA.REPUL.0>
0

>  <SCORE.INTRA.SOLV>
0.863931

>  <SCORE.INTRA.SOLV.lig_0>
-39.3257

>  <SCORE.INTRA.VDW>
1.12404

>  <SCORE.INTRA.VDW.0>
-0.734044

>  <SCORE.INTRA.norm>
0.0735832

>  <SCORE.RESTR>
0

>  <SCORE.RESTR.CAVITY>
0

>  <SCORE.RESTR.norm>
0

>  <SCORE.SYSTEM>
0

>  <SCORE.SYSTEM.CONST>
0

>  <SCORE.SYSTEM.DIHEDRAL>
0

>  <SCORE.SYSTEM.SOLV>
0

>  <SCORE.SYSTEM.norm>
0

>  <SCORE.heavy>
10

>  <SCORE.norm>
-0.562391

>  <RMSD>
5.129

$$$$
ligand
 OpenBabel11021811473D
libRbt.so/2013.1/901 2013/11/27
 10  9  0  0  0  0  0  0  0  0999 V2000
   26.2581   14.7175   21.4353 N   0  0  0  0  0  0  0  0  0  0  0  0
   27.4368   15.5192   21.1646 C   0  0  2  0  0  0  0  0  0  0  0  0
   27.8160   15.4306   19.7105 C   0  0  0  0  0  0  0  0  0  0  0  0
   28.6363   16.2598   19.2436 O   0  0  0  0  0  0  0  0  0  0  0  0
   28.5860   15.0441   22.0433 C   0  0  0  0  0  0  0  0  0  0  0  0
   29.6913   15.9275   21.8719 O   0  0  0  0  0  0  0  0  0  0  0  0
   30.7513   15.4639   22.7081 C   0  0  0  0  0  0  0  0  0  0  0  0
   31.9498   16.3919   22.5218 C   0  0  0  0  0  0  0  0  0  0  0  0
   32.3890   16.3669   21.1374 N   0  0  0  0  0  0  0  0  0  0  0  0
   27.6992   14.3063   19.1830 O   0  0  0  0  0  0  0  0  0  0  0  0
  2  1  1  6  0  0  0
  2  5  1  0  0  0  0
  2  3  1  0  0  0  0
  3  4  1  0  0  0  0
  3 10  1  0  0  0  0
  5  6  1  0  0  0  0
  6  7  1  0  0  0  0
  7  8  1  0  0  0  0
  8  9  1  0  0  0  0
M  END
>  <CHROM.1>
-173.89045561,165.80961299,179.79644509,179.31389683,-60.74112051,29.12392476
15.54187596,21.07001913,2.78045701,-0.30105757,-1.46031061

>  <Name>
ligand

>  <RI>
0

>  <Rbt.Current_Directory>
/home/itssahil/PROJECTS/Mol_Feturizer/New_Systems/rnas/3DJ0

>  <Rbt.Executable>
rbdock ($Id: //depot/dev/client3/rdock/2013.1/src/exe/rbdock.cxx#4 $)

>  <Rbt.Library>
libRbt.so (2013.1, Build901 2013/11/27)

>  <Rbt.Parameter_File>
/export/apps/rDock/src/rDock_2013.1_src/data/scripts/dock_solv.prm

>  <Rbt.Receptor>
prm/pocket_docking_6.prm

>  <SCORE>
-7.63974

>  <SCORE.INTER>
-5.70056

>  <SCORE.INTER.CONST>
1

>  <SCORE.INTER.POLAR>
0

>  <SCORE.INTER.ROT>
5

>  <SCORE.INTER.SOLV>
20.8078

>  <SCORE.INTER.VDW>
-17.6697

>  <SCORE.INTER.norm>
-0.570056

>  <SCORE.INTRA>
-1.93918

>  <SCORE.INTRA.DIHEDRAL>
-3.52272

>  <SCORE.INTRA.DIHEDRAL.0>
6.00299

>  <SCORE.INTRA.POLAR>
0

>  <SCORE.INTRA.POLAR.0>
0

>  <SCORE.INTRA.REPUL>
0

>  <SCORE.INTRA.REPUL.0>
0

>  <SCORE.INTRA.SOLV>
-0.00571471

>  <SCORE.INTRA.SOLV.lig_0>
-39.3257

>  <SCORE.INTRA.VDW>
-0.174958

>  <SCORE.INTRA.VDW.0>
-0.734044

>  <SCORE.INTRA.norm>
-0.193918

>  <SCORE.RESTR>
0

>  <SCORE.RESTR.CAVITY>
0

>  <SCORE.RESTR.norm>
0

>  <SCORE.SYSTEM>
0

>  <SCORE.SYSTEM.CONST>
0

>  <SCORE.SYSTEM.DIHEDRAL>
0

>  <SCORE.SYSTEM.SOLV>
0

>  <SCORE.SYSTEM.norm>
0

>  <SCORE.heavy>
10

>  <SCORE.norm>
-0.763974

>  <RMSD>
5.129

$$$$
ligand
 OpenBabel11021811473D
libRbt.so/2013.1/901 2013/11/27
 10  9  0  0  0  0  0  0  0  0999 V2000
   26.2558   14.7334   21.4286 N   0  0  0  0  0  0  0  0  0  0  0  0
   27.4417   15.5222   21.1513 C   0  0  2  0  0  0  0  0  0  0  0  0
   27.8269   15.4085   19.7006 C   0  0  0  0  0  0  0  0  0  0  0  0
   28.6413   16.2358   19.2202 O   0  0  0  0  0  0  0  0  0  0  0  0
   28.5832   15.0523   22.0427 C   0  0  0  0  0  0  0  0  0  0  0  0
   29.7054   15.9077   21.8417 O   0  0  0  0  0  0  0  0  0  0  0  0
   30.7510   15.4622   22.7054 C   0  0  0  0  0  0  0  0  0  0  0  0
   31.9511   16.3887   22.5227 C   0  0  0  0  0  0  0  0  0  0  0  0
   32.4428   16.3042   21.1584 N   0  0  0  0  0  0  0  0  0  0  0  0
   27.7224   14.2729   19.1949 O   0  0  0  0  0  0  0  0  0  0  0  0
  2  1  1  6  0  0  0
  2  5  1  0  0  0  0
  2  3  1  0  0  0  0
  3  4  1  0  0  0  0
  3 10  1  0  0  0  0
  5  6  1  0  0  0  0
  6  7  1  0  0  0  0
  7  8  1  0  0  0  0
  8  9  1  0  0  0  0
M  END
>  <CHROM.1>
-175.12000535,164.82659339,178.92158618,-178.80398930,-62.63671571,29.13487288
15.52735560,21.06446978,2.77549272,-0.29051840,-1.47668814

>  <Name>
ligand

>  <RI>
0

>  <Rbt.Current_Directory>
/home/itssahil/PROJECTS/Mol_Feturizer/New_Systems/rnas/3DJ0

>  <Rbt.Executable>
rbdock ($Id: //depot/dev/client3/rdock/2013.1/src/exe/rbdock.cxx#4 $)

>  <Rbt.Library>
libRbt.so (2013.1, Build901 2013/11/27)

>  <Rbt.Parameter_File>
/export/apps/rDock/src/rDock_2013.1_src/data/scripts/dock_solv.prm

>  <Rbt.Receptor>
prm/pocket_docking_5.prm

>  <SCORE>
-7.63363

>  <SCORE.INTER>
-5.67832

>  <SCORE.INTER.CONST>
1

>  <SCORE.INTER.POLAR>
0

>  <SCORE.INTER.ROT>
5

>  <SCORE.INTER.SOLV>
20.885

>  <SCORE.INTER.VDW>
-17.6806

>  <SCORE.INTER.norm>
-0.567832

>  <SCORE.INTRA>
-1.95531

>  <SCORE.INTRA.DIHEDRAL>
-3.51692

>  <SCORE.INTRA.DIHEDRAL.0>
6.00299

>  <SCORE.INTRA.POLAR>
0

>  <SCORE.INTRA.POLAR.0>
0

>  <SCORE.INTRA.REPUL>
0

>  <SCORE.INTRA.REPUL.0>
0

>  <SCORE.INTRA.SOLV>
-0.0882914

>  <SCORE.INTRA.SOLV.lig_0>
-39.3257

>  <SCORE.INTRA.VDW>
-0.152706

>  <SCORE.INTRA.VDW.0>
-0.734044

>  <SCORE.INTRA.norm>
-0.195531

>  <SCORE.RESTR>
0

>  <SCORE.RESTR.CAVITY>
0

>  <SCORE.RESTR.norm>
0

>  <SCORE.SYSTEM>
0

>  <SCORE.SYSTEM.CONST>
0

>  <SCORE.SYSTEM.DIHEDRAL>
0

>  <SCORE.SYSTEM.SOLV>
0

>  <SCORE.SYSTEM.norm>
0

>  <SCORE.heavy>
10

>  <SCORE.norm>
-0.763363

>  <RMSD>
5.131

$$$$
ligand
 OpenBabel11021811473D
libRbt.so/2013.1/901 2013/11/27
 10  9  0  0  0  0  0  0  0  0999 V2000
   26.2296   14.7134   21.4160 N   0  0  0  0  0  0  0  0  0  0  0  0
   27.4074   15.5179   21.1498 C   0  0  2  0  0  0  0  0  0  0  0  0
   27.8132   15.4020   19.7048 C   0  0  0  0  0  0  0  0  0  0  0  0
   28.6339   16.2289   19.2347 O   0  0  0  0  0  0  0  0  0  0  0  0
   28.5438   15.0693   22.0585 C   0  0  0  0  0  0  0  0  0  0  0  0
   29.6529   15.9454   21.8741 O   0  0  0  0  0  0  0  0  0  0  0  0
   30.7095   15.4920   22.7201 C   0  0  0  0  0  0  0  0  0  0  0  0
   31.9078   16.4194   22.5294 C   0  0  0  0  0  0  0  0  0  0  0  0
   32.3581   16.3744   21.1491 N   0  0  0  0  0  0  0  0  0  0  0  0
   27.7163   14.2656   19.1995 O   0  0  0  0  0  0  0  0  0  0  0  0
  2  1  1  6  0  0  0
  2  5  1  0  0  0  0
  2  3  1  0  0  0  0
  3  4  1  0  0  0  0
  3 10  1  0  0  0  0
  5  6  1  0  0  0  0
  6  7  1  0  0  0  0
  7  8  1  0  0  0  0
  8  9  1  0  0  0  0
M  END
>  <CHROM.1>
-174.72350882,165.66122708,-179.12770350,179.80330747,-61.06299208,29.10036474
15.54140573,21.07191167,2.77249218,-0.30332905,-1.48327461

>  <Name>
ligand

>  <RI>
0

>  <Rbt.Current_Directory>
/home/itssahil/PROJECTS/Mol_Feturizer/New_Systems/rnas/3DJ0

>  <Rbt.Executable>
rbdock ($Id: //depot/dev/client3/rdock/2013.1/src/exe/rbdock.cxx#4 $)

>  <Rbt.Library>
libRbt.so (2013.1, Build901 2013/11/27)

>  <Rbt.Parameter_File>
/export/apps/rDock/src/rDock_2013.1_src/data/scripts/dock_solv.prm

>  <Rbt.Receptor>
prm/pocket_docking_4.prm

>  <SCORE>
-7.62661

>  <SCORE.INTER>
-5.68523

>  <SCORE.INTER.CONST>
1

>  <SCORE.INTER.POLAR>
0

>  <SCORE.INTER.ROT>
5

>  <SCORE.INTER.SOLV>
20.7402

>  <SCORE.INTER.VDW>
-17.6369

>  <SCORE.INTER.norm>
-0.568523

>  <SCORE.INTRA>
-1.94138

>  <SCORE.INTRA.DIHEDRAL>
-3.55029

>  <SCORE.INTRA.DIHEDRAL.0>
6.00299

>  <SCORE.INTRA.POLAR>
0

>  <SCORE.INTRA.POLAR.0>
0

>  <SCORE.INTRA.REPUL>
0

>  <SCORE.INTRA.REPUL.0>
0

>  <SCORE.INTRA.SOLV>
0.00537807

>  <SCORE.INTRA.SOLV.lig_0>
-39.3257

>  <SCORE.INTRA.VDW>
-0.168928

>  <SCORE.INTRA.VDW.0>
-0.734044

>  <SCORE.INTRA.norm>
-0.194138

>  <SCORE.RESTR>
0

>  <SCORE.RESTR.CAVITY>
0

>  <SCORE.RESTR.norm>
0

>  <SCORE.SYSTEM>
0

>  <SCORE.SYSTEM.CONST>
0

>  <SCORE.SYSTEM.DIHEDRAL>
0

>  <SCORE.SYSTEM.SOLV>
0

>  <SCORE.SYSTEM.norm>
0

>  <SCORE.heavy>
10

>  <SCORE.norm>
-0.762661

>  <RMSD>
5.133

$$$$
ligand
 OpenBabel11021811473D
libRbt.so/2013.1/901 2013/11/27
 10  9  0  0  0  0  0  0  0  0999 V2000
   29.1148   14.4180   19.6019 N   0  0  0  0  0  0  0  0  0  0  0  0
   28.5209   14.2309   20.9125 C   0  0  2  0  0  0  0  0  0  0  0  0
   27.2517   15.0305   21.0386 C   0  0  0  0  0  0  0  0  0  0  0  0
   26.5138   14.8477   22.0388 O   0  0  0  0  0  0  0  0  0  0  0  0
   29.5188   14.6453   21.9853 C   0  0  0  0  0  0  0  0  0  0  0  0
   29.9961   15.9550   21.6877 O   0  0  0  0  0  0  0  0  0  0  0  0
   31.0776   16.2351   22.5764 C   0  0  0  0  0  0  0  0  0  0  0  0
   31.6390   17.6122   22.2291 C   0  0  0  0  0  0  0  0  0  0  0  0
   32.8548   17.8597   22.9844 N   0  0  0  0  0  0  0  0  0  0  0  0
   27.2365   16.1283   20.4464 O   0  0  0  0  0  0  0  0  0  0  0  0
  2  1  1  6  0  0  0
  2  5  1  0  0  0  0
  2  3  1  0  0  0  0
  3  4  1  0  0  0  0
  3 10  1  0  0  0  0
  5  6  1  0  0  0  0
  6  7  1  0  0  0  0
  7  8  1  0  0  0  0
  8  9  1  0  0  0  0
M  END
>  <CHROM.1>
51.83527439,170.55994089,-170.93111243,177.58540974,-172.18957146,29.33291079
15.70888068,21.55167691,-2.58667386,0.08657420,0.73549639

>  <Name>
ligand

>  <RI>
0

>  <Rbt.Current_Directory>
/home/itssahil/PROJECTS/Mol_Feturizer/New_Systems/rnas/3DJ0

>  <Rbt.Executable>
rbdock ($Id: //depot/dev/client3/rdock/2013.1/src/exe/rbdock.cxx#4 $)

>  <Rbt.Library>
libRbt.so (2013.1, Build901 2013/11/27)

>  <Rbt.Parameter_File>
/export/apps/rDock/src/rDock_2013.1_src/data/scripts/dock_solv.prm

>  <Rbt.Receptor>
prm/pocket_docking_6.prm

>  <SCORE>
-7.07491

>  <SCORE.INTER>
-5.47143

>  <SCORE.INTER.CONST>
1

>  <SCORE.INTER.POLAR>
0

>  <SCORE.INTER.ROT>
5

>  <SCORE.INTER.SOLV>
18.363

>  <SCORE.INTER.VDW>
-16.7019

>  <SCORE.INTER.norm>
-0.547143

>  <SCORE.INTRA>
-1.60348

>  <SCORE.INTRA.DIHEDRAL>
-2.87248

>  <SCORE.INTRA.DIHEDRAL.0>
6.00299

>  <SCORE.INTRA.POLAR>
0

>  <SCORE.INTRA.POLAR.0>
0

>  <SCORE.INTRA.REPUL>
0

>  <SCORE.INTRA.REPUL.0>
0

>  <SCORE.INTRA.SOLV>
-0.156134

>  <SCORE.INTRA.SOLV.lig_0>
-39.3257

>  <SCORE.INTRA.VDW>
-0.0891742

>  <SCORE.INTRA.VDW.0>
-0.734044

>  <SCORE.INTRA.norm>
-0.160348

>  <SCORE.RESTR>
0

>  <SCORE.RESTR.CAVITY>
0

>  <SCORE.RESTR.norm>
0

>  <SCORE.SYSTEM>
0

>  <SCORE.SYSTEM.CONST>
0

>  <SCORE.SYSTEM.DIHEDRAL>
0

>  <SCORE.SYSTEM.SOLV>
0

>  <SCORE.SYSTEM.norm>
0

>  <SCORE.heavy>
10

>  <SCORE.norm>
-0.707491

>  <RMSD>
5.133

$$$$
ligand
 OpenBabel11021811473D
libRbt.so/2013.1/901 2013/11/27
 10  9  0  0  0  0  0  0  0  0999 V2000
   28.9823   15.8442   23.3121 N   0  0  0  0  0  0  0  0  0  0  0  0
   29.0862   15.8046   21.8654 C   0  0  2  0  0  0  0  0  0  0  0  0
   27.7707   15.4085   21.2500 C   0  0  0  0  0  0  0  0  0  0  0  0
   26.9575   14.7360   21.9318 O   0  0  0  0  0  0  0  0  0  0  0  0
   30.1784   14.8235   21.4620 C   0  0  0  0  0  0  0  0  0  0  0  0
   31.4340   15.3204   21.9183 O   0  0  0  0  0  0  0  0  0  0  0  0
   31.8789   16.3013   20.9815 C   0  0  0  0  0  0  0  0  0  0  0  0
   33.1988   16.8813   21.4853 C   0  0  0  0  0  0  0  0  0  0  0  0
   32.9778   17.6351   22.7072 N   0  0  0  0  0  0  0  0  0  0  0  0
   27.3546   16.1420   20.3308 O   0  0  0  0  0  0  0  0  0  0  0  0
  2  1  1  1  0  0  0
  2  5  1  0  0  0  0
  2  3  1  0  0  0  0
  3  4  1  0  0  0  0
  3 10  1  0  0  0  0
  5  6  1  0  0  0  0
  6  7  1  0  0  0  0
  7  8  1  0  0  0  0
  8  9  1  0  0  0  0
M  END
>  <CHROM.1>
-65.29326944,-24.74368859,-80.85202405,177.88083936,-66.85330708,29.94587911
15.87327367,21.71284389,3.08814392,-0.27043119,-1.46435687

>  <Name>
ligand

>  <RI>
0

>  <Rbt.Current_Directory>
/home/itssahil/PROJECTS/Mol_Feturizer/New_Systems/rnas/3DJ0

>  <Rbt.Executable>
rbdock ($Id: //depot/dev/client3/rdock/2013.1/src/exe/rbdock.cxx#4 $)

>  <Rbt.Library>
libRbt.so (2013.1, Build901 2013/11/27)

>  <Rbt.Parameter_File>
/export/apps/rDock/src/rDock_2013.1_src/data/scripts/dock_solv.prm

>  <Rbt.Receptor>
prm/pocket_docking_7.prm

>  <SCORE>
-4.93968

>  <SCORE.INTER>
-4.97301

>  <SCORE.INTER.CONST>
1

>  <SCORE.INTER.POLAR>
0

>  <SCORE.INTER.ROT>
5

>  <SCORE.INTER.SOLV>
19.4681

>  <SCORE.INTER.VDW>
-16.738

>  <SCORE.INTER.norm>
-0.497301

>  <SCORE.INTRA>
0.0333337

>  <SCORE.INTRA.DIHEDRAL>
-1.50095

>  <SCORE.INTRA.DIHEDRAL.0>
6.00299

>  <SCORE.INTRA.POLAR>
0

>  <SCORE.INTRA.POLAR.0>
0

>  <SCORE.INTRA.REPUL>
0

>  <SCORE.INTRA.REPUL.0>
0

>  <SCORE.INTRA.SOLV>
0.7937

>  <SCORE.INTRA.SOLV.lig_0>
-39.3257

>  <SCORE.INTRA.VDW>
0.38696

>  <SCORE.INTRA.VDW.0>
-0.734044

>  <SCORE.INTRA.norm>
0.00333337

>  <SCORE.RESTR>
0

>  <SCORE.RESTR.CAVITY>
0

>  <SCORE.RESTR.norm>
0

>  <SCORE.SYSTEM>
0

>  <SCORE.SYSTEM.CONST>
0

>  <SCORE.SYSTEM.DIHEDRAL>
0

>  <SCORE.SYSTEM.SOLV>
0

>  <SCORE.SYSTEM.norm>
0

>  <SCORE.heavy>
10

>  <SCORE.norm>
-0.493968

>  <RMSD>
5.134

$$$$
ligand
 OpenBabel11021811473D
libRbt.so/2013.1/901 2013/11/27
 10  9  0  0  0  0  0  0  0  0999 V2000
   26.2388   14.7157   21.4182 N   0  0  0  0  0  0  0  0  0  0  0  0
   27.4136   15.5262   21.1569 C   0  0  2  0  0  0  0  0  0  0  0  0
   27.8109   15.4324   19.7079 C   0  0  0  0  0  0  0  0  0  0  0  0
   28.6414   16.2562   19.2498 O   0  0  0  0  0  0  0  0  0  0  0  0
   28.5562   15.0664   22.0521 C   0  0  0  0  0  0  0  0  0  0  0  0
   29.6650   15.9431   21.8688 O   0  0  0  0  0  0  0  0  0  0  0  0
   30.7161   15.4988   22.7265 C   0  0  0  0  0  0  0  0  0  0  0  0
   31.9147   16.4257   22.5356 C   0  0  0  0  0  0  0  0  0  0  0  0
   32.4300   16.3020   21.1832 N   0  0  0  0  0  0  0  0  0  0  0  0
   27.6951   14.3074   19.1814 O   0  0  0  0  0  0  0  0  0  0  0  0
  2  1  1  6  0  0  0
  2  5  1  0  0  0  0
  2  3  1  0  0  0  0
  3  4  1  0  0  0  0
  3 10  1  0  0  0  0
  5  6  1  0  0  0  0
  6  7  1  0  0  0  0
  7  8  1  0  0  0  0
  8  9  1  0  0  0  0
M  END
>  <CHROM.1>
-175.02746157,166.63675914,179.46546784,179.72803605,-64.81830815,29.11092545
15.54650905,21.07603240,2.77171183,-0.29386734,-1.47948577

>  <Name>
ligand

>  <RI>
0

>  <Rbt.Current_Directory>
/home/itssahil/PROJECTS/Mol_Feturizer/New_Systems/rnas/3DJ0

>  <Rbt.Executable>
rbdock ($Id: //depot/dev/client3/rdock/2013.1/src/exe/rbdock.cxx#4 $)

>  <Rbt.Library>
libRbt.so (2013.1, Build901 2013/11/27)

>  <Rbt.Parameter_File>
/export/apps/rDock/src/rDock_2013.1_src/data/scripts/dock_solv.prm

>  <Rbt.Receptor>
prm/pocket_docking_6.prm

>  <SCORE>
-7.57803

>  <SCORE.INTER>
-5.64204

>  <SCORE.INTER.CONST>
1

>  <SCORE.INTER.POLAR>
0

>  <SCORE.INTER.ROT>
5

>  <SCORE.INTER.SOLV>
20.828

>  <SCORE.INTER.VDW>
-17.6374

>  <SCORE.INTER.norm>
-0.564204

>  <SCORE.INTRA>
-1.93599

>  <SCORE.INTRA.DIHEDRAL>
-3.50051

>  <SCORE.INTRA.DIHEDRAL.0>
6.00299

>  <SCORE.INTRA.POLAR>
0

>  <SCORE.INTRA.POLAR.0>
0

>  <SCORE.INTRA.REPUL>
0

>  <SCORE.INTRA.REPUL.0>
0

>  <SCORE.INTRA.SOLV>
-0.088394

>  <SCORE.INTRA.SOLV.lig_0>
-39.3257

>  <SCORE.INTRA.VDW>
-0.141541

>  <SCORE.INTRA.VDW.0>
-0.734044

>  <SCORE.INTRA.norm>
-0.193599

>  <SCORE.RESTR>
0

>  <SCORE.RESTR.CAVITY>
0

>  <SCORE.RESTR.norm>
0

>  <SCORE.SYSTEM>
0

>  <SCORE.SYSTEM.CONST>
0

>  <SCORE.SYSTEM.DIHEDRAL>
0

>  <SCORE.SYSTEM.SOLV>
0

>  <SCORE.SYSTEM.norm>
0

>  <SCORE.heavy>
10

>  <SCORE.norm>
-0.757803

>  <RMSD>
5.135

$$$$
ligand
 OpenBabel11021811473D
libRbt.so/2013.1/901 2013/11/27
 10  9  0  0  0  0  0  0  0  0999 V2000
   26.2547   14.7239   21.4327 N   0  0  0  0  0  0  0  0  0  0  0  0
   27.4394   15.5127   21.1502 C   0  0  2  0  0  0  0  0  0  0  0  0
   27.8212   15.3951   19.6989 C   0  0  0  0  0  0  0  0  0  0  0  0
   28.6552   16.2042   19.2212 O   0  0  0  0  0  0  0  0  0  0  0  0
   28.5834   15.0461   22.0401 C   0  0  0  0  0  0  0  0  0  0  0  0
   29.6941   15.9203   21.8571 O   0  0  0  0  0  0  0  0  0  0  0  0
   30.7258   15.5046   22.7518 C   0  0  0  0  0  0  0  0  0  0  0  0
   31.9375   16.4097   22.5401 C   0  0  0  0  0  0  0  0  0  0  0  0
   32.4340   16.2683   21.1824 N   0  0  0  0  0  0  0  0  0  0  0  0
   27.6888   14.2644   19.1890 O   0  0  0  0  0  0  0  0  0  0  0  0
  2  1  1  6  0  0  0
  2  5  1  0  0  0  0
  2  3  1  0  0  0  0
  3  4  1  0  0  0  0
  3 10  1  0  0  0  0
  5  6  1  0  0  0  0
  6  7  1  0  0  0  0
  7  8  1  0  0  0  0
  8  9  1  0  0  0  0
M  END
>  <CHROM.1>
-173.78172683,166.31011445,177.00131908,178.49250867,-62.03732038,29.12600072
15.52337930,21.07405771,2.76339609,-0.29085033,-1.49181263

>  <Name>
ligand

>  <RI>
0

>  <Rbt.Current_Directory>
/home/itssahil/PROJECTS/Mol_Feturizer/New_Systems/rnas/3DJ0

>  <Rbt.Executable>
rbdock ($Id: //depot/dev/client3/rdock/2013.1/src/exe/rbdock.cxx#4 $)

>  <Rbt.Library>
libRbt.so (2013.1, Build901 2013/11/27)

>  <Rbt.Parameter_File>
/export/apps/rDock/src/rDock_2013.1_src/data/scripts/dock_solv.prm

>  <Rbt.Receptor>
prm/pocket_docking_5.prm

>  <SCORE>
-7.63468

>  <SCORE.INTER>
-5.72187

>  <SCORE.INTER.CONST>
1

>  <SCORE.INTER.POLAR>
0

>  <SCORE.INTER.ROT>
5

>  <SCORE.INTER.SOLV>
20.8387

>  <SCORE.INTER.VDW>
-17.6941

>  <SCORE.INTER.norm>
-0.572187

>  <SCORE.INTRA>
-1.91281

>  <SCORE.INTRA.DIHEDRAL>
-3.46152

>  <SCORE.INTRA.DIHEDRAL.0>
6.00299

>  <SCORE.INTRA.POLAR>
0

>  <SCORE.INTRA.POLAR.0>
0

>  <SCORE.INTRA.REPUL>
0

>  <SCORE.INTRA.REPUL.0>
0

>  <SCORE.INTRA.SOLV>
-0.0617018

>  <SCORE.INTRA.SOLV.lig_0>
-39.3257

>  <SCORE.INTRA.VDW>
-0.151194

>  <SCORE.INTRA.VDW.0>
-0.734044

>  <SCORE.INTRA.norm>
-0.191281

>  <SCORE.RESTR>
0

>  <SCORE.RESTR.CAVITY>
0

>  <SCORE.RESTR.norm>
0

>  <SCORE.SYSTEM>
0

>  <SCORE.SYSTEM.CONST>
0

>  <SCORE.SYSTEM.DIHEDRAL>
0

>  <SCORE.SYSTEM.SOLV>
0

>  <SCORE.SYSTEM.norm>
0

>  <SCORE.heavy>
10

>  <SCORE.norm>
-0.763468

>  <RMSD>
5.137

$$$$
ligand
 OpenBabel11021811473D
libRbt.so/2013.1/901 2013/11/27
 10  9  0  0  0  0  0  0  0  0999 V2000
   27.8121   13.8472   19.0308 N   0  0  0  0  0  0  0  0  0  0  0  0
   28.4055   14.2610   20.2886 C   0  0  2  0  0  0  0  0  0  0  0  0
   27.4749   15.1767   21.0381 C   0  0  0  0  0  0  0  0  0  0  0  0
   26.7858   16.0055   20.3926 O   0  0  0  0  0  0  0  0  0  0  0  0
   29.7325   14.9570   20.0187 C   0  0  0  0  0  0  0  0  0  0  0  0
   30.3433   15.2813   21.2651 O   0  0  0  0  0  0  0  0  0  0  0  0
   31.5963   15.9053   20.9850 C   0  0  0  0  0  0  0  0  0  0  0  0
   32.2138   16.3554   22.3073 C   0  0  0  0  0  0  0  0  0  0  0  0
   31.3523   17.3304   22.9533 N   0  0  0  0  0  0  0  0  0  0  0  0
   27.0747   14.7625   22.1446 O   0  0  0  0  0  0  0  0  0  0  0  0
  2  1  1  6  0  0  0
  2  5  1  0  0  0  0
  2  3  1  0  0  0  0
  3  4  1  0  0  0  0
  3 10  1  0  0  0  0
  5  6  1  0  0  0  0
  6  7  1  0  0  0  0
  7  8  1  0  0  0  0
  8  9  1  0  0  0  0
M  END
>  <CHROM.1>
-176.34087199,-37.19071038,178.76645562,175.70965981,-61.75541412,29.24802605
15.39595024,21.05697199,-2.65039040,0.09943274,0.97267171

>  <Name>
ligand

>  <RI>
0

>  <Rbt.Current_Directory>
/home/itssahil/PROJECTS/Mol_Feturizer/New_Systems/rnas/3DJ0

>  <Rbt.Executable>
rbdock ($Id: //depot/dev/client3/rdock/2013.1/src/exe/rbdock.cxx#4 $)

>  <Rbt.Library>
libRbt.so (2013.1, Build901 2013/11/27)

>  <Rbt.Parameter_File>
/export/apps/rDock/src/rDock_2013.1_src/data/scripts/dock_solv.prm

>  <Rbt.Receptor>
prm/pocket_docking_5.prm

>  <SCORE>
-6.06654

>  <SCORE.INTER>
-3.83754

>  <SCORE.INTER.CONST>
1

>  <SCORE.INTER.POLAR>
0

>  <SCORE.INTER.ROT>
5

>  <SCORE.INTER.SOLV>
19.2406

>  <SCORE.INTER.VDW>
-15.9052

>  <SCORE.INTER.norm>
-0.383754

>  <SCORE.INTRA>
-2.22901

>  <SCORE.INTRA.DIHEDRAL>
-3.77128

>  <SCORE.INTRA.DIHEDRAL.0>
6.00299

>  <SCORE.INTRA.POLAR>
0

>  <SCORE.INTRA.POLAR.0>
0

>  <SCORE.INTRA.REPUL>
0

>  <SCORE.INTRA.REPUL.0>
0

>  <SCORE.INTRA.SOLV>
-0.170177

>  <SCORE.INTRA.SOLV.lig_0>
-39.3257

>  <SCORE.INTRA.VDW>
-0.258281

>  <SCORE.INTRA.VDW.0>
-0.734044

>  <SCORE.INTRA.norm>
-0.222901

>  <SCORE.RESTR>
0

>  <SCORE.RESTR.CAVITY>
0

>  <SCORE.RESTR.norm>
0

>  <SCORE.SYSTEM>
0

>  <SCORE.SYSTEM.CONST>
0

>  <SCORE.SYSTEM.DIHEDRAL>
0

>  <SCORE.SYSTEM.SOLV>
0

>  <SCORE.SYSTEM.norm>
0

>  <SCORE.heavy>
10

>  <SCORE.norm>
-0.606654

>  <RMSD>
5.137

$$$$
ligand
 OpenBabel11021811473D
libRbt.so/2013.1/901 2013/11/27
 10  9  0  0  0  0  0  0  0  0999 V2000
   26.2035   14.7394   21.3703 N   0  0  0  0  0  0  0  0  0  0  0  0
   27.3962   15.5211   21.1024 C   0  0  2  0  0  0  0  0  0  0  0  0
   27.8237   15.3616   19.6679 C   0  0  0  0  0  0  0  0  0  0  0  0
   28.6535   16.1726   19.1861 O   0  0  0  0  0  0  0  0  0  0  0  0
   28.5117   15.0822   22.0413 C   0  0  0  0  0  0  0  0  0  0  0  0
   29.6440   15.9228   21.8343 O   0  0  0  0  0  0  0  0  0  0  0  0
   30.6805   15.4780   22.7093 C   0  0  0  0  0  0  0  0  0  0  0  0
   31.9048   16.3644   22.4917 C   0  0  0  0  0  0  0  0  0  0  0  0
   32.4192   16.1819   21.1455 N   0  0  0  0  0  0  0  0  0  0  0  0
   27.7318   14.2109   19.1951 O   0  0  0  0  0  0  0  0  0  0  0  0
  2  1  1  6  0  0  0
  2  5  1  0  0  0  0
  2  3  1  0  0  0  0
  3  4  1  0  0  0  0
  3 10  1  0  0  0  0
  5  6  1  0  0  0  0
  6  7  1  0  0  0  0
  7  8  1  0  0  0  0
  8  9  1  0  0  0  0
M  END
>  <CHROM.1>
-175.80491290,165.00210518,-179.09866746,179.61856755,-64.81629591,29.10034965
15.50157059,21.04281081,2.76043512,-0.27179042,-1.52143074

>  <Name>
ligand

>  <RI>
0

>  <Rbt.Current_Directory>
/home/itssahil/PROJECTS/Mol_Feturizer/New_Systems/rnas/3DJ0

>  <Rbt.Executable>
rbdock ($Id: //depot/dev/client3/rdock/2013.1/src/exe/rbdock.cxx#4 $)

>  <Rbt.Library>
libRbt.so (2013.1, Build901 2013/11/27)

>  <Rbt.Parameter_File>
/export/apps/rDock/src/rDock_2013.1_src/data/scripts/dock_solv.prm

>  <Rbt.Receptor>
prm/pocket_docking_6.prm

>  <SCORE>
-7.566

>  <SCORE.INTER>
-5.62561

>  <SCORE.INTER.CONST>
1

>  <SCORE.INTER.POLAR>
0

>  <SCORE.INTER.ROT>
5

>  <SCORE.INTER.SOLV>
20.9732

>  <SCORE.INTER.VDW>
-17.6748

>  <SCORE.INTER.norm>
-0.562561

>  <SCORE.INTRA>
-1.94038

>  <SCORE.INTRA.DIHEDRAL>
-3.4902

>  <SCORE.INTRA.DIHEDRAL.0>
6.00299

>  <SCORE.INTRA.POLAR>
0

>  <SCORE.INTRA.POLAR.0>
0

>  <SCORE.INTRA.REPUL>
0

>  <SCORE.INTRA.REPUL.0>
0

>  <SCORE.INTRA.SOLV>
-0.0825287

>  <SCORE.INTRA.SOLV.lig_0>
-39.3257

>  <SCORE.INTRA.VDW>
-0.154019

>  <SCORE.INTRA.VDW.0>
-0.734044

>  <SCORE.INTRA.norm>
-0.194038

>  <SCORE.RESTR>
0

>  <SCORE.RESTR.CAVITY>
0

>  <SCORE.RESTR.norm>
0

>  <SCORE.SYSTEM>
0

>  <SCORE.SYSTEM.CONST>
0

>  <SCORE.SYSTEM.DIHEDRAL>
0

>  <SCORE.SYSTEM.SOLV>
0

>  <SCORE.SYSTEM.norm>
0

>  <SCORE.heavy>
10

>  <SCORE.norm>
-0.7566

>  <RMSD>
5.137

$$$$
ligand
 OpenBabel11021811473D
libRbt.so/2013.1/901 2013/11/27
 10  9  0  0  0  0  0  0  0  0999 V2000
   26.2320   14.7093   21.4218 N   0  0  0  0  0  0  0  0  0  0  0  0
   27.4119   15.5081   21.1476 C   0  0  2  0  0  0  0  0  0  0  0  0
   27.8126   15.3832   19.7020 C   0  0  0  0  0  0  0  0  0  0  0  0
   28.6197   16.2165   19.2197 O   0  0  0  0  0  0  0  0  0  0  0  0
   28.5496   15.0602   22.0550 C   0  0  0  0  0  0  0  0  0  0  0  0
   29.6641   15.9263   21.8564 O   0  0  0  0  0  0  0  0  0  0  0  0
   30.7126   15.4898   22.7212 C   0  0  0  0  0  0  0  0  0  0  0  0
   31.9086   16.4204   22.5322 C   0  0  0  0  0  0  0  0  0  0  0  0
   32.3878   16.3443   21.1630 N   0  0  0  0  0  0  0  0  0  0  0  0
   27.7291   14.2405   19.2086 O   0  0  0  0  0  0  0  0  0  0  0  0
  2  1  1  6  0  0  0
  2  5  1  0  0  0  0
  2  3  1  0  0  0  0
  3  4  1  0  0  0  0
  3 10  1  0  0  0  0
  5  6  1  0  0  0  0
  6  7  1  0  0  0  0
  7  8  1  0  0  0  0
  8  9  1  0  0  0  0
M  END
>  <CHROM.1>
-175.08238924,164.62567893,179.72999421,-179.28558965,-61.87104128,29.10586782
15.52821834,21.07078796,2.77109581,-0.30085287,-1.48750241

>  <Name>
ligand

>  <RI>
0

>  <Rbt.Current_Directory>
/home/itssahil/PROJECTS/Mol_Feturizer/New_Systems/rnas/3DJ0

>  <Rbt.Executable>
rbdock ($Id: //depot/dev/client3/rdock/2013.1/src/exe/rbdock.cxx#4 $)

>  <Rbt.Library>
libRbt.so (2013.1, Build901 2013/11/27)

>  <Rbt.Parameter_File>
/export/apps/rDock/src/rDock_2013.1_src/data/scripts/dock_solv.prm

>  <Rbt.Receptor>
prm/pocket_docking_8.prm

>  <SCORE>
-7.58696

>  <SCORE.INTER>
-5.63593

>  <SCORE.INTER.CONST>
1

>  <SCORE.INTER.POLAR>
0

>  <SCORE.INTER.ROT>
5

>  <SCORE.INTER.SOLV>
20.8089

>  <SCORE.INTER.VDW>
-17.6269

>  <SCORE.INTER.norm>
-0.563593

>  <SCORE.INTRA>
-1.95103

>  <SCORE.INTRA.DIHEDRAL>
-3.53439

>  <SCORE.INTRA.DIHEDRAL.0>
6.00299

>  <SCORE.INTRA.POLAR>
0

>  <SCORE.INTRA.POLAR.0>
0

>  <SCORE.INTRA.REPUL>
0

>  <SCORE.INTRA.REPUL.0>
0

>  <SCORE.INTRA.SOLV>
-0.0554352

>  <SCORE.INTRA.SOLV.lig_0>
-39.3257

>  <SCORE.INTRA.VDW>
-0.156115

>  <SCORE.INTRA.VDW.0>
-0.734044

>  <SCORE.INTRA.norm>
-0.195103

>  <SCORE.RESTR>
0

>  <SCORE.RESTR.CAVITY>
0

>  <SCORE.RESTR.norm>
0

>  <SCORE.SYSTEM>
0

>  <SCORE.SYSTEM.CONST>
0

>  <SCORE.SYSTEM.DIHEDRAL>
0

>  <SCORE.SYSTEM.SOLV>
0

>  <SCORE.SYSTEM.norm>
0

>  <SCORE.heavy>
10

>  <SCORE.norm>
-0.758696

>  <RMSD>
5.137

$$$$
ligand
 OpenBabel11021811473D
libRbt.so/2013.1/901 2013/11/27
 10  9  0  0  0  0  0  0  0  0999 V2000
   26.2531   14.7318   21.4363 N   0  0  0  0  0  0  0  0  0  0  0  0
   27.4367   15.5189   21.1450 C   0  0  2  0  0  0  0  0  0  0  0  0
   27.8066   15.4018   19.6905 C   0  0  0  0  0  0  0  0  0  0  0  0
   28.6189   16.2255   19.2006 O   0  0  0  0  0  0  0  0  0  0  0  0
   28.5871   15.0495   22.0252 C   0  0  0  0  0  0  0  0  0  0  0  0
   29.6878   15.9391   21.8561 O   0  0  0  0  0  0  0  0  0  0  0  0
   30.7516   15.4765   22.6880 C   0  0  0  0  0  0  0  0  0  0  0  0
   31.9341   16.4295   22.5284 C   0  0  0  0  0  0  0  0  0  0  0  0
   32.3722   16.4526   21.1436 N   0  0  0  0  0  0  0  0  0  0  0  0
   27.6927   14.2660   19.1875 O   0  0  0  0  0  0  0  0  0  0  0  0
  2  1  1  6  0  0  0
  2  5  1  0  0  0  0
  2  3  1  0  0  0  0
  3  4  1  0  0  0  0
  3 10  1  0  0  0  0
  5  6  1  0  0  0  0
  6  7  1  0  0  0  0
  7  8  1  0  0  0  0
  8  9  1  0  0  0  0
M  END
>  <CHROM.1>
-172.52177544,164.98096334,-179.88449061,-179.40243214,-60.16478944,29.11652461
15.54738126,21.05804718,2.77673014,-0.31219981,-1.46792970

>  <Name>
ligand

>  <RI>
0

>  <Rbt.Current_Directory>
/home/itssahil/PROJECTS/Mol_Feturizer/New_Systems/rnas/3DJ0

>  <Rbt.Executable>
rbdock ($Id: //depot/dev/client3/rdock/2013.1/src/exe/rbdock.cxx#4 $)

>  <Rbt.Library>
libRbt.so (2013.1, Build901 2013/11/27)

>  <Rbt.Parameter_File>
/export/apps/rDock/src/rDock_2013.1_src/data/scripts/dock_solv.prm

>  <Rbt.Receptor>
prm/pocket_docking_8.prm

>  <SCORE>
-7.59515

>  <SCORE.INTER>
-5.65746

>  <SCORE.INTER.CONST>
1

>  <SCORE.INTER.POLAR>
0

>  <SCORE.INTER.ROT>
5

>  <SCORE.INTER.SOLV>
20.7844

>  <SCORE.INTER.VDW>
-17.6331

>  <SCORE.INTER.norm>
-0.565746

>  <SCORE.INTRA>
-1.93768

>  <SCORE.INTRA.DIHEDRAL>
-3.44193

>  <SCORE.INTRA.DIHEDRAL.0>
6.00299

>  <SCORE.INTRA.POLAR>
0

>  <SCORE.INTRA.POLAR.0>
0

>  <SCORE.INTRA.REPUL>
0

>  <SCORE.INTRA.REPUL.0>
0

>  <SCORE.INTRA.SOLV>
-0.0396304

>  <SCORE.INTRA.SOLV.lig_0>
-39.3257

>  <SCORE.INTRA.VDW>
-0.196902

>  <SCORE.INTRA.VDW.0>
-0.734044

>  <SCORE.INTRA.norm>
-0.193768

>  <SCORE.RESTR>
0

>  <SCORE.RESTR.CAVITY>
0

>  <SCORE.RESTR.norm>
0

>  <SCORE.SYSTEM>
0

>  <SCORE.SYSTEM.CONST>
0

>  <SCORE.SYSTEM.DIHEDRAL>
0

>  <SCORE.SYSTEM.SOLV>
0

>  <SCORE.SYSTEM.norm>
0

>  <SCORE.heavy>
10

>  <SCORE.norm>
-0.759515

>  <RMSD>
5.142

$$$$
ligand
 OpenBabel11021811473D
libRbt.so/2013.1/901 2013/11/27
 10  9  0  0  0  0  0  0  0  0999 V2000
   26.2540   14.7225   21.4313 N   0  0  0  0  0  0  0  0  0  0  0  0
   27.4298   15.5267   21.1552 C   0  0  2  0  0  0  0  0  0  0  0  0
   27.8066   15.4332   19.7008 C   0  0  0  0  0  0  0  0  0  0  0  0
   28.6599   16.2321   19.2403 O   0  0  0  0  0  0  0  0  0  0  0  0
   28.5819   15.0588   22.0339 C   0  0  0  0  0  0  0  0  0  0  0  0
   29.6808   15.9507   21.8644 O   0  0  0  0  0  0  0  0  0  0  0  0
   30.7470   15.4882   22.6933 C   0  0  0  0  0  0  0  0  0  0  0  0
   31.9221   16.4522   22.5451 C   0  0  0  0  0  0  0  0  0  0  0  0
   32.4034   16.4444   21.1745 N   0  0  0  0  0  0  0  0  0  0  0  0
   27.6455   14.3181   19.1653 O   0  0  0  0  0  0  0  0  0  0  0  0
  2  1  1  6  0  0  0
  2  5  1  0  0  0  0
  2  3  1  0  0  0  0
  3  4  1  0  0  0  0
  3 10  1  0  0  0  0
  5  6  1  0  0  0  0
  6  7  1  0  0  0  0
  7  8  1  0  0  0  0
  8  9  1  0  0  0  0
M  END
>  <CHROM.1>
-173.45423696,168.36244041,-179.79855102,-178.79117096,-62.89414460,29.11541201
15.56129242,21.06826859,2.77660884,-0.31139617,-1.46698992

>  <Name>
ligand

>  <RI>
0

>  <Rbt.Current_Directory>
/home/itssahil/PROJECTS/Mol_Feturizer/New_Systems/rnas/3DJ0

>  <Rbt.Executable>
rbdock ($Id: //depot/dev/client3/rdock/2013.1/src/exe/rbdock.cxx#4 $)

>  <Rbt.Library>
libRbt.so (2013.1, Build901 2013/11/27)

>  <Rbt.Parameter_File>
/export/apps/rDock/src/rDock_2013.1_src/data/scripts/dock_solv.prm

>  <Rbt.Receptor>
prm/pocket_docking_3.prm

>  <SCORE>
-7.60375

>  <SCORE.INTER>
-5.68616

>  <SCORE.INTER.CONST>
1

>  <SCORE.INTER.POLAR>
0

>  <SCORE.INTER.ROT>
5

>  <SCORE.INTER.SOLV>
20.7138

>  <SCORE.INTER.VDW>
-17.6287

>  <SCORE.INTER.norm>
-0.568616

>  <SCORE.INTRA>
-1.91759

>  <SCORE.INTRA.DIHEDRAL>
-3.51982

>  <SCORE.INTRA.DIHEDRAL.0>
6.00299

>  <SCORE.INTRA.POLAR>
0

>  <SCORE.INTRA.POLAR.0>
0

>  <SCORE.INTRA.REPUL>
0

>  <SCORE.INTRA.REPUL.0>
0

>  <SCORE.INTRA.SOLV>
-0.0437764

>  <SCORE.INTRA.SOLV.lig_0>
-39.3257

>  <SCORE.INTRA.VDW>
-0.135791

>  <SCORE.INTRA.VDW.0>
-0.734044

>  <SCORE.INTRA.norm>
-0.191759

>  <SCORE.RESTR>
0

>  <SCORE.RESTR.CAVITY>
0

>  <SCORE.RESTR.norm>
0

>  <SCORE.SYSTEM>
0

>  <SCORE.SYSTEM.CONST>
0

>  <SCORE.SYSTEM.DIHEDRAL>
0

>  <SCORE.SYSTEM.SOLV>
0

>  <SCORE.SYSTEM.norm>
0

>  <SCORE.heavy>
10

>  <SCORE.norm>
-0.760375

>  <RMSD>
5.143

$$$$
ligand
 OpenBabel11021811473D
libRbt.so/2013.1/901 2013/11/27
 10  9  0  0  0  0  0  0  0  0999 V2000
   26.2519   14.7003   21.4150 N   0  0  0  0  0  0  0  0  0  0  0  0
   27.4285   15.5053   21.1447 C   0  0  2  0  0  0  0  0  0  0  0  0
   27.8061   15.4208   19.6899 C   0  0  0  0  0  0  0  0  0  0  0  0
   28.6479   16.2327   19.2312 O   0  0  0  0  0  0  0  0  0  0  0  0
   28.5798   15.0309   22.0210 C   0  0  0  0  0  0  0  0  0  0  0  0
   29.6769   15.9271   21.8632 O   0  0  0  0  0  0  0  0  0  0  0  0
   30.7394   15.4631   22.6960 C   0  0  0  0  0  0  0  0  0  0  0  0
   31.9189   16.4216   22.5467 C   0  0  0  0  0  0  0  0  0  0  0  0
   32.4021   16.4079   21.1769 N   0  0  0  0  0  0  0  0  0  0  0  0
   27.6605   14.3049   19.1516 O   0  0  0  0  0  0  0  0  0  0  0  0
  2  1  1  6  0  0  0
  2  5  1  0  0  0  0
  2  3  1  0  0  0  0
  3  4  1  0  0  0  0
  3 10  1  0  0  0  0
  5  6  1  0  0  0  0
  6  7  1  0  0  0  0
  7  8  1  0  0  0  0
  8  9  1  0  0  0  0
M  END
>  <CHROM.1>
-173.14883820,167.48468228,179.85052364,-179.50399109,-62.83505552,29.11356972
15.54037424,21.06146784,2.77371600,-0.31036203,-1.46140517

>  <Name>
ligand

>  <RI>
0

>  <Rbt.Current_Directory>
/home/itssahil/PROJECTS/Mol_Feturizer/New_Systems/rnas/3DJ0

>  <Rbt.Executable>
rbdock ($Id: //depot/dev/client3/rdock/2013.1/src/exe/rbdock.cxx#4 $)

>  <Rbt.Library>
libRbt.so (2013.1, Build901 2013/11/27)

>  <Rbt.Parameter_File>
/export/apps/rDock/src/rDock_2013.1_src/data/scripts/dock_solv.prm

>  <Rbt.Receptor>
prm/pocket_docking_7.prm

>  <SCORE>
-7.58788

>  <SCORE.INTER>
-5.6604

>  <SCORE.INTER.CONST>
1

>  <SCORE.INTER.POLAR>
0

>  <SCORE.INTER.ROT>
5

>  <SCORE.INTER.SOLV>
20.7368

>  <SCORE.INTER.VDW>
-17.6192

>  <SCORE.INTER.norm>
-0.56604

>  <SCORE.INTRA>
-1.92748

>  <SCORE.INTRA.DIHEDRAL>
-3.49509

>  <SCORE.INTRA.DIHEDRAL.0>
6.00299

>  <SCORE.INTRA.POLAR>
0

>  <SCORE.INTRA.POLAR.0>
0

>  <SCORE.INTRA.REPUL>
0

>  <SCORE.INTRA.REPUL.0>
0

>  <SCORE.INTRA.SOLV>
-0.0566068

>  <SCORE.INTRA.SOLV.lig_0>
-39.3257

>  <SCORE.INTRA.VDW>
-0.151636

>  <SCORE.INTRA.VDW.0>
-0.734044

>  <SCORE.INTRA.norm>
-0.192748

>  <SCORE.RESTR>
0

>  <SCORE.RESTR.CAVITY>
0

>  <SCORE.RESTR.norm>
0

>  <SCORE.SYSTEM>
0

>  <SCORE.SYSTEM.CONST>
0

>  <SCORE.SYSTEM.DIHEDRAL>
0

>  <SCORE.SYSTEM.SOLV>
0

>  <SCORE.SYSTEM.norm>
0

>  <SCORE.heavy>
10

>  <SCORE.norm>
-0.758788

>  <RMSD>
5.144

$$$$
ligand
 OpenBabel11021811473D
libRbt.so/2013.1/901 2013/11/27
 10  9  0  0  0  0  0  0  0  0999 V2000
   26.2541   14.7297   21.4427 N   0  0  0  0  0  0  0  0  0  0  0  0
   27.4402   15.5136   21.1526 C   0  0  2  0  0  0  0  0  0  0  0  0
   27.8103   15.3968   19.6981 C   0  0  0  0  0  0  0  0  0  0  0  0
   28.6354   16.2104   19.2126 O   0  0  0  0  0  0  0  0  0  0  0  0
   28.5888   15.0401   22.0329 C   0  0  0  0  0  0  0  0  0  0  0  0
   29.6934   15.9246   21.8623 O   0  0  0  0  0  0  0  0  0  0  0  0
   30.7458   15.4741   22.7151 C   0  0  0  0  0  0  0  0  0  0  0  0
   31.9378   16.4131   22.5425 C   0  0  0  0  0  0  0  0  0  0  0  0
   32.4474   16.3270   21.1849 N   0  0  0  0  0  0  0  0  0  0  0  0
   27.6805   14.2647   19.1905 O   0  0  0  0  0  0  0  0  0  0  0  0
  2  1  1  6  0  0  0
  2  5  1  0  0  0  0
  2  3  1  0  0  0  0
  3  4  1  0  0  0  0
  3 10  1  0  0  0  0
  5  6  1  0  0  0  0
  6  7  1  0  0  0  0
  7  8  1  0  0  0  0
  8  9  1  0  0  0  0
M  END
>  <CHROM.1>
-172.67839721,165.67868963,178.93768435,179.97942460,-64.16076067,29.12564704
15.52788173,21.07117851,2.76993399,-0.29612330,-1.48110350

>  <Name>
ligand

>  <RI>
0

>  <Rbt.Current_Directory>
/home/itssahil/PROJECTS/Mol_Feturizer/New_Systems/rnas/3DJ0

>  <Rbt.Executable>
rbdock ($Id: //depot/dev/client3/rdock/2013.1/src/exe/rbdock.cxx#4 $)

>  <Rbt.Library>
libRbt.so (2013.1, Build901 2013/11/27)

>  <Rbt.Parameter_File>
/export/apps/rDock/src/rDock_2013.1_src/data/scripts/dock_solv.prm

>  <Rbt.Receptor>
prm/pocket_docking_3.prm

>  <SCORE>
-7.63391

>  <SCORE.INTER>
-5.68906

>  <SCORE.INTER.CONST>
1

>  <SCORE.INTER.POLAR>
0

>  <SCORE.INTER.ROT>
5

>  <SCORE.INTER.SOLV>
20.8705

>  <SCORE.INTER.VDW>
-17.6829

>  <SCORE.INTER.norm>
-0.568906

>  <SCORE.INTRA>
-1.94485

>  <SCORE.INTRA.DIHEDRAL>
-3.39561

>  <SCORE.INTRA.DIHEDRAL.0>
6.00299

>  <SCORE.INTRA.POLAR>
0

>  <SCORE.INTRA.POLAR.0>
0

>  <SCORE.INTRA.REPUL>
0

>  <SCORE.INTRA.REPUL.0>
0

>  <SCORE.INTRA.SOLV>
-0.133722

>  <SCORE.INTRA.SOLV.lig_0>
-39.3257

>  <SCORE.INTRA.VDW>
-0.180183

>  <SCORE.INTRA.VDW.0>
-0.734044

>  <SCORE.INTRA.norm>
-0.194485

>  <SCORE.RESTR>
0

>  <SCORE.RESTR.CAVITY>
0

>  <SCORE.RESTR.norm>
0

>  <SCORE.SYSTEM>
0

>  <SCORE.SYSTEM.CONST>
0

>  <SCORE.SYSTEM.DIHEDRAL>
0

>  <SCORE.SYSTEM.SOLV>
0

>  <SCORE.SYSTEM.norm>
0

>  <SCORE.heavy>
10

>  <SCORE.norm>
-0.763391

>  <RMSD>
5.145

$$$$
ligand
 OpenBabel11021811473D
libRbt.so/2013.1/901 2013/11/27
 10  9  0  0  0  0  0  0  0  0999 V2000
   26.2465   14.7258   21.4395 N   0  0  0  0  0  0  0  0  0  0  0  0
   27.4268   15.5239   21.1650 C   0  0  2  0  0  0  0  0  0  0  0  0
   27.7930   15.4448   19.7070 C   0  0  0  0  0  0  0  0  0  0  0  0
   28.6532   16.2391   19.2514 O   0  0  0  0  0  0  0  0  0  0  0  0
   28.5810   15.0364   22.0301 C   0  0  0  0  0  0  0  0  0  0  0  0
   29.6893   15.9155   21.8556 O   0  0  0  0  0  0  0  0  0  0  0  0
   30.7460   15.4541   22.6972 C   0  0  0  0  0  0  0  0  0  0  0  0
   31.9275   16.4105   22.5512 C   0  0  0  0  0  0  0  0  0  0  0  0
   32.4013   16.4114   21.1780 N   0  0  0  0  0  0  0  0  0  0  0  0
   27.6145   14.3390   19.1580 O   0  0  0  0  0  0  0  0  0  0  0  0
  2  1  1  6  0  0  0
  2  5  1  0  0  0  0
  2  3  1  0  0  0  0
  3  4  1  0  0  0  0
  3 10  1  0  0  0  0
  5  6  1  0  0  0  0
  6  7  1  0  0  0  0
  7  8  1  0  0  0  0
  8  9  1  0  0  0  0
M  END
>  <CHROM.1>
-173.90868826,168.62975626,178.77900669,-178.38904904,-61.63308417,29.11010883
15.54881483,21.07089071,2.77899535,-0.30559324,-1.45388267

>  <Name>
ligand

>  <RI>
0

>  <Rbt.Current_Directory>
/home/itssahil/PROJECTS/Mol_Feturizer/New_Systems/rnas/3DJ0

>  <Rbt.Executable>
rbdock ($Id: //depot/dev/client3/rdock/2013.1/src/exe/rbdock.cxx#4 $)

>  <Rbt.Library>
libRbt.so (2013.1, Build901 2013/11/27)

>  <Rbt.Parameter_File>
/export/apps/rDock/src/rDock_2013.1_src/data/scripts/dock_solv.prm

>  <Rbt.Receptor>
prm/pocket_docking_7.prm

>  <SCORE>
-7.61441

>  <SCORE.INTER>
-5.70643

>  <SCORE.INTER.CONST>
1

>  <SCORE.INTER.POLAR>
0

>  <SCORE.INTER.ROT>
5

>  <SCORE.INTER.SOLV>
20.741

>  <SCORE.INTER.VDW>
-17.6513

>  <SCORE.INTER.norm>
-0.570643

>  <SCORE.INTRA>
-1.90798

>  <SCORE.INTRA.DIHEDRAL>
-3.5545

>  <SCORE.INTRA.DIHEDRAL.0>
6.00299

>  <SCORE.INTRA.POLAR>
0

>  <SCORE.INTRA.POLAR.0>
0

>  <SCORE.INTRA.REPUL>
0

>  <SCORE.INTRA.REPUL.0>
0

>  <SCORE.INTRA.SOLV>
-0.0261927

>  <SCORE.INTRA.SOLV.lig_0>
-39.3257

>  <SCORE.INTRA.VDW>
-0.117639

>  <SCORE.INTRA.VDW.0>
-0.734044

>  <SCORE.INTRA.norm>
-0.190798

>  <SCORE.RESTR>
0

>  <SCORE.RESTR.CAVITY>
0

>  <SCORE.RESTR.norm>
0

>  <SCORE.SYSTEM>
0

>  <SCORE.SYSTEM.CONST>
0

>  <SCORE.SYSTEM.DIHEDRAL>
0

>  <SCORE.SYSTEM.SOLV>
0

>  <SCORE.SYSTEM.norm>
0

>  <SCORE.heavy>
10

>  <SCORE.norm>
-0.761441

>  <RMSD>
5.146

$$$$
ligand
 OpenBabel11021811473D
libRbt.so/2013.1/901 2013/11/27
 10  9  0  0  0  0  0  0  0  0999 V2000
   26.2077   14.7117   21.3725 N   0  0  0  0  0  0  0  0  0  0  0  0
   27.3897   15.5142   21.1182 C   0  0  2  0  0  0  0  0  0  0  0  0
   27.8004   15.4103   19.6737 C   0  0  0  0  0  0  0  0  0  0  0  0
   28.6327   16.2329   19.2167 O   0  0  0  0  0  0  0  0  0  0  0  0
   28.5209   15.0528   22.0269 C   0  0  0  0  0  0  0  0  0  0  0  0
   29.6353   15.9242   21.8522 O   0  0  0  0  0  0  0  0  0  0  0  0
   30.6779   15.4743   22.7172 C   0  0  0  0  0  0  0  0  0  0  0  0
   31.8643   16.4250   22.5727 C   0  0  0  0  0  0  0  0  0  0  0  0
   32.3831   16.3721   21.2169 N   0  0  0  0  0  0  0  0  0  0  0  0
   27.6926   14.2809   19.1549 O   0  0  0  0  0  0  0  0  0  0  0  0
  2  1  1  6  0  0  0
  2  5  1  0  0  0  0
  2  3  1  0  0  0  0
  3  4  1  0  0  0  0
  3 10  1  0  0  0  0
  5  6  1  0  0  0  0
  6  7  1  0  0  0  0
  7  8  1  0  0  0  0
  8  9  1  0  0  0  0
M  END
>  <CHROM.1>
-174.87597440,166.12705854,179.76866896,-178.27301752,-63.29002927,29.08363765
15.53843469,21.06008963,2.75970380,-0.30470995,-1.47804677

>  <Name>
ligand

>  <RI>
0

>  <Rbt.Current_Directory>
/home/itssahil/PROJECTS/Mol_Feturizer/New_Systems/rnas/3DJ0

>  <Rbt.Executable>
rbdock ($Id: //depot/dev/client3/rdock/2013.1/src/exe/rbdock.cxx#4 $)

>  <Rbt.Library>
libRbt.so (2013.1, Build901 2013/11/27)

>  <Rbt.Parameter_File>
/export/apps/rDock/src/rDock_2013.1_src/data/scripts/dock_solv.prm

>  <Rbt.Receptor>
prm/pocket_docking_3.prm

>  <SCORE>
-7.58791

>  <SCORE.INTER>
-5.64384

>  <SCORE.INTER.CONST>
1

>  <SCORE.INTER.POLAR>
0

>  <SCORE.INTER.ROT>
5

>  <SCORE.INTER.SOLV>
20.6565

>  <SCORE.INTER.VDW>
-17.5814

>  <SCORE.INTER.norm>
-0.564384

>  <SCORE.INTRA>
-1.94406

>  <SCORE.INTRA.DIHEDRAL>
-3.51794

>  <SCORE.INTRA.DIHEDRAL.0>
6.00299

>  <SCORE.INTRA.POLAR>
0

>  <SCORE.INTRA.POLAR.0>
0

>  <SCORE.INTRA.REPUL>
0

>  <SCORE.INTRA.REPUL.0>
0

>  <SCORE.INTRA.SOLV>
-0.0814041

>  <SCORE.INTRA.SOLV.lig_0>
-39.3257

>  <SCORE.INTRA.VDW>
-0.144391

>  <SCORE.INTRA.VDW.0>
-0.734044

>  <SCORE.INTRA.norm>
-0.194406

>  <SCORE.RESTR>
0

>  <SCORE.RESTR.CAVITY>
0

>  <SCORE.RESTR.norm>
0

>  <SCORE.SYSTEM>
0

>  <SCORE.SYSTEM.CONST>
0

>  <SCORE.SYSTEM.DIHEDRAL>
0

>  <SCORE.SYSTEM.SOLV>
0

>  <SCORE.SYSTEM.norm>
0

>  <SCORE.heavy>
10

>  <SCORE.norm>
-0.758791

>  <RMSD>
5.147

$$$$
ligand
 OpenBabel11021811473D
libRbt.so/2013.1/901 2013/11/27
 10  9  0  0  0  0  0  0  0  0999 V2000
   26.2447   14.7155   21.4307 N   0  0  0  0  0  0  0  0  0  0  0  0
   27.4253   15.5113   21.1507 C   0  0  2  0  0  0  0  0  0  0  0  0
   27.8027   15.4068   19.6972 C   0  0  0  0  0  0  0  0  0  0  0  0
   28.6519   16.2060   19.2297 O   0  0  0  0  0  0  0  0  0  0  0  0
   28.5740   15.0421   22.0331 C   0  0  0  0  0  0  0  0  0  0  0  0
   29.6748   15.9321   21.8663 O   0  0  0  0  0  0  0  0  0  0  0  0
   30.7348   15.4734   22.7051 C   0  0  0  0  0  0  0  0  0  0  0  0
   31.9165   16.4283   22.5499 C   0  0  0  0  0  0  0  0  0  0  0  0
   32.4066   16.3966   21.1828 N   0  0  0  0  0  0  0  0  0  0  0  0
   27.6473   14.2862   19.1716 O   0  0  0  0  0  0  0  0  0  0  0  0
  2  1  1  6  0  0  0
  2  5  1  0  0  0  0
  2  3  1  0  0  0  0
  3  4  1  0  0  0  0
  3 10  1  0  0  0  0
  5  6  1  0  0  0  0
  6  7  1  0  0  0  0
  7  8  1  0  0  0  0
  8  9  1  0  0  0  0
M  END
>  <CHROM.1>
-173.04957469,167.72103982,179.83961978,-179.30740831,-63.12293946,29.11022770
15.53828946,21.06954417,2.77168423,-0.30658041,-1.47451645

>  <Name>
ligand

>  <RI>
0

>  <Rbt.Current_Directory>
/home/itssahil/PROJECTS/Mol_Feturizer/New_Systems/rnas/3DJ0

>  <Rbt.Executable>
rbdock ($Id: //depot/dev/client3/rdock/2013.1/src/exe/rbdock.cxx#4 $)

>  <Rbt.Library>
libRbt.so (2013.1, Build901 2013/11/27)

>  <Rbt.Parameter_File>
/export/apps/rDock/src/rDock_2013.1_src/data/scripts/dock_solv.prm

>  <Rbt.Receptor>
prm/pocket_docking_6.prm

>  <SCORE>
-7.60232

>  <SCORE.INTER>
-5.67625

>  <SCORE.INTER.CONST>
1

>  <SCORE.INTER.POLAR>
0

>  <SCORE.INTER.ROT>
5

>  <SCORE.INTER.SOLV>
20.7498

>  <SCORE.INTER.VDW>
-17.6341

>  <SCORE.INTER.norm>
-0.567625

>  <SCORE.INTRA>
-1.92606

>  <SCORE.INTRA.DIHEDRAL>
-3.48729

>  <SCORE.INTRA.DIHEDRAL.0>
6.00299

>  <SCORE.INTRA.POLAR>
0

>  <SCORE.INTRA.POLAR.0>
0

>  <SCORE.INTRA.REPUL>
0

>  <SCORE.INTRA.REPUL.0>
0

>  <SCORE.INTRA.SOLV>
-0.0643913

>  <SCORE.INTRA.SOLV.lig_0>
-39.3257

>  <SCORE.INTRA.VDW>
-0.150223

>  <SCORE.INTRA.VDW.0>
-0.734044

>  <SCORE.INTRA.norm>
-0.192606

>  <SCORE.RESTR>
0

>  <SCORE.RESTR.CAVITY>
0

>  <SCORE.RESTR.norm>
0

>  <SCORE.SYSTEM>
0

>  <SCORE.SYSTEM.CONST>
0

>  <SCORE.SYSTEM.DIHEDRAL>
0

>  <SCORE.SYSTEM.SOLV>
0

>  <SCORE.SYSTEM.norm>
0

>  <SCORE.heavy>
10

>  <SCORE.norm>
-0.760232

>  <RMSD>
5.148

$$$$
ligand
 OpenBabel11021811473D
libRbt.so/2013.1/901 2013/11/27
 10  9  0  0  0  0  0  0  0  0999 V2000
   28.0364   14.5125   19.1693 N   0  0  0  0  0  0  0  0  0  0  0  0
   28.3973   14.4561   20.5736 C   0  0  2  0  0  0  0  0  0  0  0  0
   27.3109   15.0573   21.4248 C   0  0  0  0  0  0  0  0  0  0  0  0
   26.1286   15.0468   21.0001 O   0  0  0  0  0  0  0  0  0  0  0  0
   29.7114   15.1942   20.7895 C   0  0  0  0  0  0  0  0  0  0  0  0
   30.1474   14.9743   22.1286 O   0  0  0  0  0  0  0  0  0  0  0  0
   31.4282   15.5876   22.2743 C   0  0  0  0  0  0  0  0  0  0  0  0
   31.2229   17.0911   22.4461 C   0  0  0  0  0  0  0  0  0  0  0  0
   32.5061   17.7558   22.5926 N   0  0  0  0  0  0  0  0  0  0  0  0
   27.5309   15.0848   22.6524 O   0  0  0  0  0  0  0  0  0  0  0  0
  2  1  1  6  0  0  0
  2  5  1  0  0  0  0
  2  3  1  0  0  0  0
  3  4  1  0  0  0  0
  3 10  1  0  0  0  0
  5  6  1  0  0  0  0
  6  7  1  0  0  0  0
  7  8  1  0  0  0  0
  8  9  1  0  0  0  0
M  END
>  <CHROM.1>
-172.02223787,26.66763332,175.56093081,78.34276455,-179.76705401,29.20748851
15.46782830,21.52971581,-2.69069263,0.24667176,1.13910368

>  <Name>
ligand

>  <RI>
0

>  <Rbt.Current_Directory>
/home/itssahil/PROJECTS/Mol_Feturizer/New_Systems/rnas/3DJ0

>  <Rbt.Executable>
rbdock ($Id: //depot/dev/client3/rdock/2013.1/src/exe/rbdock.cxx#4 $)

>  <Rbt.Library>
libRbt.so (2013.1, Build901 2013/11/27)

>  <Rbt.Parameter_File>
/export/apps/rDock/src/rDock_2013.1_src/data/scripts/dock_solv.prm

>  <Rbt.Receptor>
prm/pocket_docking_7.prm

>  <SCORE>
-5.57033

>  <SCORE.INTER>
-6.10412

>  <SCORE.INTER.CONST>
1

>  <SCORE.INTER.POLAR>
0

>  <SCORE.INTER.ROT>
5

>  <SCORE.INTER.SOLV>
18.4477

>  <SCORE.INTER.VDW>
-17.152

>  <SCORE.INTER.norm>
-0.610412

>  <SCORE.INTRA>
0.533789

>  <SCORE.INTRA.DIHEDRAL>
-1.43803

>  <SCORE.INTRA.DIHEDRAL.0>
6.00299

>  <SCORE.INTRA.POLAR>
0

>  <SCORE.INTRA.POLAR.0>
0

>  <SCORE.INTRA.REPUL>
0

>  <SCORE.INTRA.REPUL.0>
0

>  <SCORE.INTRA.SOLV>
-0.772211

>  <SCORE.INTRA.SOLV.lig_0>
-39.3257

>  <SCORE.INTRA.VDW>
1.63891

>  <SCORE.INTRA.VDW.0>
-0.734044

>  <SCORE.INTRA.norm>
0.0533789

>  <SCORE.RESTR>
0

>  <SCORE.RESTR.CAVITY>
0

>  <SCORE.RESTR.norm>
0

>  <SCORE.SYSTEM>
0

>  <SCORE.SYSTEM.CONST>
0

>  <SCORE.SYSTEM.DIHEDRAL>
0

>  <SCORE.SYSTEM.SOLV>
0

>  <SCORE.SYSTEM.norm>
0

>  <SCORE.heavy>
10

>  <SCORE.norm>
-0.557033

>  <RMSD>
5.148

$$$$
ligand
 OpenBabel11021811473D
libRbt.so/2013.1/901 2013/11/27
 10  9  0  0  0  0  0  0  0  0999 V2000
   26.2457   14.7244   21.4372 N   0  0  0  0  0  0  0  0  0  0  0  0
   27.4232   15.5233   21.1531 C   0  0  2  0  0  0  0  0  0  0  0  0
   27.7931   15.4234   19.6973 C   0  0  0  0  0  0  0  0  0  0  0  0
   28.6516   16.2136   19.2316 O   0  0  0  0  0  0  0  0  0  0  0  0
   28.5775   15.0541   22.0281 C   0  0  0  0  0  0  0  0  0  0  0  0
   29.6698   15.9562   21.8706 O   0  0  0  0  0  0  0  0  0  0  0  0
   30.7451   15.4814   22.6805 C   0  0  0  0  0  0  0  0  0  0  0  0
   31.9127   16.4566   22.5468 C   0  0  0  0  0  0  0  0  0  0  0  0
   32.3466   16.5278   21.1623 N   0  0  0  0  0  0  0  0  0  0  0  0
   27.6196   14.3088   19.1647 O   0  0  0  0  0  0  0  0  0  0  0  0
  2  1  1  6  0  0  0
  2  5  1  0  0  0  0
  2  3  1  0  0  0  0
  3  4  1  0  0  0  0
  3 10  1  0  0  0  0
  5  6  1  0  0  0  0
  6  7  1  0  0  0  0
  7  8  1  0  0  0  0
  8  9  1  0  0  0  0
M  END
>  <CHROM.1>
-172.33008922,168.68221025,-178.95535582,-178.71561893,-60.45347016,29.10074686
15.56521502,21.06516199,2.77827491,-0.32205743,-1.46194952

>  <Name>
ligand

>  <RI>
0

>  <Rbt.Current_Directory>
/home/itssahil/PROJECTS/Mol_Feturizer/New_Systems/rnas/3DJ0

>  <Rbt.Executable>
rbdock ($Id: //depot/dev/client3/rdock/2013.1/src/exe/rbdock.cxx#4 $)

>  <Rbt.Library>
libRbt.so (2013.1, Build901 2013/11/27)

>  <Rbt.Parameter_File>
/export/apps/rDock/src/rDock_2013.1_src/data/scripts/dock_solv.prm

>  <Rbt.Receptor>
prm/blind_docking_60.prm

>  <SCORE>
-7.59267

>  <SCORE.INTER>
-5.69464

>  <SCORE.INTER.CONST>
1

>  <SCORE.INTER.POLAR>
0

>  <SCORE.INTER.ROT>
5

>  <SCORE.INTER.SOLV>
20.6704

>  <SCORE.INTER.VDW>
-17.6199

>  <SCORE.INTER.norm>
-0.569464

>  <SCORE.INTRA>
-1.89803

>  <SCORE.INTRA.DIHEDRAL>
-3.49388

>  <SCORE.INTRA.DIHEDRAL.0>
6.00299

>  <SCORE.INTRA.POLAR>
0

>  <SCORE.INTRA.POLAR.0>
0

>  <SCORE.INTRA.REPUL>
0

>  <SCORE.INTRA.REPUL.0>
0

>  <SCORE.INTRA.SOLV>
0.0134196

>  <SCORE.INTRA.SOLV.lig_0>
-39.3257

>  <SCORE.INTRA.VDW>
-0.157797

>  <SCORE.INTRA.VDW.0>
-0.734044

>  <SCORE.INTRA.norm>
-0.189803

>  <SCORE.RESTR>
0

>  <SCORE.RESTR.CAVITY>
0

>  <SCORE.RESTR.norm>
0

>  <SCORE.SYSTEM>
0

>  <SCORE.SYSTEM.CONST>
0

>  <SCORE.SYSTEM.DIHEDRAL>
0

>  <SCORE.SYSTEM.SOLV>
0

>  <SCORE.SYSTEM.norm>
0

>  <SCORE.heavy>
10

>  <SCORE.norm>
-0.759267

>  <RMSD>
5.150

$$$$
ligand
 OpenBabel11021811473D
libRbt.so/2013.1/901 2013/11/27
 10  9  0  0  0  0  0  0  0  0999 V2000
   26.2233   14.9553   21.1362 N   0  0  0  0  0  0  0  0  0  0  0  0
   27.5193   15.5119   20.7960 C   0  0  2  0  0  0  0  0  0  0  0  0
   28.0742   14.8489   19.5637 C   0  0  0  0  0  0  0  0  0  0  0  0
   29.3132   14.8847   19.3585 O   0  0  0  0  0  0  0  0  0  0  0  0
   28.4720   15.3333   21.9702 C   0  0  0  0  0  0  0  0  0  0  0  0
   29.6704   16.0576   21.7040 O   0  0  0  0  0  0  0  0  0  0  0  0
   30.5653   15.8314   22.7930 C   0  0  0  0  0  0  0  0  0  0  0  0
   31.8629   16.5859   22.5118 C   0  0  0  0  0  0  0  0  0  0  0  0
   32.4697   16.0946   21.2868 N   0  0  0  0  0  0  0  0  0  0  0  0
   27.3916   13.9188   19.0893 O   0  0  0  0  0  0  0  0  0  0  0  0
  2  1  1  1  0  0  0
  2  5  1  0  0  0  0
  2  3  1  0  0  0  0
  3  4  1  0  0  0  0
  3 10  1  0  0  0  0
  5  6  1  0  0  0  0
  6  7  1  0  0  0  0
  7  8  1  0  0  0  0
  8  9  1  0  0  0  0
M  END
>  <CHROM.1>
-171.32932454,-158.05946537,-177.74732501,179.19677465,-60.76581007,29.16018601
15.38688875,20.99280773,2.61166700,-0.16721104,-1.93277475

>  <Name>
ligand

>  <RI>
0

>  <Rbt.Current_Directory>
/home/itssahil/PROJECTS/Mol_Feturizer/New_Systems/rnas/3DJ0

>  <Rbt.Executable>
rbdock ($Id: //depot/dev/client3/rdock/2013.1/src/exe/rbdock.cxx#4 $)

>  <Rbt.Library>
libRbt.so (2013.1, Build901 2013/11/27)

>  <Rbt.Parameter_File>
/export/apps/rDock/src/rDock_2013.1_src/data/scripts/dock_solv.prm

>  <Rbt.Receptor>
prm/pocket_docking_2.prm

>  <SCORE>
-6.70552

>  <SCORE.INTER>
-5.76551

>  <SCORE.INTER.CONST>
1

>  <SCORE.INTER.POLAR>
0

>  <SCORE.INTER.ROT>
5

>  <SCORE.INTER.SOLV>
20.0544

>  <SCORE.INTER.VDW>
-17.4618

>  <SCORE.INTER.norm>
-0.576551

>  <SCORE.INTRA>
-0.940805

>  <SCORE.INTRA.DIHEDRAL>
-3.6381

>  <SCORE.INTRA.DIHEDRAL.0>
6.00299

>  <SCORE.INTRA.POLAR>
0

>  <SCORE.INTRA.POLAR.0>
0

>  <SCORE.INTRA.REPUL>
0

>  <SCORE.INTRA.REPUL.0>
0

>  <SCORE.INTRA.SOLV>
0.402092

>  <SCORE.INTRA.SOLV.lig_0>
-39.3257

>  <SCORE.INTRA.VDW>
0.677199

>  <SCORE.INTRA.VDW.0>
-0.734044

>  <SCORE.INTRA.norm>
-0.0940805

>  <SCORE.RESTR>
0.000795415

>  <SCORE.RESTR.CAVITY>
0.000795415

>  <SCORE.RESTR.norm>
7.95415e-05

>  <SCORE.SYSTEM>
0

>  <SCORE.SYSTEM.CONST>
0

>  <SCORE.SYSTEM.DIHEDRAL>
0

>  <SCORE.SYSTEM.SOLV>
0

>  <SCORE.SYSTEM.norm>
0

>  <SCORE.heavy>
10

>  <SCORE.norm>
-0.670552

>  <RMSD>
5.152

$$$$
ligand
 OpenBabel11021811473D
libRbt.so/2013.1/901 2013/11/27
 10  9  0  0  0  0  0  0  0  0999 V2000
   27.8219   14.1931   19.1306 N   0  0  0  0  0  0  0  0  0  0  0  0
   28.3082   14.9333   20.2799 C   0  0  2  0  0  0  0  0  0  0  0  0
   27.3283   14.8471   21.4195 C   0  0  0  0  0  0  0  0  0  0  0  0
   27.7204   15.1198   22.5815 O   0  0  0  0  0  0  0  0  0  0  0  0
   28.5394   16.3860   19.8867 C   0  0  0  0  0  0  0  0  0  0  0  0
   29.0874   17.0827   21.0029 O   0  0  0  0  0  0  0  0  0  0  0  0
   30.4618   16.7131   21.1131 C   0  0  0  0  0  0  0  0  0  0  0  0
   31.0607   17.4462   22.3114 C   0  0  0  0  0  0  0  0  0  0  0  0
   32.4658   17.1058   22.4526 N   0  0  0  0  0  0  0  0  0  0  0  0
   26.1263   14.9910   21.1185 O   0  0  0  0  0  0  0  0  0  0  0  0
  2  1  1  6  0  0  0
  2  5  1  0  0  0  0
  2  3  1  0  0  0  0
  3  4  1  0  0  0  0
  3 10  1  0  0  0  0
  5  6  1  0  0  0  0
  6  7  1  0  0  0  0
  7  8  1  0  0  0  0
  8  9  1  0  0  0  0
M  END
>  <CHROM.1>
-176.76717966,161.69872317,75.96191381,-179.66212370,-179.50969822,28.85546046
15.88954289,21.15166122,-2.80535510,0.46947780,1.43255603

>  <Name>
ligand

>  <RI>
0

>  <Rbt.Current_Directory>
/home/itssahil/PROJECTS/Mol_Feturizer/New_Systems/rnas/3DJ0

>  <Rbt.Executable>
rbdock ($Id: //depot/dev/client3/rdock/2013.1/src/exe/rbdock.cxx#4 $)

>  <Rbt.Library>
libRbt.so (2013.1, Build901 2013/11/27)

>  <Rbt.Parameter_File>
/export/apps/rDock/src/rDock_2013.1_src/data/scripts/dock_solv.prm

>  <Rbt.Receptor>
prm/pocket_docking_5.prm

>  <SCORE>
-7.84334

>  <SCORE.INTER>
-7.17839

>  <SCORE.INTER.CONST>
1

>  <SCORE.INTER.POLAR>
0

>  <SCORE.INTER.ROT>
5

>  <SCORE.INTER.SOLV>
19.0033

>  <SCORE.INTER.VDW>
-18.0534

>  <SCORE.INTER.norm>
-0.717839

>  <SCORE.INTRA>
-0.664957

>  <SCORE.INTRA.DIHEDRAL>
-2.35276

>  <SCORE.INTRA.DIHEDRAL.0>
6.00299

>  <SCORE.INTRA.POLAR>
0

>  <SCORE.INTRA.POLAR.0>
0

>  <SCORE.INTRA.REPUL>
0

>  <SCORE.INTRA.REPUL.0>
0

>  <SCORE.INTRA.SOLV>
-0.602138

>  <SCORE.INTRA.SOLV.lig_0>
-39.3257

>  <SCORE.INTRA.VDW>
0.812493

>  <SCORE.INTRA.VDW.0>
-0.734044

>  <SCORE.INTRA.norm>
-0.0664957

>  <SCORE.RESTR>
0

>  <SCORE.RESTR.CAVITY>
0

>  <SCORE.RESTR.norm>
0

>  <SCORE.SYSTEM>
0

>  <SCORE.SYSTEM.CONST>
0

>  <SCORE.SYSTEM.DIHEDRAL>
0

>  <SCORE.SYSTEM.SOLV>
0

>  <SCORE.SYSTEM.norm>
0

>  <SCORE.heavy>
10

>  <SCORE.norm>
-0.784334

>  <RMSD>
5.155

$$$$
ligand
 OpenBabel11021811473D
libRbt.so/2013.1/901 2013/11/27
 10  9  0  0  0  0  0  0  0  0999 V2000
   28.8017   13.8243   21.1558 N   0  0  0  0  0  0  0  0  0  0  0  0
   28.1426   14.9735   21.7478 C   0  0  2  0  0  0  0  0  0  0  0  0
   27.5246   15.8379   20.6815 C   0  0  0  0  0  0  0  0  0  0  0  0
   28.2748   16.4183   19.8577 O   0  0  0  0  0  0  0  0  0  0  0  0
   29.1511   15.7729   22.5617 C   0  0  0  0  0  0  0  0  0  0  0  0
   30.2986   16.0230   21.7540 O   0  0  0  0  0  0  0  0  0  0  0  0
   31.2332   16.7583   22.5436 C   0  0  0  0  0  0  0  0  0  0  0  0
   32.4967   16.9744   21.7134 C   0  0  0  0  0  0  0  0  0  0  0  0
   33.4579   17.7629   22.4647 N   0  0  0  0  0  0  0  0  0  0  0  0
   26.3505   15.5597   20.3652 O   0  0  0  0  0  0  0  0  0  0  0  0
  2  1  1  6  0  0  0
  2  5  1  0  0  0  0
  2  3  1  0  0  0  0
  3  4  1  0  0  0  0
  3 10  1  0  0  0  0
  5  6  1  0  0  0  0
  6  7  1  0  0  0  0
  7  8  1  0  0  0  0
  8  9  1  0  0  0  0
M  END
>  <CHROM.1>
50.70140033,-65.18182484,-179.31438060,177.25727258,177.93971963,29.54510889
15.99916256,21.45433589,-3.04671427,-0.42859000,-0.62659562

>  <Name>
ligand

>  <RI>
0

>  <Rbt.Current_Directory>
/home/itssahil/PROJECTS/Mol_Feturizer/New_Systems/rnas/3DJ0

>  <Rbt.Executable>
rbdock ($Id: //depot/dev/client3/rdock/2013.1/src/exe/rbdock.cxx#4 $)

>  <Rbt.Library>
libRbt.so (2013.1, Build901 2013/11/27)

>  <Rbt.Parameter_File>
/export/apps/rDock/src/rDock_2013.1_src/data/scripts/dock_solv.prm

>  <Rbt.Receptor>
prm/pocket_docking_7.prm

>  <SCORE>
-6.135

>  <SCORE.INTER>
-4.2218

>  <SCORE.INTER.CONST>
1

>  <SCORE.INTER.POLAR>
0

>  <SCORE.INTER.ROT>
5

>  <SCORE.INTER.SOLV>
19.3966

>  <SCORE.INTER.VDW>
-16.2134

>  <SCORE.INTER.norm>
-0.42218

>  <SCORE.INTRA>
-1.91319

>  <SCORE.INTRA.DIHEDRAL>
-3.47903

>  <SCORE.INTRA.DIHEDRAL.0>
6.00299

>  <SCORE.INTRA.POLAR>
0

>  <SCORE.INTRA.POLAR.0>
0

>  <SCORE.INTRA.REPUL>
0

>  <SCORE.INTRA.REPUL.0>
0

>  <SCORE.INTRA.SOLV>
-0.095998

>  <SCORE.INTRA.SOLV.lig_0>
-39.3257

>  <SCORE.INTRA.VDW>
-0.125678

>  <SCORE.INTRA.VDW.0>
-0.734044

>  <SCORE.INTRA.norm>
-0.191319

>  <SCORE.RESTR>
0

>  <SCORE.RESTR.CAVITY>
0

>  <SCORE.RESTR.norm>
0

>  <SCORE.SYSTEM>
0

>  <SCORE.SYSTEM.CONST>
0

>  <SCORE.SYSTEM.DIHEDRAL>
0

>  <SCORE.SYSTEM.SOLV>
0

>  <SCORE.SYSTEM.norm>
0

>  <SCORE.heavy>
10

>  <SCORE.norm>
-0.6135

>  <RMSD>
5.158

$$$$
ligand
 OpenBabel11021811473D
libRbt.so/2013.1/901 2013/11/27
 10  9  0  0  0  0  0  0  0  0999 V2000
   28.3552   15.4862   19.7528 N   0  0  0  0  0  0  0  0  0  0  0  0
   28.5343   14.5664   20.8607 C   0  0  2  0  0  0  0  0  0  0  0  0
   27.4706   14.7797   21.9042 C   0  0  0  0  0  0  0  0  0  0  0  0
   27.7665   15.3962   22.9582 O   0  0  0  0  0  0  0  0  0  0  0  0
   29.9182   14.7633   21.4645 C   0  0  0  0  0  0  0  0  0  0  0  0
   30.0977   16.1458   21.7613 O   0  0  0  0  0  0  0  0  0  0  0  0
   31.4187   16.3111   22.2765 C   0  0  0  0  0  0  0  0  0  0  0  0
   31.6586   17.8009   22.5113 C   0  0  0  0  0  0  0  0  0  0  0  0
   33.0250   18.0223   22.9517 N   0  0  0  0  0  0  0  0  0  0  0  0
   26.2933   14.7818   21.4919 O   0  0  0  0  0  0  0  0  0  0  0  0
  2  1  1  6  0  0  0
  2  5  1  0  0  0  0
  2  3  1  0  0  0  0
  3  4  1  0  0  0  0
  3 10  1  0  0  0  0
  5  6  1  0  0  0  0
  6  7  1  0  0  0  0
  7  8  1  0  0  0  0
  8  9  1  0  0  0  0
M  END
>  <CHROM.1>
52.14891370,-103.26394098,-177.78447373,176.25617722,-176.18417909,29.41620527
15.80598421,21.81055345,-2.77149895,0.39431489,1.20496562

>  <Name>
ligand

>  <RI>
0

>  <Rbt.Current_Directory>
/home/itssahil/PROJECTS/Mol_Feturizer/New_Systems/rnas/3DJ0

>  <Rbt.Executable>
rbdock ($Id: //depot/dev/client3/rdock/2013.1/src/exe/rbdock.cxx#4 $)

>  <Rbt.Library>
libRbt.so (2013.1, Build901 2013/11/27)

>  <Rbt.Parameter_File>
/export/apps/rDock/src/rDock_2013.1_src/data/scripts/dock_solv.prm

>  <Rbt.Receptor>
prm/pocket_docking_8.prm

>  <SCORE>
-6.80016

>  <SCORE.INTER>
-6.18911

>  <SCORE.INTER.CONST>
1

>  <SCORE.INTER.POLAR>
0

>  <SCORE.INTER.ROT>
5

>  <SCORE.INTER.SOLV>
17.3715

>  <SCORE.INTER.VDW>
-16.8499

>  <SCORE.INTER.norm>
-0.618911

>  <SCORE.INTRA>
-0.61105

>  <SCORE.INTRA.DIHEDRAL>
-2.84473

>  <SCORE.INTRA.DIHEDRAL.0>
6.00299

>  <SCORE.INTRA.POLAR>
0

>  <SCORE.INTRA.POLAR.0>
0

>  <SCORE.INTRA.REPUL>
0

>  <SCORE.INTRA.REPUL.0>
0

>  <SCORE.INTRA.SOLV>
0.0033118

>  <SCORE.INTRA.SOLV.lig_0>
-39.3257

>  <SCORE.INTRA.VDW>
0.809657

>  <SCORE.INTRA.VDW.0>
-0.734044

>  <SCORE.INTRA.norm>
-0.061105

>  <SCORE.RESTR>
0

>  <SCORE.RESTR.CAVITY>
0

>  <SCORE.RESTR.norm>
0

>  <SCORE.SYSTEM>
0

>  <SCORE.SYSTEM.CONST>
0

>  <SCORE.SYSTEM.DIHEDRAL>
0

>  <SCORE.SYSTEM.SOLV>
0

>  <SCORE.SYSTEM.norm>
0

>  <SCORE.heavy>
10

>  <SCORE.norm>
-0.680016

>  <RMSD>
5.158

$$$$
ligand
 OpenBabel11021811473D
libRbt.so/2013.1/901 2013/11/27
 10  9  0  0  0  0  0  0  0  0999 V2000
   28.8362   15.7877   23.2470 N   0  0  0  0  0  0  0  0  0  0  0  0
   28.9589   15.7568   21.8016 C   0  0  2  0  0  0  0  0  0  0  0  0
   27.6567   15.3464   21.1676 C   0  0  0  0  0  0  0  0  0  0  0  0
   26.8436   14.6606   21.8360 O   0  0  0  0  0  0  0  0  0  0  0  0
   30.0692   14.7923   21.4074 C   0  0  0  0  0  0  0  0  0  0  0  0
   31.3113   15.3000   21.8881 O   0  0  0  0  0  0  0  0  0  0  0  0
   31.7656   16.2853   20.9605 C   0  0  0  0  0  0  0  0  0  0  0  0
   33.0675   16.8803   21.4925 C   0  0  0  0  0  0  0  0  0  0  0  0
   32.8109   17.6354   22.7066 N   0  0  0  0  0  0  0  0  0  0  0  0
   27.2431   16.0783   20.2460 O   0  0  0  0  0  0  0  0  0  0  0  0
  2  1  1  1  0  0  0
  2  5  1  0  0  0  0
  2  3  1  0  0  0  0
  3  4  1  0  0  0  0
  3 10  1  0  0  0  0
  5  6  1  0  0  0  0
  6  7  1  0  0  0  0
  7  8  1  0  0  0  0
  8  9  1  0  0  0  0
M  END
>  <CHROM.1>
-64.99377067,-24.68795895,-81.39241802,177.67416895,-67.01421161,29.82060035
15.83550451,21.66318318,3.07298869,-0.28349848,-1.46954000

>  <Name>
ligand

>  <RI>
0

>  <Rbt.Current_Directory>
/home/itssahil/PROJECTS/Mol_Feturizer/New_Systems/rnas/3DJ0

>  <Rbt.Executable>
rbdock ($Id: //depot/dev/client3/rdock/2013.1/src/exe/rbdock.cxx#4 $)

>  <Rbt.Library>
libRbt.so (2013.1, Build901 2013/11/27)

>  <Rbt.Parameter_File>
/export/apps/rDock/src/rDock_2013.1_src/data/scripts/dock_solv.prm

>  <Rbt.Receptor>
prm/pocket_docking_4.prm

>  <SCORE>
-5.04139

>  <SCORE.INTER>
-5.09637

>  <SCORE.INTER.CONST>
1

>  <SCORE.INTER.POLAR>
0

>  <SCORE.INTER.ROT>
5

>  <SCORE.INTER.SOLV>
19.3277

>  <SCORE.INTER.VDW>
-16.7735

>  <SCORE.INTER.norm>
-0.509637

>  <SCORE.INTRA>
0.0549796

>  <SCORE.INTRA.DIHEDRAL>
-1.40682

>  <SCORE.INTRA.DIHEDRAL.0>
6.00299

>  <SCORE.INTRA.POLAR>
0

>  <SCORE.INTRA.POLAR.0>
0

>  <SCORE.INTRA.REPUL>
0

>  <SCORE.INTRA.REPUL.0>
0

>  <SCORE.INTRA.SOLV>
0.792016

>  <SCORE.INTRA.SOLV.lig_0>
-39.3257

>  <SCORE.INTRA.VDW>
0.362383

>  <SCORE.INTRA.VDW.0>
-0.734044

>  <SCORE.INTRA.norm>
0.00549796

>  <SCORE.RESTR>
0

>  <SCORE.RESTR.CAVITY>
0

>  <SCORE.RESTR.norm>
0

>  <SCORE.SYSTEM>
0

>  <SCORE.SYSTEM.CONST>
0

>  <SCORE.SYSTEM.DIHEDRAL>
0

>  <SCORE.SYSTEM.SOLV>
0

>  <SCORE.SYSTEM.norm>
0

>  <SCORE.heavy>
10

>  <SCORE.norm>
-0.504139

>  <RMSD>
5.164

$$$$
ligand
 OpenBabel11021811473D
libRbt.so/2013.1/901 2013/11/27
 10  9  0  0  0  0  0  0  0  0999 V2000
   27.7405   14.1799   19.1562 N   0  0  0  0  0  0  0  0  0  0  0  0
   28.2594   14.9123   20.2963 C   0  0  2  0  0  0  0  0  0  0  0  0
   27.3203   14.8044   21.4678 C   0  0  0  0  0  0  0  0  0  0  0  0
   27.7295   15.1354   22.6086 O   0  0  0  0  0  0  0  0  0  0  0  0
   28.4637   16.3712   19.9115 C   0  0  0  0  0  0  0  0  0  0  0  0
   29.0688   17.0549   21.0061 O   0  0  0  0  0  0  0  0  0  0  0  0
   30.4439   16.6741   21.0489 C   0  0  0  0  0  0  0  0  0  0  0  0
   31.1083   17.4073   22.2121 C   0  0  0  0  0  0  0  0  0  0  0  0
   32.5111   17.0399   22.2968 N   0  0  0  0  0  0  0  0  0  0  0  0
   26.1035   14.8685   21.2004 O   0  0  0  0  0  0  0  0  0  0  0  0
  2  1  1  6  0  0  0
  2  5  1  0  0  0  0
  2  3  1  0  0  0  0
  3  4  1  0  0  0  0
  3 10  1  0  0  0  0
  5  6  1  0  0  0  0
  6  7  1  0  0  0  0
  7  8  1  0  0  0  0
  8  9  1  0  0  0  0
M  END
>  <CHROM.1>
-175.58490818,165.39434948,75.09289521,179.60108607,179.61805507,28.83876379
15.85213913,21.14379267,-2.84844637,0.47139968,1.44704628

>  <Name>
ligand

>  <RI>
0

>  <Rbt.Current_Directory>
/home/itssahil/PROJECTS/Mol_Feturizer/New_Systems/rnas/3DJ0

>  <Rbt.Executable>
rbdock ($Id: //depot/dev/client3/rdock/2013.1/src/exe/rbdock.cxx#4 $)

>  <Rbt.Library>
libRbt.so (2013.1, Build901 2013/11/27)

>  <Rbt.Parameter_File>
/export/apps/rDock/src/rDock_2013.1_src/data/scripts/dock_solv.prm

>  <Rbt.Receptor>
prm/blind_docking_60.prm

>  <SCORE>
-7.67892

>  <SCORE.INTER>
-7.02234

>  <SCORE.INTER.CONST>
1

>  <SCORE.INTER.POLAR>
0

>  <SCORE.INTER.ROT>
5

>  <SCORE.INTER.SOLV>
19.1077

>  <SCORE.INTER.VDW>
-17.9841

>  <SCORE.INTER.norm>
-0.702234

>  <SCORE.INTRA>
-0.656576

>  <SCORE.INTRA.DIHEDRAL>
-2.5152

>  <SCORE.INTRA.DIHEDRAL.0>
6.00299

>  <SCORE.INTRA.POLAR>
0

>  <SCORE.INTRA.POLAR.0>
0

>  <SCORE.INTRA.REPUL>
0

>  <SCORE.INTRA.REPUL.0>
0

>  <SCORE.INTRA.SOLV>
-0.586239

>  <SCORE.INTRA.SOLV.lig_0>
-39.3257

>  <SCORE.INTRA.VDW>
0.894146

>  <SCORE.INTRA.VDW.0>
-0.734044

>  <SCORE.INTRA.norm>
-0.0656576

>  <SCORE.RESTR>
0

>  <SCORE.RESTR.CAVITY>
0

>  <SCORE.RESTR.norm>
0

>  <SCORE.SYSTEM>
0

>  <SCORE.SYSTEM.CONST>
0

>  <SCORE.SYSTEM.DIHEDRAL>
0

>  <SCORE.SYSTEM.SOLV>
0

>  <SCORE.SYSTEM.norm>
0

>  <SCORE.heavy>
10

>  <SCORE.norm>
-0.767892

>  <RMSD>
5.166

$$$$
ligand
 OpenBabel11021811473D
libRbt.so/2013.1/901 2013/11/27
 10  9  0  0  0  0  0  0  0  0999 V2000
   27.5680   14.4798   19.0893 N   0  0  0  0  0  0  0  0  0  0  0  0
   28.2167   14.9302   20.3066 C   0  0  2  0  0  0  0  0  0  0  0  0
   27.2186   15.0466   21.4274 C   0  0  0  0  0  0  0  0  0  0  0  0
   25.9992   14.8771   21.1770 O   0  0  0  0  0  0  0  0  0  0  0  0
   28.8920   16.2714   20.0549 C   0  0  0  0  0  0  0  0  0  0  0  0
   29.6570   16.6238   21.2048 O   0  0  0  0  0  0  0  0  0  0  0  0
   30.8064   15.7779   21.2374 C   0  0  0  0  0  0  0  0  0  0  0  0
   31.6064   16.1046   22.4966 C   0  0  0  0  0  0  0  0  0  0  0  0
   32.0943   17.4715   22.4364 N   0  0  0  0  0  0  0  0  0  0  0  0
   27.6556   14.8207   22.5738 O   0  0  0  0  0  0  0  0  0  0  0  0
  2  1  1  6  0  0  0
  2  5  1  0  0  0  0
  2  3  1  0  0  0  0
  3  4  1  0  0  0  0
  3 10  1  0  0  0  0
  5  6  1  0  0  0  0
  6  7  1  0  0  0  0
  7  8  1  0  0  0  0
  8  9  1  0  0  0  0
M  END
>  <CHROM.1>
-173.10316500,-6.26092275,72.80070690,-177.67988226,-63.65600483,28.93941074
15.64118116,21.22374042,-2.86689797,0.39006169,1.54654950

>  <Name>
ligand

>  <RI>
0

>  <Rbt.Current_Directory>
/home/itssahil/PROJECTS/Mol_Feturizer/New_Systems/rnas/3DJ0

>  <Rbt.Executable>
rbdock ($Id: //depot/dev/client3/rdock/2013.1/src/exe/rbdock.cxx#4 $)

>  <Rbt.Library>
libRbt.so (2013.1, Build901 2013/11/27)

>  <Rbt.Parameter_File>
/export/apps/rDock/src/rDock_2013.1_src/data/scripts/dock_solv.prm

>  <Rbt.Receptor>
prm/pocket_docking_8.prm

>  <SCORE>
-6.77226

>  <SCORE.INTER>
-6.74372

>  <SCORE.INTER.CONST>
1

>  <SCORE.INTER.POLAR>
0

>  <SCORE.INTER.ROT>
5

>  <SCORE.INTER.SOLV>
18.3779

>  <SCORE.INTER.VDW>
-17.5551

>  <SCORE.INTER.norm>
-0.674372

>  <SCORE.INTRA>
-0.0285429

>  <SCORE.INTRA.DIHEDRAL>
-2.34012

>  <SCORE.INTRA.DIHEDRAL.0>
6.00299

>  <SCORE.INTRA.POLAR>
0

>  <SCORE.INTRA.POLAR.0>
0

>  <SCORE.INTRA.REPUL>
0

>  <SCORE.INTRA.REPUL.0>
0

>  <SCORE.INTRA.SOLV>
0.425675

>  <SCORE.INTRA.SOLV.lig_0>
-39.3257

>  <SCORE.INTRA.VDW>
0.928682

>  <SCORE.INTRA.VDW.0>
-0.734044

>  <SCORE.INTRA.norm>
-0.00285429

>  <SCORE.RESTR>
0

>  <SCORE.RESTR.CAVITY>
0

>  <SCORE.RESTR.norm>
0

>  <SCORE.SYSTEM>
0

>  <SCORE.SYSTEM.CONST>
0

>  <SCORE.SYSTEM.DIHEDRAL>
0

>  <SCORE.SYSTEM.SOLV>
0

>  <SCORE.SYSTEM.norm>
0

>  <SCORE.heavy>
10

>  <SCORE.norm>
-0.677226

>  <RMSD>
5.171

$$$$
ligand
 OpenBabel11021811473D
libRbt.so/2013.1/901 2013/11/27
 10  9  0  0  0  0  0  0  0  0999 V2000
   26.4821   14.6354   21.7116 N   0  0  0  0  0  0  0  0  0  0  0  0
   27.6004   15.5043   21.3955 C   0  0  2  0  0  0  0  0  0  0  0  0
   27.8303   15.5529   19.9086 C   0  0  0  0  0  0  0  0  0  0  0  0
   28.5995   16.4286   19.4397 O   0  0  0  0  0  0  0  0  0  0  0  0
   28.8486   15.0046   22.1101 C   0  0  0  0  0  0  0  0  0  0  0  0
   29.9201   15.9077   21.8493 O   0  0  0  0  0  0  0  0  0  0  0  0
   31.0801   15.4087   22.5149 C   0  0  0  0  0  0  0  0  0  0  0  0
   32.2547   16.3271   22.1846 C   0  0  0  0  0  0  0  0  0  0  0  0
   32.0095   17.6587   22.7108 N   0  0  0  0  0  0  0  0  0  0  0  0
   27.6602   14.4807   19.2941 O   0  0  0  0  0  0  0  0  0  0  0  0
  2  1  1  6  0  0  0
  2  5  1  0  0  0  0
  2  3  1  0  0  0  0
  3  4  1  0  0  0  0
  3 10  1  0  0  0  0
  5  6  1  0  0  0  0
  6  7  1  0  0  0  0
  7  8  1  0  0  0  0
  8  9  1  0  0  0  0
M  END
>  <CHROM.1>
-176.86833379,167.69471912,-179.27107389,177.08250619,63.60784167,29.22909721
15.68950579,21.27500472,2.82119820,-0.45104496,-1.27792057

>  <Name>
ligand

>  <RI>
0

>  <Rbt.Current_Directory>
/home/itssahil/PROJECTS/Mol_Feturizer/New_Systems/rnas/3DJ0

>  <Rbt.Executable>
rbdock ($Id: //depot/dev/client3/rdock/2013.1/src/exe/rbdock.cxx#4 $)

>  <Rbt.Library>
libRbt.so (2013.1, Build901 2013/11/27)

>  <Rbt.Parameter_File>
/export/apps/rDock/src/rDock_2013.1_src/data/scripts/dock_solv.prm

>  <Rbt.Receptor>
prm/pocket_docking_8.prm

>  <SCORE>
-7.41234

>  <SCORE.INTER>
-5.52022

>  <SCORE.INTER.CONST>
1

>  <SCORE.INTER.POLAR>
0

>  <SCORE.INTER.ROT>
5

>  <SCORE.INTER.SOLV>
20.621

>  <SCORE.INTER.VDW>
-17.4872

>  <SCORE.INTER.norm>
-0.552022

>  <SCORE.INTRA>
-1.89212

>  <SCORE.INTRA.DIHEDRAL>
-3.57183

>  <SCORE.INTRA.DIHEDRAL.0>
6.00299

>  <SCORE.INTRA.POLAR>
0

>  <SCORE.INTRA.POLAR.0>
0

>  <SCORE.INTRA.REPUL>
0

>  <SCORE.INTRA.REPUL.0>
0

>  <SCORE.INTRA.SOLV>
-0.116193

>  <SCORE.INTRA.SOLV.lig_0>
-39.3257

>  <SCORE.INTRA.VDW>
-0.0481029

>  <SCORE.INTRA.VDW.0>
-0.734044

>  <SCORE.INTRA.norm>
-0.189212

>  <SCORE.RESTR>
0

>  <SCORE.RESTR.CAVITY>
0

>  <SCORE.RESTR.norm>
0

>  <SCORE.SYSTEM>
0

>  <SCORE.SYSTEM.CONST>
0

>  <SCORE.SYSTEM.DIHEDRAL>
0

>  <SCORE.SYSTEM.SOLV>
0

>  <SCORE.SYSTEM.norm>
0

>  <SCORE.heavy>
10

>  <SCORE.norm>
-0.741234

>  <RMSD>
5.172

$$$$
ligand
 OpenBabel11021811473D
libRbt.so/2013.1/901 2013/11/27
 10  9  0  0  0  0  0  0  0  0999 V2000
   28.9201   15.7478   23.1639 N   0  0  0  0  0  0  0  0  0  0  0  0
   28.9287   15.7641   21.7130 C   0  0  2  0  0  0  0  0  0  0  0  0
   27.5888   15.3448   21.1700 C   0  0  0  0  0  0  0  0  0  0  0  0
   26.8100   14.6917   21.9084 O   0  0  0  0  0  0  0  0  0  0  0  0
   30.0230   14.8370   21.2020 C   0  0  0  0  0  0  0  0  0  0  0  0
   31.2767   15.2778   21.7173 O   0  0  0  0  0  0  0  0  0  0  0  0
   31.7129   16.3764   20.9169 C   0  0  0  0  0  0  0  0  0  0  0  0
   33.0769   16.8321   21.4307 C   0  0  0  0  0  0  0  0  0  0  0  0
   32.9471   17.3815   22.7691 N   0  0  0  0  0  0  0  0  0  0  0  0
   27.1288   16.0476   20.2478 O   0  0  0  0  0  0  0  0  0  0  0  0
  2  1  1  1  0  0  0
  2  5  1  0  0  0  0
  2  3  1  0  0  0  0
  3  4  1  0  0  0  0
  3 10  1  0  0  0  0
  5  6  1  0  0  0  0
  6  7  1  0  0  0  0
  7  8  1  0  0  0  0
  8  9  1  0  0  0  0
M  END
>  <CHROM.1>
-58.96515482,-20.27524404,-79.85316434,-178.26795138,-66.15452909,29.80415287
15.81357081,21.61244299,3.06865078,-0.26077131,-1.49047530

>  <Name>
ligand

>  <RI>
0

>  <Rbt.Current_Directory>
/home/itssahil/PROJECTS/Mol_Feturizer/New_Systems/rnas/3DJ0

>  <Rbt.Executable>
rbdock ($Id: //depot/dev/client3/rdock/2013.1/src/exe/rbdock.cxx#4 $)

>  <Rbt.Library>
libRbt.so (2013.1, Build901 2013/11/27)

>  <Rbt.Parameter_File>
/export/apps/rDock/src/rDock_2013.1_src/data/scripts/dock_solv.prm

>  <Rbt.Receptor>
prm/pocket_docking_2.prm

>  <SCORE>
-4.80615

>  <SCORE.INTER>
-4.89939

>  <SCORE.INTER.CONST>
1

>  <SCORE.INTER.POLAR>
0

>  <SCORE.INTER.ROT>
5

>  <SCORE.INTER.SOLV>
19.4775

>  <SCORE.INTER.VDW>
-16.6921

>  <SCORE.INTER.norm>
-0.489939

>  <SCORE.INTRA>
0.0932408

>  <SCORE.INTRA.DIHEDRAL>
-1.70951

>  <SCORE.INTRA.DIHEDRAL.0>
6.00299

>  <SCORE.INTRA.POLAR>
0

>  <SCORE.INTRA.POLAR.0>
0

>  <SCORE.INTRA.REPUL>
0

>  <SCORE.INTRA.REPUL.0>
0

>  <SCORE.INTRA.SOLV>
0.911042

>  <SCORE.INTRA.SOLV.lig_0>
-39.3257

>  <SCORE.INTRA.VDW>
0.492472

>  <SCORE.INTRA.VDW.0>
-0.734044

>  <SCORE.INTRA.norm>
0.00932408

>  <SCORE.RESTR>
0

>  <SCORE.RESTR.CAVITY>
0

>  <SCORE.RESTR.norm>
0

>  <SCORE.SYSTEM>
0

>  <SCORE.SYSTEM.CONST>
0

>  <SCORE.SYSTEM.DIHEDRAL>
0

>  <SCORE.SYSTEM.SOLV>
0

>  <SCORE.SYSTEM.norm>
0

>  <SCORE.heavy>
10

>  <SCORE.norm>
-0.480615

>  <RMSD>
5.175

$$$$
ligand
 OpenBabel11021811473D
libRbt.so/2013.1/901 2013/11/27
 10  9  0  0  0  0  0  0  0  0999 V2000
   26.6059   14.5653   21.8870 N   0  0  0  0  0  0  0  0  0  0  0  0
   27.6705   15.4870   21.5368 C   0  0  2  0  0  0  0  0  0  0  0  0
   27.7329   15.6831   20.0456 C   0  0  0  0  0  0  0  0  0  0  0  0
   28.4726   16.5859   19.5807 O   0  0  0  0  0  0  0  0  0  0  0  0
   28.9969   14.9514   22.0584 C   0  0  0  0  0  0  0  0  0  0  0  0
   30.0164   15.9116   21.7932 O   0  0  0  0  0  0  0  0  0  0  0  0
   31.2569   15.3610   22.2358 C   0  0  0  0  0  0  0  0  0  0  0  0
   32.3714   16.3423   21.8789 C   0  0  0  0  0  0  0  0  0  0  0  0
   32.1881   17.5890   22.6015 N   0  0  0  0  0  0  0  0  0  0  0  0
   27.4597   14.6835   19.3512 O   0  0  0  0  0  0  0  0  0  0  0  0
  2  1  1  6  0  0  0
  2  5  1  0  0  0  0
  2  3  1  0  0  0  0
  3  4  1  0  0  0  0
  3 10  1  0  0  0  0
  5  6  1  0  0  0  0
  6  7  1  0  0  0  0
  7  8  1  0  0  0  0
  8  9  1  0  0  0  0
M  END
>  <CHROM.1>
-175.82053720,170.33163038,-177.41300829,176.51619800,63.77175823,29.27334779
15.71820671,21.26040017,2.93376675,-0.42487179,-1.14677287

>  <Name>
ligand

>  <RI>
0

>  <Rbt.Current_Directory>
/home/itssahil/PROJECTS/Mol_Feturizer/New_Systems/rnas/3DJ0

>  <Rbt.Executable>
rbdock ($Id: //depot/dev/client3/rdock/2013.1/src/exe/rbdock.cxx#4 $)

>  <Rbt.Library>
libRbt.so (2013.1, Build901 2013/11/27)

>  <Rbt.Parameter_File>
/export/apps/rDock/src/rDock_2013.1_src/data/scripts/dock_solv.prm

>  <Rbt.Receptor>
prm/pocket_docking_3.prm

>  <SCORE>
-7.24608

>  <SCORE.INTER>
-5.39438

>  <SCORE.INTER.CONST>
1

>  <SCORE.INTER.POLAR>
0

>  <SCORE.INTER.ROT>
5

>  <SCORE.INTER.SOLV>
20.5554

>  <SCORE.INTER.VDW>
-17.3814

>  <SCORE.INTER.norm>
-0.539438

>  <SCORE.INTRA>
-1.8517

>  <SCORE.INTRA.DIHEDRAL>
-3.5424

>  <SCORE.INTRA.DIHEDRAL.0>
6.00299

>  <SCORE.INTRA.POLAR>
0

>  <SCORE.INTRA.POLAR.0>
0

>  <SCORE.INTRA.REPUL>
0

>  <SCORE.INTRA.REPUL.0>
0

>  <SCORE.INTRA.SOLV>
-0.106315

>  <SCORE.INTRA.SOLV.lig_0>
-39.3257

>  <SCORE.INTRA.VDW>
-0.0273422

>  <SCORE.INTRA.VDW.0>
-0.734044

>  <SCORE.INTRA.norm>
-0.18517

>  <SCORE.RESTR>
0

>  <SCORE.RESTR.CAVITY>
0

>  <SCORE.RESTR.norm>
0

>  <SCORE.SYSTEM>
0

>  <SCORE.SYSTEM.CONST>
0

>  <SCORE.SYSTEM.DIHEDRAL>
0

>  <SCORE.SYSTEM.SOLV>
0

>  <SCORE.SYSTEM.norm>
0

>  <SCORE.heavy>
10

>  <SCORE.norm>
-0.724608

>  <RMSD>
5.177

$$$$
ligand
 OpenBabel11021811473D
libRbt.so/2013.1/901 2013/11/27
 10  9  0  0  0  0  0  0  0  0999 V2000
   28.3577   15.4440   19.6862 N   0  0  0  0  0  0  0  0  0  0  0  0
   28.4778   14.5469   20.8204 C   0  0  2  0  0  0  0  0  0  0  0  0
   27.3700   14.7917   21.8097 C   0  0  0  0  0  0  0  0  0  0  0  0
   27.6454   15.3283   22.9118 O   0  0  0  0  0  0  0  0  0  0  0  0
   29.8347   14.7451   21.4822 C   0  0  0  0  0  0  0  0  0  0  0  0
   30.0188   16.1336   21.7464 O   0  0  0  0  0  0  0  0  0  0  0  0
   31.3277   16.3020   22.2907 C   0  0  0  0  0  0  0  0  0  0  0  0
   31.5678   17.7943   22.5087 C   0  0  0  0  0  0  0  0  0  0  0  0
   32.9336   18.0204   22.9486 N   0  0  0  0  0  0  0  0  0  0  0  0
   26.2247   14.9091   21.3295 O   0  0  0  0  0  0  0  0  0  0  0  0
  2  1  1  6  0  0  0
  2  5  1  0  0  0  0
  2  3  1  0  0  0  0
  3  4  1  0  0  0  0
  3 10  1  0  0  0  0
  5  6  1  0  0  0  0
  6  7  1  0  0  0  0
  7  8  1  0  0  0  0
  8  9  1  0  0  0  0
M  END
>  <CHROM.1>
51.62691274,-109.18265314,-176.54392725,176.98338975,-174.86322300,29.33774720
15.80294891,21.76960722,-2.75437188,0.38216773,1.19940979

>  <Name>
ligand

>  <RI>
0

>  <Rbt.Current_Directory>
/home/itssahil/PROJECTS/Mol_Feturizer/New_Systems/rnas/3DJ0

>  <Rbt.Executable>
rbdock ($Id: //depot/dev/client3/rdock/2013.1/src/exe/rbdock.cxx#4 $)

>  <Rbt.Library>
libRbt.so (2013.1, Build901 2013/11/27)

>  <Rbt.Parameter_File>
/export/apps/rDock/src/rDock_2013.1_src/data/scripts/dock_solv.prm

>  <Rbt.Receptor>
prm/pocket_docking_4.prm

>  <SCORE>
-6.82421

>  <SCORE.INTER>
-6.37814

>  <SCORE.INTER.CONST>
1

>  <SCORE.INTER.POLAR>
0

>  <SCORE.INTER.ROT>
5

>  <SCORE.INTER.SOLV>
17.3682

>  <SCORE.INTER.VDW>
-16.9748

>  <SCORE.INTER.norm>
-0.637814

>  <SCORE.INTRA>
-0.446073

>  <SCORE.INTRA.DIHEDRAL>
-2.75141

>  <SCORE.INTRA.DIHEDRAL.0>
6.00299

>  <SCORE.INTRA.POLAR>
0

>  <SCORE.INTRA.POLAR.0>
0

>  <SCORE.INTRA.REPUL>
0

>  <SCORE.INTRA.REPUL.0>
0

>  <SCORE.INTRA.SOLV>
0.0102844

>  <SCORE.INTRA.SOLV.lig_0>
-39.3257

>  <SCORE.INTRA.VDW>
0.924488

>  <SCORE.INTRA.VDW.0>
-0.734044

>  <SCORE.INTRA.norm>
-0.0446073

>  <SCORE.RESTR>
0

>  <SCORE.RESTR.CAVITY>
0

>  <SCORE.RESTR.norm>
0

>  <SCORE.SYSTEM>
0

>  <SCORE.SYSTEM.CONST>
0

>  <SCORE.SYSTEM.DIHEDRAL>
0

>  <SCORE.SYSTEM.SOLV>
0

>  <SCORE.SYSTEM.norm>
0

>  <SCORE.heavy>
10

>  <SCORE.norm>
-0.682421

>  <RMSD>
5.177

$$$$
ligand
 OpenBabel11021811473D
libRbt.so/2013.1/901 2013/11/27
 10  9  0  0  0  0  0  0  0  0999 V2000
   28.3420   15.5031   19.7216 N   0  0  0  0  0  0  0  0  0  0  0  0
   28.4853   14.5806   20.8324 C   0  0  2  0  0  0  0  0  0  0  0  0
   27.3874   14.7902   21.8408 C   0  0  0  0  0  0  0  0  0  0  0  0
   27.6593   15.3585   22.9277 O   0  0  0  0  0  0  0  0  0  0  0  0
   29.8482   14.7771   21.4822 C   0  0  0  0  0  0  0  0  0  0  0  0
   30.0276   16.1628   21.7637 O   0  0  0  0  0  0  0  0  0  0  0  0
   31.3339   16.3280   22.3152 C   0  0  0  0  0  0  0  0  0  0  0  0
   31.5836   17.8210   22.5172 C   0  0  0  0  0  0  0  0  0  0  0  0
   32.9559   18.0444   22.9378 N   0  0  0  0  0  0  0  0  0  0  0  0
   26.2282   14.8449   21.3830 O   0  0  0  0  0  0  0  0  0  0  0  0
  2  1  1  6  0  0  0
  2  5  1  0  0  0  0
  2  3  1  0  0  0  0
  3  4  1  0  0  0  0
  3 10  1  0  0  0  0
  5  6  1  0  0  0  0
  6  7  1  0  0  0  0
  7  8  1  0  0  0  0
  8  9  1  0  0  0  0
M  END
>  <CHROM.1>
50.98753016,-105.97711835,-177.41532819,175.49536113,-173.71103362,29.34701246
15.82164692,21.78874650,-2.76687837,0.39528225,1.21780886

>  <Name>
ligand

>  <RI>
0

>  <Rbt.Current_Directory>
/home/itssahil/PROJECTS/Mol_Feturizer/New_Systems/rnas/3DJ0

>  <Rbt.Executable>
rbdock ($Id: //depot/dev/client3/rdock/2013.1/src/exe/rbdock.cxx#4 $)

>  <Rbt.Library>
libRbt.so (2013.1, Build901 2013/11/27)

>  <Rbt.Parameter_File>
/export/apps/rDock/src/rDock_2013.1_src/data/scripts/dock_solv.prm

>  <Rbt.Receptor>
prm/pocket_docking_4.prm

>  <SCORE>
-6.80618

>  <SCORE.INTER>
-6.34722

>  <SCORE.INTER.CONST>
1

>  <SCORE.INTER.POLAR>
0

>  <SCORE.INTER.ROT>
5

>  <SCORE.INTER.SOLV>
17.495

>  <SCORE.INTER.VDW>
-16.9965

>  <SCORE.INTER.norm>
-0.634722

>  <SCORE.INTRA>
-0.458957

>  <SCORE.INTRA.DIHEDRAL>
-2.63533

>  <SCORE.INTRA.DIHEDRAL.0>
6.00299

>  <SCORE.INTRA.POLAR>
0

>  <SCORE.INTRA.POLAR.0>
0

>  <SCORE.INTRA.REPUL>
0

>  <SCORE.INTRA.REPUL.0>
0

>  <SCORE.INTRA.SOLV>
0.00806336

>  <SCORE.INTRA.SOLV.lig_0>
-39.3257

>  <SCORE.INTRA.VDW>
0.854676

>  <SCORE.INTRA.VDW.0>
-0.734044

>  <SCORE.INTRA.norm>
-0.0458957

>  <SCORE.RESTR>
0

>  <SCORE.RESTR.CAVITY>
0

>  <SCORE.RESTR.norm>
0

>  <SCORE.SYSTEM>
0

>  <SCORE.SYSTEM.CONST>
0

>  <SCORE.SYSTEM.DIHEDRAL>
0

>  <SCORE.SYSTEM.SOLV>
0

>  <SCORE.SYSTEM.norm>
0

>  <SCORE.heavy>
10

>  <SCORE.norm>
-0.680618

>  <RMSD>
5.180

$$$$
ligand
 OpenBabel11021811473D
libRbt.so/2013.1/901 2013/11/27
 10  9  0  0  0  0  0  0  0  0999 V2000
   26.1223   14.7776   21.2938 N   0  0  0  0  0  0  0  0  0  0  0  0
   27.3554   15.4787   20.9884 C   0  0  2  0  0  0  0  0  0  0  0  0
   27.7958   15.1875   19.5787 C   0  0  0  0  0  0  0  0  0  0  0  0
   28.6122   15.9643   19.0231 O   0  0  0  0  0  0  0  0  0  0  0  0
   28.4342   15.0622   21.9789 C   0  0  0  0  0  0  0  0  0  0  0  0
   29.5977   15.8535   21.7510 O   0  0  0  0  0  0  0  0  0  0  0  0
   30.5882   15.4512   22.6969 C   0  0  0  0  0  0  0  0  0  0  0  0
   31.8351   16.3054   22.4778 C   0  0  0  0  0  0  0  0  0  0  0  0
   32.3758   16.0669   21.1509 N   0  0  0  0  0  0  0  0  0  0  0  0
   27.7307   13.9941   19.2214 O   0  0  0  0  0  0  0  0  0  0  0  0
  2  1  1  1  0  0  0
  2  5  1  0  0  0  0
  2  3  1  0  0  0  0
  3  4  1  0  0  0  0
  3 10  1  0  0  0  0
  5  6  1  0  0  0  0
  6  7  1  0  0  0  0
  7  8  1  0  0  0  0
  8  9  1  0  0  0  0
M  END
>  <CHROM.1>
-174.33152804,160.83784753,179.57002079,-179.18931925,-62.74584795,29.04889096
15.40937289,20.98450128,2.72670754,-0.25094546,-1.59118365

>  <Name>
ligand

>  <RI>
0

>  <Rbt.Current_Directory>
/home/itssahil/PROJECTS/Mol_Feturizer/New_Systems/rnas/3DJ0

>  <Rbt.Executable>
rbdock ($Id: //depot/dev/client3/rdock/2013.1/src/exe/rbdock.cxx#4 $)

>  <Rbt.Library>
libRbt.so (2013.1, Build901 2013/11/27)

>  <Rbt.Parameter_File>
/export/apps/rDock/src/rDock_2013.1_src/data/scripts/dock_solv.prm

>  <Rbt.Receptor>
prm/pocket_docking_7.prm

>  <SCORE>
-7.51986

>  <SCORE.INTER>
-5.53938

>  <SCORE.INTER.CONST>
1

>  <SCORE.INTER.POLAR>
0

>  <SCORE.INTER.ROT>
5

>  <SCORE.INTER.SOLV>
21.1255

>  <SCORE.INTER.VDW>
-17.6681

>  <SCORE.INTER.norm>
-0.553938

>  <SCORE.INTRA>
-1.98048

>  <SCORE.INTRA.DIHEDRAL>
-3.41058

>  <SCORE.INTRA.DIHEDRAL.0>
6.00299

>  <SCORE.INTRA.POLAR>
0

>  <SCORE.INTRA.POLAR.0>
0

>  <SCORE.INTRA.REPUL>
0

>  <SCORE.INTRA.REPUL.0>
0

>  <SCORE.INTRA.SOLV>
-0.154647

>  <SCORE.INTRA.SOLV.lig_0>
-39.3257

>  <SCORE.INTRA.VDW>
-0.19786

>  <SCORE.INTRA.VDW.0>
-0.734044

>  <SCORE.INTRA.norm>
-0.198048

>  <SCORE.RESTR>
0

>  <SCORE.RESTR.CAVITY>
0

>  <SCORE.RESTR.norm>
0

>  <SCORE.SYSTEM>
0

>  <SCORE.SYSTEM.CONST>
0

>  <SCORE.SYSTEM.DIHEDRAL>
0

>  <SCORE.SYSTEM.SOLV>
0

>  <SCORE.SYSTEM.norm>
0

>  <SCORE.heavy>
10

>  <SCORE.norm>
-0.751986

>  <RMSD>
5.180

$$$$
ligand
 OpenBabel11021811473D
libRbt.so/2013.1/901 2013/11/27
 10  9  0  0  0  0  0  0  0  0999 V2000
   27.8101   14.1418   19.1508 N   0  0  0  0  0  0  0  0  0  0  0  0
   28.2702   14.9056   20.2956 C   0  0  2  0  0  0  0  0  0  0  0  0
   27.2582   14.8539   21.4088 C   0  0  0  0  0  0  0  0  0  0  0  0
   27.6191   15.1544   22.5741 O   0  0  0  0  0  0  0  0  0  0  0  0
   28.5242   16.3467   19.8748 C   0  0  0  0  0  0  0  0  0  0  0  0
   29.0755   17.0579   20.9802 O   0  0  0  0  0  0  0  0  0  0  0  0
   30.4440   16.6716   21.1058 C   0  0  0  0  0  0  0  0  0  0  0  0
   31.0420   17.4082   22.3025 C   0  0  0  0  0  0  0  0  0  0  0  0
   32.4447   17.0610   22.4512 N   0  0  0  0  0  0  0  0  0  0  0  0
   26.0660   14.9962   21.0705 O   0  0  0  0  0  0  0  0  0  0  0  0
  2  1  1  6  0  0  0
  2  5  1  0  0  0  0
  2  3  1  0  0  0  0
  3  4  1  0  0  0  0
  3 10  1  0  0  0  0
  5  6  1  0  0  0  0
  6  7  1  0  0  0  0
  7  8  1  0  0  0  0
  8  9  1  0  0  0  0
M  END
>  <CHROM.1>
-175.43382503,161.87352516,75.97748006,-179.03154720,-178.96087495,28.81822420
15.86842921,21.14253636,-2.79272687,0.44775591,1.39431408

>  <Name>
ligand

>  <RI>
0

>  <Rbt.Current_Directory>
/home/itssahil/PROJECTS/Mol_Feturizer/New_Systems/rnas/3DJ0

>  <Rbt.Executable>
rbdock ($Id: //depot/dev/client3/rdock/2013.1/src/exe/rbdock.cxx#4 $)

>  <Rbt.Library>
libRbt.so (2013.1, Build901 2013/11/27)

>  <Rbt.Parameter_File>
/export/apps/rDock/src/rDock_2013.1_src/data/scripts/dock_solv.prm

>  <Rbt.Receptor>
prm/pocket_docking_7.prm

>  <SCORE>
-7.7942

>  <SCORE.INTER>
-7.12943

>  <SCORE.INTER.CONST>
1

>  <SCORE.INTER.POLAR>
0

>  <SCORE.INTER.ROT>
5

>  <SCORE.INTER.SOLV>
19.0555

>  <SCORE.INTER.VDW>
-18.0381

>  <SCORE.INTER.norm>
-0.712943

>  <SCORE.INTRA>
-0.664766

>  <SCORE.INTRA.DIHEDRAL>
-2.30889

>  <SCORE.INTRA.DIHEDRAL.0>
6.00299

>  <SCORE.INTRA.POLAR>
0

>  <SCORE.INTRA.POLAR.0>
0

>  <SCORE.INTRA.REPUL>
0

>  <SCORE.INTRA.REPUL.0>
0

>  <SCORE.INTRA.SOLV>
-0.610228

>  <SCORE.INTRA.SOLV.lig_0>
-39.3257

>  <SCORE.INTRA.VDW>
0.794792

>  <SCORE.INTRA.VDW.0>
-0.734044

>  <SCORE.INTRA.norm>
-0.0664766

>  <SCORE.RESTR>
0

>  <SCORE.RESTR.CAVITY>
0

>  <SCORE.RESTR.norm>
0

>  <SCORE.SYSTEM>
0

>  <SCORE.SYSTEM.CONST>
0

>  <SCORE.SYSTEM.DIHEDRAL>
0

>  <SCORE.SYSTEM.SOLV>
0

>  <SCORE.SYSTEM.norm>
0

>  <SCORE.heavy>
10

>  <SCORE.norm>
-0.77942

>  <RMSD>
5.180

$$$$
ligand
 OpenBabel11021811473D
libRbt.so/2013.1/901 2013/11/27
 10  9  0  0  0  0  0  0  0  0999 V2000
   27.8126   14.1781   19.1500 N   0  0  0  0  0  0  0  0  0  0  0  0
   28.3155   14.9643   20.2610 C   0  0  2  0  0  0  0  0  0  0  0  0
   27.3097   15.0045   21.3803 C   0  0  0  0  0  0  0  0  0  0  0  0
   26.0887   14.8939   21.1059 O   0  0  0  0  0  0  0  0  0  0  0  0
   28.6339   16.3740   19.7817 C   0  0  0  0  0  0  0  0  0  0  0  0
   29.1646   17.1216   20.8730 O   0  0  0  0  0  0  0  0  0  0  0  0
   30.5084   16.6883   21.0832 C   0  0  0  0  0  0  0  0  0  0  0  0
   31.0909   17.4819   22.2508 C   0  0  0  0  0  0  0  0  0  0  0  0
   32.4613   17.0695   22.4994 N   0  0  0  0  0  0  0  0  0  0  0  0
   27.7286   14.6607   22.5039 O   0  0  0  0  0  0  0  0  0  0  0  0
  2  1  1  6  0  0  0
  2  5  1  0  0  0  0
  2  3  1  0  0  0  0
  3  4  1  0  0  0  0
  3 10  1  0  0  0  0
  5  6  1  0  0  0  0
  6  7  1  0  0  0  0
  7  8  1  0  0  0  0
  8  9  1  0  0  0  0
M  END
>  <CHROM.1>
-178.24648344,-28.05065627,75.31488163,179.98252202,179.94778405,28.87508167
15.84406224,21.10939653,-2.90668532,0.52644850,1.60758413

>  <Name>
ligand

>  <RI>
0

>  <Rbt.Current_Directory>
/home/itssahil/PROJECTS/Mol_Feturizer/New_Systems/rnas/3DJ0

>  <Rbt.Executable>
rbdock ($Id: //depot/dev/client3/rdock/2013.1/src/exe/rbdock.cxx#4 $)

>  <Rbt.Library>
libRbt.so (2013.1, Build901 2013/11/27)

>  <Rbt.Parameter_File>
/export/apps/rDock/src/rDock_2013.1_src/data/scripts/dock_solv.prm

>  <Rbt.Receptor>
prm/pocket_docking_7.prm

>  <SCORE>
-7.6886

>  <SCORE.INTER>
-6.76961

>  <SCORE.INTER.CONST>
1

>  <SCORE.INTER.POLAR>
0

>  <SCORE.INTER.ROT>
5

>  <SCORE.INTER.SOLV>
19.1881

>  <SCORE.INTER.VDW>
-17.8424

>  <SCORE.INTER.norm>
-0.676961

>  <SCORE.INTRA>
-0.918984

>  <SCORE.INTRA.DIHEDRAL>
-2.68919

>  <SCORE.INTRA.DIHEDRAL.0>
6.00299

>  <SCORE.INTRA.POLAR>
0

>  <SCORE.INTRA.POLAR.0>
0

>  <SCORE.INTRA.REPUL>
0

>  <SCORE.INTRA.REPUL.0>
0

>  <SCORE.INTRA.SOLV>
-0.693496

>  <SCORE.INTRA.SOLV.lig_0>
-39.3257

>  <SCORE.INTRA.VDW>
0.772359

>  <SCORE.INTRA.VDW.0>
-0.734044

>  <SCORE.INTRA.norm>
-0.0918984

>  <SCORE.RESTR>
0

>  <SCORE.RESTR.CAVITY>
0

>  <SCORE.RESTR.norm>
0

>  <SCORE.SYSTEM>
0

>  <SCORE.SYSTEM.CONST>
0

>  <SCORE.SYSTEM.DIHEDRAL>
0

>  <SCORE.SYSTEM.SOLV>
0

>  <SCORE.SYSTEM.norm>
0

>  <SCORE.heavy>
10

>  <SCORE.norm>
-0.76886

>  <RMSD>
5.180

$$$$
ligand
 OpenBabel11021811473D
libRbt.so/2013.1/901 2013/11/27
 10  9  0  0  0  0  0  0  0  0999 V2000
   26.5797   14.6478   21.8088 N   0  0  0  0  0  0  0  0  0  0  0  0
   27.6805   15.5065   21.4136 C   0  0  2  0  0  0  0  0  0  0  0  0
   27.8127   15.5431   19.9145 C   0  0  0  0  0  0  0  0  0  0  0  0
   28.5782   16.3908   19.3913 O   0  0  0  0  0  0  0  0  0  0  0  0
   28.9696   15.0033   22.0487 C   0  0  0  0  0  0  0  0  0  0  0  0
   30.0166   15.9249   21.7557 O   0  0  0  0  0  0  0  0  0  0  0  0
   31.2349   15.3695   22.2508 C   0  0  0  0  0  0  0  0  0  0  0  0
   32.3747   16.3225   21.8972 C   0  0  0  0  0  0  0  0  0  0  0  0
   32.2037   17.5848   22.5954 N   0  0  0  0  0  0  0  0  0  0  0  0
   27.5661   14.4755   19.3181 O   0  0  0  0  0  0  0  0  0  0  0  0
  2  1  1  6  0  0  0
  2  5  1  0  0  0  0
  2  3  1  0  0  0  0
  3  4  1  0  0  0  0
  3 10  1  0  0  0  0
  5  6  1  0  0  0  0
  6  7  1  0  0  0  0
  7  8  1  0  0  0  0
  8  9  1  0  0  0  0
M  END
>  <CHROM.1>
-174.60492591,169.26365446,-174.59084570,177.90119046,64.81224501,29.29952002
15.67558746,21.20268292,2.86088227,-0.41849895,-1.28995646

>  <Name>
ligand

>  <RI>
0

>  <Rbt.Current_Directory>
/home/itssahil/PROJECTS/Mol_Feturizer/New_Systems/rnas/3DJ0

>  <Rbt.Executable>
rbdock ($Id: //depot/dev/client3/rdock/2013.1/src/exe/rbdock.cxx#4 $)

>  <Rbt.Library>
libRbt.so (2013.1, Build901 2013/11/27)

>  <Rbt.Parameter_File>
/export/apps/rDock/src/rDock_2013.1_src/data/scripts/dock_solv.prm

>  <Rbt.Receptor>
prm/pocket_docking_4.prm

>  <SCORE>
-7.31286

>  <SCORE.INTER>
-5.48801

>  <SCORE.INTER.CONST>
1

>  <SCORE.INTER.POLAR>
0

>  <SCORE.INTER.ROT>
5

>  <SCORE.INTER.SOLV>
20.1918

>  <SCORE.INTER.VDW>
-17.3226

>  <SCORE.INTER.norm>
-0.548801

>  <SCORE.INTRA>
-1.82485

>  <SCORE.INTRA.DIHEDRAL>
-3.37366

>  <SCORE.INTRA.DIHEDRAL.0>
6.00299

>  <SCORE.INTRA.POLAR>
0

>  <SCORE.INTRA.POLAR.0>
0

>  <SCORE.INTRA.REPUL>
0

>  <SCORE.INTRA.REPUL.0>
0

>  <SCORE.INTRA.SOLV>
-0.124305

>  <SCORE.INTRA.SOLV.lig_0>
-39.3257

>  <SCORE.INTRA.VDW>
-0.0758662

>  <SCORE.INTRA.VDW.0>
-0.734044

>  <SCORE.INTRA.norm>
-0.182485

>  <SCORE.RESTR>
0

>  <SCORE.RESTR.CAVITY>
0

>  <SCORE.RESTR.norm>
0

>  <SCORE.SYSTEM>
0

>  <SCORE.SYSTEM.CONST>
0

>  <SCORE.SYSTEM.DIHEDRAL>
0

>  <SCORE.SYSTEM.SOLV>
0

>  <SCORE.SYSTEM.norm>
0

>  <SCORE.heavy>
10

>  <SCORE.norm>
-0.731286

>  <RMSD>
5.182

$$$$
ligand
 OpenBabel11021811473D
libRbt.so/2013.1/901 2013/11/27
 10  9  0  0  0  0  0  0  0  0999 V2000
   29.1845   14.6021   19.8036 N   0  0  0  0  0  0  0  0  0  0  0  0
   28.8109   15.3642   20.9805 C   0  0  2  0  0  0  0  0  0  0  0  0
   27.3201   15.3256   21.1860 C   0  0  0  0  0  0  0  0  0  0  0  0
   26.5654   15.3973   20.1842 O   0  0  0  0  0  0  0  0  0  0  0  0
   29.2891   16.8016   20.8267 C   0  0  0  0  0  0  0  0  0  0  0  0
   30.7092   16.8287   20.9455 O   0  0  0  0  0  0  0  0  0  0  0  0
   31.0355   16.5718   22.3112 C   0  0  0  0  0  0  0  0  0  0  0  0
   32.5564   16.5718   22.4488 C   0  0  0  0  0  0  0  0  0  0  0  0
   33.0766   17.9105   22.2309 N   0  0  0  0  0  0  0  0  0  0  0  0
   26.9260   14.7537   22.2222 O   0  0  0  0  0  0  0  0  0  0  0  0
  2  1  1  6  0  0  0
  2  5  1  0  0  0  0
  2  3  1  0  0  0  0
  3  4  1  0  0  0  0
  3 10  1  0  0  0  0
  5  6  1  0  0  0  0
  6  7  1  0  0  0  0
  7  8  1  0  0  0  0
  8  9  1  0  0  0  0
M  END
>  <CHROM.1>
-71.28501581,-39.38426315,-71.05157998,178.95595805,67.91675207,29.50686198
16.00752157,21.30920106,-2.91891254,0.37881381,1.54210612

>  <Name>
ligand

>  <RI>
0

>  <Rbt.Current_Directory>
/home/itssahil/PROJECTS/Mol_Feturizer/New_Systems/rnas/3DJ0

>  <Rbt.Executable>
rbdock ($Id: //depot/dev/client3/rdock/2013.1/src/exe/rbdock.cxx#4 $)

>  <Rbt.Library>
libRbt.so (2013.1, Build901 2013/11/27)

>  <Rbt.Parameter_File>
/export/apps/rDock/src/rDock_2013.1_src/data/scripts/dock_solv.prm

>  <Rbt.Receptor>
prm/pocket_docking_4.prm

>  <SCORE>
-5.5681

>  <SCORE.INTER>
-5.52447

>  <SCORE.INTER.CONST>
1

>  <SCORE.INTER.POLAR>
0

>  <SCORE.INTER.ROT>
5

>  <SCORE.INTER.SOLV>
17.5319

>  <SCORE.INTER.VDW>
-16.4603

>  <SCORE.INTER.norm>
-0.552447

>  <SCORE.INTRA>
-0.0436332

>  <SCORE.INTRA.DIHEDRAL>
-2.68881

>  <SCORE.INTRA.DIHEDRAL.0>
6.00299

>  <SCORE.INTRA.POLAR>
0

>  <SCORE.INTRA.POLAR.0>
0

>  <SCORE.INTRA.REPUL>
0

>  <SCORE.INTRA.REPUL.0>
0

>  <SCORE.INTRA.SOLV>
0.64034

>  <SCORE.INTRA.SOLV.lig_0>
-39.3257

>  <SCORE.INTRA.VDW>
0.980601

>  <SCORE.INTRA.VDW.0>
-0.734044

>  <SCORE.INTRA.norm>
-0.00436332

>  <SCORE.RESTR>
0

>  <SCORE.RESTR.CAVITY>
0

>  <SCORE.RESTR.norm>
0

>  <SCORE.SYSTEM>
0

>  <SCORE.SYSTEM.CONST>
0

>  <SCORE.SYSTEM.DIHEDRAL>
0

>  <SCORE.SYSTEM.SOLV>
0

>  <SCORE.SYSTEM.norm>
0

>  <SCORE.heavy>
10

>  <SCORE.norm>
-0.55681

>  <RMSD>
5.183

$$$$
ligand
 OpenBabel11021811473D
libRbt.so/2013.1/901 2013/11/27
 10  9  0  0  0  0  0  0  0  0999 V2000
   26.4850   14.6132   21.7334 N   0  0  0  0  0  0  0  0  0  0  0  0
   27.5965   15.4836   21.3982 C   0  0  2  0  0  0  0  0  0  0  0  0
   27.7940   15.5410   19.9070 C   0  0  0  0  0  0  0  0  0  0  0  0
   28.5447   16.4261   19.4259 O   0  0  0  0  0  0  0  0  0  0  0  0
   28.8597   14.9795   22.0826 C   0  0  0  0  0  0  0  0  0  0  0  0
   29.9148   15.9068   21.8407 O   0  0  0  0  0  0  0  0  0  0  0  0
   31.1034   15.3739   22.4247 C   0  0  0  0  0  0  0  0  0  0  0  0
   32.2643   16.3057   22.0837 C   0  0  0  0  0  0  0  0  0  0  0  0
   32.0467   17.6121   22.6803 N   0  0  0  0  0  0  0  0  0  0  0  0
   27.6209   14.4700   19.2913 O   0  0  0  0  0  0  0  0  0  0  0  0
  2  1  1  6  0  0  0
  2  5  1  0  0  0  0
  2  3  1  0  0  0  0
  3  4  1  0  0  0  0
  3 10  1  0  0  0  0
  5  6  1  0  0  0  0
  6  7  1  0  0  0  0
  7  8  1  0  0  0  0
  8  9  1  0  0  0  0
M  END
>  <CHROM.1>
-174.97092640,167.12873791,-176.67098149,175.82258460,63.33650442,29.22260397
15.67041315,21.25018876,2.83698882,-0.44268904,-1.26982455

>  <Name>
ligand

>  <RI>
0

>  <Rbt.Current_Directory>
/home/itssahil/PROJECTS/Mol_Feturizer/New_Systems/rnas/3DJ0

>  <Rbt.Executable>
rbdock ($Id: //depot/dev/client3/rdock/2013.1/src/exe/rbdock.cxx#4 $)

>  <Rbt.Library>
libRbt.so (2013.1, Build901 2013/11/27)

>  <Rbt.Parameter_File>
/export/apps/rDock/src/rDock_2013.1_src/data/scripts/dock_solv.prm

>  <Rbt.Receptor>
prm/pocket_docking_3.prm

>  <SCORE>
-7.33111

>  <SCORE.INTER>
-5.46552

>  <SCORE.INTER.CONST>
1

>  <SCORE.INTER.POLAR>
0

>  <SCORE.INTER.ROT>
5

>  <SCORE.INTER.SOLV>
20.546

>  <SCORE.INTER.VDW>
-17.4257

>  <SCORE.INTER.norm>
-0.546552

>  <SCORE.INTRA>
-1.86559

>  <SCORE.INTRA.DIHEDRAL>
-3.4152

>  <SCORE.INTRA.DIHEDRAL.0>
6.00299

>  <SCORE.INTRA.POLAR>
0

>  <SCORE.INTRA.POLAR.0>
0

>  <SCORE.INTRA.REPUL>
0

>  <SCORE.INTRA.REPUL.0>
0

>  <SCORE.INTRA.SOLV>
-0.130084

>  <SCORE.INTRA.SOLV.lig_0>
-39.3257

>  <SCORE.INTRA.VDW>
-0.0929505

>  <SCORE.INTRA.VDW.0>
-0.734044

>  <SCORE.INTRA.norm>
-0.186559

>  <SCORE.RESTR>
0

>  <SCORE.RESTR.CAVITY>
0

>  <SCORE.RESTR.norm>
0

>  <SCORE.SYSTEM>
0

>  <SCORE.SYSTEM.CONST>
0

>  <SCORE.SYSTEM.DIHEDRAL>
0

>  <SCORE.SYSTEM.SOLV>
0

>  <SCORE.SYSTEM.norm>
0

>  <SCORE.heavy>
10

>  <SCORE.norm>
-0.733111

>  <RMSD>
5.184

$$$$
ligand
 OpenBabel11021811473D
libRbt.so/2013.1/901 2013/11/27
 10  9  0  0  0  0  0  0  0  0999 V2000
   29.1345   14.9246   19.6745 N   0  0  0  0  0  0  0  0  0  0  0  0
   28.7537   14.9088   21.0745 C   0  0  2  0  0  0  0  0  0  0  0  0
   27.2556   14.9488   21.2170 C   0  0  0  0  0  0  0  0  0  0  0  0
   26.7483   14.8018   22.3569 O   0  0  0  0  0  0  0  0  0  0  0  0
   29.3871   16.0967   21.7858 C   0  0  0  0  0  0  0  0  0  0  0  0
   30.8042   15.9464   21.7586 O   0  0  0  0  0  0  0  0  0  0  0  0
   31.3748   17.0973   22.3813 C   0  0  0  0  0  0  0  0  0  0  0  0
   32.8922   16.9268   22.4050 C   0  0  0  0  0  0  0  0  0  0  0  0
   33.4073   16.8585   21.0485 N   0  0  0  0  0  0  0  0  0  0  0  0
   26.6402   15.5874   20.3397 O   0  0  0  0  0  0  0  0  0  0  0  0
  2  1  1  6  0  0  0
  2  5  1  0  0  0  0
  2  3  1  0  0  0  0
  3  4  1  0  0  0  0
  3 10  1  0  0  0  0
  5  6  1  0  0  0  0
  6  7  1  0  0  0  0
  7  8  1  0  0  0  0
  8  9  1  0  0  0  0
M  END
>  <CHROM.1>
-64.40201209,172.69958955,177.64296977,177.97590127,62.53992591,29.59750228
15.80704188,21.41142892,-2.94432730,0.27393899,1.32174160

>  <Name>
ligand

>  <RI>
0

>  <Rbt.Current_Directory>
/home/itssahil/PROJECTS/Mol_Feturizer/New_Systems/rnas/3DJ0

>  <Rbt.Executable>
rbdock ($Id: //depot/dev/client3/rdock/2013.1/src/exe/rbdock.cxx#4 $)

>  <Rbt.Library>
libRbt.so (2013.1, Build901 2013/11/27)

>  <Rbt.Parameter_File>
/export/apps/rDock/src/rDock_2013.1_src/data/scripts/dock_solv.prm

>  <Rbt.Receptor>
prm/pocket_docking_8.prm

>  <SCORE>
-7.8499

>  <SCORE.INTER>
-6.2133

>  <SCORE.INTER.CONST>
1

>  <SCORE.INTER.POLAR>
0

>  <SCORE.INTER.ROT>
5

>  <SCORE.INTER.SOLV>
17.5113

>  <SCORE.INTER.VDW>
-16.9126

>  <SCORE.INTER.norm>
-0.62133

>  <SCORE.INTRA>
-1.6366

>  <SCORE.INTRA.DIHEDRAL>
-3.65919

>  <SCORE.INTRA.DIHEDRAL.0>
6.00299

>  <SCORE.INTRA.POLAR>
0

>  <SCORE.INTRA.POLAR.0>
0

>  <SCORE.INTRA.REPUL>
0

>  <SCORE.INTRA.REPUL.0>
0

>  <SCORE.INTRA.SOLV>
0.305428

>  <SCORE.INTRA.SOLV.lig_0>
-39.3257

>  <SCORE.INTRA.VDW>
0.0402753

>  <SCORE.INTRA.VDW.0>
-0.734044

>  <SCORE.INTRA.norm>
-0.16366

>  <SCORE.RESTR>
0

>  <SCORE.RESTR.CAVITY>
0

>  <SCORE.RESTR.norm>
0

>  <SCORE.SYSTEM>
0

>  <SCORE.SYSTEM.CONST>
0

>  <SCORE.SYSTEM.DIHEDRAL>
0

>  <SCORE.SYSTEM.SOLV>
0

>  <SCORE.SYSTEM.norm>
0

>  <SCORE.heavy>
10

>  <SCORE.norm>
-0.78499

>  <RMSD>
5.186

$$$$
ligand
 OpenBabel11021811473D
libRbt.so/2013.1/901 2013/11/27
 10  9  0  0  0  0  0  0  0  0999 V2000
   27.7841   14.1858   19.1458 N   0  0  0  0  0  0  0  0  0  0  0  0
   28.2895   14.9699   20.2572 C   0  0  2  0  0  0  0  0  0  0  0  0
   27.2662   15.0501   21.3583 C   0  0  0  0  0  0  0  0  0  0  0  0
   26.0502   14.9204   21.0701 O   0  0  0  0  0  0  0  0  0  0  0  0
   28.6550   16.3650   19.7689 C   0  0  0  0  0  0  0  0  0  0  0  0
   29.1772   17.1132   20.8640 O   0  0  0  0  0  0  0  0  0  0  0  0
   30.4934   16.6299   21.1315 C   0  0  0  0  0  0  0  0  0  0  0  0
   31.0643   17.4196   22.3073 C   0  0  0  0  0  0  0  0  0  0  0  0
   32.4251   16.9917   22.5814 N   0  0  0  0  0  0  0  0  0  0  0  0
   27.6694   14.7557   22.5015 O   0  0  0  0  0  0  0  0  0  0  0  0
  2  1  1  6  0  0  0
  2  5  1  0  0  0  0
  2  3  1  0  0  0  0
  3  4  1  0  0  0  0
  3 10  1  0  0  0  0
  5  6  1  0  0  0  0
  6  7  1  0  0  0  0
  7  8  1  0  0  0  0
  8  9  1  0  0  0  0
M  END
>  <CHROM.1>
-178.72263277,-25.43179328,74.10144188,-179.79388698,-177.90426104,28.85108835
15.84179856,21.11832927,-2.87176109,0.50126173,1.57821512

>  <Name>
ligand

>  <RI>
0

>  <Rbt.Current_Directory>
/home/itssahil/PROJECTS/Mol_Feturizer/New_Systems/rnas/3DJ0

>  <Rbt.Executable>
rbdock ($Id: //depot/dev/client3/rdock/2013.1/src/exe/rbdock.cxx#4 $)

>  <Rbt.Library>
libRbt.so (2013.1, Build901 2013/11/27)

>  <Rbt.Parameter_File>
/export/apps/rDock/src/rDock_2013.1_src/data/scripts/dock_solv.prm

>  <Rbt.Receptor>
prm/pocket_docking_8.prm

>  <SCORE>
-7.65441

>  <SCORE.INTER>
-6.79206

>  <SCORE.INTER.CONST>
1

>  <SCORE.INTER.POLAR>
0

>  <SCORE.INTER.ROT>
5

>  <SCORE.INTER.SOLV>
19.2182

>  <SCORE.INTER.VDW>
-17.8674

>  <SCORE.INTER.norm>
-0.679206

>  <SCORE.INTRA>
-0.862351

>  <SCORE.INTRA.DIHEDRAL>
-2.7888

>  <SCORE.INTRA.DIHEDRAL.0>
6.00299

>  <SCORE.INTRA.POLAR>
0

>  <SCORE.INTRA.POLAR.0>
0

>  <SCORE.INTRA.REPUL>
0

>  <SCORE.INTRA.REPUL.0>
0

>  <SCORE.INTRA.SOLV>
-0.666265

>  <SCORE.INTRA.SOLV.lig_0>
-39.3257

>  <SCORE.INTRA.VDW>
0.865182

>  <SCORE.INTRA.VDW.0>
-0.734044

>  <SCORE.INTRA.norm>
-0.0862351

>  <SCORE.RESTR>
0

>  <SCORE.RESTR.CAVITY>
0

>  <SCORE.RESTR.norm>
0

>  <SCORE.SYSTEM>
0

>  <SCORE.SYSTEM.CONST>
0

>  <SCORE.SYSTEM.DIHEDRAL>
0

>  <SCORE.SYSTEM.SOLV>
0

>  <SCORE.SYSTEM.norm>
0

>  <SCORE.heavy>
10

>  <SCORE.norm>
-0.765441

>  <RMSD>
5.186

$$$$
ligand
 OpenBabel11021811473D
libRbt.so/2013.1/901 2013/11/27
 10  9  0  0  0  0  0  0  0  0999 V2000
   28.3470   14.3572   19.1994 N   0  0  0  0  0  0  0  0  0  0  0  0
   28.5511   14.5514   20.6228 C   0  0  2  0  0  0  0  0  0  0  0  0
   27.2448   14.8458   21.3105 C   0  0  0  0  0  0  0  0  0  0  0  0
   27.2337   14.9961   22.5578 O   0  0  0  0  0  0  0  0  0  0  0  0
   29.5363   15.6913   20.8429 C   0  0  0  0  0  0  0  0  0  0  0  0
   29.8983   15.7262   22.2211 O   0  0  0  0  0  0  0  0  0  0  0  0
   30.8123   16.8076   22.4025 C   0  0  0  0  0  0  0  0  0  0  0  0
   32.1903   16.3560   21.9236 C   0  0  0  0  0  0  0  0  0  0  0  0
   33.1559   17.4262   22.1034 N   0  0  0  0  0  0  0  0  0  0  0  0
   26.3698   15.3933   20.6100 O   0  0  0  0  0  0  0  0  0  0  0  0
  2  1  1  6  0  0  0
  2  5  1  0  0  0  0
  2  3  1  0  0  0  0
  3  4  1  0  0  0  0
  3 10  1  0  0  0  0
  5  6  1  0  0  0  0
  6  7  1  0  0  0  0
  7  8  1  0  0  0  0
  8  9  1  0  0  0  0
M  END
>  <CHROM.1>
-170.42334589,177.60241455,-179.55031144,-78.73952474,-179.45012560,29.29205280
15.61785235,21.40251046,-2.79627040,0.27627473,1.21875014

>  <Name>
ligand

>  <RI>
0

>  <Rbt.Current_Directory>
/home/itssahil/PROJECTS/Mol_Feturizer/New_Systems/rnas/3DJ0

>  <Rbt.Executable>
rbdock ($Id: //depot/dev/client3/rdock/2013.1/src/exe/rbdock.cxx#4 $)

>  <Rbt.Library>
libRbt.so (2013.1, Build901 2013/11/27)

>  <Rbt.Parameter_File>
/export/apps/rDock/src/rDock_2013.1_src/data/scripts/dock_solv.prm

>  <Rbt.Receptor>
prm/pocket_docking_5.prm

>  <SCORE>
-5.82526

>  <SCORE.INTER>
-5.9331

>  <SCORE.INTER.CONST>
1

>  <SCORE.INTER.POLAR>
0

>  <SCORE.INTER.ROT>
5

>  <SCORE.INTER.SOLV>
18.2235

>  <SCORE.INTER.VDW>
-16.9632

>  <SCORE.INTER.norm>
-0.59331

>  <SCORE.INTRA>
0.107837

>  <SCORE.INTRA.DIHEDRAL>
-1.94703

>  <SCORE.INTRA.DIHEDRAL.0>
6.00299

>  <SCORE.INTRA.POLAR>
0

>  <SCORE.INTRA.POLAR.0>
0

>  <SCORE.INTRA.REPUL>
0

>  <SCORE.INTRA.REPUL.0>
0

>  <SCORE.INTRA.SOLV>
-0.75095

>  <SCORE.INTRA.SOLV.lig_0>
-39.3257

>  <SCORE.INTRA.VDW>
1.45683

>  <SCORE.INTRA.VDW.0>
-0.734044

>  <SCORE.INTRA.norm>
0.0107837

>  <SCORE.RESTR>
0

>  <SCORE.RESTR.CAVITY>
0

>  <SCORE.RESTR.norm>
0

>  <SCORE.SYSTEM>
0

>  <SCORE.SYSTEM.CONST>
0

>  <SCORE.SYSTEM.DIHEDRAL>
0

>  <SCORE.SYSTEM.SOLV>
0

>  <SCORE.SYSTEM.norm>
0

>  <SCORE.heavy>
10

>  <SCORE.norm>
-0.582526

>  <RMSD>
5.188

$$$$
ligand
 OpenBabel11021811473D
libRbt.so/2013.1/901 2013/11/27
 10  9  0  0  0  0  0  0  0  0999 V2000
   29.0255   14.7216   19.5999 N   0  0  0  0  0  0  0  0  0  0  0  0
   28.7137   15.1273   20.9577 C   0  0  2  0  0  0  0  0  0  0  0  0
   27.2498   14.9294   21.2473 C   0  0  0  0  0  0  0  0  0  0  0  0
   26.8716   14.8443   22.4423 O   0  0  0  0  0  0  0  0  0  0  0  0
   29.1015   16.5867   21.1526 C   0  0  0  0  0  0  0  0  0  0  0  0
   30.5232   16.6885   21.1524 O   0  0  0  0  0  0  0  0  0  0  0  0
   30.9939   16.1930   22.4057 C   0  0  0  0  0  0  0  0  0  0  0  0
   32.5026   16.4199   22.4747 C   0  0  0  0  0  0  0  0  0  0  0  0
   32.7931   17.8431   22.4724 N   0  0  0  0  0  0  0  0  0  0  0  0
   26.4598   15.3371   20.3722 O   0  0  0  0  0  0  0  0  0  0  0  0
  2  1  1  6  0  0  0
  2  5  1  0  0  0  0
  2  3  1  0  0  0  0
  3  4  1  0  0  0  0
  3 10  1  0  0  0  0
  5  6  1  0  0  0  0
  6  7  1  0  0  0  0
  7  8  1  0  0  0  0
  8  9  1  0  0  0  0
M  END
>  <CHROM.1>
-70.23220578,159.16699075,-74.93236886,-174.60972434,64.54894121,29.38277690
15.87064280,21.42804832,-2.86083281,0.33855361,1.42249612

>  <Name>
ligand

>  <RI>
0

>  <Rbt.Current_Directory>
/home/itssahil/PROJECTS/Mol_Feturizer/New_Systems/rnas/3DJ0

>  <Rbt.Executable>
rbdock ($Id: //depot/dev/client3/rdock/2013.1/src/exe/rbdock.cxx#4 $)

>  <Rbt.Library>
libRbt.so (2013.1, Build901 2013/11/27)

>  <Rbt.Parameter_File>
/export/apps/rDock/src/rDock_2013.1_src/data/scripts/dock_solv.prm

>  <Rbt.Receptor>
prm/pocket_docking_7.prm

>  <SCORE>
-5.60047

>  <SCORE.INTER>
-5.83154

>  <SCORE.INTER.CONST>
1

>  <SCORE.INTER.POLAR>
0

>  <SCORE.INTER.ROT>
5

>  <SCORE.INTER.SOLV>
16.8453

>  <SCORE.INTER.VDW>
-16.4361

>  <SCORE.INTER.norm>
-0.583154

>  <SCORE.INTRA>
0.23107

>  <SCORE.INTRA.DIHEDRAL>
-1.89966

>  <SCORE.INTRA.DIHEDRAL.0>
6.00299

>  <SCORE.INTRA.POLAR>
0

>  <SCORE.INTRA.POLAR.0>
0

>  <SCORE.INTRA.REPUL>
0

>  <SCORE.INTRA.REPUL.0>
0

>  <SCORE.INTRA.SOLV>
0.611508

>  <SCORE.INTRA.SOLV.lig_0>
-39.3257

>  <SCORE.INTRA.VDW>
0.875147

>  <SCORE.INTRA.VDW.0>
-0.734044

>  <SCORE.INTRA.norm>
0.023107

>  <SCORE.RESTR>
0

>  <SCORE.RESTR.CAVITY>
0

>  <SCORE.RESTR.norm>
0

>  <SCORE.SYSTEM>
0

>  <SCORE.SYSTEM.CONST>
0

>  <SCORE.SYSTEM.DIHEDRAL>
0

>  <SCORE.SYSTEM.SOLV>
0

>  <SCORE.SYSTEM.norm>
0

>  <SCORE.heavy>
10

>  <SCORE.norm>
-0.560047

>  <RMSD>
5.188

$$$$
ligand
 OpenBabel11021811473D
libRbt.so/2013.1/901 2013/11/27
 10  9  0  0  0  0  0  0  0  0999 V2000
   29.0335   14.3121   19.6400 N   0  0  0  0  0  0  0  0  0  0  0  0
   28.4586   14.2989   20.9722 C   0  0  2  0  0  0  0  0  0  0  0  0
   27.2986   15.2544   21.0586 C   0  0  0  0  0  0  0  0  0  0  0  0
   27.2754   16.2542   20.2981 O   0  0  0  0  0  0  0  0  0  0  0  0
   29.5288   14.6690   21.9901 C   0  0  0  0  0  0  0  0  0  0  0  0
   30.0626   15.9466   21.6518 O   0  0  0  0  0  0  0  0  0  0  0  0
   31.1552   16.2075   22.5327 C   0  0  0  0  0  0  0  0  0  0  0  0
   31.7404   17.5730   22.1791 C   0  0  0  0  0  0  0  0  0  0  0  0
   32.9530   17.8087   22.9434 N   0  0  0  0  0  0  0  0  0  0  0  0
   26.2307   14.7793   21.4945 O   0  0  0  0  0  0  0  0  0  0  0  0
  2  1  1  6  0  0  0
  2  5  1  0  0  0  0
  2  3  1  0  0  0  0
  3  4  1  0  0  0  0
  3 10  1  0  0  0  0
  5  6  1  0  0  0  0
  6  7  1  0  0  0  0
  7  8  1  0  0  0  0
  8  9  1  0  0  0  0
M  END
>  <CHROM.1>
57.32981965,-27.47165084,-174.02559077,179.83810368,-173.19909509,29.33183827
15.72126285,21.46908906,-2.62533708,-0.16056354,0.37359105

>  <Name>
ligand

>  <RI>
0

>  <Rbt.Current_Directory>
/home/itssahil/PROJECTS/Mol_Feturizer/New_Systems/rnas/3DJ0

>  <Rbt.Executable>
rbdock ($Id: //depot/dev/client3/rdock/2013.1/src/exe/rbdock.cxx#4 $)

>  <Rbt.Library>
libRbt.so (2013.1, Build901 2013/11/27)

>  <Rbt.Parameter_File>
/export/apps/rDock/src/rDock_2013.1_src/data/scripts/dock_solv.prm

>  <Rbt.Receptor>
prm/pocket_docking_6.prm

>  <SCORE>
-7.7706

>  <SCORE.INTER>
-5.69413

>  <SCORE.INTER.CONST>
1

>  <SCORE.INTER.POLAR>
0

>  <SCORE.INTER.ROT>
5

>  <SCORE.INTER.SOLV>
18.3847

>  <SCORE.INTER.VDW>
-16.8576

>  <SCORE.INTER.norm>
-0.569413

>  <SCORE.INTRA>
-2.07648

>  <SCORE.INTRA.DIHEDRAL>
-3.4159

>  <SCORE.INTRA.DIHEDRAL.0>
6.00299

>  <SCORE.INTRA.POLAR>
0

>  <SCORE.INTRA.POLAR.0>
0

>  <SCORE.INTRA.REPUL>
0

>  <SCORE.INTRA.REPUL.0>
0

>  <SCORE.INTRA.SOLV>
-0.253422

>  <SCORE.INTRA.SOLV.lig_0>
-39.3257

>  <SCORE.INTRA.VDW>
-0.241817

>  <SCORE.INTRA.VDW.0>
-0.734044

>  <SCORE.INTRA.norm>
-0.207648

>  <SCORE.RESTR>
0

>  <SCORE.RESTR.CAVITY>
0

>  <SCORE.RESTR.norm>
0

>  <SCORE.SYSTEM>
0

>  <SCORE.SYSTEM.CONST>
0

>  <SCORE.SYSTEM.DIHEDRAL>
0

>  <SCORE.SYSTEM.SOLV>
0

>  <SCORE.SYSTEM.norm>
0

>  <SCORE.heavy>
10

>  <SCORE.norm>
-0.77706

>  <RMSD>
5.189

$$$$
ligand
 OpenBabel11021811473D
libRbt.so/2013.1/901 2013/11/27
 10  9  0  0  0  0  0  0  0  0999 V2000
   29.1121   14.9325   19.6914 N   0  0  0  0  0  0  0  0  0  0  0  0
   28.7533   14.9037   21.0971 C   0  0  2  0  0  0  0  0  0  0  0  0
   27.2575   14.9327   21.2632 C   0  0  0  0  0  0  0  0  0  0  0  0
   26.7707   14.8237   22.4163 O   0  0  0  0  0  0  0  0  0  0  0  0
   29.3900   16.0905   21.8073 C   0  0  0  0  0  0  0  0  0  0  0  0
   30.8075   15.9495   21.7576 O   0  0  0  0  0  0  0  0  0  0  0  0
   31.3780   17.0436   22.4753 C   0  0  0  0  0  0  0  0  0  0  0  0
   32.8965   16.8814   22.4690 C   0  0  0  0  0  0  0  0  0  0  0  0
   33.3963   16.9216   21.1057 N   0  0  0  0  0  0  0  0  0  0  0  0
   26.6203   15.5305   20.3729 O   0  0  0  0  0  0  0  0  0  0  0  0
  2  1  1  6  0  0  0
  2  5  1  0  0  0  0
  2  3  1  0  0  0  0
  3  4  1  0  0  0  0
  3 10  1  0  0  0  0
  5  6  1  0  0  0  0
  6  7  1  0  0  0  0
  7  8  1  0  0  0  0
  8  9  1  0  0  0  0
M  END
>  <CHROM.1>
-64.44109723,175.32467915,-177.69565592,178.20427515,61.84026406,29.59604469
15.79823432,21.45245198,-2.94375440,0.27805112,1.34002217

>  <Name>
ligand

>  <RI>
0

>  <Rbt.Current_Directory>
/home/itssahil/PROJECTS/Mol_Feturizer/New_Systems/rnas/3DJ0

>  <Rbt.Executable>
rbdock ($Id: //depot/dev/client3/rdock/2013.1/src/exe/rbdock.cxx#4 $)

>  <Rbt.Library>
libRbt.so (2013.1, Build901 2013/11/27)

>  <Rbt.Parameter_File>
/export/apps/rDock/src/rDock_2013.1_src/data/scripts/dock_solv.prm

>  <Rbt.Receptor>
prm/pocket_docking_5.prm

>  <SCORE>
-7.94161

>  <SCORE.INTER>
-6.29828

>  <SCORE.INTER.CONST>
1

>  <SCORE.INTER.POLAR>
0

>  <SCORE.INTER.ROT>
5

>  <SCORE.INTER.SOLV>
17.3136

>  <SCORE.INTER.VDW>
-16.9034

>  <SCORE.INTER.norm>
-0.629828

>  <SCORE.INTRA>
-1.64332

>  <SCORE.INTRA.DIHEDRAL>
-3.71966

>  <SCORE.INTRA.DIHEDRAL.0>
6.00299

>  <SCORE.INTRA.POLAR>
0

>  <SCORE.INTRA.POLAR.0>
0

>  <SCORE.INTRA.REPUL>
0

>  <SCORE.INTRA.REPUL.0>
0

>  <SCORE.INTRA.SOLV>
0.302149

>  <SCORE.INTRA.SOLV.lig_0>
-39.3257

>  <SCORE.INTRA.VDW>
0.0654316

>  <SCORE.INTRA.VDW.0>
-0.734044

>  <SCORE.INTRA.norm>
-0.164332

>  <SCORE.RESTR>
0

>  <SCORE.RESTR.CAVITY>
0

>  <SCORE.RESTR.norm>
0

>  <SCORE.SYSTEM>
0

>  <SCORE.SYSTEM.CONST>
0

>  <SCORE.SYSTEM.DIHEDRAL>
0

>  <SCORE.SYSTEM.SOLV>
0

>  <SCORE.SYSTEM.norm>
0

>  <SCORE.heavy>
10

>  <SCORE.norm>
-0.794161

>  <RMSD>
5.190

$$$$
ligand
 OpenBabel11021811473D
libRbt.so/2013.1/901 2013/11/27
 10  9  0  0  0  0  0  0  0  0999 V2000
   26.8915   14.5212   21.7759 N   0  0  0  0  0  0  0  0  0  0  0  0
   27.8299   15.5748   21.4370 C   0  0  2  0  0  0  0  0  0  0  0  0
   27.9867   15.6852   19.9440 C   0  0  0  0  0  0  0  0  0  0  0  0
   28.6612   16.6338   19.4711 O   0  0  0  0  0  0  0  0  0  0  0  0
   29.1737   15.2871   22.0927 C   0  0  0  0  0  0  0  0  0  0  0  0
   30.0445   16.3913   21.8598 O   0  0  0  0  0  0  0  0  0  0  0  0
   31.2999   16.0899   22.4687 C   0  0  0  0  0  0  0  0  0  0  0  0
   32.2512   17.2558   22.2081 C   0  0  0  0  0  0  0  0  0  0  0  0
   33.5660   16.9566   22.7484 N   0  0  0  0  0  0  0  0  0  0  0  0
   27.8748   14.6211   19.3027 O   0  0  0  0  0  0  0  0  0  0  0  0
  2  1  1  6  0  0  0
  2  5  1  0  0  0  0
  2  3  1  0  0  0  0
  3  4  1  0  0  0  0
  3 10  1  0  0  0  0
  5  6  1  0  0  0  0
  6  7  1  0  0  0  0
  7  8  1  0  0  0  0
  8  9  1  0  0  0  0
M  END
>  <CHROM.1>
-174.42703819,173.04195606,-179.27655010,179.11711847,-176.84266769,29.55218029
15.90472495,21.29354105,2.86234961,-0.43848415,-1.26071684

>  <Name>
ligand

>  <RI>
0

>  <Rbt.Current_Directory>
/home/itssahil/PROJECTS/Mol_Feturizer/New_Systems/rnas/3DJ0

>  <Rbt.Executable>
rbdock ($Id: //depot/dev/client3/rdock/2013.1/src/exe/rbdock.cxx#4 $)

>  <Rbt.Library>
libRbt.so (2013.1, Build901 2013/11/27)

>  <Rbt.Parameter_File>
/export/apps/rDock/src/rDock_2013.1_src/data/scripts/dock_solv.prm

>  <Rbt.Receptor>
prm/pocket_docking_8.prm

>  <SCORE>
-6.76915

>  <SCORE.INTER>
-4.41619

>  <SCORE.INTER.CONST>
1

>  <SCORE.INTER.POLAR>
0

>  <SCORE.INTER.ROT>
5

>  <SCORE.INTER.SOLV>
22.359

>  <SCORE.INTER.VDW>
-17.3304

>  <SCORE.INTER.norm>
-0.441619

>  <SCORE.INTRA>
-2.35296

>  <SCORE.INTRA.DIHEDRAL>
-3.64498

>  <SCORE.INTRA.DIHEDRAL.0>
6.00299

>  <SCORE.INTRA.POLAR>
0

>  <SCORE.INTRA.POLAR.0>
0

>  <SCORE.INTRA.REPUL>
0

>  <SCORE.INTRA.REPUL.0>
0

>  <SCORE.INTRA.SOLV>
-1.15632

>  <SCORE.INTRA.SOLV.lig_0>
-39.3257

>  <SCORE.INTRA.VDW>
0.0476899

>  <SCORE.INTRA.VDW.0>
-0.734044

>  <SCORE.INTRA.norm>
-0.235296

>  <SCORE.RESTR>
0

>  <SCORE.RESTR.CAVITY>
0

>  <SCORE.RESTR.norm>
0

>  <SCORE.SYSTEM>
0

>  <SCORE.SYSTEM.CONST>
0

>  <SCORE.SYSTEM.DIHEDRAL>
0

>  <SCORE.SYSTEM.SOLV>
0

>  <SCORE.SYSTEM.norm>
0

>  <SCORE.heavy>
10

>  <SCORE.norm>
-0.676915

>  <RMSD>
5.190

$$$$
ligand
 OpenBabel11021811473D
libRbt.so/2013.1/901 2013/11/27
 10  9  0  0  0  0  0  0  0  0999 V2000
   29.1392   14.8500   19.7183 N   0  0  0  0  0  0  0  0  0  0  0  0
   28.7555   14.8823   21.1173 C   0  0  2  0  0  0  0  0  0  0  0  0
   27.2570   14.9201   21.2555 C   0  0  0  0  0  0  0  0  0  0  0  0
   26.7477   14.8016   22.3978 O   0  0  0  0  0  0  0  0  0  0  0  0
   29.3818   16.0980   21.7869 C   0  0  0  0  0  0  0  0  0  0  0  0
   30.8006   15.9714   21.7348 O   0  0  0  0  0  0  0  0  0  0  0  0
   31.3619   17.1032   22.3995 C   0  0  0  0  0  0  0  0  0  0  0  0
   32.8799   16.9382   22.4278 C   0  0  0  0  0  0  0  0  0  0  0  0
   33.4035   16.9100   21.0731 N   0  0  0  0  0  0  0  0  0  0  0  0
   26.6411   15.5326   20.3601 O   0  0  0  0  0  0  0  0  0  0  0  0
  2  1  1  6  0  0  0
  2  5  1  0  0  0  0
  2  3  1  0  0  0  0
  3  4  1  0  0  0  0
  3 10  1  0  0  0  0
  5  6  1  0  0  0  0
  6  7  1  0  0  0  0
  7  8  1  0  0  0  0
  8  9  1  0  0  0  0
M  END
>  <CHROM.1>
-62.81524106,172.18094134,-178.46470139,176.53963454,62.23331506,29.59454548
15.79828704,21.43365900,-2.93803023,0.28024168,1.29696890

>  <Name>
ligand

>  <RI>
0

>  <Rbt.Current_Directory>
/home/itssahil/PROJECTS/Mol_Feturizer/New_Systems/rnas/3DJ0

>  <Rbt.Executable>
rbdock ($Id: //depot/dev/client3/rdock/2013.1/src/exe/rbdock.cxx#4 $)

>  <Rbt.Library>
libRbt.so (2013.1, Build901 2013/11/27)

>  <Rbt.Parameter_File>
/export/apps/rDock/src/rDock_2013.1_src/data/scripts/dock_solv.prm

>  <Rbt.Receptor>
prm/pocket_docking_8.prm

>  <SCORE>
-7.91505

>  <SCORE.INTER>
-6.27148

>  <SCORE.INTER.CONST>
1

>  <SCORE.INTER.POLAR>
0

>  <SCORE.INTER.ROT>
5

>  <SCORE.INTER.SOLV>
17.5057

>  <SCORE.INTER.VDW>
-16.9495

>  <SCORE.INTER.norm>
-0.627148

>  <SCORE.INTRA>
-1.64357

>  <SCORE.INTRA.DIHEDRAL>
-3.67244

>  <SCORE.INTRA.DIHEDRAL.0>
6.00299

>  <SCORE.INTRA.POLAR>
0

>  <SCORE.INTRA.POLAR.0>
0

>  <SCORE.INTRA.REPUL>
0

>  <SCORE.INTRA.REPUL.0>
0

>  <SCORE.INTRA.SOLV>
0.3003

>  <SCORE.INTRA.SOLV.lig_0>
-39.3257

>  <SCORE.INTRA.VDW>
0.0424978

>  <SCORE.INTRA.VDW.0>
-0.734044

>  <SCORE.INTRA.norm>
-0.164357

>  <SCORE.RESTR>
0

>  <SCORE.RESTR.CAVITY>
0

>  <SCORE.RESTR.norm>
0

>  <SCORE.SYSTEM>
0

>  <SCORE.SYSTEM.CONST>
0

>  <SCORE.SYSTEM.DIHEDRAL>
0

>  <SCORE.SYSTEM.SOLV>
0

>  <SCORE.SYSTEM.norm>
0

>  <SCORE.heavy>
10

>  <SCORE.norm>
-0.791505

>  <RMSD>
5.190

$$$$
ligand
 OpenBabel11021811473D
libRbt.so/2013.1/901 2013/11/27
 10  9  0  0  0  0  0  0  0  0999 V2000
   29.1189   14.9918   19.6521 N   0  0  0  0  0  0  0  0  0  0  0  0
   28.7598   14.9307   21.0566 C   0  0  2  0  0  0  0  0  0  0  0  0
   27.2640   14.9587   21.2231 C   0  0  0  0  0  0  0  0  0  0  0  0
   26.7775   14.8452   22.3759 O   0  0  0  0  0  0  0  0  0  0  0  0
   29.3986   16.0994   21.7946 C   0  0  0  0  0  0  0  0  0  0  0  0
   30.8159   15.9583   21.7395 O   0  0  0  0  0  0  0  0  0  0  0  0
   31.3890   17.0515   22.4565 C   0  0  0  0  0  0  0  0  0  0  0  0
   32.9050   16.8686   22.4779 C   0  0  0  0  0  0  0  0  0  0  0  0
   33.4344   16.9370   21.1270 N   0  0  0  0  0  0  0  0  0  0  0  0
   26.6265   15.5596   20.3351 O   0  0  0  0  0  0  0  0  0  0  0  0
  2  1  1  6  0  0  0
  2  5  1  0  0  0  0
  2  3  1  0  0  0  0
  3  4  1  0  0  0  0
  3 10  1  0  0  0  0
  5  6  1  0  0  0  0
  6  7  1  0  0  0  0
  7  8  1  0  0  0  0
  8  9  1  0  0  0  0
M  END
>  <CHROM.1>
-64.32572998,176.46076540,-179.02662409,176.64482446,63.89404624,29.60669539
15.81727169,21.43055582,-2.94180212,0.27448492,1.35601079

>  <Name>
ligand

>  <RI>
0

>  <Rbt.Current_Directory>
/home/itssahil/PROJECTS/Mol_Feturizer/New_Systems/rnas/3DJ0

>  <Rbt.Executable>
rbdock ($Id: //depot/dev/client3/rdock/2013.1/src/exe/rbdock.cxx#4 $)

>  <Rbt.Library>
libRbt.so (2013.1, Build901 2013/11/27)

>  <Rbt.Parameter_File>
/export/apps/rDock/src/rDock_2013.1_src/data/scripts/dock_solv.prm

>  <Rbt.Receptor>
prm/pocket_docking_3.prm

>  <SCORE>
-7.91548

>  <SCORE.INTER>
-6.29319

>  <SCORE.INTER.CONST>
1

>  <SCORE.INTER.POLAR>
0

>  <SCORE.INTER.ROT>
5

>  <SCORE.INTER.SOLV>
17.2671

>  <SCORE.INTER.VDW>
-16.8845

>  <SCORE.INTER.norm>
-0.629319

>  <SCORE.INTRA>
-1.62229

>  <SCORE.INTRA.DIHEDRAL>
-3.67871

>  <SCORE.INTRA.DIHEDRAL.0>
6.00299

>  <SCORE.INTRA.POLAR>
0

>  <SCORE.INTRA.POLAR.0>
0

>  <SCORE.INTRA.REPUL>
0

>  <SCORE.INTRA.REPUL.0>
0

>  <SCORE.INTRA.SOLV>
0.278877

>  <SCORE.INTRA.SOLV.lig_0>
-39.3257

>  <SCORE.INTRA.VDW>
0.0776243

>  <SCORE.INTRA.VDW.0>
-0.734044

>  <SCORE.INTRA.norm>
-0.162229

>  <SCORE.RESTR>
0

>  <SCORE.RESTR.CAVITY>
0

>  <SCORE.RESTR.norm>
0

>  <SCORE.SYSTEM>
0

>  <SCORE.SYSTEM.CONST>
0

>  <SCORE.SYSTEM.DIHEDRAL>
0

>  <SCORE.SYSTEM.SOLV>
0

>  <SCORE.SYSTEM.norm>
0

>  <SCORE.heavy>
10

>  <SCORE.norm>
-0.791548

>  <RMSD>
5.191

$$$$
ligand
 OpenBabel11021811473D
libRbt.so/2013.1/901 2013/11/27
 10  9  0  0  0  0  0  0  0  0999 V2000
   29.1440   14.8612   19.7120 N   0  0  0  0  0  0  0  0  0  0  0  0
   28.7572   14.8795   21.1103 C   0  0  2  0  0  0  0  0  0  0  0  0
   27.2584   14.9200   21.2453 C   0  0  0  0  0  0  0  0  0  0  0  0
   26.7473   14.8241   22.3890 O   0  0  0  0  0  0  0  0  0  0  0  0
   29.3852   16.0861   21.7945 C   0  0  0  0  0  0  0  0  0  0  0  0
   30.8031   15.9430   21.7679 O   0  0  0  0  0  0  0  0  0  0  0  0
   31.3645   17.0530   22.4683 C   0  0  0  0  0  0  0  0  0  0  0  0
   32.8822   16.8855   22.4943 C   0  0  0  0  0  0  0  0  0  0  0  0
   33.4071   16.8870   21.1398 N   0  0  0  0  0  0  0  0  0  0  0  0
   26.6439   15.5147   20.3371 O   0  0  0  0  0  0  0  0  0  0  0  0
  2  1  1  6  0  0  0
  2  5  1  0  0  0  0
  2  3  1  0  0  0  0
  3  4  1  0  0  0  0
  3 10  1  0  0  0  0
  5  6  1  0  0  0  0
  6  7  1  0  0  0  0
  7  8  1  0  0  0  0
  8  9  1  0  0  0  0
M  END
>  <CHROM.1>
-63.95848313,173.93928016,-177.35570879,177.86774515,61.73939606,29.59701433
15.78306455,21.45202106,-2.92813793,0.27150433,1.30752284

>  <Name>
ligand

>  <RI>
0

>  <Rbt.Current_Directory>
/home/itssahil/PROJECTS/Mol_Feturizer/New_Systems/rnas/3DJ0

>  <Rbt.Executable>
rbdock ($Id: //depot/dev/client3/rdock/2013.1/src/exe/rbdock.cxx#4 $)

>  <Rbt.Library>
libRbt.so (2013.1, Build901 2013/11/27)

>  <Rbt.Parameter_File>
/export/apps/rDock/src/rDock_2013.1_src/data/scripts/dock_solv.prm

>  <Rbt.Receptor>
prm/pocket_docking_5.prm

>  <SCORE>
-7.89389

>  <SCORE.INTER>
-6.24236

>  <SCORE.INTER.CONST>
1

>  <SCORE.INTER.POLAR>
0

>  <SCORE.INTER.ROT>
5

>  <SCORE.INTER.SOLV>
17.4162

>  <SCORE.INTER.VDW>
-16.9003

>  <SCORE.INTER.norm>
-0.624236

>  <SCORE.INTRA>
-1.65154

>  <SCORE.INTRA.DIHEDRAL>
-3.69741

>  <SCORE.INTRA.DIHEDRAL.0>
6.00299

>  <SCORE.INTRA.POLAR>
0

>  <SCORE.INTRA.POLAR.0>
0

>  <SCORE.INTRA.REPUL>
0

>  <SCORE.INTRA.REPUL.0>
0

>  <SCORE.INTRA.SOLV>
0.301276

>  <SCORE.INTRA.SOLV.lig_0>
-39.3257

>  <SCORE.INTRA.VDW>
0.0465304

>  <SCORE.INTRA.VDW.0>
-0.734044

>  <SCORE.INTRA.norm>
-0.165154

>  <SCORE.RESTR>
0

>  <SCORE.RESTR.CAVITY>
0

>  <SCORE.RESTR.norm>
0

>  <SCORE.SYSTEM>
0

>  <SCORE.SYSTEM.CONST>
0

>  <SCORE.SYSTEM.DIHEDRAL>
0

>  <SCORE.SYSTEM.SOLV>
0

>  <SCORE.SYSTEM.norm>
0

>  <SCORE.heavy>
10

>  <SCORE.norm>
-0.789389

>  <RMSD>
5.191

$$$$
ligand
 OpenBabel11021811473D
libRbt.so/2013.1/901 2013/11/27
 10  9  0  0  0  0  0  0  0  0999 V2000
   29.1095   15.0029   19.6351 N   0  0  0  0  0  0  0  0  0  0  0  0
   28.7517   14.9357   21.0397 C   0  0  2  0  0  0  0  0  0  0  0  0
   27.2559   14.9587   21.2076 C   0  0  0  0  0  0  0  0  0  0  0  0
   26.7703   14.8246   22.3585 O   0  0  0  0  0  0  0  0  0  0  0  0
   29.3877   16.1035   21.7815 C   0  0  0  0  0  0  0  0  0  0  0  0
   30.8050   15.9577   21.7392 O   0  0  0  0  0  0  0  0  0  0  0  0
   31.3752   17.0472   22.4641 C   0  0  0  0  0  0  0  0  0  0  0  0
   32.8925   16.8746   22.4740 C   0  0  0  0  0  0  0  0  0  0  0  0
   33.4100   16.9366   21.1181 N   0  0  0  0  0  0  0  0  0  0  0  0
   26.6171   15.5742   20.3305 O   0  0  0  0  0  0  0  0  0  0  0  0
  2  1  1  6  0  0  0
  2  5  1  0  0  0  0
  2  3  1  0  0  0  0
  3  4  1  0  0  0  0
  3 10  1  0  0  0  0
  5  6  1  0  0  0  0
  6  7  1  0  0  0  0
  7  8  1  0  0  0  0
  8  9  1  0  0  0  0
M  END
>  <CHROM.1>
-65.04615805,175.66834823,-178.78965392,177.81647250,62.85508358,29.59529288
15.81860916,21.42170296,-2.94154741,0.27612545,1.36313378

>  <Name>
ligand

>  <RI>
0

>  <Rbt.Current_Directory>
/home/itssahil/PROJECTS/Mol_Feturizer/New_Systems/rnas/3DJ0

>  <Rbt.Executable>
rbdock ($Id: //depot/dev/client3/rdock/2013.1/src/exe/rbdock.cxx#4 $)

>  <Rbt.Library>
libRbt.so (2013.1, Build901 2013/11/27)

>  <Rbt.Parameter_File>
/export/apps/rDock/src/rDock_2013.1_src/data/scripts/dock_solv.prm

>  <Rbt.Receptor>
prm/pocket_docking_8.prm

>  <SCORE>
-7.93748

>  <SCORE.INTER>
-6.29673

>  <SCORE.INTER.CONST>
1

>  <SCORE.INTER.POLAR>
0

>  <SCORE.INTER.ROT>
5

>  <SCORE.INTER.SOLV>
17.2547

>  <SCORE.INTER.VDW>
-16.8827

>  <SCORE.INTER.norm>
-0.629673

>  <SCORE.INTRA>
-1.64075

>  <SCORE.INTRA.DIHEDRAL>
-3.69844

>  <SCORE.INTRA.DIHEDRAL.0>
6.00299

>  <SCORE.INTRA.POLAR>
0

>  <SCORE.INTRA.POLAR.0>
0

>  <SCORE.INTRA.REPUL>
0

>  <SCORE.INTRA.REPUL.0>
0

>  <SCORE.INTRA.SOLV>
0.286644

>  <SCORE.INTRA.SOLV.lig_0>
-39.3257

>  <SCORE.INTRA.VDW>
0.0651479

>  <SCORE.INTRA.VDW.0>
-0.734044

>  <SCORE.INTRA.norm>
-0.164075

>  <SCORE.RESTR>
0

>  <SCORE.RESTR.CAVITY>
0

>  <SCORE.RESTR.norm>
0

>  <SCORE.SYSTEM>
0

>  <SCORE.SYSTEM.CONST>
0

>  <SCORE.SYSTEM.DIHEDRAL>
0

>  <SCORE.SYSTEM.SOLV>
0

>  <SCORE.SYSTEM.norm>
0

>  <SCORE.heavy>
10

>  <SCORE.norm>
-0.793748

>  <RMSD>
5.192

$$$$
ligand
 OpenBabel11021811473D
libRbt.so/2013.1/901 2013/11/27
 10  9  0  0  0  0  0  0  0  0999 V2000
   26.2386   14.8096   21.3313 N   0  0  0  0  0  0  0  0  0  0  0  0
   27.4612   15.5366   21.0445 C   0  0  2  0  0  0  0  0  0  0  0  0
   27.9709   15.1953   19.6698 C   0  0  0  0  0  0  0  0  0  0  0  0
   27.4827   14.2067   19.0675 O   0  0  0  0  0  0  0  0  0  0  0  0
   28.5087   15.2026   22.0978 C   0  0  0  0  0  0  0  0  0  0  0  0
   29.6794   15.9746   21.8427 O   0  0  0  0  0  0  0  0  0  0  0  0
   30.6638   15.6018   22.8069 C   0  0  0  0  0  0  0  0  0  0  0  0
   31.9225   16.4278   22.5508 C   0  0  0  0  0  0  0  0  0  0  0  0
   32.4354   16.1549   21.2195 N   0  0  0  0  0  0  0  0  0  0  0  0
   28.4628   16.1394   19.0195 O   0  0  0  0  0  0  0  0  0  0  0  0
  2  1  1  1  0  0  0
  2  5  1  0  0  0  0
  2  3  1  0  0  0  0
  3  4  1  0  0  0  0
  3 10  1  0  0  0  0
  5  6  1  0  0  0  0
  6  7  1  0  0  0  0
  7  8  1  0  0  0  0
  8  9  1  0  0  0  0
M  END
>  <CHROM.1>
-177.07342346,-13.03319810,-177.55518200,-179.67250453,-60.86231910,29.07942840
15.52368246,21.03016122,2.69723129,-0.26789810,-1.55921791

>  <Name>
ligand

>  <RI>
0

>  <Rbt.Current_Directory>
/home/itssahil/PROJECTS/Mol_Feturizer/New_Systems/rnas/3DJ0

>  <Rbt.Executable>
rbdock ($Id: //depot/dev/client3/rdock/2013.1/src/exe/rbdock.cxx#4 $)

>  <Rbt.Library>
libRbt.so (2013.1, Build901 2013/11/27)

>  <Rbt.Parameter_File>
/export/apps/rDock/src/rDock_2013.1_src/data/scripts/dock_solv.prm

>  <Rbt.Receptor>
prm/pocket_docking_7.prm

>  <SCORE>
-7.75223

>  <SCORE.INTER>
-5.74937

>  <SCORE.INTER.CONST>
1

>  <SCORE.INTER.POLAR>
0

>  <SCORE.INTER.ROT>
5

>  <SCORE.INTER.SOLV>
20.8468

>  <SCORE.INTER.VDW>
-17.7152

>  <SCORE.INTER.norm>
-0.574937

>  <SCORE.INTRA>
-2.00287

>  <SCORE.INTRA.DIHEDRAL>
-3.43216

>  <SCORE.INTRA.DIHEDRAL.0>
6.00299

>  <SCORE.INTRA.POLAR>
0

>  <SCORE.INTRA.POLAR.0>
0

>  <SCORE.INTRA.REPUL>
0

>  <SCORE.INTRA.REPUL.0>
0

>  <SCORE.INTRA.SOLV>
-0.166376

>  <SCORE.INTRA.SOLV.lig_0>
-39.3257

>  <SCORE.INTRA.VDW>
-0.203595

>  <SCORE.INTRA.VDW.0>
-0.734044

>  <SCORE.INTRA.norm>
-0.200287

>  <SCORE.RESTR>
0

>  <SCORE.RESTR.CAVITY>
0

>  <SCORE.RESTR.norm>
0

>  <SCORE.SYSTEM>
0

>  <SCORE.SYSTEM.CONST>
0

>  <SCORE.SYSTEM.DIHEDRAL>
0

>  <SCORE.SYSTEM.SOLV>
0

>  <SCORE.SYSTEM.norm>
0

>  <SCORE.heavy>
10

>  <SCORE.norm>
-0.775223

>  <RMSD>
5.193

$$$$
ligand
 OpenBabel11021811473D
libRbt.so/2013.1/901 2013/11/27
 10  9  0  0  0  0  0  0  0  0999 V2000
   26.2117   14.9494   21.0372 N   0  0  0  0  0  0  0  0  0  0  0  0
   27.5573   15.3462   20.6667 C   0  0  2  0  0  0  0  0  0  0  0  0
   28.1129   14.4212   19.6171 C   0  0  0  0  0  0  0  0  0  0  0  0
   27.3493   13.9958   18.7146 O   0  0  0  0  0  0  0  0  0  0  0  0
   28.4459   15.3417   21.9031 C   0  0  0  0  0  0  0  0  0  0  0  0
   29.6741   15.9932   21.5889 O   0  0  0  0  0  0  0  0  0  0  0  0
   30.5264   15.8860   22.7289 C   0  0  0  0  0  0  0  0  0  0  0  0
   31.8386   16.6016   22.4155 C   0  0  0  0  0  0  0  0  0  0  0  0
   32.4614   16.0100   21.2440 N   0  0  0  0  0  0  0  0  0  0  0  0
   29.3388   14.5100   19.4041 O   0  0  0  0  0  0  0  0  0  0  0  0
  2  1  1  1  0  0  0
  2  5  1  0  0  0  0
  2  3  1  0  0  0  0
  3  4  1  0  0  0  0
  3 10  1  0  0  0  0
  5  6  1  0  0  0  0
  6  7  1  0  0  0  0
  7  8  1  0  0  0  0
  8  9  1  0  0  0  0
M  END
>  <CHROM.1>
-167.98526085,38.17904500,-175.65187146,-179.02225592,-58.56014892,29.15503127
15.29196072,20.90073354,2.56951383,-0.13752683,-2.00079494

>  <Name>
ligand

>  <RI>
0

>  <Rbt.Current_Directory>
/home/itssahil/PROJECTS/Mol_Feturizer/New_Systems/rnas/3DJ0

>  <Rbt.Executable>
rbdock ($Id: //depot/dev/client3/rdock/2013.1/src/exe/rbdock.cxx#4 $)

>  <Rbt.Library>
libRbt.so (2013.1, Build901 2013/11/27)

>  <Rbt.Parameter_File>
/export/apps/rDock/src/rDock_2013.1_src/data/scripts/dock_solv.prm

>  <Rbt.Receptor>
prm/pocket_docking_2.prm

>  <SCORE>
-6.88193

>  <SCORE.INTER>
-5.89837

>  <SCORE.INTER.CONST>
1

>  <SCORE.INTER.POLAR>
0

>  <SCORE.INTER.ROT>
5

>  <SCORE.INTER.SOLV>
20.5353

>  <SCORE.INTER.VDW>
-17.7107

>  <SCORE.INTER.norm>
-0.589837

>  <SCORE.INTRA>
-0.983566

>  <SCORE.INTRA.DIHEDRAL>
-2.89097

>  <SCORE.INTRA.DIHEDRAL.0>
6.00299

>  <SCORE.INTRA.POLAR>
0

>  <SCORE.INTRA.POLAR.0>
0

>  <SCORE.INTRA.REPUL>
0

>  <SCORE.INTRA.REPUL.0>
0

>  <SCORE.INTRA.SOLV>
0.189766

>  <SCORE.INTRA.SOLV.lig_0>
-39.3257

>  <SCORE.INTRA.VDW>
0.367035

>  <SCORE.INTRA.VDW.0>
-0.734044

>  <SCORE.INTRA.norm>
-0.0983566

>  <SCORE.RESTR>
0

>  <SCORE.RESTR.CAVITY>
0

>  <SCORE.RESTR.norm>
0

>  <SCORE.SYSTEM>
0

>  <SCORE.SYSTEM.CONST>
0

>  <SCORE.SYSTEM.DIHEDRAL>
0

>  <SCORE.SYSTEM.SOLV>
0

>  <SCORE.SYSTEM.norm>
0

>  <SCORE.heavy>
10

>  <SCORE.norm>
-0.688193

>  <RMSD>
5.194

$$$$
ligand
 OpenBabel11021811473D
libRbt.so/2013.1/901 2013/11/27
 10  9  0  0  0  0  0  0  0  0999 V2000
   27.6768   14.6963   19.4447 N   0  0  0  0  0  0  0  0  0  0  0  0
   28.4747   14.7919   20.6529 C   0  0  2  0  0  0  0  0  0  0  0  0
   27.5972   15.0477   21.8490 C   0  0  0  0  0  0  0  0  0  0  0  0
   26.4110   14.6340   21.8335 O   0  0  0  0  0  0  0  0  0  0  0  0
   29.4992   15.9075   20.4970 C   0  0  0  0  0  0  0  0  0  0  0  0
   30.4546   15.8045   21.5497 O   0  0  0  0  0  0  0  0  0  0  0  0
   31.4003   16.8606   21.3824 C   0  0  0  0  0  0  0  0  0  0  0  0
   32.4770   16.7143   22.4555 C   0  0  0  0  0  0  0  0  0  0  0  0
   33.4586   17.7770   22.3247 N   0  0  0  0  0  0  0  0  0  0  0  0
   28.1879   15.2031   22.9367 O   0  0  0  0  0  0  0  0  0  0  0  0
  2  1  1  6  0  0  0
  2  5  1  0  0  0  0
  2  3  1  0  0  0  0
  3  4  1  0  0  0  0
  3 10  1  0  0  0  0
  5  6  1  0  0  0  0
  6  7  1  0  0  0  0
  7  8  1  0  0  0  0
  8  9  1  0  0  0  0
M  END
>  <CHROM.1>
-167.50113226,28.15012047,-179.90117719,-176.73239932,-179.70237232,29.53501951
15.73330900,21.52139985,-2.95899711,0.40855092,1.48251439

>  <Name>
ligand

>  <RI>
0

>  <Rbt.Current_Directory>
/home/itssahil/PROJECTS/Mol_Feturizer/New_Systems/rnas/3DJ0

>  <Rbt.Executable>
rbdock ($Id: //depot/dev/client3/rdock/2013.1/src/exe/rbdock.cxx#4 $)

>  <Rbt.Library>
libRbt.so (2013.1, Build901 2013/11/27)

>  <Rbt.Parameter_File>
/export/apps/rDock/src/rDock_2013.1_src/data/scripts/dock_solv.prm

>  <Rbt.Receptor>
prm/pocket_docking_2.prm

>  <SCORE>
-7.33368

>  <SCORE.INTER>
-5.54379

>  <SCORE.INTER.CONST>
1

>  <SCORE.INTER.POLAR>
0

>  <SCORE.INTER.ROT>
5

>  <SCORE.INTER.SOLV>
18.958

>  <SCORE.INTER.VDW>
-16.9485

>  <SCORE.INTER.norm>
-0.554379

>  <SCORE.INTRA>
-1.78989

>  <SCORE.INTRA.DIHEDRAL>
-2.7207

>  <SCORE.INTRA.DIHEDRAL.0>
6.00299

>  <SCORE.INTRA.POLAR>
0

>  <SCORE.INTRA.POLAR.0>
0

>  <SCORE.INTRA.REPUL>
0

>  <SCORE.INTRA.REPUL.0>
0

>  <SCORE.INTRA.SOLV>
-1.27904

>  <SCORE.INTRA.SOLV.lig_0>
-39.3257

>  <SCORE.INTRA.VDW>
0.209988

>  <SCORE.INTRA.VDW.0>
-0.734044

>  <SCORE.INTRA.norm>
-0.178989

>  <SCORE.RESTR>
0

>  <SCORE.RESTR.CAVITY>
0

>  <SCORE.RESTR.norm>
0

>  <SCORE.SYSTEM>
0

>  <SCORE.SYSTEM.CONST>
0

>  <SCORE.SYSTEM.DIHEDRAL>
0

>  <SCORE.SYSTEM.SOLV>
0

>  <SCORE.SYSTEM.norm>
0

>  <SCORE.heavy>
10

>  <SCORE.norm>
-0.733368

>  <RMSD>
5.194

$$$$
ligand
 OpenBabel11021811473D
libRbt.so/2013.1/901 2013/11/27
 10  9  0  0  0  0  0  0  0  0999 V2000
   29.1292   14.9220   19.6751 N   0  0  0  0  0  0  0  0  0  0  0  0
   28.7487   14.9057   21.0752 C   0  0  2  0  0  0  0  0  0  0  0  0
   27.2506   14.9425   21.2181 C   0  0  0  0  0  0  0  0  0  0  0  0
   26.7447   14.8159   22.3611 O   0  0  0  0  0  0  0  0  0  0  0  0
   29.3797   16.0953   21.7860 C   0  0  0  0  0  0  0  0  0  0  0  0
   30.7970   15.9456   21.7629 O   0  0  0  0  0  0  0  0  0  0  0  0
   31.3616   17.0494   22.4704 C   0  0  0  0  0  0  0  0  0  0  0  0
   32.8798   16.8848   22.4828 C   0  0  0  0  0  0  0  0  0  0  0  0
   33.4001   16.9575   21.1285 N   0  0  0  0  0  0  0  0  0  0  0  0
   26.6320   15.5612   20.3289 O   0  0  0  0  0  0  0  0  0  0  0  0
  2  1  1  6  0  0  0
  2  5  1  0  0  0  0
  2  3  1  0  0  0  0
  3  4  1  0  0  0  0
  3 10  1  0  0  0  0
  5  6  1  0  0  0  0
  6  7  1  0  0  0  0
  7  8  1  0  0  0  0
  8  9  1  0  0  0  0
M  END
>  <CHROM.1>
-64.62109273,173.81540796,-178.21869063,178.66143686,64.11197530,29.59008725
15.80525739,21.43540287,-2.93446509,0.27721452,1.33901363

>  <Name>
ligand

>  <RI>
0

>  <Rbt.Current_Directory>
/home/itssahil/PROJECTS/Mol_Feturizer/New_Systems/rnas/3DJ0

>  <Rbt.Executable>
rbdock ($Id: //depot/dev/client3/rdock/2013.1/src/exe/rbdock.cxx#4 $)

>  <Rbt.Library>
libRbt.so (2013.1, Build901 2013/11/27)

>  <Rbt.Parameter_File>
/export/apps/rDock/src/rDock_2013.1_src/data/scripts/dock_solv.prm

>  <Rbt.Receptor>
prm/pocket_docking_5.prm

>  <SCORE>
-7.94821

>  <SCORE.INTER>
-6.28904

>  <SCORE.INTER.CONST>
1

>  <SCORE.INTER.POLAR>
0

>  <SCORE.INTER.ROT>
5

>  <SCORE.INTER.SOLV>
17.3695

>  <SCORE.INTER.VDW>
-16.9159

>  <SCORE.INTER.norm>
-0.628904

>  <SCORE.INTRA>
-1.65917

>  <SCORE.INTRA.DIHEDRAL>
-3.65549

>  <SCORE.INTRA.DIHEDRAL.0>
6.00299

>  <SCORE.INTRA.POLAR>
0

>  <SCORE.INTRA.POLAR.0>
0

>  <SCORE.INTRA.REPUL>
0

>  <SCORE.INTRA.REPUL.0>
0

>  <SCORE.INTRA.SOLV>
0.269828

>  <SCORE.INTRA.SOLV.lig_0>
-39.3257

>  <SCORE.INTRA.VDW>
0.0336656

>  <SCORE.INTRA.VDW.0>
-0.734044

>  <SCORE.INTRA.norm>
-0.165917

>  <SCORE.RESTR>
0

>  <SCORE.RESTR.CAVITY>
0

>  <SCORE.RESTR.norm>
0

>  <SCORE.SYSTEM>
0

>  <SCORE.SYSTEM.CONST>
0

>  <SCORE.SYSTEM.DIHEDRAL>
0

>  <SCORE.SYSTEM.SOLV>
0

>  <SCORE.SYSTEM.norm>
0

>  <SCORE.heavy>
10

>  <SCORE.norm>
-0.794821

>  <RMSD>
5.195

$$$$
ligand
 OpenBabel11021811473D
libRbt.so/2013.1/901 2013/11/27
 10  9  0  0  0  0  0  0  0  0999 V2000
   29.1038   14.9446   19.6750 N   0  0  0  0  0  0  0  0  0  0  0  0
   28.7349   14.8882   21.0773 C   0  0  2  0  0  0  0  0  0  0  0  0
   27.2381   14.9225   21.2336 C   0  0  0  0  0  0  0  0  0  0  0  0
   26.7434   14.8132   22.3832 O   0  0  0  0  0  0  0  0  0  0  0  0
   29.3734   16.0559   21.8170 C   0  0  0  0  0  0  0  0  0  0  0  0
   30.7909   15.9210   21.7525 O   0  0  0  0  0  0  0  0  0  0  0  0
   31.3638   17.0051   22.4834 C   0  0  0  0  0  0  0  0  0  0  0  0
   32.8827   16.8480   22.4621 C   0  0  0  0  0  0  0  0  0  0  0  0
   33.3724   16.9231   21.0967 N   0  0  0  0  0  0  0  0  0  0  0  0
   26.6091   15.5244   20.3402 O   0  0  0  0  0  0  0  0  0  0  0  0
  2  1  1  6  0  0  0
  2  5  1  0  0  0  0
  2  3  1  0  0  0  0
  3  4  1  0  0  0  0
  3 10  1  0  0  0  0
  5  6  1  0  0  0  0
  6  7  1  0  0  0  0
  7  8  1  0  0  0  0
  8  9  1  0  0  0  0
M  END
>  <CHROM.1>
-63.35875341,176.43669071,-178.41140203,178.15080891,62.31033285,29.57904827
15.78188146,21.43871608,-2.94457751,0.27773114,1.35574730

>  <Name>
ligand

>  <RI>
0

>  <Rbt.Current_Directory>
/home/itssahil/PROJECTS/Mol_Feturizer/New_Systems/rnas/3DJ0

>  <Rbt.Executable>
rbdock ($Id: //depot/dev/client3/rdock/2013.1/src/exe/rbdock.cxx#4 $)

>  <Rbt.Library>
libRbt.so (2013.1, Build901 2013/11/27)

>  <Rbt.Parameter_File>
/export/apps/rDock/src/rDock_2013.1_src/data/scripts/dock_solv.prm

>  <Rbt.Receptor>
prm/pocket_docking_6.prm

>  <SCORE>
-7.91532

>  <SCORE.INTER>
-6.27193

>  <SCORE.INTER.CONST>
1

>  <SCORE.INTER.POLAR>
0

>  <SCORE.INTER.ROT>
5

>  <SCORE.INTER.SOLV>
17.3247

>  <SCORE.INTER.VDW>
-16.8895

>  <SCORE.INTER.norm>
-0.627193

>  <SCORE.INTRA>
-1.64339

>  <SCORE.INTRA.DIHEDRAL>
-3.7721

>  <SCORE.INTRA.DIHEDRAL.0>
6.00299

>  <SCORE.INTRA.POLAR>
0

>  <SCORE.INTRA.POLAR.0>
0

>  <SCORE.INTRA.REPUL>
0

>  <SCORE.INTRA.REPUL.0>
0

>  <SCORE.INTRA.SOLV>
0.314756

>  <SCORE.INTRA.SOLV.lig_0>
-39.3257

>  <SCORE.INTRA.VDW>
0.0852818

>  <SCORE.INTRA.VDW.0>
-0.734044

>  <SCORE.INTRA.norm>
-0.164339

>  <SCORE.RESTR>
0

>  <SCORE.RESTR.CAVITY>
0

>  <SCORE.RESTR.norm>
0

>  <SCORE.SYSTEM>
0

>  <SCORE.SYSTEM.CONST>
0

>  <SCORE.SYSTEM.DIHEDRAL>
0

>  <SCORE.SYSTEM.SOLV>
0

>  <SCORE.SYSTEM.norm>
0

>  <SCORE.heavy>
10

>  <SCORE.norm>
-0.791532

>  <RMSD>
5.195

$$$$
ligand
 OpenBabel11021811473D
libRbt.so/2013.1/901 2013/11/27
 10  9  0  0  0  0  0  0  0  0999 V2000
   26.2352   14.9294   21.0273 N   0  0  0  0  0  0  0  0  0  0  0  0
   27.5653   15.3828   20.6658 C   0  0  2  0  0  0  0  0  0  0  0  0
   28.1327   14.5333   19.5601 C   0  0  0  0  0  0  0  0  0  0  0  0
   27.3447   13.9152   18.8016 O   0  0  0  0  0  0  0  0  0  0  0  0
   28.4683   15.3334   21.8907 C   0  0  0  0  0  0  0  0  0  0  0  0
   29.6898   16.0027   21.5885 O   0  0  0  0  0  0  0  0  0  0  0  0
   30.5419   15.8862   22.7279 C   0  0  0  0  0  0  0  0  0  0  0  0
   31.8391   16.6372   22.4351 C   0  0  0  0  0  0  0  0  0  0  0  0
   32.4785   16.0855   21.2533 N   0  0  0  0  0  0  0  0  0  0  0  0
   29.2664   14.8550   19.1508 O   0  0  0  0  0  0  0  0  0  0  0  0
  2  1  1  1  0  0  0
  2  5  1  0  0  0  0
  2  3  1  0  0  0  0
  3  4  1  0  0  0  0
  3 10  1  0  0  0  0
  5  6  1  0  0  0  0
  6  7  1  0  0  0  0
  7  8  1  0  0  0  0
  8  9  1  0  0  0  0
M  END
>  <CHROM.1>
-169.56626753,23.81655833,-177.23741739,-178.23814680,-58.70224623,29.15843172
15.34387137,20.87754017,2.57339066,-0.17627274,-1.94193049

>  <Name>
ligand

>  <RI>
0

>  <Rbt.Current_Directory>
/home/itssahil/PROJECTS/Mol_Feturizer/New_Systems/rnas/3DJ0

>  <Rbt.Executable>
rbdock ($Id: //depot/dev/client3/rdock/2013.1/src/exe/rbdock.cxx#4 $)

>  <Rbt.Library>
libRbt.so (2013.1, Build901 2013/11/27)

>  <Rbt.Parameter_File>
/export/apps/rDock/src/rDock_2013.1_src/data/scripts/dock_solv.prm

>  <Rbt.Receptor>
prm/pocket_docking_8.prm

>  <SCORE>
-7.0381

>  <SCORE.INTER>
-5.73441

>  <SCORE.INTER.CONST>
1

>  <SCORE.INTER.POLAR>
0

>  <SCORE.INTER.ROT>
5

>  <SCORE.INTER.SOLV>
20.1931

>  <SCORE.INTER.VDW>
-17.4873

>  <SCORE.INTER.norm>
-0.573441

>  <SCORE.INTRA>
-1.30369

>  <SCORE.INTRA.DIHEDRAL>
-2.81723

>  <SCORE.INTRA.DIHEDRAL.0>
6.00299

>  <SCORE.INTRA.POLAR>
0

>  <SCORE.INTRA.POLAR.0>
0

>  <SCORE.INTRA.REPUL>
0

>  <SCORE.INTRA.REPUL.0>
0

>  <SCORE.INTRA.SOLV>
0.0929476

>  <SCORE.INTRA.SOLV.lig_0>
-39.3257

>  <SCORE.INTRA.VDW>
0.0584555

>  <SCORE.INTRA.VDW.0>
-0.734044

>  <SCORE.INTRA.norm>
-0.130369

>  <SCORE.RESTR>
0

>  <SCORE.RESTR.CAVITY>
0

>  <SCORE.RESTR.norm>
0

>  <SCORE.SYSTEM>
0

>  <SCORE.SYSTEM.CONST>
0

>  <SCORE.SYSTEM.DIHEDRAL>
0

>  <SCORE.SYSTEM.SOLV>
0

>  <SCORE.SYSTEM.norm>
0

>  <SCORE.heavy>
10

>  <SCORE.norm>
-0.70381

>  <RMSD>
5.196

$$$$
ligand
 OpenBabel11021811473D
libRbt.so/2013.1/901 2013/11/27
 10  9  0  0  0  0  0  0  0  0999 V2000
   26.5021   14.6695   21.7369 N   0  0  0  0  0  0  0  0  0  0  0  0
   27.6312   15.4936   21.3475 C   0  0  2  0  0  0  0  0  0  0  0  0
   27.8135   15.4714   19.8534 C   0  0  0  0  0  0  0  0  0  0  0  0
   28.6167   16.2808   19.3260 O   0  0  0  0  0  0  0  0  0  0  0  0
   28.8890   14.9921   22.0438 C   0  0  0  0  0  0  0  0  0  0  0  0
   29.9658   15.8751   21.7398 O   0  0  0  0  0  0  0  0  0  0  0  0
   31.1357   15.3708   22.3837 C   0  0  0  0  0  0  0  0  0  0  0  0
   32.3001   16.3054   22.0627 C   0  0  0  0  0  0  0  0  0  0  0  0
   32.0594   17.6173   22.6380 N   0  0  0  0  0  0  0  0  0  0  0  0
   27.5601   14.3887   19.2880 O   0  0  0  0  0  0  0  0  0  0  0  0
  2  1  1  6  0  0  0
  2  5  1  0  0  0  0
  2  3  1  0  0  0  0
  3  4  1  0  0  0  0
  3 10  1  0  0  0  0
  5  6  1  0  0  0  0
  6  7  1  0  0  0  0
  7  8  1  0  0  0  0
  8  9  1  0  0  0  0
M  END
>  <CHROM.1>
-175.26897398,169.62594721,-178.99350053,179.81723945,64.50433963,29.24677270
15.64322995,21.20453505,2.81170991,-0.42870530,-1.33604280

>  <Name>
ligand

>  <RI>
0

>  <Rbt.Current_Directory>
/home/itssahil/PROJECTS/Mol_Feturizer/New_Systems/rnas/3DJ0

>  <Rbt.Executable>
rbdock ($Id: //depot/dev/client3/rdock/2013.1/src/exe/rbdock.cxx#4 $)

>  <Rbt.Library>
libRbt.so (2013.1, Build901 2013/11/27)

>  <Rbt.Parameter_File>
/export/apps/rDock/src/rDock_2013.1_src/data/scripts/dock_solv.prm

>  <Rbt.Receptor>
prm/blind_docking_60.prm

>  <SCORE>
-7.35001

>  <SCORE.INTER>
-5.4562

>  <SCORE.INTER.CONST>
1

>  <SCORE.INTER.POLAR>
0

>  <SCORE.INTER.ROT>
5

>  <SCORE.INTER.SOLV>
20.3912

>  <SCORE.INTER.VDW>
-17.3679

>  <SCORE.INTER.norm>
-0.54562

>  <SCORE.INTRA>
-1.89381

>  <SCORE.INTRA.DIHEDRAL>
-3.57578

>  <SCORE.INTRA.DIHEDRAL.0>
6.00299

>  <SCORE.INTRA.POLAR>
0

>  <SCORE.INTRA.POLAR.0>
0

>  <SCORE.INTRA.REPUL>
0

>  <SCORE.INTRA.REPUL.0>
0

>  <SCORE.INTRA.SOLV>
-0.116286

>  <SCORE.INTRA.SOLV.lig_0>
-39.3257

>  <SCORE.INTRA.VDW>
-0.0477744

>  <SCORE.INTRA.VDW.0>
-0.734044

>  <SCORE.INTRA.norm>
-0.189381

>  <SCORE.RESTR>
0

>  <SCORE.RESTR.CAVITY>
0

>  <SCORE.RESTR.norm>
0

>  <SCORE.SYSTEM>
0

>  <SCORE.SYSTEM.CONST>
0

>  <SCORE.SYSTEM.DIHEDRAL>
0

>  <SCORE.SYSTEM.SOLV>
0

>  <SCORE.SYSTEM.norm>
0

>  <SCORE.heavy>
10

>  <SCORE.norm>
-0.735001

>  <RMSD>
5.197

$$$$
ligand
 OpenBabel11021811473D
libRbt.so/2013.1/901 2013/11/27
 10  9  0  0  0  0  0  0  0  0999 V2000
   26.2329   14.9376   20.9870 N   0  0  0  0  0  0  0  0  0  0  0  0
   27.5783   15.3606   20.6461 C   0  0  2  0  0  0  0  0  0  0  0  0
   28.1334   14.5153   19.5311 C   0  0  0  0  0  0  0  0  0  0  0  0
   27.3364   13.9298   18.7563 O   0  0  0  0  0  0  0  0  0  0  0  0
   28.4674   15.2652   21.8785 C   0  0  0  0  0  0  0  0  0  0  0  0
   29.7029   15.9217   21.6059 O   0  0  0  0  0  0  0  0  0  0  0  0
   30.5641   15.7075   22.7240 C   0  0  0  0  0  0  0  0  0  0  0  0
   31.8731   16.4521   22.4702 C   0  0  0  0  0  0  0  0  0  0  0  0
   32.4898   15.9728   21.2454 N   0  0  0  0  0  0  0  0  0  0  0  0
   29.2781   14.8151   19.1360 O   0  0  0  0  0  0  0  0  0  0  0  0
  2  1  1  1  0  0  0
  2  5  1  0  0  0  0
  2  3  1  0  0  0  0
  3  4  1  0  0  0  0
  3 10  1  0  0  0  0
  5  6  1  0  0  0  0
  6  7  1  0  0  0  0
  7  8  1  0  0  0  0
  8  9  1  0  0  0  0
M  END
>  <CHROM.1>
-168.79651806,23.64844201,-174.49688872,-177.79254384,-58.76133478,29.16776597
15.27623387,20.86557829,2.57905402,-0.15438597,-1.91834344

>  <Name>
ligand

>  <RI>
0

>  <Rbt.Current_Directory>
/home/itssahil/PROJECTS/Mol_Feturizer/New_Systems/rnas/3DJ0

>  <Rbt.Executable>
rbdock ($Id: //depot/dev/client3/rdock/2013.1/src/exe/rbdock.cxx#4 $)

>  <Rbt.Library>
libRbt.so (2013.1, Build901 2013/11/27)

>  <Rbt.Parameter_File>
/export/apps/rDock/src/rDock_2013.1_src/data/scripts/dock_solv.prm

>  <Rbt.Receptor>
prm/pocket_docking_3.prm

>  <SCORE>
-6.95494

>  <SCORE.INTER>
-5.72189

>  <SCORE.INTER.CONST>
1

>  <SCORE.INTER.POLAR>
0

>  <SCORE.INTER.ROT>
5

>  <SCORE.INTER.SOLV>
20.5328

>  <SCORE.INTER.VDW>
-17.5922

>  <SCORE.INTER.norm>
-0.572189

>  <SCORE.INTRA>
-1.23305

>  <SCORE.INTRA.DIHEDRAL>
-2.639

>  <SCORE.INTRA.DIHEDRAL.0>
6.00299

>  <SCORE.INTRA.POLAR>
0

>  <SCORE.INTRA.POLAR.0>
0

>  <SCORE.INTRA.REPUL>
0

>  <SCORE.INTRA.REPUL.0>
0

>  <SCORE.INTRA.SOLV>
0.105732

>  <SCORE.INTRA.SOLV.lig_0>
-39.3257

>  <SCORE.INTRA.VDW>
0.0335849

>  <SCORE.INTRA.VDW.0>
-0.734044

>  <SCORE.INTRA.norm>
-0.123305

>  <SCORE.RESTR>
0

>  <SCORE.RESTR.CAVITY>
0

>  <SCORE.RESTR.norm>
0

>  <SCORE.SYSTEM>
0

>  <SCORE.SYSTEM.CONST>
0

>  <SCORE.SYSTEM.DIHEDRAL>
0

>  <SCORE.SYSTEM.SOLV>
0

>  <SCORE.SYSTEM.norm>
0

>  <SCORE.heavy>
10

>  <SCORE.norm>
-0.695494

>  <RMSD>
5.197

$$$$
ligand
 OpenBabel11021811473D
libRbt.so/2013.1/901 2013/11/27
 10  9  0  0  0  0  0  0  0  0999 V2000
   29.0515   15.0786   19.6152 N   0  0  0  0  0  0  0  0  0  0  0  0
   28.7389   14.9455   21.0259 C   0  0  2  0  0  0  0  0  0  0  0  0
   27.2489   14.9378   21.2404 C   0  0  0  0  0  0  0  0  0  0  0  0
   26.8024   14.8057   22.4073 O   0  0  0  0  0  0  0  0  0  0  0  0
   29.3810   16.0901   21.7978 C   0  0  0  0  0  0  0  0  0  0  0  0
   30.7981   15.9564   21.7238 O   0  0  0  0  0  0  0  0  0  0  0  0
   31.3746   17.0218   22.4790 C   0  0  0  0  0  0  0  0  0  0  0  0
   32.8918   16.8479   22.4722 C   0  0  0  0  0  0  0  0  0  0  0  0
   33.3990   16.9496   21.1148 N   0  0  0  0  0  0  0  0  0  0  0  0
   26.5696   15.5295   20.3775 O   0  0  0  0  0  0  0  0  0  0  0  0
  2  1  1  6  0  0  0
  2  5  1  0  0  0  0
  2  3  1  0  0  0  0
  3  4  1  0  0  0  0
  3 10  1  0  0  0  0
  5  6  1  0  0  0  0
  6  7  1  0  0  0  0
  7  8  1  0  0  0  0
  8  9  1  0  0  0  0
M  END
>  <CHROM.1>
-65.97181703,178.77837615,-178.70560981,176.95981475,62.71706688,29.58351749
15.81263027,21.43295073,-2.95586153,0.28415370,1.39930599

>  <Name>
ligand

>  <RI>
0

>  <Rbt.Current_Directory>
/home/itssahil/PROJECTS/Mol_Feturizer/New_Systems/rnas/3DJ0

>  <Rbt.Executable>
rbdock ($Id: //depot/dev/client3/rdock/2013.1/src/exe/rbdock.cxx#4 $)

>  <Rbt.Library>
libRbt.so (2013.1, Build901 2013/11/27)

>  <Rbt.Parameter_File>
/export/apps/rDock/src/rDock_2013.1_src/data/scripts/dock_solv.prm

>  <Rbt.Receptor>
prm/pocket_docking_4.prm

>  <SCORE>
-7.90064

>  <SCORE.INTER>
-6.31693

>  <SCORE.INTER.CONST>
1

>  <SCORE.INTER.POLAR>
0

>  <SCORE.INTER.ROT>
5

>  <SCORE.INTER.SOLV>
17.1464

>  <SCORE.INTER.VDW>
-16.8601

>  <SCORE.INTER.norm>
-0.631693

>  <SCORE.INTRA>
-1.58371

>  <SCORE.INTRA.DIHEDRAL>
-3.6885

>  <SCORE.INTRA.DIHEDRAL.0>
6.00299

>  <SCORE.INTRA.POLAR>
0

>  <SCORE.INTRA.POLAR.0>
0

>  <SCORE.INTRA.REPUL>
0

>  <SCORE.INTRA.REPUL.0>
0

>  <SCORE.INTRA.SOLV>
0.287678

>  <SCORE.INTRA.SOLV.lig_0>
-39.3257

>  <SCORE.INTRA.VDW>
0.116704

>  <SCORE.INTRA.VDW.0>
-0.734044

>  <SCORE.INTRA.norm>
-0.158371

>  <SCORE.RESTR>
0

>  <SCORE.RESTR.CAVITY>
0

>  <SCORE.RESTR.norm>
0

>  <SCORE.SYSTEM>
0

>  <SCORE.SYSTEM.CONST>
0

>  <SCORE.SYSTEM.DIHEDRAL>
0

>  <SCORE.SYSTEM.SOLV>
0

>  <SCORE.SYSTEM.norm>
0

>  <SCORE.heavy>
10

>  <SCORE.norm>
-0.790064

>  <RMSD>
5.198

$$$$
ligand
 OpenBabel11021811473D
libRbt.so/2013.1/901 2013/11/27
 10  9  0  0  0  0  0  0  0  0999 V2000
   29.1165   14.6380   19.7768 N   0  0  0  0  0  0  0  0  0  0  0  0
   28.7481   15.3555   20.9831 C   0  0  2  0  0  0  0  0  0  0  0  0
   27.2599   15.2964   21.2017 C   0  0  0  0  0  0  0  0  0  0  0  0
   26.4944   15.3994   20.2108 O   0  0  0  0  0  0  0  0  0  0  0  0
   29.2123   16.8015   20.8746 C   0  0  0  0  0  0  0  0  0  0  0  0
   30.6335   16.8371   20.9787 O   0  0  0  0  0  0  0  0  0  0  0  0
   30.9752   16.5868   22.3419 C   0  0  0  0  0  0  0  0  0  0  0  0
   32.4962   16.4987   22.4463 C   0  0  0  0  0  0  0  0  0  0  0  0
   33.0913   17.7925   22.1596 N   0  0  0  0  0  0  0  0  0  0  0  0
   26.8811   14.6824   22.2193 O   0  0  0  0  0  0  0  0  0  0  0  0
  2  1  1  6  0  0  0
  2  5  1  0  0  0  0
  2  3  1  0  0  0  0
  3  4  1  0  0  0  0
  3 10  1  0  0  0  0
  5  6  1  0  0  0  0
  6  7  1  0  0  0  0
  7  8  1  0  0  0  0
  8  9  1  0  0  0  0
M  END
>  <CHROM.1>
-71.21342087,-39.56428450,-73.27232234,175.05117484,66.59411815,29.45010969
15.98370480,21.31503694,-2.94661395,0.38081132,1.60000561

>  <Name>
ligand

>  <RI>
0

>  <Rbt.Current_Directory>
/home/itssahil/PROJECTS/Mol_Feturizer/New_Systems/rnas/3DJ0

>  <Rbt.Executable>
rbdock ($Id: //depot/dev/client3/rdock/2013.1/src/exe/rbdock.cxx#4 $)

>  <Rbt.Library>
libRbt.so (2013.1, Build901 2013/11/27)

>  <Rbt.Parameter_File>
/export/apps/rDock/src/rDock_2013.1_src/data/scripts/dock_solv.prm

>  <Rbt.Receptor>
prm/blind_docking_60.prm

>  <SCORE>
-5.6211

>  <SCORE.INTER>
-5.5332

>  <SCORE.INTER.CONST>
1

>  <SCORE.INTER.POLAR>
0

>  <SCORE.INTER.ROT>
5

>  <SCORE.INTER.SOLV>
17.4039

>  <SCORE.INTER.VDW>
-16.4234

>  <SCORE.INTER.norm>
-0.55332

>  <SCORE.INTRA>
-0.087902

>  <SCORE.INTRA.DIHEDRAL>
-2.40309

>  <SCORE.INTRA.DIHEDRAL.0>
6.00299

>  <SCORE.INTRA.POLAR>
0

>  <SCORE.INTRA.POLAR.0>
0

>  <SCORE.INTRA.REPUL>
0

>  <SCORE.INTRA.REPUL.0>
0

>  <SCORE.INTRA.SOLV>
0.618647

>  <SCORE.INTRA.SOLV.lig_0>
-39.3257

>  <SCORE.INTRA.VDW>
0.804319

>  <SCORE.INTRA.VDW.0>
-0.734044

>  <SCORE.INTRA.norm>
-0.0087902

>  <SCORE.RESTR>
0

>  <SCORE.RESTR.CAVITY>
0

>  <SCORE.RESTR.norm>
0

>  <SCORE.SYSTEM>
0

>  <SCORE.SYSTEM.CONST>
0

>  <SCORE.SYSTEM.DIHEDRAL>
0

>  <SCORE.SYSTEM.SOLV>
0

>  <SCORE.SYSTEM.norm>
0

>  <SCORE.heavy>
10

>  <SCORE.norm>
-0.56211

>  <RMSD>
5.199

$$$$
ligand
 OpenBabel11021811473D
libRbt.so/2013.1/901 2013/11/27
 10  9  0  0  0  0  0  0  0  0999 V2000
   26.8763   14.5175   21.8069 N   0  0  0  0  0  0  0  0  0  0  0  0
   27.8165   15.5640   21.4516 C   0  0  2  0  0  0  0  0  0  0  0  0
   27.9605   15.6621   19.9564 C   0  0  0  0  0  0  0  0  0  0  0  0
   28.6352   16.6038   19.4702 O   0  0  0  0  0  0  0  0  0  0  0  0
   29.1647   15.2750   22.0975 C   0  0  0  0  0  0  0  0  0  0  0  0
   30.0381   16.3738   21.8494 O   0  0  0  0  0  0  0  0  0  0  0  0
   31.2885   16.0839   22.4741 C   0  0  0  0  0  0  0  0  0  0  0  0
   32.2435   17.2427   22.1956 C   0  0  0  0  0  0  0  0  0  0  0  0
   33.5411   16.9730   22.7901 N   0  0  0  0  0  0  0  0  0  0  0  0
   27.8380   14.5936   19.3244 O   0  0  0  0  0  0  0  0  0  0  0  0
  2  1  1  6  0  0  0
  2  5  1  0  0  0  0
  2  3  1  0  0  0  0
  3  4  1  0  0  0  0
  3 10  1  0  0  0  0
  5  6  1  0  0  0  0
  6  7  1  0  0  0  0
  7  8  1  0  0  0  0
  8  9  1  0  0  0  0
M  END
>  <CHROM.1>
-174.37623300,173.04206803,179.49254487,179.01692900,-178.71693791,29.53427941
15.89153665,21.30397878,2.86265544,-0.44034392,-1.26272283

>  <Name>
ligand

>  <RI>
0

>  <Rbt.Current_Directory>
/home/itssahil/PROJECTS/Mol_Feturizer/New_Systems/rnas/3DJ0

>  <Rbt.Executable>
rbdock ($Id: //depot/dev/client3/rdock/2013.1/src/exe/rbdock.cxx#4 $)

>  <Rbt.Library>
libRbt.so (2013.1, Build901 2013/11/27)

>  <Rbt.Parameter_File>
/export/apps/rDock/src/rDock_2013.1_src/data/scripts/dock_solv.prm

>  <Rbt.Receptor>
prm/pocket_docking_4.prm

>  <SCORE>
-6.81465

>  <SCORE.INTER>
-4.44646

>  <SCORE.INTER.CONST>
1

>  <SCORE.INTER.POLAR>
0

>  <SCORE.INTER.ROT>
5

>  <SCORE.INTER.SOLV>
22.4633

>  <SCORE.INTER.VDW>
-17.3854

>  <SCORE.INTER.norm>
-0.444646

>  <SCORE.INTRA>
-2.36819

>  <SCORE.INTRA.DIHEDRAL>
-3.67472

>  <SCORE.INTRA.DIHEDRAL.0>
6.00299

>  <SCORE.INTRA.POLAR>
0

>  <SCORE.INTRA.POLAR.0>
0

>  <SCORE.INTRA.REPUL>
0

>  <SCORE.INTRA.REPUL.0>
0

>  <SCORE.INTRA.SOLV>
-1.16026

>  <SCORE.INTRA.SOLV.lig_0>
-39.3257

>  <SCORE.INTRA.VDW>
0.0493045

>  <SCORE.INTRA.VDW.0>
-0.734044

>  <SCORE.INTRA.norm>
-0.236819

>  <SCORE.RESTR>
0

>  <SCORE.RESTR.CAVITY>
0

>  <SCORE.RESTR.norm>
0

>  <SCORE.SYSTEM>
0

>  <SCORE.SYSTEM.CONST>
0

>  <SCORE.SYSTEM.DIHEDRAL>
0

>  <SCORE.SYSTEM.SOLV>
0

>  <SCORE.SYSTEM.norm>
0

>  <SCORE.heavy>
10

>  <SCORE.norm>
-0.681465

>  <RMSD>
5.202

$$$$
ligand
 OpenBabel11021811473D
libRbt.so/2013.1/901 2013/11/27
 10  9  0  0  0  0  0  0  0  0999 V2000
   29.0945   14.4232   19.7064 N   0  0  0  0  0  0  0  0  0  0  0  0
   28.5503   14.2886   21.0448 C   0  0  2  0  0  0  0  0  0  0  0  0
   27.3142   15.1332   21.2020 C   0  0  0  0  0  0  0  0  0  0  0  0
   27.0516   15.9967   20.3281 O   0  0  0  0  0  0  0  0  0  0  0  0
   29.6054   14.6957   22.0644 C   0  0  0  0  0  0  0  0  0  0  0  0
   30.0555   16.0132   21.7589 O   0  0  0  0  0  0  0  0  0  0  0  0
   31.1724   16.2965   22.6016 C   0  0  0  0  0  0  0  0  0  0  0  0
   31.6554   17.7129   22.2971 C   0  0  0  0  0  0  0  0  0  0  0  0
   32.8992   17.9771   22.9995 N   0  0  0  0  0  0  0  0  0  0  0  0
   26.3935   14.6334   21.8793 O   0  0  0  0  0  0  0  0  0  0  0  0
  2  1  1  6  0  0  0
  2  5  1  0  0  0  0
  2  3  1  0  0  0  0
  3  4  1  0  0  0  0
  3 10  1  0  0  0  0
  5  6  1  0  0  0  0
  6  7  1  0  0  0  0
  7  8  1  0  0  0  0
  8  9  1  0  0  0  0
M  END
>  <CHROM.1>
55.21443862,-13.00152485,-171.74725692,-179.32518378,-172.28002192,29.33551463
15.72402963,21.58383085,-2.57669578,-0.00935907,0.57151658

>  <Name>
ligand

>  <RI>
0

>  <Rbt.Current_Directory>
/home/itssahil/PROJECTS/Mol_Feturizer/New_Systems/rnas/3DJ0

>  <Rbt.Executable>
rbdock ($Id: //depot/dev/client3/rdock/2013.1/src/exe/rbdock.cxx#4 $)

>  <Rbt.Library>
libRbt.so (2013.1, Build901 2013/11/27)

>  <Rbt.Parameter_File>
/export/apps/rDock/src/rDock_2013.1_src/data/scripts/dock_solv.prm

>  <Rbt.Receptor>
prm/pocket_docking_7.prm

>  <SCORE>
-7.50383

>  <SCORE.INTER>
-5.77956

>  <SCORE.INTER.CONST>
1

>  <SCORE.INTER.POLAR>
0

>  <SCORE.INTER.ROT>
5

>  <SCORE.INTER.SOLV>
18.6122

>  <SCORE.INTER.VDW>
-16.9904

>  <SCORE.INTER.norm>
-0.577956

>  <SCORE.INTRA>
-1.72427

>  <SCORE.INTRA.DIHEDRAL>
-2.8625

>  <SCORE.INTRA.DIHEDRAL.0>
6.00299

>  <SCORE.INTRA.POLAR>
0

>  <SCORE.INTRA.POLAR.0>
0

>  <SCORE.INTRA.REPUL>
0

>  <SCORE.INTRA.REPUL.0>
0

>  <SCORE.INTRA.SOLV>
-0.283084

>  <SCORE.INTRA.SOLV.lig_0>
-39.3257

>  <SCORE.INTRA.VDW>
-0.151473

>  <SCORE.INTRA.VDW.0>
-0.734044

>  <SCORE.INTRA.norm>
-0.172427

>  <SCORE.RESTR>
0

>  <SCORE.RESTR.CAVITY>
0

>  <SCORE.RESTR.norm>
0

>  <SCORE.SYSTEM>
0

>  <SCORE.SYSTEM.CONST>
0

>  <SCORE.SYSTEM.DIHEDRAL>
0

>  <SCORE.SYSTEM.SOLV>
0

>  <SCORE.SYSTEM.norm>
0

>  <SCORE.heavy>
10

>  <SCORE.norm>
-0.750383

>  <RMSD>
5.202

$$$$
ligand
 OpenBabel11021811473D
libRbt.so/2013.1/901 2013/11/27
 10  9  0  0  0  0  0  0  0  0999 V2000
   26.8672   14.5205   21.7819 N   0  0  0  0  0  0  0  0  0  0  0  0
   27.8116   15.5583   21.4126 C   0  0  2  0  0  0  0  0  0  0  0  0
   27.9715   15.6220   19.9172 C   0  0  0  0  0  0  0  0  0  0  0  0
   28.6505   16.5530   19.4165 O   0  0  0  0  0  0  0  0  0  0  0  0
   29.1527   15.2841   22.0793 C   0  0  0  0  0  0  0  0  0  0  0  0
   30.0289   16.3771   21.8160 O   0  0  0  0  0  0  0  0  0  0  0  0
   31.2742   16.0990   22.4560 C   0  0  0  0  0  0  0  0  0  0  0  0
   32.2242   17.2630   22.1825 C   0  0  0  0  0  0  0  0  0  0  0  0
   33.5220   16.9978   22.7786 N   0  0  0  0  0  0  0  0  0  0  0  0
   27.8567   14.5390   19.3088 O   0  0  0  0  0  0  0  0  0  0  0  0
  2  1  1  6  0  0  0
  2  5  1  0  0  0  0
  2  3  1  0  0  0  0
  3  4  1  0  0  0  0
  3 10  1  0  0  0  0
  5  6  1  0  0  0  0
  6  7  1  0  0  0  0
  7  8  1  0  0  0  0
  8  9  1  0  0  0  0
M  END
>  <CHROM.1>
-174.34076295,172.96390659,179.71550141,-179.98648672,-178.00603136,29.53042031
15.88308361,21.27718493,2.85082782,-0.44419310,-1.29010358

>  <Name>
ligand

>  <RI>
0

>  <Rbt.Current_Directory>
/home/itssahil/PROJECTS/Mol_Feturizer/New_Systems/rnas/3DJ0

>  <Rbt.Executable>
rbdock ($Id: //depot/dev/client3/rdock/2013.1/src/exe/rbdock.cxx#4 $)

>  <Rbt.Library>
libRbt.so (2013.1, Build901 2013/11/27)

>  <Rbt.Parameter_File>
/export/apps/rDock/src/rDock_2013.1_src/data/scripts/dock_solv.prm

>  <Rbt.Receptor>
prm/pocket_docking_3.prm

>  <SCORE>
-6.75099

>  <SCORE.INTER>
-4.38306

>  <SCORE.INTER.CONST>
1

>  <SCORE.INTER.POLAR>
0

>  <SCORE.INTER.ROT>
5

>  <SCORE.INTER.SOLV>
22.335

>  <SCORE.INTER.VDW>
-17.3004

>  <SCORE.INTER.norm>
-0.438306

>  <SCORE.INTRA>
-2.36793

>  <SCORE.INTRA.DIHEDRAL>
-3.66874

>  <SCORE.INTRA.DIHEDRAL.0>
6.00299

>  <SCORE.INTRA.POLAR>
0

>  <SCORE.INTRA.POLAR.0>
0

>  <SCORE.INTRA.REPUL>
0

>  <SCORE.INTRA.REPUL.0>
0

>  <SCORE.INTRA.SOLV>
-1.16144

>  <SCORE.INTRA.SOLV.lig_0>
-39.3257

>  <SCORE.INTRA.VDW>
0.0471614

>  <SCORE.INTRA.VDW.0>
-0.734044

>  <SCORE.INTRA.norm>
-0.236793

>  <SCORE.RESTR>
0

>  <SCORE.RESTR.CAVITY>
0

>  <SCORE.RESTR.norm>
0

>  <SCORE.SYSTEM>
0

>  <SCORE.SYSTEM.CONST>
0

>  <SCORE.SYSTEM.DIHEDRAL>
0

>  <SCORE.SYSTEM.SOLV>
0

>  <SCORE.SYSTEM.norm>
0

>  <SCORE.heavy>
10

>  <SCORE.norm>
-0.675099

>  <RMSD>
5.205

$$$$
ligand
 OpenBabel11021811473D
libRbt.so/2013.1/901 2013/11/27
 10  9  0  0  0  0  0  0  0  0999 V2000
   28.7389   13.8512   21.7584 N   0  0  0  0  0  0  0  0  0  0  0  0
   28.1667   15.1847   21.7586 C   0  0  2  0  0  0  0  0  0  0  0  0
   27.5140   15.4817   20.4350 C   0  0  0  0  0  0  0  0  0  0  0  0
   28.1525   15.2556   19.3769 O   0  0  0  0  0  0  0  0  0  0  0  0
   29.2580   16.2047   22.0538 C   0  0  0  0  0  0  0  0  0  0  0  0
   30.3765   15.9379   21.2115 O   0  0  0  0  0  0  0  0  0  0  0  0
   31.4490   16.7795   21.6348 C   0  0  0  0  0  0  0  0  0  0  0  0
   32.6993   16.3955   20.8465 C   0  0  0  0  0  0  0  0  0  0  0  0
   33.8400   17.1622   21.3167 N   0  0  0  0  0  0  0  0  0  0  0  0
   26.2667   15.4643   20.4249 O   0  0  0  0  0  0  0  0  0  0  0  0
  2  1  1  6  0  0  0
  2  5  1  0  0  0  0
  2  3  1  0  0  0  0
  3  4  1  0  0  0  0
  3 10  1  0  0  0  0
  5  6  1  0  0  0  0
  6  7  1  0  0  0  0
  7  8  1  0  0  0  0
  8  9  1  0  0  0  0
M  END
>  <CHROM.1>
48.71582283,-49.04973399,-171.93608488,173.74860175,-175.82378062,29.61426017
15.76895804,21.05081544,3.13220432,-0.30765809,-1.20361099

>  <Name>
ligand

>  <RI>
0

>  <Rbt.Current_Directory>
/home/itssahil/PROJECTS/Mol_Feturizer/New_Systems/rnas/3DJ0

>  <Rbt.Executable>
rbdock ($Id: //depot/dev/client3/rdock/2013.1/src/exe/rbdock.cxx#4 $)

>  <Rbt.Library>
libRbt.so (2013.1, Build901 2013/11/27)

>  <Rbt.Parameter_File>
/export/apps/rDock/src/rDock_2013.1_src/data/scripts/dock_solv.prm

>  <Rbt.Receptor>
prm/pocket_docking_8.prm

>  <SCORE>
-5.92226

>  <SCORE.INTER>
-4.09203

>  <SCORE.INTER.CONST>
1

>  <SCORE.INTER.POLAR>
0

>  <SCORE.INTER.ROT>
5

>  <SCORE.INTER.SOLV>
20.3684

>  <SCORE.INTER.VDW>
-16.4508

>  <SCORE.INTER.norm>
-0.409203

>  <SCORE.INTRA>
-1.83023

>  <SCORE.INTRA.DIHEDRAL>
-2.97673

>  <SCORE.INTRA.DIHEDRAL.0>
6.00299

>  <SCORE.INTRA.POLAR>
0

>  <SCORE.INTRA.POLAR.0>
0

>  <SCORE.INTRA.REPUL>
0

>  <SCORE.INTRA.REPUL.0>
0

>  <SCORE.INTRA.SOLV>
-0.126957

>  <SCORE.INTRA.SOLV.lig_0>
-39.3257

>  <SCORE.INTRA.VDW>
-0.278384

>  <SCORE.INTRA.VDW.0>
-0.734044

>  <SCORE.INTRA.norm>
-0.183023

>  <SCORE.RESTR>
0

>  <SCORE.RESTR.CAVITY>
0

>  <SCORE.RESTR.norm>
0

>  <SCORE.SYSTEM>
0

>  <SCORE.SYSTEM.CONST>
0

>  <SCORE.SYSTEM.DIHEDRAL>
0

>  <SCORE.SYSTEM.SOLV>
0

>  <SCORE.SYSTEM.norm>
0

>  <SCORE.heavy>
10

>  <SCORE.norm>
-0.592226

>  <RMSD>
5.205

$$$$
ligand
 OpenBabel11021811473D
libRbt.so/2013.1/901 2013/11/27
 10  9  0  0  0  0  0  0  0  0999 V2000
   26.1954   14.8264   21.1961 N   0  0  0  0  0  0  0  0  0  0  0  0
   27.4407   15.5196   20.9235 C   0  0  2  0  0  0  0  0  0  0  0  0
   27.9909   15.1136   19.5824 C   0  0  0  0  0  0  0  0  0  0  0  0
   27.5003   14.1142   19.0003 O   0  0  0  0  0  0  0  0  0  0  0  0
   28.4449   15.2107   22.0255 C   0  0  0  0  0  0  0  0  0  0  0  0
   29.6305   15.9666   21.7921 O   0  0  0  0  0  0  0  0  0  0  0  0
   30.5833   15.5984   22.7893 C   0  0  0  0  0  0  0  0  0  0  0  0
   31.8584   16.4056   22.5551 C   0  0  0  0  0  0  0  0  0  0  0  0
   32.4052   16.1043   21.2435 N   0  0  0  0  0  0  0  0  0  0  0  0
   28.5290   16.0202   18.9155 O   0  0  0  0  0  0  0  0  0  0  0  0
  2  1  1  1  0  0  0
  2  5  1  0  0  0  0
  2  3  1  0  0  0  0
  3  4  1  0  0  0  0
  3 10  1  0  0  0  0
  5  6  1  0  0  0  0
  6  7  1  0  0  0  0
  7  8  1  0  0  0  0
  8  9  1  0  0  0  0
M  END
>  <CHROM.1>
-176.20341030,-12.65927211,-176.51028689,-179.76864076,-60.89862102,29.05584742
15.48539515,20.96758185,2.66159965,-0.25563441,-1.60659846

>  <Name>
ligand

>  <RI>
0

>  <Rbt.Current_Directory>
/home/itssahil/PROJECTS/Mol_Feturizer/New_Systems/rnas/3DJ0

>  <Rbt.Executable>
rbdock ($Id: //depot/dev/client3/rdock/2013.1/src/exe/rbdock.cxx#4 $)

>  <Rbt.Library>
libRbt.so (2013.1, Build901 2013/11/27)

>  <Rbt.Parameter_File>
/export/apps/rDock/src/rDock_2013.1_src/data/scripts/dock_solv.prm

>  <Rbt.Receptor>
prm/pocket_docking_3.prm

>  <SCORE>
-7.78973

>  <SCORE.INTER>
-5.80353

>  <SCORE.INTER.CONST>
1

>  <SCORE.INTER.POLAR>
0

>  <SCORE.INTER.ROT>
5

>  <SCORE.INTER.SOLV>
20.733

>  <SCORE.INTER.VDW>
-17.7133

>  <SCORE.INTER.norm>
-0.580353

>  <SCORE.INTRA>
-1.9862

>  <SCORE.INTRA.DIHEDRAL>
-3.37265

>  <SCORE.INTRA.DIHEDRAL.0>
6.00299

>  <SCORE.INTRA.POLAR>
0

>  <SCORE.INTRA.POLAR.0>
0

>  <SCORE.INTRA.REPUL>
0

>  <SCORE.INTRA.REPUL.0>
0

>  <SCORE.INTRA.SOLV>
-0.169196

>  <SCORE.INTRA.SOLV.lig_0>
-39.3257

>  <SCORE.INTRA.VDW>
-0.215277

>  <SCORE.INTRA.VDW.0>
-0.734044

>  <SCORE.INTRA.norm>
-0.19862

>  <SCORE.RESTR>
0

>  <SCORE.RESTR.CAVITY>
0

>  <SCORE.RESTR.norm>
0

>  <SCORE.SYSTEM>
0

>  <SCORE.SYSTEM.CONST>
0

>  <SCORE.SYSTEM.DIHEDRAL>
0

>  <SCORE.SYSTEM.SOLV>
0

>  <SCORE.SYSTEM.norm>
0

>  <SCORE.heavy>
10

>  <SCORE.norm>
-0.778973

>  <RMSD>
5.206

$$$$
ligand
 OpenBabel11021811473D
libRbt.so/2013.1/901 2013/11/27
 10  9  0  0  0  0  0  0  0  0999 V2000
   26.1982   14.8284   21.2026 N   0  0  0  0  0  0  0  0  0  0  0  0
   27.4412   15.5190   20.9137 C   0  0  2  0  0  0  0  0  0  0  0  0
   27.9818   15.0991   19.5730 C   0  0  0  0  0  0  0  0  0  0  0  0
   27.4735   14.1058   18.9955 O   0  0  0  0  0  0  0  0  0  0  0  0
   28.4535   15.2219   22.0116 C   0  0  0  0  0  0  0  0  0  0  0  0
   29.6469   15.9550   21.7470 O   0  0  0  0  0  0  0  0  0  0  0  0
   30.6046   15.5996   22.7441 C   0  0  0  0  0  0  0  0  0  0  0  0
   31.8855   16.3887   22.4814 C   0  0  0  0  0  0  0  0  0  0  0  0
   32.4246   16.0438   21.1774 N   0  0  0  0  0  0  0  0  0  0  0  0
   28.5335   15.9941   18.9016 O   0  0  0  0  0  0  0  0  0  0  0  0
  2  1  1  1  0  0  0
  2  5  1  0  0  0  0
  2  3  1  0  0  0  0
  3  4  1  0  0  0  0
  3 10  1  0  0  0  0
  5  6  1  0  0  0  0
  6  7  1  0  0  0  0
  7  8  1  0  0  0  0
  8  9  1  0  0  0  0
M  END
>  <CHROM.1>
-177.35149219,-11.57232513,-176.65768882,-179.44668940,-61.42199469,29.06213684
15.47278837,20.94005873,2.67393572,-0.24563270,-1.61648979

>  <Name>
ligand

>  <RI>
0

>  <Rbt.Current_Directory>
/home/itssahil/PROJECTS/Mol_Feturizer/New_Systems/rnas/3DJ0

>  <Rbt.Executable>
rbdock ($Id: //depot/dev/client3/rdock/2013.1/src/exe/rbdock.cxx#4 $)

>  <Rbt.Library>
libRbt.so (2013.1, Build901 2013/11/27)

>  <Rbt.Parameter_File>
/export/apps/rDock/src/rDock_2013.1_src/data/scripts/dock_solv.prm

>  <Rbt.Receptor>
prm/pocket_docking_4.prm

>  <SCORE>
-7.80395

>  <SCORE.INTER>
-5.83321

>  <SCORE.INTER.CONST>
1

>  <SCORE.INTER.POLAR>
0

>  <SCORE.INTER.ROT>
5

>  <SCORE.INTER.SOLV>
20.9622

>  <SCORE.INTER.VDW>
-17.8096

>  <SCORE.INTER.norm>
-0.583321

>  <SCORE.INTRA>
-1.97074

>  <SCORE.INTRA.DIHEDRAL>
-3.37743

>  <SCORE.INTRA.DIHEDRAL.0>
6.00299

>  <SCORE.INTRA.POLAR>
0

>  <SCORE.INTRA.POLAR.0>
0

>  <SCORE.INTRA.REPUL>
0

>  <SCORE.INTRA.REPUL.0>
0

>  <SCORE.INTRA.SOLV>
-0.169809

>  <SCORE.INTRA.SOLV.lig_0>
-39.3257

>  <SCORE.INTRA.VDW>
-0.197119

>  <SCORE.INTRA.VDW.0>
-0.734044

>  <SCORE.INTRA.norm>
-0.197074

>  <SCORE.RESTR>
0

>  <SCORE.RESTR.CAVITY>
0

>  <SCORE.RESTR.norm>
0

>  <SCORE.SYSTEM>
0

>  <SCORE.SYSTEM.CONST>
0

>  <SCORE.SYSTEM.DIHEDRAL>
0

>  <SCORE.SYSTEM.SOLV>
0

>  <SCORE.SYSTEM.norm>
0

>  <SCORE.heavy>
10

>  <SCORE.norm>
-0.780395

>  <RMSD>
5.209

$$$$
ligand
 OpenBabel11021811473D
libRbt.so/2013.1/901 2013/11/27
 10  9  0  0  0  0  0  0  0  0999 V2000
   27.5122   14.3091   18.9868 N   0  0  0  0  0  0  0  0  0  0  0  0
   28.1682   14.5587   20.2567 C   0  0  2  0  0  0  0  0  0  0  0  0
   27.1534   14.6926   21.3605 C   0  0  0  0  0  0  0  0  0  0  0  0
   27.5535   14.8954   22.5341 O   0  0  0  0  0  0  0  0  0  0  0  0
   29.0102   15.8231   20.1527 C   0  0  0  0  0  0  0  0  0  0  0  0
   29.7961   15.9505   21.3350 O   0  0  0  0  0  0  0  0  0  0  0  0
   30.5243   17.1748   21.2422 C   0  0  0  0  0  0  0  0  0  0  0  0
   31.4321   17.2864   22.4651 C   0  0  0  0  0  0  0  0  0  0  0  0
   32.3661   16.1743   22.4957 N   0  0  0  0  0  0  0  0  0  0  0  0
   26.0180   15.0767   21.0151 O   0  0  0  0  0  0  0  0  0  0  0  0
  2  1  1  6  0  0  0
  2  5  1  0  0  0  0
  2  3  1  0  0  0  0
  3  4  1  0  0  0  0
  3 10  1  0  0  0  0
  5  6  1  0  0  0  0
  6  7  1  0  0  0  0
  7  8  1  0  0  0  0
  8  9  1  0  0  0  0
M  END
>  <CHROM.1>
-171.71638735,179.12299095,-177.16237467,-176.78895569,60.61232201,28.92339883
15.59602996,21.20797408,-2.78633974,0.37684414,1.41044129

>  <Name>
ligand

>  <RI>
0

>  <Rbt.Current_Directory>
/home/itssahil/PROJECTS/Mol_Feturizer/New_Systems/rnas/3DJ0

>  <Rbt.Executable>
rbdock ($Id: //depot/dev/client3/rdock/2013.1/src/exe/rbdock.cxx#4 $)

>  <Rbt.Library>
libRbt.so (2013.1, Build901 2013/11/27)

>  <Rbt.Parameter_File>
/export/apps/rDock/src/rDock_2013.1_src/data/scripts/dock_solv.prm

>  <Rbt.Receptor>
prm/pocket_docking_6.prm

>  <SCORE>
-6.99673

>  <SCORE.INTER>
-5.29028

>  <SCORE.INTER.CONST>
1

>  <SCORE.INTER.POLAR>
0

>  <SCORE.INTER.ROT>
5

>  <SCORE.INTER.SOLV>
19.7998

>  <SCORE.INTER.VDW>
-17.0601

>  <SCORE.INTER.norm>
-0.529028

>  <SCORE.INTRA>
-1.70645

>  <SCORE.INTRA.DIHEDRAL>
-3.55773

>  <SCORE.INTRA.DIHEDRAL.0>
6.00299

>  <SCORE.INTRA.POLAR>
0

>  <SCORE.INTRA.POLAR.0>
0

>  <SCORE.INTRA.REPUL>
0

>  <SCORE.INTRA.REPUL.0>
0

>  <SCORE.INTRA.SOLV>
-0.0166832

>  <SCORE.INTRA.SOLV.lig_0>
-39.3257

>  <SCORE.INTRA.VDW>
0.0807598

>  <SCORE.INTRA.VDW.0>
-0.734044

>  <SCORE.INTRA.norm>
-0.170645

>  <SCORE.RESTR>
0

>  <SCORE.RESTR.CAVITY>
0

>  <SCORE.RESTR.norm>
0

>  <SCORE.SYSTEM>
0

>  <SCORE.SYSTEM.CONST>
0

>  <SCORE.SYSTEM.DIHEDRAL>
0

>  <SCORE.SYSTEM.SOLV>
0

>  <SCORE.SYSTEM.norm>
0

>  <SCORE.heavy>
10

>  <SCORE.norm>
-0.699673

>  <RMSD>
5.209

$$$$
ligand
 OpenBabel11021811473D
libRbt.so/2013.1/901 2013/11/27
 10  9  0  0  0  0  0  0  0  0999 V2000
   27.4744   14.5551   21.1509 N   0  0  0  0  0  0  0  0  0  0  0  0
   27.6697   15.3983   19.9863 C   0  0  2  0  0  0  0  0  0  0  0  0
   28.1984   14.5918   18.8304 C   0  0  0  0  0  0  0  0  0  0  0  0
   29.3885   14.1906   18.8617 O   0  0  0  0  0  0  0  0  0  0  0  0
   28.6329   16.5257   20.3323 C   0  0  0  0  0  0  0  0  0  0  0  0
   29.8219   15.9623   20.8805 O   0  0  0  0  0  0  0  0  0  0  0  0
   30.6812   17.0398   21.2525 C   0  0  0  0  0  0  0  0  0  0  0  0
   31.9825   16.4506   21.7925 C   0  0  0  0  0  0  0  0  0  0  0  0
   32.6409   15.6678   20.7612 N   0  0  0  0  0  0  0  0  0  0  0  0
   27.3478   13.9651   18.1671 O   0  0  0  0  0  0  0  0  0  0  0  0
  2  1  1  1  0  0  0
  2  5  1  0  0  0  0
  2  3  1  0  0  0  0
  3  4  1  0  0  0  0
  3 10  1  0  0  0  0
  5  6  1  0  0  0  0
  6  7  1  0  0  0  0
  7  8  1  0  0  0  0
  8  9  1  0  0  0  0
M  END
>  <CHROM.1>
53.29227220,-72.31006766,-177.37927775,-177.85313167,61.41667737,29.38211551
15.41103567,20.17554911,2.50604672,-0.02589181,-2.25316110

>  <Name>
ligand

>  <RI>
0

>  <Rbt.Current_Directory>
/home/itssahil/PROJECTS/Mol_Feturizer/New_Systems/rnas/3DJ0

>  <Rbt.Executable>
rbdock ($Id: //depot/dev/client3/rdock/2013.1/src/exe/rbdock.cxx#4 $)

>  <Rbt.Library>
libRbt.so (2013.1, Build901 2013/11/27)

>  <Rbt.Parameter_File>
/export/apps/rDock/src/rDock_2013.1_src/data/scripts/dock_solv.prm

>  <Rbt.Receptor>
prm/pocket_docking_7.prm

>  <SCORE>
-6.74705

>  <SCORE.INTER>
-5.58242

>  <SCORE.INTER.CONST>
1

>  <SCORE.INTER.POLAR>
0

>  <SCORE.INTER.ROT>
5

>  <SCORE.INTER.SOLV>
19.4636

>  <SCORE.INTER.VDW>
-17.1428

>  <SCORE.INTER.norm>
-0.558242

>  <SCORE.INTRA>
-1.16463

>  <SCORE.INTRA.DIHEDRAL>
-3.48238

>  <SCORE.INTRA.DIHEDRAL.0>
6.00299

>  <SCORE.INTRA.POLAR>
0

>  <SCORE.INTRA.POLAR.0>
0

>  <SCORE.INTRA.REPUL>
0

>  <SCORE.INTRA.REPUL.0>
0

>  <SCORE.INTRA.SOLV>
1.26281

>  <SCORE.INTRA.SOLV.lig_0>
-39.3257

>  <SCORE.INTRA.VDW>
-0.0548456

>  <SCORE.INTRA.VDW.0>
-0.734044

>  <SCORE.INTRA.norm>
-0.116463

>  <SCORE.RESTR>
0

>  <SCORE.RESTR.CAVITY>
0

>  <SCORE.RESTR.norm>
0

>  <SCORE.SYSTEM>
0

>  <SCORE.SYSTEM.CONST>
0

>  <SCORE.SYSTEM.DIHEDRAL>
0

>  <SCORE.SYSTEM.SOLV>
0

>  <SCORE.SYSTEM.norm>
0

>  <SCORE.heavy>
10

>  <SCORE.norm>
-0.674705

>  <RMSD>
5.209

$$$$
ligand
 OpenBabel11021811473D
libRbt.so/2013.1/901 2013/11/27
 10  9  0  0  0  0  0  0  0  0999 V2000
   28.6709   14.6265   19.3515 N   0  0  0  0  0  0  0  0  0  0  0  0
   28.6054   15.1870   20.6883 C   0  0  2  0  0  0  0  0  0  0  0  0
   27.2497   14.9483   21.2975 C   0  0  0  0  0  0  0  0  0  0  0  0
   27.1286   14.9865   22.5474 O   0  0  0  0  0  0  0  0  0  0  0  0
   28.9059   16.6784   20.6281 C   0  0  0  0  0  0  0  0  0  0  0  0
   30.3048   16.8574   20.4209 O   0  0  0  0  0  0  0  0  0  0  0  0
   30.9582   16.6573   21.6742 C   0  0  0  0  0  0  0  0  0  0  0  0
   32.4614   16.8246   21.4631 C   0  0  0  0  0  0  0  0  0  0  0  0
   33.1563   16.7367   22.7357 N   0  0  0  0  0  0  0  0  0  0  0  0
   26.2703   15.2067   20.5693 O   0  0  0  0  0  0  0  0  0  0  0  0
  2  1  1  6  0  0  0
  2  5  1  0  0  0  0
  2  3  1  0  0  0  0
  3  4  1  0  0  0  0
  3 10  1  0  0  0  0
  5  6  1  0  0  0  0
  6  7  1  0  0  0  0
  7  8  1  0  0  0  0
  8  9  1  0  0  0  0
M  END
>  <CHROM.1>
-74.59725029,158.54780428,-78.50540223,179.12787013,175.37289292,29.33054862
15.87452817,21.14138072,-2.99003866,0.33135581,1.59164596

>  <Name>
ligand

>  <RI>
0

>  <Rbt.Current_Directory>
/home/itssahil/PROJECTS/Mol_Feturizer/New_Systems/rnas/3DJ0

>  <Rbt.Executable>
rbdock ($Id: //depot/dev/client3/rdock/2013.1/src/exe/rbdock.cxx#4 $)

>  <Rbt.Library>
libRbt.so (2013.1, Build901 2013/11/27)

>  <Rbt.Parameter_File>
/export/apps/rDock/src/rDock_2013.1_src/data/scripts/dock_solv.prm

>  <Rbt.Receptor>
prm/pocket_docking_5.prm

>  <SCORE>
-5.62805

>  <SCORE.INTER>
-5.4369

>  <SCORE.INTER.CONST>
1

>  <SCORE.INTER.POLAR>
0

>  <SCORE.INTER.ROT>
5

>  <SCORE.INTER.SOLV>
19.0791

>  <SCORE.INTER.VDW>
-16.9176

>  <SCORE.INTER.norm>
-0.54369

>  <SCORE.INTRA>
-0.191152

>  <SCORE.INTRA.DIHEDRAL>
-1.14595

>  <SCORE.INTRA.DIHEDRAL.0>
6.00299

>  <SCORE.INTRA.POLAR>
0

>  <SCORE.INTRA.POLAR.0>
0

>  <SCORE.INTRA.REPUL>
0

>  <SCORE.INTRA.REPUL.0>
0

>  <SCORE.INTRA.SOLV>
-0.577132

>  <SCORE.INTRA.SOLV.lig_0>
-39.3257

>  <SCORE.INTRA.VDW>
0.670388

>  <SCORE.INTRA.VDW.0>
-0.734044

>  <SCORE.INTRA.norm>
-0.0191152

>  <SCORE.RESTR>
0

>  <SCORE.RESTR.CAVITY>
0

>  <SCORE.RESTR.norm>
0

>  <SCORE.SYSTEM>
0

>  <SCORE.SYSTEM.CONST>
0

>  <SCORE.SYSTEM.DIHEDRAL>
0

>  <SCORE.SYSTEM.SOLV>
0

>  <SCORE.SYSTEM.norm>
0

>  <SCORE.heavy>
10

>  <SCORE.norm>
-0.562805

>  <RMSD>
5.210

$$$$
ligand
 OpenBabel11021811473D
libRbt.so/2013.1/901 2013/11/27
 10  9  0  0  0  0  0  0  0  0999 V2000
   27.4831   14.5186   21.1167 N   0  0  0  0  0  0  0  0  0  0  0  0
   27.6738   15.3757   19.9614 C   0  0  2  0  0  0  0  0  0  0  0  0
   28.1969   14.5828   18.7936 C   0  0  0  0  0  0  0  0  0  0  0  0
   29.3981   14.2146   18.7969 O   0  0  0  0  0  0  0  0  0  0  0  0
   28.6390   16.4983   20.3167 C   0  0  0  0  0  0  0  0  0  0  0  0
   29.8244   15.9286   20.8661 O   0  0  0  0  0  0  0  0  0  0  0  0
   30.6833   17.0016   21.2517 C   0  0  0  0  0  0  0  0  0  0  0  0
   31.9830   16.4060   21.7886 C   0  0  0  0  0  0  0  0  0  0  0  0
   32.6564   15.6552   20.7432 N   0  0  0  0  0  0  0  0  0  0  0  0
   27.3485   13.9323   18.1508 O   0  0  0  0  0  0  0  0  0  0  0  0
  2  1  1  1  0  0  0
  2  5  1  0  0  0  0
  2  3  1  0  0  0  0
  3  4  1  0  0  0  0
  3 10  1  0  0  0  0
  5  6  1  0  0  0  0
  6  7  1  0  0  0  0
  7  8  1  0  0  0  0
  8  9  1  0  0  0  0
M  END
>  <CHROM.1>
52.68065060,-74.39360898,-177.15157762,-177.65219743,62.50867777,29.38695926
15.38796252,20.15230668,2.50557600,-0.03207936,-2.23647953

>  <Name>
ligand

>  <RI>
0

>  <Rbt.Current_Directory>
/home/itssahil/PROJECTS/Mol_Feturizer/New_Systems/rnas/3DJ0

>  <Rbt.Executable>
rbdock ($Id: //depot/dev/client3/rdock/2013.1/src/exe/rbdock.cxx#4 $)

>  <Rbt.Library>
libRbt.so (2013.1, Build901 2013/11/27)

>  <Rbt.Parameter_File>
/export/apps/rDock/src/rDock_2013.1_src/data/scripts/dock_solv.prm

>  <Rbt.Receptor>
prm/pocket_docking_8.prm

>  <SCORE>
-6.76084

>  <SCORE.INTER>
-5.67463

>  <SCORE.INTER.CONST>
1

>  <SCORE.INTER.POLAR>
0

>  <SCORE.INTER.ROT>
5

>  <SCORE.INTER.SOLV>
19.5202

>  <SCORE.INTER.VDW>
-17.2232

>  <SCORE.INTER.norm>
-0.567463

>  <SCORE.INTRA>
-1.0862

>  <SCORE.INTRA.DIHEDRAL>
-3.38361

>  <SCORE.INTRA.DIHEDRAL.0>
6.00299

>  <SCORE.INTRA.POLAR>
0

>  <SCORE.INTRA.POLAR.0>
0

>  <SCORE.INTRA.REPUL>
0

>  <SCORE.INTRA.REPUL.0>
0

>  <SCORE.INTRA.SOLV>
1.24833

>  <SCORE.INTRA.SOLV.lig_0>
-39.3257

>  <SCORE.INTRA.VDW>
-0.0185635

>  <SCORE.INTRA.VDW.0>
-0.734044

>  <SCORE.INTRA.norm>
-0.10862

>  <SCORE.RESTR>
0

>  <SCORE.RESTR.CAVITY>
0

>  <SCORE.RESTR.norm>
0

>  <SCORE.SYSTEM>
0

>  <SCORE.SYSTEM.CONST>
0

>  <SCORE.SYSTEM.DIHEDRAL>
0

>  <SCORE.SYSTEM.SOLV>
0

>  <SCORE.SYSTEM.norm>
0

>  <SCORE.heavy>
10

>  <SCORE.norm>
-0.676084

>  <RMSD>
5.217

$$$$
ligand
 OpenBabel11021811473D
libRbt.so/2013.1/901 2013/11/27
 10  9  0  0  0  0  0  0  0  0999 V2000
   29.1519   14.8334   19.7003 N   0  0  0  0  0  0  0  0  0  0  0  0
   28.6217   14.7714   21.0495 C   0  0  2  0  0  0  0  0  0  0  0  0
   27.1210   14.8883   21.0354 C   0  0  0  0  0  0  0  0  0  0  0  0
   26.4787   14.6092   22.0785 O   0  0  0  0  0  0  0  0  0  0  0  0
   29.2338   15.8863   21.8866 C   0  0  0  0  0  0  0  0  0  0  0  0
   30.6529   15.7553   21.8595 O   0  0  0  0  0  0  0  0  0  0  0  0
   31.2050   16.8677   22.5633 C   0  0  0  0  0  0  0  0  0  0  0  0
   32.7275   16.7670   22.5004 C   0  0  0  0  0  0  0  0  0  0  0  0
   33.1760   16.8513   21.1214 N   0  0  0  0  0  0  0  0  0  0  0  0
   26.6431   15.6878   20.2056 O   0  0  0  0  0  0  0  0  0  0  0  0
  2  1  1  6  0  0  0
  2  5  1  0  0  0  0
  2  3  1  0  0  0  0
  3  4  1  0  0  0  0
  3 10  1  0  0  0  0
  5  6  1  0  0  0  0
  6  7  1  0  0  0  0
  7  8  1  0  0  0  0
  8  9  1  0  0  0  0
M  END
>  <CHROM.1>
-57.09026177,166.97566870,175.60971936,-178.03970742,62.55087287,29.45875504
15.68977950,21.40455981,-2.91838265,0.27060282,1.37877123

>  <Name>
ligand

>  <RI>
0

>  <Rbt.Current_Directory>
/home/itssahil/PROJECTS/Mol_Feturizer/New_Systems/rnas/3DJ0

>  <Rbt.Executable>
rbdock ($Id: //depot/dev/client3/rdock/2013.1/src/exe/rbdock.cxx#4 $)

>  <Rbt.Library>
libRbt.so (2013.1, Build901 2013/11/27)

>  <Rbt.Parameter_File>
/export/apps/rDock/src/rDock_2013.1_src/data/scripts/dock_solv.prm

>  <Rbt.Receptor>
prm/pocket_docking_2.prm

>  <SCORE>
-7.6888

>  <SCORE.INTER>
-6.11227

>  <SCORE.INTER.CONST>
1

>  <SCORE.INTER.POLAR>
0

>  <SCORE.INTER.ROT>
5

>  <SCORE.INTER.SOLV>
17.5002

>  <SCORE.INTER.VDW>
-16.8416

>  <SCORE.INTER.norm>
-0.611227

>  <SCORE.INTRA>
-1.57653

>  <SCORE.INTRA.DIHEDRAL>
-3.51778

>  <SCORE.INTRA.DIHEDRAL.0>
6.00299

>  <SCORE.INTRA.POLAR>
0

>  <SCORE.INTRA.POLAR.0>
0

>  <SCORE.INTRA.REPUL>
0

>  <SCORE.INTRA.REPUL.0>
0

>  <SCORE.INTRA.SOLV>
0.398435

>  <SCORE.INTRA.SOLV.lig_0>
-39.3257

>  <SCORE.INTRA.VDW>
-0.0168587

>  <SCORE.INTRA.VDW.0>
-0.734044

>  <SCORE.INTRA.norm>
-0.157653

>  <SCORE.RESTR>
0

>  <SCORE.RESTR.CAVITY>
0

>  <SCORE.RESTR.norm>
0

>  <SCORE.SYSTEM>
0

>  <SCORE.SYSTEM.CONST>
0

>  <SCORE.SYSTEM.DIHEDRAL>
0

>  <SCORE.SYSTEM.SOLV>
0

>  <SCORE.SYSTEM.norm>
0

>  <SCORE.heavy>
10

>  <SCORE.norm>
-0.76888

>  <RMSD>
5.219

$$$$
ligand
 OpenBabel11021811473D
libRbt.so/2013.1/901 2013/11/27
 10  9  0  0  0  0  0  0  0  0999 V2000
   26.4768   14.6119   21.9143 N   0  0  0  0  0  0  0  0  0  0  0  0
   27.5896   15.4457   21.4997 C   0  0  2  0  0  0  0  0  0  0  0  0
   27.7855   15.3660   20.0093 C   0  0  0  0  0  0  0  0  0  0  0  0
   28.6750   16.0732   19.4734 O   0  0  0  0  0  0  0  0  0  0  0  0
   28.8527   15.0036   22.2260 C   0  0  0  0  0  0  0  0  0  0  0  0
   29.9148   15.8896   21.8818 O   0  0  0  0  0  0  0  0  0  0  0  0
   31.0848   15.4544   22.5744 C   0  0  0  0  0  0  0  0  0  0  0  0
   32.2426   16.3693   22.1813 C   0  0  0  0  0  0  0  0  0  0  0  0
   31.9919   17.7206   22.6515 N   0  0  0  0  0  0  0  0  0  0  0  0
   27.4264   14.3015   19.4672 O   0  0  0  0  0  0  0  0  0  0  0  0
  2  1  1  1  0  0  0
  2  5  1  0  0  0  0
  2  3  1  0  0  0  0
  3  4  1  0  0  0  0
  3 10  1  0  0  0  0
  5  6  1  0  0  0  0
  6  7  1  0  0  0  0
  7  8  1  0  0  0  0
  8  9  1  0  0  0  0
M  END
>  <CHROM.1>
-175.93005583,177.04963720,179.98895020,178.27503694,65.08523554,29.20336288
15.61817876,21.35074992,2.81173943,-0.44207680,-1.39724652

>  <Name>
ligand

>  <RI>
0

>  <Rbt.Current_Directory>
/home/itssahil/PROJECTS/Mol_Feturizer/New_Systems/rnas/3DJ0

>  <Rbt.Executable>
rbdock ($Id: //depot/dev/client3/rdock/2013.1/src/exe/rbdock.cxx#4 $)

>  <Rbt.Library>
libRbt.so (2013.1, Build901 2013/11/27)

>  <Rbt.Parameter_File>
/export/apps/rDock/src/rDock_2013.1_src/data/scripts/dock_solv.prm

>  <Rbt.Receptor>
prm/pocket_docking_2.prm

>  <SCORE>
-7.00276

>  <SCORE.INTER>
-5.23986

>  <SCORE.INTER.CONST>
1

>  <SCORE.INTER.POLAR>
0

>  <SCORE.INTER.ROT>
5

>  <SCORE.INTER.SOLV>
21.0532

>  <SCORE.INTER.VDW>
-17.4443

>  <SCORE.INTER.norm>
-0.523986

>  <SCORE.INTRA>
-1.76289

>  <SCORE.INTRA.DIHEDRAL>
-3.6951

>  <SCORE.INTRA.DIHEDRAL.0>
6.00299

>  <SCORE.INTRA.POLAR>
0

>  <SCORE.INTRA.POLAR.0>
0

>  <SCORE.INTRA.REPUL>
0

>  <SCORE.INTRA.REPUL.0>
0

>  <SCORE.INTRA.SOLV>
-0.0793748

>  <SCORE.INTRA.SOLV.lig_0>
-39.3257

>  <SCORE.INTRA.VDW>
0.124346

>  <SCORE.INTRA.VDW.0>
-0.734044

>  <SCORE.INTRA.norm>
-0.176289

>  <SCORE.RESTR>
0

>  <SCORE.RESTR.CAVITY>
0

>  <SCORE.RESTR.norm>
0

>  <SCORE.SYSTEM>
0

>  <SCORE.SYSTEM.CONST>
0

>  <SCORE.SYSTEM.DIHEDRAL>
0

>  <SCORE.SYSTEM.SOLV>
0

>  <SCORE.SYSTEM.norm>
0

>  <SCORE.heavy>
10

>  <SCORE.norm>
-0.700276

>  <RMSD>
5.220

$$$$
ligand
 OpenBabel11021811473D
libRbt.so/2013.1/901 2013/11/27
 10  9  0  0  0  0  0  0  0  0999 V2000
   26.4986   14.6503   21.7604 N   0  0  0  0  0  0  0  0  0  0  0  0
   27.6156   15.4749   21.3388 C   0  0  2  0  0  0  0  0  0  0  0  0
   27.7596   15.4469   19.8406 C   0  0  0  0  0  0  0  0  0  0  0  0
   28.5537   16.2498   19.2901 O   0  0  0  0  0  0  0  0  0  0  0  0
   28.8919   14.9788   22.0046 C   0  0  0  0  0  0  0  0  0  0  0  0
   29.9469   15.8922   21.7140 O   0  0  0  0  0  0  0  0  0  0  0  0
   31.1459   15.3653   22.2820 C   0  0  0  0  0  0  0  0  0  0  0  0
   32.2874   16.3317   21.9732 C   0  0  0  0  0  0  0  0  0  0  0  0
   32.0432   17.6124   22.6135 N   0  0  0  0  0  0  0  0  0  0  0  0
   27.4855   14.3639   19.2855 O   0  0  0  0  0  0  0  0  0  0  0  0
  2  1  1  6  0  0  0
  2  5  1  0  0  0  0
  2  3  1  0  0  0  0
  3  4  1  0  0  0  0
  3 10  1  0  0  0  0
  5  6  1  0  0  0  0
  6  7  1  0  0  0  0
  7  8  1  0  0  0  0
  8  9  1  0  0  0  0
M  END
>  <CHROM.1>
-172.93816670,170.07683187,-176.66453967,179.76515686,63.42624732,29.22125033
15.63342467,21.17294751,2.82090192,-0.42742443,-1.34384279

>  <Name>
ligand

>  <RI>
0

>  <Rbt.Current_Directory>
/home/itssahil/PROJECTS/Mol_Feturizer/New_Systems/rnas/3DJ0

>  <Rbt.Executable>
rbdock ($Id: //depot/dev/client3/rdock/2013.1/src/exe/rbdock.cxx#4 $)

>  <Rbt.Library>
libRbt.so (2013.1, Build901 2013/11/27)

>  <Rbt.Parameter_File>
/export/apps/rDock/src/rDock_2013.1_src/data/scripts/dock_solv.prm

>  <Rbt.Receptor>
prm/pocket_docking_4.prm

>  <SCORE>
-7.31989

>  <SCORE.INTER>
-5.45086

>  <SCORE.INTER.CONST>
1

>  <SCORE.INTER.POLAR>
0

>  <SCORE.INTER.ROT>
5

>  <SCORE.INTER.SOLV>
20.52

>  <SCORE.INTER.VDW>
-17.4072

>  <SCORE.INTER.norm>
-0.545086

>  <SCORE.INTRA>
-1.86903

>  <SCORE.INTRA.DIHEDRAL>
-3.46773

>  <SCORE.INTRA.DIHEDRAL.0>
6.00299

>  <SCORE.INTRA.POLAR>
0

>  <SCORE.INTRA.POLAR.0>
0

>  <SCORE.INTRA.REPUL>
0

>  <SCORE.INTRA.REPUL.0>
0

>  <SCORE.INTRA.SOLV>
-0.112779

>  <SCORE.INTRA.SOLV.lig_0>
-39.3257

>  <SCORE.INTRA.VDW>
-0.0787727

>  <SCORE.INTRA.VDW.0>
-0.734044

>  <SCORE.INTRA.norm>
-0.186903

>  <SCORE.RESTR>
0

>  <SCORE.RESTR.CAVITY>
0

>  <SCORE.RESTR.norm>
0

>  <SCORE.SYSTEM>
0

>  <SCORE.SYSTEM.CONST>
0

>  <SCORE.SYSTEM.DIHEDRAL>
0

>  <SCORE.SYSTEM.SOLV>
0

>  <SCORE.SYSTEM.norm>
0

>  <SCORE.heavy>
10

>  <SCORE.norm>
-0.731989

>  <RMSD>
5.220

$$$$
ligand
 OpenBabel11021811473D
libRbt.so/2013.1/901 2013/11/27
 10  9  0  0  0  0  0  0  0  0999 V2000
   27.4895   14.3104   19.0142 N   0  0  0  0  0  0  0  0  0  0  0  0
   28.1489   14.5571   20.2829 C   0  0  2  0  0  0  0  0  0  0  0  0
   27.1361   14.7107   21.3859 C   0  0  0  0  0  0  0  0  0  0  0  0
   27.5356   14.9799   22.5462 O   0  0  0  0  0  0  0  0  0  0  0  0
   29.0085   15.8090   20.1726 C   0  0  0  0  0  0  0  0  0  0  0  0
   29.8056   15.9243   21.3486 O   0  0  0  0  0  0  0  0  0  0  0  0
   30.5625   17.1300   21.2434 C   0  0  0  0  0  0  0  0  0  0  0  0
   31.3792   17.2965   22.5230 C   0  0  0  0  0  0  0  0  0  0  0  0
   32.3333   16.2086   22.6504 N   0  0  0  0  0  0  0  0  0  0  0  0
   25.9875   15.0431   21.0306 O   0  0  0  0  0  0  0  0  0  0  0  0
  2  1  1  6  0  0  0
  2  5  1  0  0  0  0
  2  3  1  0  0  0  0
  3  4  1  0  0  0  0
  3 10  1  0  0  0  0
  5  6  1  0  0  0  0
  6  7  1  0  0  0  0
  7  8  1  0  0  0  0
  8  9  1  0  0  0  0
M  END
>  <CHROM.1>
-171.15490455,-177.35957386,-177.81911268,177.70618656,63.46223029,28.90880620
15.59897651,21.24259951,-2.76983397,0.37062377,1.40151081

>  <Name>
ligand

>  <RI>
0

>  <Rbt.Current_Directory>
/home/itssahil/PROJECTS/Mol_Feturizer/New_Systems/rnas/3DJ0

>  <Rbt.Executable>
rbdock ($Id: //depot/dev/client3/rdock/2013.1/src/exe/rbdock.cxx#4 $)

>  <Rbt.Library>
libRbt.so (2013.1, Build901 2013/11/27)

>  <Rbt.Parameter_File>
/export/apps/rDock/src/rDock_2013.1_src/data/scripts/dock_solv.prm

>  <Rbt.Receptor>
prm/pocket_docking_2.prm

>  <SCORE>
-7.04219

>  <SCORE.INTER>
-5.39526

>  <SCORE.INTER.CONST>
1

>  <SCORE.INTER.POLAR>
0

>  <SCORE.INTER.ROT>
5

>  <SCORE.INTER.SOLV>
20.0742

>  <SCORE.INTER.VDW>
-17.2216

>  <SCORE.INTER.norm>
-0.539526

>  <SCORE.INTRA>
-1.64693

>  <SCORE.INTRA.DIHEDRAL>
-3.56228

>  <SCORE.INTRA.DIHEDRAL.0>
6.00299

>  <SCORE.INTRA.POLAR>
0

>  <SCORE.INTRA.POLAR.0>
0

>  <SCORE.INTRA.REPUL>
0

>  <SCORE.INTRA.REPUL.0>
0

>  <SCORE.INTRA.SOLV>
-0.0634753

>  <SCORE.INTRA.SOLV.lig_0>
-39.3257

>  <SCORE.INTRA.VDW>
0.165948

>  <SCORE.INTRA.VDW.0>
-0.734044

>  <SCORE.INTRA.norm>
-0.164693

>  <SCORE.RESTR>
0

>  <SCORE.RESTR.CAVITY>
0

>  <SCORE.RESTR.norm>
0

>  <SCORE.SYSTEM>
0

>  <SCORE.SYSTEM.CONST>
0

>  <SCORE.SYSTEM.DIHEDRAL>
0

>  <SCORE.SYSTEM.SOLV>
0

>  <SCORE.SYSTEM.norm>
0

>  <SCORE.heavy>
10

>  <SCORE.norm>
-0.704219

>  <RMSD>
5.221

$$$$
ligand
 OpenBabel11021811473D
libRbt.so/2013.1/901 2013/11/27
 10  9  0  0  0  0  0  0  0  0999 V2000
   28.8526   14.1285   22.0526 N   0  0  0  0  0  0  0  0  0  0  0  0
   28.3185   15.4355   21.7181 C   0  0  2  0  0  0  0  0  0  0  0  0
   27.4034   15.3452   20.5262 C   0  0  0  0  0  0  0  0  0  0  0  0
   27.8665   14.9351   19.4327 O   0  0  0  0  0  0  0  0  0  0  0  0
   29.4663   16.3952   21.4353 C   0  0  0  0  0  0  0  0  0  0  0  0
   30.2649   16.5153   22.6098 O   0  0  0  0  0  0  0  0  0  0  0  0
   31.4415   17.2448   22.2618 C   0  0  0  0  0  0  0  0  0  0  0  0
   32.3817   16.3068   21.5080 C   0  0  0  0  0  0  0  0  0  0  0  0
   33.6180   16.9963   21.1822 N   0  0  0  0  0  0  0  0  0  0  0  0
   26.1895   15.2075   20.7785 O   0  0  0  0  0  0  0  0  0  0  0  0
  2  1  1  6  0  0  0
  2  5  1  0  0  0  0
  2  3  1  0  0  0  0
  3  4  1  0  0  0  0
  3 10  1  0  0  0  0
  5  6  1  0  0  0  0
  6  7  1  0  0  0  0
  7  8  1  0  0  0  0
  8  9  1  0  0  0  0
M  END
>  <CHROM.1>
-61.36882402,-60.77082404,171.00726453,-76.64145781,-177.68186446,29.54336346
15.84530718,21.33679526,2.89641729,-0.29176114,-1.73803647

>  <Name>
ligand

>  <RI>
0

>  <Rbt.Current_Directory>
/home/itssahil/PROJECTS/Mol_Feturizer/New_Systems/rnas/3DJ0

>  <Rbt.Executable>
rbdock ($Id: //depot/dev/client3/rdock/2013.1/src/exe/rbdock.cxx#4 $)

>  <Rbt.Library>
libRbt.so (2013.1, Build901 2013/11/27)

>  <Rbt.Parameter_File>
/export/apps/rDock/src/rDock_2013.1_src/data/scripts/dock_solv.prm

>  <Rbt.Receptor>
prm/blind_docking_60.prm

>  <SCORE>
-5.15971

>  <SCORE.INTER>
-5.5109

>  <SCORE.INTER.CONST>
1

>  <SCORE.INTER.POLAR>
0

>  <SCORE.INTER.ROT>
5

>  <SCORE.INTER.SOLV>
19.8612

>  <SCORE.INTER.VDW>
-17.2277

>  <SCORE.INTER.norm>
-0.55109

>  <SCORE.INTRA>
0.351196

>  <SCORE.INTRA.DIHEDRAL>
-2.19958

>  <SCORE.INTRA.DIHEDRAL.0>
6.00299

>  <SCORE.INTRA.POLAR>
0

>  <SCORE.INTRA.POLAR.0>
0

>  <SCORE.INTRA.REPUL>
0

>  <SCORE.INTRA.REPUL.0>
0

>  <SCORE.INTRA.SOLV>
0.142013

>  <SCORE.INTRA.SOLV.lig_0>
-39.3257

>  <SCORE.INTRA.VDW>
1.37998

>  <SCORE.INTRA.VDW.0>
-0.734044

>  <SCORE.INTRA.norm>
0.0351196

>  <SCORE.RESTR>
0

>  <SCORE.RESTR.CAVITY>
0

>  <SCORE.RESTR.norm>
0

>  <SCORE.SYSTEM>
0

>  <SCORE.SYSTEM.CONST>
0

>  <SCORE.SYSTEM.DIHEDRAL>
0

>  <SCORE.SYSTEM.SOLV>
0

>  <SCORE.SYSTEM.norm>
0

>  <SCORE.heavy>
10

>  <SCORE.norm>
-0.515971

>  <RMSD>
5.222

$$$$
ligand
 OpenBabel11021811473D
libRbt.so/2013.1/901 2013/11/27
 10  9  0  0  0  0  0  0  0  0999 V2000
   26.4485   14.7895   21.4829 N   0  0  0  0  0  0  0  0  0  0  0  0
   27.6521   15.5328   21.1602 C   0  0  2  0  0  0  0  0  0  0  0  0
   28.0687   15.2753   19.7367 C   0  0  0  0  0  0  0  0  0  0  0  0
   27.5180   14.3424   19.1004 O   0  0  0  0  0  0  0  0  0  0  0  0
   28.7657   15.1362   22.1198 C   0  0  0  0  0  0  0  0  0  0  0  0
   29.9236   15.9141   21.8269 O   0  0  0  0  0  0  0  0  0  0  0  0
   30.9652   15.4900   22.7060 C   0  0  0  0  0  0  0  0  0  0  0  0
   32.2171   16.3077   22.3956 C   0  0  0  0  0  0  0  0  0  0  0  0
   31.9701   17.7153   22.6559 N   0  0  0  0  0  0  0  0  0  0  0  0
   28.5464   16.2503   19.1224 O   0  0  0  0  0  0  0  0  0  0  0  0
  2  1  1  1  0  0  0
  2  5  1  0  0  0  0
  2  3  1  0  0  0  0
  3  4  1  0  0  0  0
  3 10  1  0  0  0  0
  5  6  1  0  0  0  0
  6  7  1  0  0  0  0
  7  8  1  0  0  0  0
  8  9  1  0  0  0  0
M  END
>  <CHROM.1>
-177.59727032,-11.56109039,-177.93119113,179.54184871,62.68111164,29.20402641
15.67187996,21.19152313,2.70349669,-0.45218459,-1.38377429

>  <Name>
ligand

>  <RI>
0

>  <Rbt.Current_Directory>
/home/itssahil/PROJECTS/Mol_Feturizer/New_Systems/rnas/3DJ0

>  <Rbt.Executable>
rbdock ($Id: //depot/dev/client3/rdock/2013.1/src/exe/rbdock.cxx#4 $)

>  <Rbt.Library>
libRbt.so (2013.1, Build901 2013/11/27)

>  <Rbt.Parameter_File>
/export/apps/rDock/src/rDock_2013.1_src/data/scripts/dock_solv.prm

>  <Rbt.Receptor>
prm/pocket_docking_7.prm

>  <SCORE>
-7.54242

>  <SCORE.INTER>
-5.61277

>  <SCORE.INTER.CONST>
1

>  <SCORE.INTER.POLAR>
0

>  <SCORE.INTER.ROT>
5

>  <SCORE.INTER.SOLV>
20.624

>  <SCORE.INTER.VDW>
-17.5498

>  <SCORE.INTER.norm>
-0.561277

>  <SCORE.INTRA>
-1.92966

>  <SCORE.INTRA.DIHEDRAL>
-3.39669

>  <SCORE.INTRA.DIHEDRAL.0>
6.00299

>  <SCORE.INTRA.POLAR>
0

>  <SCORE.INTRA.POLAR.0>
0

>  <SCORE.INTRA.REPUL>
0

>  <SCORE.INTRA.REPUL.0>
0

>  <SCORE.INTRA.SOLV>
-0.185827

>  <SCORE.INTRA.SOLV.lig_0>
-39.3257

>  <SCORE.INTRA.VDW>
-0.138403

>  <SCORE.INTRA.VDW.0>
-0.734044

>  <SCORE.INTRA.norm>
-0.192966

>  <SCORE.RESTR>
0

>  <SCORE.RESTR.CAVITY>
0

>  <SCORE.RESTR.norm>
0

>  <SCORE.SYSTEM>
0

>  <SCORE.SYSTEM.CONST>
0

>  <SCORE.SYSTEM.DIHEDRAL>
0

>  <SCORE.SYSTEM.SOLV>
0

>  <SCORE.SYSTEM.norm>
0

>  <SCORE.heavy>
10

>  <SCORE.norm>
-0.754242

>  <RMSD>
5.223

$$$$
ligand
 OpenBabel11021811473D
libRbt.so/2013.1/901 2013/11/27
 10  9  0  0  0  0  0  0  0  0999 V2000
   27.4232   14.1285   18.9818 N   0  0  0  0  0  0  0  0  0  0  0  0
   28.1471   14.4191   20.2053 C   0  0  2  0  0  0  0  0  0  0  0  0
   27.1906   14.6939   21.3348 C   0  0  0  0  0  0  0  0  0  0  0  0
   27.6520   15.0008   22.4623 O   0  0  0  0  0  0  0  0  0  0  0  0
   29.0623   15.6151   19.9811 C   0  0  0  0  0  0  0  0  0  0  0  0
   30.0141   15.6706   21.0407 O   0  0  0  0  0  0  0  0  0  0  0  0
   30.9231   16.7327   20.7523 C   0  0  0  0  0  0  0  0  0  0  0  0
   31.9722   16.7800   21.8611 C   0  0  0  0  0  0  0  0  0  0  0  0
   31.3466   17.1297   23.1246 N   0  0  0  0  0  0  0  0  0  0  0  0
   26.0501   15.0761   21.0042 O   0  0  0  0  0  0  0  0  0  0  0  0
  2  1  1  6  0  0  0
  2  5  1  0  0  0  0
  2  3  1  0  0  0  0
  3  4  1  0  0  0  0
  3 10  1  0  0  0  0
  5  6  1  0  0  0  0
  6  7  1  0  0  0  0
  7  8  1  0  0  0  0
  8  9  1  0  0  0  0
M  END
>  <CHROM.1>
-164.56482517,-178.06233074,175.47895297,-178.49184937,-64.88428596,28.95229364
15.52683626,21.09665028,-2.74902939,0.37114151,1.30247431

>  <Name>
ligand

>  <RI>
0

>  <Rbt.Current_Directory>
/home/itssahil/PROJECTS/Mol_Feturizer/New_Systems/rnas/3DJ0

>  <Rbt.Executable>
rbdock ($Id: //depot/dev/client3/rdock/2013.1/src/exe/rbdock.cxx#4 $)

>  <Rbt.Library>
libRbt.so (2013.1, Build901 2013/11/27)

>  <Rbt.Parameter_File>
/export/apps/rDock/src/rDock_2013.1_src/data/scripts/dock_solv.prm

>  <Rbt.Receptor>
prm/pocket_docking_2.prm

>  <SCORE>
-5.9261

>  <SCORE.INTER>
-4.45461

>  <SCORE.INTER.CONST>
1

>  <SCORE.INTER.POLAR>
0

>  <SCORE.INTER.ROT>
5

>  <SCORE.INTER.SOLV>
18.7947

>  <SCORE.INTER.VDW>
-16.168

>  <SCORE.INTER.norm>
-0.445461

>  <SCORE.INTRA>
-1.47149

>  <SCORE.INTRA.DIHEDRAL>
-2.90857

>  <SCORE.INTRA.DIHEDRAL.0>
6.00299

>  <SCORE.INTRA.POLAR>
0

>  <SCORE.INTRA.POLAR.0>
0

>  <SCORE.INTRA.REPUL>
0

>  <SCORE.INTRA.REPUL.0>
0

>  <SCORE.INTRA.SOLV>
-0.147744

>  <SCORE.INTRA.SOLV.lig_0>
-39.3257

>  <SCORE.INTRA.VDW>
0.0566724

>  <SCORE.INTRA.VDW.0>
-0.734044

>  <SCORE.INTRA.norm>
-0.147149

>  <SCORE.RESTR>
0

>  <SCORE.RESTR.CAVITY>
0

>  <SCORE.RESTR.norm>
0

>  <SCORE.SYSTEM>
0

>  <SCORE.SYSTEM.CONST>
0

>  <SCORE.SYSTEM.DIHEDRAL>
0

>  <SCORE.SYSTEM.SOLV>
0

>  <SCORE.SYSTEM.norm>
0

>  <SCORE.heavy>
10

>  <SCORE.norm>
-0.59261

>  <RMSD>
5.224

$$$$
ligand
 OpenBabel11021811473D
libRbt.so/2013.1/901 2013/11/27
 10  9  0  0  0  0  0  0  0  0999 V2000
   27.4827   14.5226   21.1205 N   0  0  0  0  0  0  0  0  0  0  0  0
   27.6670   15.3695   19.9567 C   0  0  2  0  0  0  0  0  0  0  0  0
   28.1861   14.5669   18.7938 C   0  0  0  0  0  0  0  0  0  0  0  0
   29.3836   14.1869   18.8024 O   0  0  0  0  0  0  0  0  0  0  0  0
   28.6323   16.4967   20.2975 C   0  0  0  0  0  0  0  0  0  0  0  0
   29.8284   15.9324   20.8292 O   0  0  0  0  0  0  0  0  0  0  0  0
   30.6730   17.0092   21.2353 C   0  0  0  0  0  0  0  0  0  0  0  0
   31.9727   16.4201   21.7793 C   0  0  0  0  0  0  0  0  0  0  0  0
   32.6494   15.6623   20.7411 N   0  0  0  0  0  0  0  0  0  0  0  0
   27.3333   13.9222   18.1509 O   0  0  0  0  0  0  0  0  0  0  0  0
  2  1  1  1  0  0  0
  2  5  1  0  0  0  0
  2  3  1  0  0  0  0
  3  4  1  0  0  0  0
  3 10  1  0  0  0  0
  5  6  1  0  0  0  0
  6  7  1  0  0  0  0
  7  8  1  0  0  0  0
  8  9  1  0  0  0  0
M  END
>  <CHROM.1>
53.49563600,-73.56363629,-175.61031827,-178.77067509,61.25480771,29.37912396
15.38522314,20.14421743,2.50450380,-0.03041887,-2.24642220

>  <Name>
ligand

>  <RI>
0

>  <Rbt.Current_Directory>
/home/itssahil/PROJECTS/Mol_Feturizer/New_Systems/rnas/3DJ0

>  <Rbt.Executable>
rbdock ($Id: //depot/dev/client3/rdock/2013.1/src/exe/rbdock.cxx#4 $)

>  <Rbt.Library>
libRbt.so (2013.1, Build901 2013/11/27)

>  <Rbt.Parameter_File>
/export/apps/rDock/src/rDock_2013.1_src/data/scripts/dock_solv.prm

>  <Rbt.Receptor>
prm/pocket_docking_8.prm

>  <SCORE>
-6.76528

>  <SCORE.INTER>
-5.65874

>  <SCORE.INTER.CONST>
1

>  <SCORE.INTER.POLAR>
0

>  <SCORE.INTER.ROT>
5

>  <SCORE.INTER.SOLV>
19.527

>  <SCORE.INTER.VDW>
-17.2148

>  <SCORE.INTER.norm>
-0.565874

>  <SCORE.INTRA>
-1.10653

>  <SCORE.INTRA.DIHEDRAL>
-3.42258

>  <SCORE.INTRA.DIHEDRAL.0>
6.00299

>  <SCORE.INTRA.POLAR>
0

>  <SCORE.INTRA.POLAR.0>
0

>  <SCORE.INTRA.REPUL>
0

>  <SCORE.INTRA.REPUL.0>
0

>  <SCORE.INTRA.SOLV>
1.24463

>  <SCORE.INTRA.SOLV.lig_0>
-39.3257

>  <SCORE.INTRA.VDW>
-0.0175588

>  <SCORE.INTRA.VDW.0>
-0.734044

>  <SCORE.INTRA.norm>
-0.110653

>  <SCORE.RESTR>
0

>  <SCORE.RESTR.CAVITY>
0

>  <SCORE.RESTR.norm>
0

>  <SCORE.SYSTEM>
0

>  <SCORE.SYSTEM.CONST>
0

>  <SCORE.SYSTEM.DIHEDRAL>
0

>  <SCORE.SYSTEM.SOLV>
0

>  <SCORE.SYSTEM.norm>
0

>  <SCORE.heavy>
10

>  <SCORE.norm>
-0.676528

>  <RMSD>
5.224

$$$$
ligand
 OpenBabel11021811473D
libRbt.so/2013.1/901 2013/11/27
 10  9  0  0  0  0  0  0  0  0999 V2000
   29.0396   14.5662   19.6595 N   0  0  0  0  0  0  0  0  0  0  0  0
   28.5295   14.3225   20.9958 C   0  0  2  0  0  0  0  0  0  0  0  0
   27.2740   15.1173   21.2372 C   0  0  0  0  0  0  0  0  0  0  0  0
   26.8512   15.8778   20.3310 O   0  0  0  0  0  0  0  0  0  0  0  0
   29.5952   14.6882   22.0200 C   0  0  0  0  0  0  0  0  0  0  0  0
   30.0788   15.9978   21.7323 O   0  0  0  0  0  0  0  0  0  0  0  0
   31.2020   16.2414   22.5791 C   0  0  0  0  0  0  0  0  0  0  0  0
   31.7616   17.6231   22.2475 C   0  0  0  0  0  0  0  0  0  0  0  0
   32.9958   17.8497   22.9792 N   0  0  0  0  0  0  0  0  0  0  0  0
   26.4784   14.6418   22.0720 O   0  0  0  0  0  0  0  0  0  0  0  0
  2  1  1  6  0  0  0
  2  5  1  0  0  0  0
  2  3  1  0  0  0  0
  3  4  1  0  0  0  0
  3 10  1  0  0  0  0
  5  6  1  0  0  0  0
  6  7  1  0  0  0  0
  7  8  1  0  0  0  0
  8  9  1  0  0  0  0
M  END
>  <CHROM.1>
50.57247033,-1.61840891,-171.82522794,178.04058085,-173.57498144,29.33603619
15.69838017,21.58350122,-2.64921202,0.20790220,0.95846144

>  <Name>
ligand

>  <RI>
0

>  <Rbt.Current_Directory>
/home/itssahil/PROJECTS/Mol_Feturizer/New_Systems/rnas/3DJ0

>  <Rbt.Executable>
rbdock ($Id: //depot/dev/client3/rdock/2013.1/src/exe/rbdock.cxx#4 $)

>  <Rbt.Library>
libRbt.so (2013.1, Build901 2013/11/27)

>  <Rbt.Parameter_File>
/export/apps/rDock/src/rDock_2013.1_src/data/scripts/dock_solv.prm

>  <Rbt.Receptor>
prm/pocket_docking_3.prm

>  <SCORE>
-7.15214

>  <SCORE.INTER>
-5.6895

>  <SCORE.INTER.CONST>
1

>  <SCORE.INTER.POLAR>
0

>  <SCORE.INTER.ROT>
5

>  <SCORE.INTER.SOLV>
18.1272

>  <SCORE.INTER.VDW>
-16.7687

>  <SCORE.INTER.norm>
-0.56895

>  <SCORE.INTRA>
-1.46265

>  <SCORE.INTRA.DIHEDRAL>
-2.49118

>  <SCORE.INTRA.DIHEDRAL.0>
6.00299

>  <SCORE.INTRA.POLAR>
0

>  <SCORE.INTRA.POLAR.0>
0

>  <SCORE.INTRA.REPUL>
0

>  <SCORE.INTRA.REPUL.0>
0

>  <SCORE.INTRA.SOLV>
-0.289753

>  <SCORE.INTRA.SOLV.lig_0>
-39.3257

>  <SCORE.INTRA.VDW>
-0.0721787

>  <SCORE.INTRA.VDW.0>
-0.734044

>  <SCORE.INTRA.norm>
-0.146265

>  <SCORE.RESTR>
0

>  <SCORE.RESTR.CAVITY>
0

>  <SCORE.RESTR.norm>
0

>  <SCORE.SYSTEM>
0

>  <SCORE.SYSTEM.CONST>
0

>  <SCORE.SYSTEM.DIHEDRAL>
0

>  <SCORE.SYSTEM.SOLV>
0

>  <SCORE.SYSTEM.norm>
0

>  <SCORE.heavy>
10

>  <SCORE.norm>
-0.715214

>  <RMSD>
5.225

$$$$
ligand
 OpenBabel11021811473D
libRbt.so/2013.1/901 2013/11/27
 10  9  0  0  0  0  0  0  0  0999 V2000
   26.1434   14.9720   21.0713 N   0  0  0  0  0  0  0  0  0  0  0  0
   27.4599   15.4481   20.6899 C   0  0  2  0  0  0  0  0  0  0  0  0
   27.9126   14.7903   19.4139 C   0  0  0  0  0  0  0  0  0  0  0  0
   29.0800   15.0021   19.0006 O   0  0  0  0  0  0  0  0  0  0  0  0
   28.4472   15.1637   21.8137 C   0  0  0  0  0  0  0  0  0  0  0  0
   29.6557   15.8735   21.5544 O   0  0  0  0  0  0  0  0  0  0  0  0
   30.5687   15.5764   22.6108 C   0  0  0  0  0  0  0  0  0  0  0  0
   31.8461   16.3812   22.3808 C   0  0  0  0  0  0  0  0  0  0  0  0
   32.4586   15.9950   21.1216 N   0  0  0  0  0  0  0  0  0  0  0  0
   27.3258   13.7334   19.1060 O   0  0  0  0  0  0  0  0  0  0  0  0
  2  1  1  1  0  0  0
  2  5  1  0  0  0  0
  2  3  1  0  0  0  0
  3  4  1  0  0  0  0
  3 10  1  0  0  0  0
  5  6  1  0  0  0  0
  6  7  1  0  0  0  0
  7  8  1  0  0  0  0
  8  9  1  0  0  0  0
M  END
>  <CHROM.1>
-168.03184110,-173.97961460,-179.23707490,-177.40989884,-61.60393447,29.09283824
15.27855700,20.84713462,2.64476166,-0.17617037,-1.87202077

>  <Name>
ligand

>  <RI>
0

>  <Rbt.Current_Directory>
/home/itssahil/PROJECTS/Mol_Feturizer/New_Systems/rnas/3DJ0

>  <Rbt.Executable>
rbdock ($Id: //depot/dev/client3/rdock/2013.1/src/exe/rbdock.cxx#4 $)

>  <Rbt.Library>
libRbt.so (2013.1, Build901 2013/11/27)

>  <Rbt.Parameter_File>
/export/apps/rDock/src/rDock_2013.1_src/data/scripts/dock_solv.prm

>  <Rbt.Receptor>
prm/pocket_docking_2.prm

>  <SCORE>
-6.98195

>  <SCORE.INTER>
-5.48678

>  <SCORE.INTER.CONST>
1

>  <SCORE.INTER.POLAR>
0

>  <SCORE.INTER.ROT>
5

>  <SCORE.INTER.SOLV>
20.7477

>  <SCORE.INTER.VDW>
-17.5071

>  <SCORE.INTER.norm>
-0.548678

>  <SCORE.INTRA>
-1.49517

>  <SCORE.INTRA.DIHEDRAL>
-3.41533

>  <SCORE.INTRA.DIHEDRAL.0>
6.00299

>  <SCORE.INTRA.POLAR>
0

>  <SCORE.INTRA.POLAR.0>
0

>  <SCORE.INTRA.REPUL>
0

>  <SCORE.INTRA.REPUL.0>
0

>  <SCORE.INTRA.SOLV>
0.103968

>  <SCORE.INTRA.SOLV.lig_0>
-39.3257

>  <SCORE.INTRA.VDW>
0.16051

>  <SCORE.INTRA.VDW.0>
-0.734044

>  <SCORE.INTRA.norm>
-0.149517

>  <SCORE.RESTR>
0

>  <SCORE.RESTR.CAVITY>
0

>  <SCORE.RESTR.norm>
0

>  <SCORE.SYSTEM>
0

>  <SCORE.SYSTEM.CONST>
0

>  <SCORE.SYSTEM.DIHEDRAL>
0

>  <SCORE.SYSTEM.SOLV>
0

>  <SCORE.SYSTEM.norm>
0

>  <SCORE.heavy>
10

>  <SCORE.norm>
-0.698195

>  <RMSD>
5.228

$$$$
ligand
 OpenBabel11021811473D
libRbt.so/2013.1/901 2013/11/27
 10  9  0  0  0  0  0  0  0  0999 V2000
   26.2258   15.5154   20.3278 N   0  0  0  0  0  0  0  0  0  0  0  0
   27.6636   15.3510   20.4335 C   0  0  2  0  0  0  0  0  0  0  0  0
   28.1964   14.5755   19.2584 C   0  0  0  0  0  0  0  0  0  0  0  0
   29.4375   14.4158   19.1466 O   0  0  0  0  0  0  0  0  0  0  0  0
   27.9981   14.6380   21.7366 C   0  0  0  0  0  0  0  0  0  0  0  0
   29.4153   14.5638   21.8692 O   0  0  0  0  0  0  0  0  0  0  0  0
   29.8846   15.8592   22.2429 C   0  0  0  0  0  0  0  0  0  0  0  0
   31.4104   15.8199   22.2939 C   0  0  0  0  0  0  0  0  0  0  0  0
   31.9329   17.1392   22.6046 N   0  0  0  0  0  0  0  0  0  0  0  0
   27.4142   13.7469   18.7507 O   0  0  0  0  0  0  0  0  0  0  0  0
  2  1  1  6  0  0  0
  2  5  1  0  0  0  0
  2  3  1  0  0  0  0
  3  4  1  0  0  0  0
  3 10  1  0  0  0  0
  5  6  1  0  0  0  0
  6  7  1  0  0  0  0
  7  8  1  0  0  0  0
  8  9  1  0  0  0  0
M  END
>  <CHROM.1>
-176.14064087,175.46637092,75.43580388,-176.10969992,177.10133592,28.96394017
15.12712633,20.84175072,2.40783205,-0.05523720,-2.04672285

>  <Name>
ligand

>  <RI>
0

>  <Rbt.Current_Directory>
/home/itssahil/PROJECTS/Mol_Feturizer/New_Systems/rnas/3DJ0

>  <Rbt.Executable>
rbdock ($Id: //depot/dev/client3/rdock/2013.1/src/exe/rbdock.cxx#4 $)

>  <Rbt.Library>
libRbt.so (2013.1, Build901 2013/11/27)

>  <Rbt.Parameter_File>
/export/apps/rDock/src/rDock_2013.1_src/data/scripts/dock_solv.prm

>  <Rbt.Receptor>
prm/pocket_docking_8.prm

>  <SCORE>
-5.99417

>  <SCORE.INTER>
-5.50622

>  <SCORE.INTER.CONST>
1

>  <SCORE.INTER.POLAR>
0

>  <SCORE.INTER.ROT>
5

>  <SCORE.INTER.SOLV>
19.938

>  <SCORE.INTER.VDW>
-17.2502

>  <SCORE.INTER.norm>
-0.550622

>  <SCORE.INTRA>
-0.487953

>  <SCORE.INTRA.DIHEDRAL>
-2.56932

>  <SCORE.INTRA.DIHEDRAL.0>
6.00299

>  <SCORE.INTRA.POLAR>
0

>  <SCORE.INTRA.POLAR.0>
0

>  <SCORE.INTRA.REPUL>
0

>  <SCORE.INTRA.REPUL.0>
0

>  <SCORE.INTRA.SOLV>
-0.531881

>  <SCORE.INTRA.SOLV.lig_0>
-39.3257

>  <SCORE.INTRA.VDW>
1.06265

>  <SCORE.INTRA.VDW.0>
-0.734044

>  <SCORE.INTRA.norm>
-0.0487953

>  <SCORE.RESTR>
0

>  <SCORE.RESTR.CAVITY>
0

>  <SCORE.RESTR.norm>
0

>  <SCORE.SYSTEM>
0

>  <SCORE.SYSTEM.CONST>
0

>  <SCORE.SYSTEM.DIHEDRAL>
0

>  <SCORE.SYSTEM.SOLV>
0

>  <SCORE.SYSTEM.norm>
0

>  <SCORE.heavy>
10

>  <SCORE.norm>
-0.599417

>  <RMSD>
5.228

$$$$
ligand
 OpenBabel11021811473D
libRbt.so/2013.1/901 2013/11/27
 10  9  0  0  0  0  0  0  0  0999 V2000
   26.0294   14.8124   21.2721 N   0  0  0  0  0  0  0  0  0  0  0  0
   27.2981   15.4361   20.9454 C   0  0  2  0  0  0  0  0  0  0  0  0
   27.7188   15.0803   19.5445 C   0  0  0  0  0  0  0  0  0  0  0  0
   28.5621   15.8048   18.9595 O   0  0  0  0  0  0  0  0  0  0  0  0
   28.3550   14.9906   21.9469 C   0  0  0  0  0  0  0  0  0  0  0  0
   29.5363   15.7614   21.7420 O   0  0  0  0  0  0  0  0  0  0  0  0
   30.5181   15.3068   22.6731 C   0  0  0  0  0  0  0  0  0  0  0  0
   31.7777   16.1512   22.4921 C   0  0  0  0  0  0  0  0  0  0  0  0
   32.2956   15.9910   21.1444 N   0  0  0  0  0  0  0  0  0  0  0  0
   27.6043   13.8791   19.2282 O   0  0  0  0  0  0  0  0  0  0  0  0
  2  1  1  1  0  0  0
  2  5  1  0  0  0  0
  2  3  1  0  0  0  0
  3  4  1  0  0  0  0
  3 10  1  0  0  0  0
  5  6  1  0  0  0  0
  6  7  1  0  0  0  0
  7  8  1  0  0  0  0
  8  9  1  0  0  0  0
M  END
>  <CHROM.1>
-171.22817311,159.93481534,-178.84987485,-178.41554593,-60.99052548,28.97341844
15.31515004,20.96344180,2.71529489,-0.23108611,-1.60830355

>  <Name>
ligand

>  <RI>
0

>  <Rbt.Current_Directory>
/home/itssahil/PROJECTS/Mol_Feturizer/New_Systems/rnas/3DJ0

>  <Rbt.Executable>
rbdock ($Id: //depot/dev/client3/rdock/2013.1/src/exe/rbdock.cxx#4 $)

>  <Rbt.Library>
libRbt.so (2013.1, Build901 2013/11/27)

>  <Rbt.Parameter_File>
/export/apps/rDock/src/rDock_2013.1_src/data/scripts/dock_solv.prm

>  <Rbt.Receptor>
prm/pocket_docking_6.prm

>  <SCORE>
-7.512

>  <SCORE.INTER>
-5.58113

>  <SCORE.INTER.CONST>
1

>  <SCORE.INTER.POLAR>
0

>  <SCORE.INTER.ROT>
5

>  <SCORE.INTER.SOLV>
21.4787

>  <SCORE.INTER.VDW>
-17.8137

>  <SCORE.INTER.norm>
-0.558113

>  <SCORE.INTRA>
-1.93087

>  <SCORE.INTRA.DIHEDRAL>
-3.24247

>  <SCORE.INTRA.DIHEDRAL.0>
6.00299

>  <SCORE.INTRA.POLAR>
0

>  <SCORE.INTRA.POLAR.0>
0

>  <SCORE.INTRA.REPUL>
0

>  <SCORE.INTRA.REPUL.0>
0

>  <SCORE.INTRA.SOLV>
-0.157795

>  <SCORE.INTRA.SOLV.lig_0>
-39.3257

>  <SCORE.INTRA.VDW>
-0.23074

>  <SCORE.INTRA.VDW.0>
-0.734044

>  <SCORE.INTRA.norm>
-0.193087

>  <SCORE.RESTR>
0

>  <SCORE.RESTR.CAVITY>
0

>  <SCORE.RESTR.norm>
0

>  <SCORE.SYSTEM>
0

>  <SCORE.SYSTEM.CONST>
0

>  <SCORE.SYSTEM.DIHEDRAL>
0

>  <SCORE.SYSTEM.SOLV>
0

>  <SCORE.SYSTEM.norm>
0

>  <SCORE.heavy>
10

>  <SCORE.norm>
-0.7512

>  <RMSD>
5.232

$$$$
ligand
 OpenBabel11021811473D
libRbt.so/2013.1/901 2013/11/27
 10  9  0  0  0  0  0  0  0  0999 V2000
   26.3766   14.6873   21.6561 N   0  0  0  0  0  0  0  0  0  0  0  0
   27.5275   15.4761   21.2577 C   0  0  2  0  0  0  0  0  0  0  0  0
   27.7454   15.3826   19.7712 C   0  0  0  0  0  0  0  0  0  0  0  0
   28.5541   16.1727   19.2235 O   0  0  0  0  0  0  0  0  0  0  0  0
   28.7601   14.9890   22.0072 C   0  0  0  0  0  0  0  0  0  0  0  0
   29.8601   15.8348   21.6814 O   0  0  0  0  0  0  0  0  0  0  0  0
   31.0119   15.3278   22.3553 C   0  0  0  0  0  0  0  0  0  0  0  0
   32.1984   16.2293   22.0210 C   0  0  0  0  0  0  0  0  0  0  0  0
   31.9830   17.5588   22.5651 N   0  0  0  0  0  0  0  0  0  0  0  0
   27.5145   14.2711   19.2540 O   0  0  0  0  0  0  0  0  0  0  0  0
  2  1  1  1  0  0  0
  2  5  1  0  0  0  0
  2  3  1  0  0  0  0
  3  4  1  0  0  0  0
  3 10  1  0  0  0  0
  5  6  1  0  0  0  0
  6  7  1  0  0  0  0
  7  8  1  0  0  0  0
  8  9  1  0  0  0  0
M  END
>  <CHROM.1>
-175.74075927,168.23644035,-177.84165258,-179.71150292,65.09586824,29.15341699
15.58824563,21.14203276,2.78488306,-0.41271017,-1.39281266

>  <Name>
ligand

>  <RI>
0

>  <Rbt.Current_Directory>
/home/itssahil/PROJECTS/Mol_Feturizer/New_Systems/rnas/3DJ0

>  <Rbt.Executable>
rbdock ($Id: //depot/dev/client3/rdock/2013.1/src/exe/rbdock.cxx#4 $)

>  <Rbt.Library>
libRbt.so (2013.1, Build901 2013/11/27)

>  <Rbt.Parameter_File>
/export/apps/rDock/src/rDock_2013.1_src/data/scripts/dock_solv.prm

>  <Rbt.Receptor>
prm/pocket_docking_4.prm

>  <SCORE>
-7.45357

>  <SCORE.INTER>
-5.56253

>  <SCORE.INTER.CONST>
1

>  <SCORE.INTER.POLAR>
0

>  <SCORE.INTER.ROT>
5

>  <SCORE.INTER.SOLV>
20.5427

>  <SCORE.INTER.VDW>
-17.4893

>  <SCORE.INTER.norm>
-0.556253

>  <SCORE.INTRA>
-1.89104

>  <SCORE.INTRA.DIHEDRAL>
-3.52461

>  <SCORE.INTRA.DIHEDRAL.0>
6.00299

>  <SCORE.INTRA.POLAR>
0

>  <SCORE.INTRA.POLAR.0>
0

>  <SCORE.INTRA.REPUL>
0

>  <SCORE.INTRA.REPUL.0>
0

>  <SCORE.INTRA.SOLV>
-0.124698

>  <SCORE.INTRA.SOLV.lig_0>
-39.3257

>  <SCORE.INTRA.VDW>
-0.0663832

>  <SCORE.INTRA.VDW.0>
-0.734044

>  <SCORE.INTRA.norm>
-0.189104

>  <SCORE.RESTR>
0

>  <SCORE.RESTR.CAVITY>
0

>  <SCORE.RESTR.norm>
0

>  <SCORE.SYSTEM>
0

>  <SCORE.SYSTEM.CONST>
0

>  <SCORE.SYSTEM.DIHEDRAL>
0

>  <SCORE.SYSTEM.SOLV>
0

>  <SCORE.SYSTEM.norm>
0

>  <SCORE.heavy>
10

>  <SCORE.norm>
-0.745357

>  <RMSD>
5.234

$$$$
ligand
 OpenBabel11021811473D
libRbt.so/2013.1/901 2013/11/27
 10  9  0  0  0  0  0  0  0  0999 V2000
   26.3693   14.6985   21.6369 N   0  0  0  0  0  0  0  0  0  0  0  0
   27.5235   15.4824   21.2383 C   0  0  2  0  0  0  0  0  0  0  0  0
   27.7386   15.3912   19.7512 C   0  0  0  0  0  0  0  0  0  0  0  0
   28.5465   16.1820   19.2032 O   0  0  0  0  0  0  0  0  0  0  0  0
   28.7549   14.9874   21.9847 C   0  0  0  0  0  0  0  0  0  0  0  0
   29.8561   15.8350   21.6677 O   0  0  0  0  0  0  0  0  0  0  0  0
   31.0057   15.3235   22.3418 C   0  0  0  0  0  0  0  0  0  0  0  0
   32.1974   16.2160   22.0018 C   0  0  0  0  0  0  0  0  0  0  0  0
   31.9825   17.5545   22.5236 N   0  0  0  0  0  0  0  0  0  0  0  0
   27.5065   14.2806   19.2327 O   0  0  0  0  0  0  0  0  0  0  0  0
  2  1  1  1  0  0  0
  2  5  1  0  0  0  0
  2  3  1  0  0  0  0
  3  4  1  0  0  0  0
  3 10  1  0  0  0  0
  5  6  1  0  0  0  0
  6  7  1  0  0  0  0
  7  8  1  0  0  0  0
  8  9  1  0  0  0  0
M  END
>  <CHROM.1>
-175.26572954,167.96079608,-178.03383746,179.53673020,64.25757550,29.14831164
15.59049970,21.12108014,2.78785322,-0.41094771,-1.38611474

>  <Name>
ligand

>  <RI>
0

>  <Rbt.Current_Directory>
/home/itssahil/PROJECTS/Mol_Feturizer/New_Systems/rnas/3DJ0

>  <Rbt.Executable>
rbdock ($Id: //depot/dev/client3/rdock/2013.1/src/exe/rbdock.cxx#4 $)

>  <Rbt.Library>
libRbt.so (2013.1, Build901 2013/11/27)

>  <Rbt.Parameter_File>
/export/apps/rDock/src/rDock_2013.1_src/data/scripts/dock_solv.prm

>  <Rbt.Receptor>
prm/pocket_docking_4.prm

>  <SCORE>
-7.44875

>  <SCORE.INTER>
-5.54334

>  <SCORE.INTER.CONST>
1

>  <SCORE.INTER.POLAR>
0

>  <SCORE.INTER.ROT>
5

>  <SCORE.INTER.SOLV>
20.5294

>  <SCORE.INTER.VDW>
-17.472

>  <SCORE.INTER.norm>
-0.554334

>  <SCORE.INTRA>
-1.90541

>  <SCORE.INTRA.DIHEDRAL>
-3.53621

>  <SCORE.INTRA.DIHEDRAL.0>
6.00299

>  <SCORE.INTRA.POLAR>
0

>  <SCORE.INTRA.POLAR.0>
0

>  <SCORE.INTRA.REPUL>
0

>  <SCORE.INTRA.REPUL.0>
0

>  <SCORE.INTRA.SOLV>
-0.123249

>  <SCORE.INTRA.SOLV.lig_0>
-39.3257

>  <SCORE.INTRA.VDW>
-0.0756835

>  <SCORE.INTRA.VDW.0>
-0.734044

>  <SCORE.INTRA.norm>
-0.190541

>  <SCORE.RESTR>
0

>  <SCORE.RESTR.CAVITY>
0

>  <SCORE.RESTR.norm>
0

>  <SCORE.SYSTEM>
0

>  <SCORE.SYSTEM.CONST>
0

>  <SCORE.SYSTEM.DIHEDRAL>
0

>  <SCORE.SYSTEM.SOLV>
0

>  <SCORE.SYSTEM.norm>
0

>  <SCORE.heavy>
10

>  <SCORE.norm>
-0.744875

>  <RMSD>
5.235

$$$$
ligand
 OpenBabel11021811473D
libRbt.so/2013.1/901 2013/11/27
 10  9  0  0  0  0  0  0  0  0999 V2000
   26.2674   14.7124   21.5101 N   0  0  0  0  0  0  0  0  0  0  0  0
   27.4465   15.4901   21.1779 C   0  0  2  0  0  0  0  0  0  0  0  0
   27.7452   15.3975   19.7054 C   0  0  0  0  0  0  0  0  0  0  0  0
   28.5797   16.1906   19.2023 O   0  0  0  0  0  0  0  0  0  0  0  0
   28.6309   14.9888   21.9930 C   0  0  0  0  0  0  0  0  0  0  0  0
   29.7622   15.8090   21.7121 O   0  0  0  0  0  0  0  0  0  0  0  0
   30.8679   15.2914   22.4518 C   0  0  0  0  0  0  0  0  0  0  0  0
   32.0966   16.1411   22.1347 C   0  0  0  0  0  0  0  0  0  0  0  0
   31.8942   17.5027   22.5986 N   0  0  0  0  0  0  0  0  0  0  0  0
   27.5468   14.2852   19.1766 O   0  0  0  0  0  0  0  0  0  0  0  0
  2  1  1  6  0  0  0
  2  5  1  0  0  0  0
  2  3  1  0  0  0  0
  3  4  1  0  0  0  0
  3 10  1  0  0  0  0
  5  6  1  0  0  0  0
  6  7  1  0  0  0  0
  7  8  1  0  0  0  0
  8  9  1  0  0  0  0
M  END
>  <CHROM.1>
-176.78855712,167.43048994,-178.05437370,178.67404824,64.06775408,29.08591891
15.57638811,21.12948753,2.74685498,-0.40659783,-1.39840199

>  <Name>
ligand

>  <RI>
0

>  <Rbt.Current_Directory>
/home/itssahil/PROJECTS/Mol_Feturizer/New_Systems/rnas/3DJ0

>  <Rbt.Executable>
rbdock ($Id: //depot/dev/client3/rdock/2013.1/src/exe/rbdock.cxx#4 $)

>  <Rbt.Library>
libRbt.so (2013.1, Build901 2013/11/27)

>  <Rbt.Parameter_File>
/export/apps/rDock/src/rDock_2013.1_src/data/scripts/dock_solv.prm

>  <Rbt.Receptor>
prm/pocket_docking_4.prm

>  <SCORE>
-7.47101

>  <SCORE.INTER>
-5.57158

>  <SCORE.INTER.CONST>
1

>  <SCORE.INTER.POLAR>
0

>  <SCORE.INTER.ROT>
5

>  <SCORE.INTER.SOLV>
20.464

>  <SCORE.INTER.VDW>
-17.4691

>  <SCORE.INTER.norm>
-0.557158

>  <SCORE.INTRA>
-1.89942

>  <SCORE.INTRA.DIHEDRAL>
-3.56862

>  <SCORE.INTRA.DIHEDRAL.0>
6.00299

>  <SCORE.INTRA.POLAR>
0

>  <SCORE.INTRA.POLAR.0>
0

>  <SCORE.INTRA.REPUL>
0

>  <SCORE.INTRA.REPUL.0>
0

>  <SCORE.INTRA.SOLV>
-0.115422

>  <SCORE.INTRA.SOLV.lig_0>
-39.3257

>  <SCORE.INTRA.VDW>
-0.0574018

>  <SCORE.INTRA.VDW.0>
-0.734044

>  <SCORE.INTRA.norm>
-0.189942

>  <SCORE.RESTR>
0

>  <SCORE.RESTR.CAVITY>
0

>  <SCORE.RESTR.norm>
0

>  <SCORE.SYSTEM>
0

>  <SCORE.SYSTEM.CONST>
0

>  <SCORE.SYSTEM.DIHEDRAL>
0

>  <SCORE.SYSTEM.SOLV>
0

>  <SCORE.SYSTEM.norm>
0

>  <SCORE.heavy>
10

>  <SCORE.norm>
-0.747101

>  <RMSD>
5.235

$$$$
ligand
 OpenBabel11021811473D
libRbt.so/2013.1/901 2013/11/27
 10  9  0  0  0  0  0  0  0  0999 V2000
   27.3641   14.1636   19.0850 N   0  0  0  0  0  0  0  0  0  0  0  0
   28.0970   14.4266   20.3094 C   0  0  2  0  0  0  0  0  0  0  0  0
   27.1788   14.9717   21.3704 C   0  0  0  0  0  0  0  0  0  0  0  0
   25.9385   14.9520   21.1709 O   0  0  0  0  0  0  0  0  0  0  0  0
   29.2234   15.4109   20.0246 C   0  0  0  0  0  0  0  0  0  0  0  0
   30.0316   15.5347   21.1921 O   0  0  0  0  0  0  0  0  0  0  0  0
   31.1574   16.3458   20.8566 C   0  0  0  0  0  0  0  0  0  0  0  0
   32.0016   16.5380   22.1146 C   0  0  0  0  0  0  0  0  0  0  0  0
   31.2525   17.2878   23.1078 N   0  0  0  0  0  0  0  0  0  0  0  0
   27.6217   14.9571   22.5365 O   0  0  0  0  0  0  0  0  0  0  0  0
  2  1  1  6  0  0  0
  2  5  1  0  0  0  0
  2  3  1  0  0  0  0
  3  4  1  0  0  0  0
  3 10  1  0  0  0  0
  5  6  1  0  0  0  0
  6  7  1  0  0  0  0
  7  8  1  0  0  0  0
  8  9  1  0  0  0  0
M  END
>  <CHROM.1>
-173.01891932,10.02418924,173.83256281,177.56221171,-64.64912335,28.95932234
15.45658123,21.20027283,-2.74329009,0.30747847,1.23167132

>  <Name>
ligand

>  <RI>
0

>  <Rbt.Current_Directory>
/home/itssahil/PROJECTS/Mol_Feturizer/New_Systems/rnas/3DJ0

>  <Rbt.Executable>
rbdock ($Id: //depot/dev/client3/rdock/2013.1/src/exe/rbdock.cxx#4 $)

>  <Rbt.Library>
libRbt.so (2013.1, Build901 2013/11/27)

>  <Rbt.Parameter_File>
/export/apps/rDock/src/rDock_2013.1_src/data/scripts/dock_solv.prm

>  <Rbt.Receptor>
prm/pocket_docking_5.prm

>  <SCORE>
-6.22226

>  <SCORE.INTER>
-4.69026

>  <SCORE.INTER.CONST>
1

>  <SCORE.INTER.POLAR>
0

>  <SCORE.INTER.ROT>
5

>  <SCORE.INTER.SOLV>
19.4973

>  <SCORE.INTER.VDW>
-16.5593

>  <SCORE.INTER.norm>
-0.469026

>  <SCORE.INTRA>
-1.532

>  <SCORE.INTRA.DIHEDRAL>
-2.72423

>  <SCORE.INTRA.DIHEDRAL.0>
6.00299

>  <SCORE.INTRA.POLAR>
0

>  <SCORE.INTRA.POLAR.0>
0

>  <SCORE.INTRA.REPUL>
0

>  <SCORE.INTRA.REPUL.0>
0

>  <SCORE.INTRA.SOLV>
-0.201417

>  <SCORE.INTRA.SOLV.lig_0>
-39.3257

>  <SCORE.INTRA.VDW>
-0.0691776

>  <SCORE.INTRA.VDW.0>
-0.734044

>  <SCORE.INTRA.norm>
-0.1532

>  <SCORE.RESTR>
0

>  <SCORE.RESTR.CAVITY>
0

>  <SCORE.RESTR.norm>
0

>  <SCORE.SYSTEM>
0

>  <SCORE.SYSTEM.CONST>
0

>  <SCORE.SYSTEM.DIHEDRAL>
0

>  <SCORE.SYSTEM.SOLV>
0

>  <SCORE.SYSTEM.norm>
0

>  <SCORE.heavy>
10

>  <SCORE.norm>
-0.622226

>  <RMSD>
5.235

$$$$
ligand
 OpenBabel11021811473D
libRbt.so/2013.1/901 2013/11/27
 10  9  0  0  0  0  0  0  0  0999 V2000
   29.2548   14.7258   19.8697 N   0  0  0  0  0  0  0  0  0  0  0  0
   28.7317   14.9302   21.2076 C   0  0  2  0  0  0  0  0  0  0  0  0
   27.2367   15.1031   21.1718 C   0  0  0  0  0  0  0  0  0  0  0  0
   26.6772   15.3380   20.0717 O   0  0  0  0  0  0  0  0  0  0  0  0
   29.3932   16.1525   21.8295 C   0  0  0  0  0  0  0  0  0  0  0  0
   30.8026   15.9431   21.8671 O   0  0  0  0  0  0  0  0  0  0  0  0
   31.3964   17.0930   22.4696 C   0  0  0  0  0  0  0  0  0  0  0  0
   32.9094   16.8884   22.5046 C   0  0  0  0  0  0  0  0  0  0  0  0
   33.4310   16.7941   21.1522 N   0  0  0  0  0  0  0  0  0  0  0  0
   26.5999   14.5434   22.0868 O   0  0  0  0  0  0  0  0  0  0  0  0
  2  1  1  6  0  0  0
  2  5  1  0  0  0  0
  2  3  1  0  0  0  0
  3  4  1  0  0  0  0
  3 10  1  0  0  0  0
  5  6  1  0  0  0  0
  6  7  1  0  0  0  0
  7  8  1  0  0  0  0
  8  9  1  0  0  0  0
M  END
>  <CHROM.1>
-58.96031528,-14.88794348,-179.23130285,-179.46718063,63.09119887,29.59961634
15.74187064,21.42326353,-2.89114820,0.26910958,1.28017271

>  <Name>
ligand

>  <RI>
0

>  <Rbt.Current_Directory>
/home/itssahil/PROJECTS/Mol_Feturizer/New_Systems/rnas/3DJ0

>  <Rbt.Executable>
rbdock ($Id: //depot/dev/client3/rdock/2013.1/src/exe/rbdock.cxx#4 $)

>  <Rbt.Library>
libRbt.so (2013.1, Build901 2013/11/27)

>  <Rbt.Parameter_File>
/export/apps/rDock/src/rDock_2013.1_src/data/scripts/dock_solv.prm

>  <Rbt.Receptor>
prm/pocket_docking_2.prm

>  <SCORE>
-7.66514

>  <SCORE.INTER>
-5.99195

>  <SCORE.INTER.CONST>
1

>  <SCORE.INTER.POLAR>
0

>  <SCORE.INTER.ROT>
5

>  <SCORE.INTER.SOLV>
17.804

>  <SCORE.INTER.VDW>
-16.8626

>  <SCORE.INTER.norm>
-0.599195

>  <SCORE.INTRA>
-1.67319

>  <SCORE.INTRA.DIHEDRAL>
-3.49052

>  <SCORE.INTRA.DIHEDRAL.0>
6.00299

>  <SCORE.INTRA.POLAR>
0

>  <SCORE.INTRA.POLAR.0>
0

>  <SCORE.INTRA.REPUL>
0

>  <SCORE.INTRA.REPUL.0>
0

>  <SCORE.INTRA.SOLV>
0.388059

>  <SCORE.INTRA.SOLV.lig_0>
-39.3257

>  <SCORE.INTRA.VDW>
-0.121957

>  <SCORE.INTRA.VDW.0>
-0.734044

>  <SCORE.INTRA.norm>
-0.167319

>  <SCORE.RESTR>
0

>  <SCORE.RESTR.CAVITY>
0

>  <SCORE.RESTR.norm>
0

>  <SCORE.SYSTEM>
0

>  <SCORE.SYSTEM.CONST>
0

>  <SCORE.SYSTEM.DIHEDRAL>
0

>  <SCORE.SYSTEM.SOLV>
0

>  <SCORE.SYSTEM.norm>
0

>  <SCORE.heavy>
10

>  <SCORE.norm>
-0.766514

>  <RMSD>
5.236

$$$$
ligand
 OpenBabel11021811473D
libRbt.so/2013.1/901 2013/11/27
 10  9  0  0  0  0  0  0  0  0999 V2000
   27.5202   14.1978   19.2438 N   0  0  0  0  0  0  0  0  0  0  0  0
   28.1638   14.5679   20.4906 C   0  0  2  0  0  0  0  0  0  0  0  0
   27.1390   14.9703   21.5172 C   0  0  0  0  0  0  0  0  0  0  0  0
   25.9225   14.7725   21.2733 O   0  0  0  0  0  0  0  0  0  0  0  0
   29.1398   15.7090   20.2383 C   0  0  0  0  0  0  0  0  0  0  0  0
   29.8813   15.9517   21.4312 O   0  0  0  0  0  0  0  0  0  0  0  0
   30.7006   17.0990   21.2070 C   0  0  0  0  0  0  0  0  0  0  0  0
   31.4921   17.3794   22.4826 C   0  0  0  0  0  0  0  0  0  0  0  0
   32.4066   16.2836   22.7527 N   0  0  0  0  0  0  0  0  0  0  0  0
   27.5374   15.0151   22.6985 O   0  0  0  0  0  0  0  0  0  0  0  0
  2  1  1  6  0  0  0
  2  5  1  0  0  0  0
  2  3  1  0  0  0  0
  3  4  1  0  0  0  0
  3 10  1  0  0  0  0
  5  6  1  0  0  0  0
  6  7  1  0  0  0  0
  7  8  1  0  0  0  0
  8  9  1  0  0  0  0
M  END
>  <CHROM.1>
-172.96605068,9.63479794,-174.89721306,179.47485983,64.64788708,28.95909429
15.59196391,21.35741265,-2.80805711,0.37942252,1.36871703

>  <Name>
ligand

>  <RI>
0

>  <Rbt.Current_Directory>
/home/itssahil/PROJECTS/Mol_Feturizer/New_Systems/rnas/3DJ0

>  <Rbt.Executable>
rbdock ($Id: //depot/dev/client3/rdock/2013.1/src/exe/rbdock.cxx#4 $)

>  <Rbt.Library>
libRbt.so (2013.1, Build901 2013/11/27)

>  <Rbt.Parameter_File>
/export/apps/rDock/src/rDock_2013.1_src/data/scripts/dock_solv.prm

>  <Rbt.Receptor>
prm/pocket_docking_6.prm

>  <SCORE>
-6.65746

>  <SCORE.INTER>
-5.10386

>  <SCORE.INTER.CONST>
1

>  <SCORE.INTER.POLAR>
0

>  <SCORE.INTER.ROT>
5

>  <SCORE.INTER.SOLV>
20.3362

>  <SCORE.INTER.VDW>
-17.1146

>  <SCORE.INTER.norm>
-0.510386

>  <SCORE.INTRA>
-1.5536

>  <SCORE.INTRA.DIHEDRAL>
-2.80896

>  <SCORE.INTRA.DIHEDRAL.0>
6.00299

>  <SCORE.INTRA.POLAR>
0

>  <SCORE.INTRA.POLAR.0>
0

>  <SCORE.INTRA.REPUL>
0

>  <SCORE.INTRA.REPUL.0>
0

>  <SCORE.INTRA.SOLV>
-0.202719

>  <SCORE.INTRA.SOLV.lig_0>
-39.3257

>  <SCORE.INTRA.VDW>
-0.0477585

>  <SCORE.INTRA.VDW.0>
-0.734044

>  <SCORE.INTRA.norm>
-0.15536

>  <SCORE.RESTR>
0

>  <SCORE.RESTR.CAVITY>
0

>  <SCORE.RESTR.norm>
0

>  <SCORE.SYSTEM>
0

>  <SCORE.SYSTEM.CONST>
0

>  <SCORE.SYSTEM.DIHEDRAL>
0

>  <SCORE.SYSTEM.SOLV>
0

>  <SCORE.SYSTEM.norm>
0

>  <SCORE.heavy>
10

>  <SCORE.norm>
-0.665746

>  <RMSD>
5.237

$$$$
ligand
 OpenBabel11021811473D
libRbt.so/2013.1/901 2013/11/27
 10  9  0  0  0  0  0  0  0  0999 V2000
   27.4862   14.2797   19.1756 N   0  0  0  0  0  0  0  0  0  0  0  0
   28.1467   14.6040   20.4262 C   0  0  2  0  0  0  0  0  0  0  0  0
   27.1368   14.9806   21.4771 C   0  0  0  0  0  0  0  0  0  0  0  0
   25.9153   14.8139   21.2352 O   0  0  0  0  0  0  0  0  0  0  0  0
   29.1290   15.7451   20.1999 C   0  0  0  0  0  0  0  0  0  0  0  0
   29.8661   15.9619   21.4005 O   0  0  0  0  0  0  0  0  0  0  0  0
   30.6932   17.1082   21.2009 C   0  0  0  0  0  0  0  0  0  0  0  0
   31.5016   17.3435   22.4750 C   0  0  0  0  0  0  0  0  0  0  0  0
   32.4224   16.2412   22.6917 N   0  0  0  0  0  0  0  0  0  0  0  0
   27.5449   14.9694   22.6559 O   0  0  0  0  0  0  0  0  0  0  0  0
  2  1  1  6  0  0  0
  2  5  1  0  0  0  0
  2  3  1  0  0  0  0
  3  4  1  0  0  0  0
  3 10  1  0  0  0  0
  5  6  1  0  0  0  0
  6  7  1  0  0  0  0
  7  8  1  0  0  0  0
  8  9  1  0  0  0  0
M  END
>  <CHROM.1>
-174.18385987,8.86426033,-174.98917558,-179.36450899,65.43934194,28.95308487
15.60159089,21.31800152,-2.81899371,0.37779421,1.40447464

>  <Name>
ligand

>  <RI>
0

>  <Rbt.Current_Directory>
/home/itssahil/PROJECTS/Mol_Feturizer/New_Systems/rnas/3DJ0

>  <Rbt.Executable>
rbdock ($Id: //depot/dev/client3/rdock/2013.1/src/exe/rbdock.cxx#4 $)

>  <Rbt.Library>
libRbt.so (2013.1, Build901 2013/11/27)

>  <Rbt.Parameter_File>
/export/apps/rDock/src/rDock_2013.1_src/data/scripts/dock_solv.prm

>  <Rbt.Receptor>
prm/pocket_docking_4.prm

>  <SCORE>
-6.63658

>  <SCORE.INTER>
-5.07577

>  <SCORE.INTER.CONST>
1

>  <SCORE.INTER.POLAR>
0

>  <SCORE.INTER.ROT>
5

>  <SCORE.INTER.SOLV>
20.2755

>  <SCORE.INTER.VDW>
-17.0757

>  <SCORE.INTER.norm>
-0.507577

>  <SCORE.INTRA>
-1.56082

>  <SCORE.INTRA.DIHEDRAL>
-2.84169

>  <SCORE.INTRA.DIHEDRAL.0>
6.00299

>  <SCORE.INTRA.POLAR>
0

>  <SCORE.INTRA.POLAR.0>
0

>  <SCORE.INTRA.REPUL>
0

>  <SCORE.INTRA.REPUL.0>
0

>  <SCORE.INTRA.SOLV>
-0.201812

>  <SCORE.INTRA.SOLV.lig_0>
-39.3257

>  <SCORE.INTRA.VDW>
-0.0390643

>  <SCORE.INTRA.VDW.0>
-0.734044

>  <SCORE.INTRA.norm>
-0.156082

>  <SCORE.RESTR>
0

>  <SCORE.RESTR.CAVITY>
0

>  <SCORE.RESTR.norm>
0

>  <SCORE.SYSTEM>
0

>  <SCORE.SYSTEM.CONST>
0

>  <SCORE.SYSTEM.DIHEDRAL>
0

>  <SCORE.SYSTEM.SOLV>
0

>  <SCORE.SYSTEM.norm>
0

>  <SCORE.heavy>
10

>  <SCORE.norm>
-0.663658

>  <RMSD>
5.238

$$$$
ligand
 OpenBabel11021811473D
libRbt.so/2013.1/901 2013/11/27
 10  9  0  0  0  0  0  0  0  0999 V2000
   26.3442   14.6962   21.5874 N   0  0  0  0  0  0  0  0  0  0  0  0
   27.5011   15.4864   21.2098 C   0  0  2  0  0  0  0  0  0  0  0  0
   27.7398   15.4014   19.7259 C   0  0  0  0  0  0  0  0  0  0  0  0
   28.5758   16.1769   19.1983 O   0  0  0  0  0  0  0  0  0  0  0  0
   28.7227   14.9940   21.9736 C   0  0  0  0  0  0  0  0  0  0  0  0
   29.8224   15.8538   21.6853 O   0  0  0  0  0  0  0  0  0  0  0  0
   30.9808   15.3014   22.3103 C   0  0  0  0  0  0  0  0  0  0  0  0
   32.1681   16.2141   22.0112 C   0  0  0  0  0  0  0  0  0  0  0  0
   31.9466   17.5267   22.5925 N   0  0  0  0  0  0  0  0  0  0  0  0
   27.4904   14.3007   19.1945 O   0  0  0  0  0  0  0  0  0  0  0  0
  2  1  1  6  0  0  0
  2  5  1  0  0  0  0
  2  3  1  0  0  0  0
  3  4  1  0  0  0  0
  3 10  1  0  0  0  0
  5  6  1  0  0  0  0
  6  7  1  0  0  0  0
  7  8  1  0  0  0  0
  8  9  1  0  0  0  0
M  END
>  <CHROM.1>
-174.80397041,169.59830464,-174.65779965,-179.92853098,62.92442948,29.12977071
15.59091792,21.11202318,2.76863764,-0.40540640,-1.40392492

>  <Name>
ligand

>  <RI>
0

>  <Rbt.Current_Directory>
/home/itssahil/PROJECTS/Mol_Feturizer/New_Systems/rnas/3DJ0

>  <Rbt.Executable>
rbdock ($Id: //depot/dev/client3/rdock/2013.1/src/exe/rbdock.cxx#4 $)

>  <Rbt.Library>
libRbt.so (2013.1, Build901 2013/11/27)

>  <Rbt.Parameter_File>
/export/apps/rDock/src/rDock_2013.1_src/data/scripts/dock_solv.prm

>  <Rbt.Receptor>
prm/pocket_docking_6.prm

>  <SCORE>
-7.38972

>  <SCORE.INTER>
-5.55166

>  <SCORE.INTER.CONST>
1

>  <SCORE.INTER.POLAR>
0

>  <SCORE.INTER.ROT>
5

>  <SCORE.INTER.SOLV>
20.4348

>  <SCORE.INTER.VDW>
-17.446

>  <SCORE.INTER.norm>
-0.555166

>  <SCORE.INTRA>
-1.83807

>  <SCORE.INTRA.DIHEDRAL>
-3.46782

>  <SCORE.INTRA.DIHEDRAL.0>
6.00299

>  <SCORE.INTRA.POLAR>
0

>  <SCORE.INTRA.POLAR.0>
0

>  <SCORE.INTRA.REPUL>
0

>  <SCORE.INTRA.REPUL.0>
0

>  <SCORE.INTRA.SOLV>
-0.0870904

>  <SCORE.INTRA.SOLV.lig_0>
-39.3257

>  <SCORE.INTRA.VDW>
-0.0606115

>  <SCORE.INTRA.VDW.0>
-0.734044

>  <SCORE.INTRA.norm>
-0.183807

>  <SCORE.RESTR>
0

>  <SCORE.RESTR.CAVITY>
0

>  <SCORE.RESTR.norm>
0

>  <SCORE.SYSTEM>
0

>  <SCORE.SYSTEM.CONST>
0

>  <SCORE.SYSTEM.DIHEDRAL>
0

>  <SCORE.SYSTEM.SOLV>
0

>  <SCORE.SYSTEM.norm>
0

>  <SCORE.heavy>
10

>  <SCORE.norm>
-0.738972

>  <RMSD>
5.238

$$$$
ligand
 OpenBabel11021811473D
libRbt.so/2013.1/901 2013/11/27
 10  9  0  0  0  0  0  0  0  0999 V2000
   28.7547   15.5262   22.9234 N   0  0  0  0  0  0  0  0  0  0  0  0
   28.4781   15.8847   21.5448 C   0  0  2  0  0  0  0  0  0  0  0  0
   27.1816   15.2717   21.0874 C   0  0  0  0  0  0  0  0  0  0  0  0
   26.9655   15.1529   19.8555 O   0  0  0  0  0  0  0  0  0  0  0  0
   29.6269   15.4204   20.6598 C   0  0  0  0  0  0  0  0  0  0  0  0
   30.7560   16.2578   20.8954 O   0  0  0  0  0  0  0  0  0  0  0  0
   31.4511   15.7402   22.0296 C   0  0  0  0  0  0  0  0  0  0  0  0
   32.5972   16.6923   22.3649 C   0  0  0  0  0  0  0  0  0  0  0  0
   33.4857   16.8242   21.2234 N   0  0  0  0  0  0  0  0  0  0  0  0
   26.6294   14.4963   21.8936 O   0  0  0  0  0  0  0  0  0  0  0  0
  2  1  1  1  0  0  0
  2  5  1  0  0  0  0
  2  3  1  0  0  0  0
  3  4  1  0  0  0  0
  3 10  1  0  0  0  0
  5  6  1  0  0  0  0
  6  7  1  0  0  0  0
  7  8  1  0  0  0  0
  8  9  1  0  0  0  0
M  END
>  <CHROM.1>
-72.37963952,-160.20694046,84.79096840,-175.38072822,-58.40627397,29.55623676
15.71120134,21.42618906,3.06680064,-0.27568689,-1.48880074

>  <Name>
ligand

>  <RI>
0

>  <Rbt.Current_Directory>
/home/itssahil/PROJECTS/Mol_Feturizer/New_Systems/rnas/3DJ0

>  <Rbt.Executable>
rbdock ($Id: //depot/dev/client3/rdock/2013.1/src/exe/rbdock.cxx#4 $)

>  <Rbt.Library>
libRbt.so (2013.1, Build901 2013/11/27)

>  <Rbt.Parameter_File>
/export/apps/rDock/src/rDock_2013.1_src/data/scripts/dock_solv.prm

>  <Rbt.Receptor>
prm/pocket_docking_2.prm

>  <SCORE>
-3.73449

>  <SCORE.INTER>
-5.80113

>  <SCORE.INTER.CONST>
1

>  <SCORE.INTER.POLAR>
0

>  <SCORE.INTER.ROT>
5

>  <SCORE.INTER.SOLV>
19.3139

>  <SCORE.INTER.VDW>
-17.2387

>  <SCORE.INTER.norm>
-0.580113

>  <SCORE.INTRA>
2.06664

>  <SCORE.INTRA.DIHEDRAL>
-0.689303

>  <SCORE.INTRA.DIHEDRAL.0>
6.00299

>  <SCORE.INTRA.POLAR>
0

>  <SCORE.INTRA.POLAR.0>
0

>  <SCORE.INTRA.REPUL>
0

>  <SCORE.INTRA.REPUL.0>
0

>  <SCORE.INTRA.SOLV>
1.7258

>  <SCORE.INTRA.SOLV.lig_0>
-39.3257

>  <SCORE.INTRA.VDW>
1.54839

>  <SCORE.INTRA.VDW.0>
-0.734044

>  <SCORE.INTRA.norm>
0.206664

>  <SCORE.RESTR>
0

>  <SCORE.RESTR.CAVITY>
0

>  <SCORE.RESTR.norm>
0

>  <SCORE.SYSTEM>
0

>  <SCORE.SYSTEM.CONST>
0

>  <SCORE.SYSTEM.DIHEDRAL>
0

>  <SCORE.SYSTEM.SOLV>
0

>  <SCORE.SYSTEM.norm>
0

>  <SCORE.heavy>
10

>  <SCORE.norm>
-0.373449

>  <RMSD>
5.244

$$$$
ligand
 OpenBabel11021811473D
libRbt.so/2013.1/901 2013/11/27
 10  9  0  0  0  0  0  0  0  0999 V2000
   26.2620   14.7143   21.5129 N   0  0  0  0  0  0  0  0  0  0  0  0
   27.4448   15.4797   21.1658 C   0  0  2  0  0  0  0  0  0  0  0  0
   27.7377   15.3646   19.6937 C   0  0  0  0  0  0  0  0  0  0  0  0
   28.5766   16.1441   19.1770 O   0  0  0  0  0  0  0  0  0  0  0  0
   28.6289   14.9823   21.9837 C   0  0  0  0  0  0  0  0  0  0  0  0
   29.7615   15.7983   21.6959 O   0  0  0  0  0  0  0  0  0  0  0  0
   30.8593   15.3031   22.4623 C   0  0  0  0  0  0  0  0  0  0  0  0
   32.0854   16.1588   22.1519 C   0  0  0  0  0  0  0  0  0  0  0  0
   31.8856   17.5120   22.6409 N   0  0  0  0  0  0  0  0  0  0  0  0
   27.5287   14.2468   19.1808 O   0  0  0  0  0  0  0  0  0  0  0  0
  2  1  1  6  0  0  0
  2  5  1  0  0  0  0
  2  3  1  0  0  0  0
  3  4  1  0  0  0  0
  3 10  1  0  0  0  0
  5  6  1  0  0  0  0
  6  7  1  0  0  0  0
  7  8  1  0  0  0  0
  8  9  1  0  0  0  0
M  END
>  <CHROM.1>
-176.30191946,167.52050112,-179.36955958,179.36562032,66.47775142,29.07916542
15.56516132,21.12937145,2.73337053,-0.40695462,-1.41980036

>  <Name>
ligand

>  <RI>
0

>  <Rbt.Current_Directory>
/home/itssahil/PROJECTS/Mol_Feturizer/New_Systems/rnas/3DJ0

>  <Rbt.Executable>
rbdock ($Id: //depot/dev/client3/rdock/2013.1/src/exe/rbdock.cxx#4 $)

>  <Rbt.Library>
libRbt.so (2013.1, Build901 2013/11/27)

>  <Rbt.Parameter_File>
/export/apps/rDock/src/rDock_2013.1_src/data/scripts/dock_solv.prm

>  <Rbt.Receptor>
prm/pocket_docking_3.prm

>  <SCORE>
-7.49101

>  <SCORE.INTER>
-5.60388

>  <SCORE.INTER.CONST>
1

>  <SCORE.INTER.POLAR>
0

>  <SCORE.INTER.ROT>
5

>  <SCORE.INTER.SOLV>
20.5274

>  <SCORE.INTER.VDW>
-17.5117

>  <SCORE.INTER.norm>
-0.560388

>  <SCORE.INTRA>
-1.88713

>  <SCORE.INTRA.DIHEDRAL>
-3.48657

>  <SCORE.INTRA.DIHEDRAL.0>
6.00299

>  <SCORE.INTRA.POLAR>
0

>  <SCORE.INTRA.POLAR.0>
0

>  <SCORE.INTRA.REPUL>
0

>  <SCORE.INTRA.REPUL.0>
0

>  <SCORE.INTRA.SOLV>
-0.15105

>  <SCORE.INTRA.SOLV.lig_0>
-39.3257

>  <SCORE.INTRA.VDW>
-0.0683195

>  <SCORE.INTRA.VDW.0>
-0.734044

>  <SCORE.INTRA.norm>
-0.188713

>  <SCORE.RESTR>
0

>  <SCORE.RESTR.CAVITY>
0

>  <SCORE.RESTR.norm>
0

>  <SCORE.SYSTEM>
0

>  <SCORE.SYSTEM.CONST>
0

>  <SCORE.SYSTEM.DIHEDRAL>
0

>  <SCORE.SYSTEM.SOLV>
0

>  <SCORE.SYSTEM.norm>
0

>  <SCORE.heavy>
10

>  <SCORE.norm>
-0.749101

>  <RMSD>
5.248

$$$$
ligand
 OpenBabel11021811473D
libRbt.so/2013.1/901 2013/11/27
 10  9  0  0  0  0  0  0  0  0999 V2000
   29.1769   14.8257   19.8375 N   0  0  0  0  0  0  0  0  0  0  0  0
   28.6923   14.9693   21.1976 C   0  0  2  0  0  0  0  0  0  0  0  0
   27.1964   15.1368   21.2126 C   0  0  0  0  0  0  0  0  0  0  0  0
   26.6081   15.4499   20.1476 O   0  0  0  0  0  0  0  0  0  0  0  0
   29.3677   16.1664   21.8528 C   0  0  0  0  0  0  0  0  0  0  0  0
   30.7785   15.9638   21.8367 O   0  0  0  0  0  0  0  0  0  0  0  0
   31.3858   17.0889   22.4717 C   0  0  0  0  0  0  0  0  0  0  0  0
   32.8988   16.8819   22.4691 C   0  0  0  0  0  0  0  0  0  0  0  0
   33.4044   16.9173   21.1078 N   0  0  0  0  0  0  0  0  0  0  0  0
   26.5850   14.5075   22.0993 O   0  0  0  0  0  0  0  0  0  0  0  0
  2  1  1  6  0  0  0
  2  5  1  0  0  0  0
  2  3  1  0  0  0  0
  3  4  1  0  0  0  0
  3 10  1  0  0  0  0
  5  6  1  0  0  0  0
  6  7  1  0  0  0  0
  7  8  1  0  0  0  0
  8  9  1  0  0  0  0
M  END
>  <CHROM.1>
-58.78066375,-16.66549803,-179.21727584,179.67718845,66.38372355,29.56572060
15.78118990,21.42405048,-2.92145951,0.28610712,1.34546240

>  <Name>
ligand

>  <RI>
0

>  <Rbt.Current_Directory>
/home/itssahil/PROJECTS/Mol_Feturizer/New_Systems/rnas/3DJ0

>  <Rbt.Executable>
rbdock ($Id: //depot/dev/client3/rdock/2013.1/src/exe/rbdock.cxx#4 $)

>  <Rbt.Library>
libRbt.so (2013.1, Build901 2013/11/27)

>  <Rbt.Parameter_File>
/export/apps/rDock/src/rDock_2013.1_src/data/scripts/dock_solv.prm

>  <Rbt.Receptor>
prm/pocket_docking_3.prm

>  <SCORE>
-7.69445

>  <SCORE.INTER>
-6.02164

>  <SCORE.INTER.CONST>
1

>  <SCORE.INTER.POLAR>
0

>  <SCORE.INTER.ROT>
5

>  <SCORE.INTER.SOLV>
17.4966

>  <SCORE.INTER.VDW>
-16.78

>  <SCORE.INTER.norm>
-0.602164

>  <SCORE.INTRA>
-1.67281

>  <SCORE.INTRA.DIHEDRAL>
-3.40976

>  <SCORE.INTRA.DIHEDRAL.0>
6.00299

>  <SCORE.INTRA.POLAR>
0

>  <SCORE.INTRA.POLAR.0>
0

>  <SCORE.INTRA.REPUL>
0

>  <SCORE.INTRA.REPUL.0>
0

>  <SCORE.INTRA.SOLV>
0.344506

>  <SCORE.INTRA.SOLV.lig_0>
-39.3257

>  <SCORE.INTRA.VDW>
-0.140182

>  <SCORE.INTRA.VDW.0>
-0.734044

>  <SCORE.INTRA.norm>
-0.167281

>  <SCORE.RESTR>
0

>  <SCORE.RESTR.CAVITY>
0

>  <SCORE.RESTR.norm>
0

>  <SCORE.SYSTEM>
0

>  <SCORE.SYSTEM.CONST>
0

>  <SCORE.SYSTEM.DIHEDRAL>
0

>  <SCORE.SYSTEM.SOLV>
0

>  <SCORE.SYSTEM.norm>
0

>  <SCORE.heavy>
10

>  <SCORE.norm>
-0.769445

>  <RMSD>
5.251

$$$$
ligand
 OpenBabel11021811473D
libRbt.so/2013.1/901 2013/11/27
 10  9  0  0  0  0  0  0  0  0999 V2000
   26.1483   14.8559   21.1833 N   0  0  0  0  0  0  0  0  0  0  0  0
   27.4224   15.4693   20.8579 C   0  0  2  0  0  0  0  0  0  0  0  0
   27.9528   14.9314   19.5559 C   0  0  0  0  0  0  0  0  0  0  0  0
   27.4446   13.8873   19.0763 O   0  0  0  0  0  0  0  0  0  0  0  0
   28.4134   15.2079   21.9840 C   0  0  0  0  0  0  0  0  0  0  0  0
   29.6157   15.9242   21.7138 O   0  0  0  0  0  0  0  0  0  0  0  0
   30.5487   15.6119   22.7480 C   0  0  0  0  0  0  0  0  0  0  0  0
   31.8340   16.3940   22.4862 C   0  0  0  0  0  0  0  0  0  0  0  0
   32.3874   16.0256   21.1947 N   0  0  0  0  0  0  0  0  0  0  0  0
   28.4933   15.7641   18.8004 O   0  0  0  0  0  0  0  0  0  0  0  0
  2  1  1  1  0  0  0
  2  5  1  0  0  0  0
  2  3  1  0  0  0  0
  3  4  1  0  0  0  0
  3 10  1  0  0  0  0
  5  6  1  0  0  0  0
  6  7  1  0  0  0  0
  7  8  1  0  0  0  0
  8  9  1  0  0  0  0
M  END
>  <CHROM.1>
-174.36506576,-14.75901628,-177.25261762,-178.92173515,-59.89277324,29.02383786
15.40119242,20.92548063,2.65070019,-0.23847206,-1.68398365

>  <Name>
ligand

>  <RI>
0

>  <Rbt.Current_Directory>
/home/itssahil/PROJECTS/Mol_Feturizer/New_Systems/rnas/3DJ0

>  <Rbt.Executable>
rbdock ($Id: //depot/dev/client3/rdock/2013.1/src/exe/rbdock.cxx#4 $)

>  <Rbt.Library>
libRbt.so (2013.1, Build901 2013/11/27)

>  <Rbt.Parameter_File>
/export/apps/rDock/src/rDock_2013.1_src/data/scripts/dock_solv.prm

>  <Rbt.Receptor>
prm/pocket_docking_4.prm

>  <SCORE>
-7.8532

>  <SCORE.INTER>
-5.84587

>  <SCORE.INTER.CONST>
1

>  <SCORE.INTER.POLAR>
0

>  <SCORE.INTER.ROT>
5

>  <SCORE.INTER.SOLV>
21.0831

>  <SCORE.INTER.VDW>
-17.8583

>  <SCORE.INTER.norm>
-0.584587

>  <SCORE.INTRA>
-2.01133

>  <SCORE.INTRA.DIHEDRAL>
-3.37256

>  <SCORE.INTRA.DIHEDRAL.0>
6.00299

>  <SCORE.INTRA.POLAR>
0

>  <SCORE.INTRA.POLAR.0>
0

>  <SCORE.INTRA.REPUL>
0

>  <SCORE.INTRA.REPUL.0>
0

>  <SCORE.INTRA.SOLV>
-0.174878

>  <SCORE.INTRA.SOLV.lig_0>
-39.3257

>  <SCORE.INTRA.VDW>
-0.237612

>  <SCORE.INTRA.VDW.0>
-0.734044

>  <SCORE.INTRA.norm>
-0.201133

>  <SCORE.RESTR>
0.00400201

>  <SCORE.RESTR.CAVITY>
0.00400201

>  <SCORE.RESTR.norm>
0.000400201

>  <SCORE.SYSTEM>
0

>  <SCORE.SYSTEM.CONST>
0

>  <SCORE.SYSTEM.DIHEDRAL>
0

>  <SCORE.SYSTEM.SOLV>
0

>  <SCORE.SYSTEM.norm>
0

>  <SCORE.heavy>
10

>  <SCORE.norm>
-0.78532

>  <RMSD>
5.251

$$$$
ligand
 OpenBabel11021811473D
libRbt.so/2013.1/901 2013/11/27
 10  9  0  0  0  0  0  0  0  0999 V2000
   26.1476   14.8668   21.1888 N   0  0  0  0  0  0  0  0  0  0  0  0
   27.4206   15.4818   20.8621 C   0  0  2  0  0  0  0  0  0  0  0  0
   27.9474   14.9489   19.5565 C   0  0  0  0  0  0  0  0  0  0  0  0
   27.4428   13.9026   19.0779 O   0  0  0  0  0  0  0  0  0  0  0  0
   28.4149   15.2163   21.9843 C   0  0  0  0  0  0  0  0  0  0  0  0
   29.6160   15.9344   21.7137 O   0  0  0  0  0  0  0  0  0  0  0  0
   30.5553   15.6111   22.7388 C   0  0  0  0  0  0  0  0  0  0  0  0
   31.8361   16.4021   22.4821 C   0  0  0  0  0  0  0  0  0  0  0  0
   32.3830   16.0567   21.1815 N   0  0  0  0  0  0  0  0  0  0  0  0
   28.4791   15.7858   18.7995 O   0  0  0  0  0  0  0  0  0  0  0  0
  2  1  1  1  0  0  0
  2  5  1  0  0  0  0
  2  3  1  0  0  0  0
  3  4  1  0  0  0  0
  3 10  1  0  0  0  0
  5  6  1  0  0  0  0
  6  7  1  0  0  0  0
  7  8  1  0  0  0  0
  8  9  1  0  0  0  0
M  END
>  <CHROM.1>
-174.33713646,-15.12785515,-176.85614287,-178.54379505,-59.76046560,29.02195164
15.41477903,20.92398133,2.65457257,-0.24147056,-1.67726459

>  <Name>
ligand

>  <RI>
0

>  <Rbt.Current_Directory>
/home/itssahil/PROJECTS/Mol_Feturizer/New_Systems/rnas/3DJ0

>  <Rbt.Executable>
rbdock ($Id: //depot/dev/client3/rdock/2013.1/src/exe/rbdock.cxx#4 $)

>  <Rbt.Library>
libRbt.so (2013.1, Build901 2013/11/27)

>  <Rbt.Parameter_File>
/export/apps/rDock/src/rDock_2013.1_src/data/scripts/dock_solv.prm

>  <Rbt.Receptor>
prm/pocket_docking_4.prm

>  <SCORE>
-7.83498

>  <SCORE.INTER>
-5.83662

>  <SCORE.INTER.CONST>
1

>  <SCORE.INTER.POLAR>
0

>  <SCORE.INTER.ROT>
5

>  <SCORE.INTER.SOLV>
21.053

>  <SCORE.INTER.VDW>
-17.8421

>  <SCORE.INTER.norm>
-0.583662

>  <SCORE.INTRA>
-2.00819

>  <SCORE.INTRA.DIHEDRAL>
-3.36262

>  <SCORE.INTRA.DIHEDRAL.0>
6.00299

>  <SCORE.INTRA.POLAR>
0

>  <SCORE.INTRA.POLAR.0>
0

>  <SCORE.INTRA.REPUL>
0

>  <SCORE.INTRA.REPUL.0>
0

>  <SCORE.INTRA.SOLV>
-0.175314

>  <SCORE.INTRA.SOLV.lig_0>
-39.3257

>  <SCORE.INTRA.VDW>
-0.239221

>  <SCORE.INTRA.VDW.0>
-0.734044

>  <SCORE.INTRA.norm>
-0.200819

>  <SCORE.RESTR>
0.0098255

>  <SCORE.RESTR.CAVITY>
0.0098255

>  <SCORE.RESTR.norm>
0.00098255

>  <SCORE.SYSTEM>
0

>  <SCORE.SYSTEM.CONST>
0

>  <SCORE.SYSTEM.DIHEDRAL>
0

>  <SCORE.SYSTEM.SOLV>
0

>  <SCORE.SYSTEM.norm>
0

>  <SCORE.heavy>
10

>  <SCORE.norm>
-0.783498

>  <RMSD>
5.251

$$$$
ligand
 OpenBabel11021811473D
libRbt.so/2013.1/901 2013/11/27
 10  9  0  0  0  0  0  0  0  0999 V2000
   26.2603   15.0991   20.9282 N   0  0  0  0  0  0  0  0  0  0  0  0
   27.6425   15.4099   20.6146 C   0  0  2  0  0  0  0  0  0  0  0  0
   28.1640   14.4874   19.5455 C   0  0  0  0  0  0  0  0  0  0  0  0
   27.3485   13.9435   18.7597 O   0  0  0  0  0  0  0  0  0  0  0  0
   28.4873   15.2929   21.8760 C   0  0  0  0  0  0  0  0  0  0  0  0
   29.7934   15.7938   21.6024 O   0  0  0  0  0  0  0  0  0  0  0  0
   30.5877   15.5964   22.7720 C   0  0  0  0  0  0  0  0  0  0  0  0
   31.9823   16.1582   22.5048 C   0  0  0  0  0  0  0  0  0  0  0  0
   31.9142   17.5985   22.3288 N   0  0  0  0  0  0  0  0  0  0  0  0
   29.3420   14.6813   19.1836 O   0  0  0  0  0  0  0  0  0  0  0  0
  2  1  1  1  0  0  0
  2  5  1  0  0  0  0
  2  3  1  0  0  0  0
  3  4  1  0  0  0  0
  3 10  1  0  0  0  0
  5  6  1  0  0  0  0
  6  7  1  0  0  0  0
  7  8  1  0  0  0  0
  8  9  1  0  0  0  0
M  END
>  <CHROM.1>
-171.29041738,24.21354190,-176.43955103,-178.70639713,65.47844588,29.15637131
15.38759665,20.97666770,2.45437403,-0.17413574,-1.98472838

>  <Name>
ligand

>  <RI>
0

>  <Rbt.Current_Directory>
/home/itssahil/PROJECTS/Mol_Feturizer/New_Systems/rnas/3DJ0

>  <Rbt.Executable>
rbdock ($Id: //depot/dev/client3/rdock/2013.1/src/exe/rbdock.cxx#4 $)

>  <Rbt.Library>
libRbt.so (2013.1, Build901 2013/11/27)

>  <Rbt.Parameter_File>
/export/apps/rDock/src/rDock_2013.1_src/data/scripts/dock_solv.prm

>  <Rbt.Receptor>
prm/pocket_docking_5.prm

>  <SCORE>
-6.87822

>  <SCORE.INTER>
-5.52609

>  <SCORE.INTER.CONST>
1

>  <SCORE.INTER.POLAR>
0

>  <SCORE.INTER.ROT>
5

>  <SCORE.INTER.SOLV>
19.9735

>  <SCORE.INTER.VDW>
-17.2752

>  <SCORE.INTER.norm>
-0.552609

>  <SCORE.INTRA>
-1.35213

>  <SCORE.INTRA.DIHEDRAL>
-2.81287

>  <SCORE.INTRA.DIHEDRAL.0>
6.00299

>  <SCORE.INTRA.POLAR>
0

>  <SCORE.INTRA.POLAR.0>
0

>  <SCORE.INTRA.REPUL>
0

>  <SCORE.INTRA.REPUL.0>
0

>  <SCORE.INTRA.SOLV>
-0.189255

>  <SCORE.INTRA.SOLV.lig_0>
-39.3257

>  <SCORE.INTRA.VDW>
0.148929

>  <SCORE.INTRA.VDW.0>
-0.734044

>  <SCORE.INTRA.norm>
-0.135213

>  <SCORE.RESTR>
0

>  <SCORE.RESTR.CAVITY>
0

>  <SCORE.RESTR.norm>
0

>  <SCORE.SYSTEM>
0

>  <SCORE.SYSTEM.CONST>
0

>  <SCORE.SYSTEM.DIHEDRAL>
0

>  <SCORE.SYSTEM.SOLV>
0

>  <SCORE.SYSTEM.norm>
0

>  <SCORE.heavy>
10

>  <SCORE.norm>
-0.687822

>  <RMSD>
5.251

$$$$
ligand
 OpenBabel11021811473D
libRbt.so/2013.1/901 2013/11/27
 10  9  0  0  0  0  0  0  0  0999 V2000
   29.1619   14.7791   19.8808 N   0  0  0  0  0  0  0  0  0  0  0  0
   28.6665   14.9723   21.2309 C   0  0  2  0  0  0  0  0  0  0  0  0
   27.1718   15.1508   21.2267 C   0  0  0  0  0  0  0  0  0  0  0  0
   26.5970   15.4477   20.1497 O   0  0  0  0  0  0  0  0  0  0  0  0
   29.3449   16.1862   21.8511 C   0  0  0  0  0  0  0  0  0  0  0  0
   30.7526   15.9636   21.8752 O   0  0  0  0  0  0  0  0  0  0  0  0
   31.3648   17.1184   22.4492 C   0  0  0  0  0  0  0  0  0  0  0  0
   32.8732   16.8857   22.5005 C   0  0  0  0  0  0  0  0  0  0  0  0
   33.4071   16.7783   21.1538 N   0  0  0  0  0  0  0  0  0  0  0  0
   26.5464   14.5430   22.1186 O   0  0  0  0  0  0  0  0  0  0  0  0
  2  1  1  6  0  0  0
  2  5  1  0  0  0  0
  2  3  1  0  0  0  0
  3  4  1  0  0  0  0
  3 10  1  0  0  0  0
  5  6  1  0  0  0  0
  6  7  1  0  0  0  0
  7  8  1  0  0  0  0
  8  9  1  0  0  0  0
M  END
>  <CHROM.1>
-59.74934379,-17.52502719,179.49887297,179.17744048,64.59426362,29.54483566
15.77351547,21.44436110,-2.90770437,0.26547950,1.29502832

>  <Name>
ligand

>  <RI>
0

>  <Rbt.Current_Directory>
/home/itssahil/PROJECTS/Mol_Feturizer/New_Systems/rnas/3DJ0

>  <Rbt.Executable>
rbdock ($Id: //depot/dev/client3/rdock/2013.1/src/exe/rbdock.cxx#4 $)

>  <Rbt.Library>
libRbt.so (2013.1, Build901 2013/11/27)

>  <Rbt.Parameter_File>
/export/apps/rDock/src/rDock_2013.1_src/data/scripts/dock_solv.prm

>  <Rbt.Receptor>
prm/pocket_docking_4.prm

>  <SCORE>
-7.75567

>  <SCORE.INTER>
-6.03867

>  <SCORE.INTER.CONST>
1

>  <SCORE.INTER.POLAR>
0

>  <SCORE.INTER.ROT>
5

>  <SCORE.INTER.SOLV>
17.5648

>  <SCORE.INTER.VDW>
-16.814

>  <SCORE.INTER.norm>
-0.603867

>  <SCORE.INTRA>
-1.717

>  <SCORE.INTRA.DIHEDRAL>
-3.50561

>  <SCORE.INTRA.DIHEDRAL.0>
6.00299

>  <SCORE.INTRA.POLAR>
0

>  <SCORE.INTRA.POLAR.0>
0

>  <SCORE.INTRA.REPUL>
0

>  <SCORE.INTRA.REPUL.0>
0

>  <SCORE.INTRA.SOLV>
0.362092

>  <SCORE.INTRA.SOLV.lig_0>
-39.3257

>  <SCORE.INTRA.VDW>
-0.145243

>  <SCORE.INTRA.VDW.0>
-0.734044

>  <SCORE.INTRA.norm>
-0.1717

>  <SCORE.RESTR>
0

>  <SCORE.RESTR.CAVITY>
0

>  <SCORE.RESTR.norm>
0

>  <SCORE.SYSTEM>
0

>  <SCORE.SYSTEM.CONST>
0

>  <SCORE.SYSTEM.DIHEDRAL>
0

>  <SCORE.SYSTEM.SOLV>
0

>  <SCORE.SYSTEM.norm>
0

>  <SCORE.heavy>
10

>  <SCORE.norm>
-0.775567

>  <RMSD>
5.253

$$$$
ligand
 OpenBabel11021811473D
libRbt.so/2013.1/901 2013/11/27
 10  9  0  0  0  0  0  0  0  0999 V2000
   29.1197   14.8359   19.8216 N   0  0  0  0  0  0  0  0  0  0  0  0
   28.6468   14.9811   21.1857 C   0  0  2  0  0  0  0  0  0  0  0  0
   27.1518   15.1556   21.2128 C   0  0  0  0  0  0  0  0  0  0  0  0
   26.5575   15.4806   20.1548 O   0  0  0  0  0  0  0  0  0  0  0  0
   29.3330   16.1746   21.8360 C   0  0  0  0  0  0  0  0  0  0  0  0
   30.7404   15.9491   21.8407 O   0  0  0  0  0  0  0  0  0  0  0  0
   31.3581   17.0740   22.4659 C   0  0  0  0  0  0  0  0  0  0  0  0
   32.8688   16.8502   22.4704 C   0  0  0  0  0  0  0  0  0  0  0  0
   33.3672   16.7862   21.1075 N   0  0  0  0  0  0  0  0  0  0  0  0
   26.5437   14.5216   22.0985 O   0  0  0  0  0  0  0  0  0  0  0  0
  2  1  1  6  0  0  0
  2  5  1  0  0  0  0
  2  3  1  0  0  0  0
  3  4  1  0  0  0  0
  3 10  1  0  0  0  0
  5  6  1  0  0  0  0
  6  7  1  0  0  0  0
  7  8  1  0  0  0  0
  8  9  1  0  0  0  0
M  END
>  <CHROM.1>
-60.32051249,-17.13141575,-179.44628500,-179.65277238,62.99665691,29.52498739
15.77178839,21.42049952,-2.92037698,0.26947595,1.33467921

>  <Name>
ligand

>  <RI>
0

>  <Rbt.Current_Directory>
/home/itssahil/PROJECTS/Mol_Feturizer/New_Systems/rnas/3DJ0

>  <Rbt.Executable>
rbdock ($Id: //depot/dev/client3/rdock/2013.1/src/exe/rbdock.cxx#4 $)

>  <Rbt.Library>
libRbt.so (2013.1, Build901 2013/11/27)

>  <Rbt.Parameter_File>
/export/apps/rDock/src/rDock_2013.1_src/data/scripts/dock_solv.prm

>  <Rbt.Receptor>
prm/pocket_docking_2.prm

>  <SCORE>
-7.7764

>  <SCORE.INTER>
-6.05179

>  <SCORE.INTER.CONST>
1

>  <SCORE.INTER.POLAR>
0

>  <SCORE.INTER.ROT>
5

>  <SCORE.INTER.SOLV>
17.4746

>  <SCORE.INTER.VDW>
-16.7927

>  <SCORE.INTER.norm>
-0.605179

>  <SCORE.INTRA>
-1.72461

>  <SCORE.INTRA.DIHEDRAL>
-3.54571

>  <SCORE.INTRA.DIHEDRAL.0>
6.00299

>  <SCORE.INTRA.POLAR>
0

>  <SCORE.INTRA.POLAR.0>
0

>  <SCORE.INTRA.REPUL>
0

>  <SCORE.INTRA.REPUL.0>
0

>  <SCORE.INTRA.SOLV>
0.377759

>  <SCORE.INTRA.SOLV.lig_0>
-39.3257

>  <SCORE.INTRA.VDW>
-0.140635

>  <SCORE.INTRA.VDW.0>
-0.734044

>  <SCORE.INTRA.norm>
-0.172461

>  <SCORE.RESTR>
0

>  <SCORE.RESTR.CAVITY>
0

>  <SCORE.RESTR.norm>
0

>  <SCORE.SYSTEM>
0

>  <SCORE.SYSTEM.CONST>
0

>  <SCORE.SYSTEM.DIHEDRAL>
0

>  <SCORE.SYSTEM.SOLV>
0

>  <SCORE.SYSTEM.norm>
0

>  <SCORE.heavy>
10

>  <SCORE.norm>
-0.77764

>  <RMSD>
5.255

$$$$
ligand
 OpenBabel11021811473D
libRbt.so/2013.1/901 2013/11/27
 10  9  0  0  0  0  0  0  0  0999 V2000
   27.4388   14.3393   19.0790 N   0  0  0  0  0  0  0  0  0  0  0  0
   28.1115   14.6222   20.3332 C   0  0  2  0  0  0  0  0  0  0  0  0
   27.1110   14.9491   21.4095 C   0  0  0  0  0  0  0  0  0  0  0  0
   25.8854   14.8471   21.1528 O   0  0  0  0  0  0  0  0  0  0  0  0
   29.0805   15.7805   20.1389 C   0  0  0  0  0  0  0  0  0  0  0  0
   29.7992   15.9870   21.3523 O   0  0  0  0  0  0  0  0  0  0  0  0
   30.6371   17.1285   21.1716 C   0  0  0  0  0  0  0  0  0  0  0  0
   31.4195   17.3580   22.4629 C   0  0  0  0  0  0  0  0  0  0  0  0
   32.3457   16.2614   22.6861 N   0  0  0  0  0  0  0  0  0  0  0  0
   27.5130   14.8276   22.5841 O   0  0  0  0  0  0  0  0  0  0  0  0
  2  1  1  6  0  0  0
  2  5  1  0  0  0  0
  2  3  1  0  0  0  0
  3  4  1  0  0  0  0
  3 10  1  0  0  0  0
  5  6  1  0  0  0  0
  6  7  1  0  0  0  0
  7  8  1  0  0  0  0
  8  9  1  0  0  0  0
M  END
>  <CHROM.1>
-176.06024837,5.15723078,-176.38753751,-179.72285657,66.43315694,28.90307290
15.60567957,21.26109839,-2.82459440,0.39935252,1.45892269

>  <Name>
ligand

>  <RI>
0

>  <Rbt.Current_Directory>
/home/itssahil/PROJECTS/Mol_Feturizer/New_Systems/rnas/3DJ0

>  <Rbt.Executable>
rbdock ($Id: //depot/dev/client3/rdock/2013.1/src/exe/rbdock.cxx#4 $)

>  <Rbt.Library>
libRbt.so (2013.1, Build901 2013/11/27)

>  <Rbt.Parameter_File>
/export/apps/rDock/src/rDock_2013.1_src/data/scripts/dock_solv.prm

>  <Rbt.Receptor>
prm/pocket_docking_5.prm

>  <SCORE>
-6.69008

>  <SCORE.INTER>
-5.06421

>  <SCORE.INTER.CONST>
1

>  <SCORE.INTER.POLAR>
0

>  <SCORE.INTER.ROT>
5

>  <SCORE.INTER.SOLV>
20.2631

>  <SCORE.INTER.VDW>
-17.0638

>  <SCORE.INTER.norm>
-0.506421

>  <SCORE.INTRA>
-1.62587

>  <SCORE.INTRA.DIHEDRAL>
-2.94598

>  <SCORE.INTRA.DIHEDRAL.0>
6.00299

>  <SCORE.INTRA.POLAR>
0

>  <SCORE.INTRA.POLAR.0>
0

>  <SCORE.INTRA.REPUL>
0

>  <SCORE.INTRA.REPUL.0>
0

>  <SCORE.INTRA.SOLV>
-0.213311

>  <SCORE.INTRA.SOLV.lig_0>
-39.3257

>  <SCORE.INTRA.VDW>
-0.0462224

>  <SCORE.INTRA.VDW.0>
-0.734044

>  <SCORE.INTRA.norm>
-0.162587

>  <SCORE.RESTR>
0

>  <SCORE.RESTR.CAVITY>
0

>  <SCORE.RESTR.norm>
0

>  <SCORE.SYSTEM>
0

>  <SCORE.SYSTEM.CONST>
0

>  <SCORE.SYSTEM.DIHEDRAL>
0

>  <SCORE.SYSTEM.SOLV>
0

>  <SCORE.SYSTEM.norm>
0

>  <SCORE.heavy>
10

>  <SCORE.norm>
-0.669008

>  <RMSD>
5.255

$$$$
ligand
 OpenBabel11021811473D
libRbt.so/2013.1/901 2013/11/27
 10  9  0  0  0  0  0  0  0  0999 V2000
   27.4302   14.3194   19.0586 N   0  0  0  0  0  0  0  0  0  0  0  0
   28.1045   14.6087   20.3104 C   0  0  2  0  0  0  0  0  0  0  0  0
   27.1064   14.9565   21.3823 C   0  0  0  0  0  0  0  0  0  0  0  0
   25.8805   14.9074   21.1117 O   0  0  0  0  0  0  0  0  0  0  0  0
   29.0850   15.7554   20.1051 C   0  0  0  0  0  0  0  0  0  0  0  0
   29.8196   15.9533   21.3104 O   0  0  0  0  0  0  0  0  0  0  0  0
   30.6862   17.0702   21.1121 C   0  0  0  0  0  0  0  0  0  0  0  0
   31.4473   17.3232   22.4117 C   0  0  0  0  0  0  0  0  0  0  0  0
   32.3031   16.1898   22.7168 N   0  0  0  0  0  0  0  0  0  0  0  0
   27.4907   14.7992   22.5586 O   0  0  0  0  0  0  0  0  0  0  0  0
  2  1  1  6  0  0  0
  2  5  1  0  0  0  0
  2  3  1  0  0  0  0
  3  4  1  0  0  0  0
  3 10  1  0  0  0  0
  5  6  1  0  0  0  0
  6  7  1  0  0  0  0
  7  8  1  0  0  0  0
  8  9  1  0  0  0  0
M  END
>  <CHROM.1>
-175.14537655,2.77564287,-177.39505144,178.16260044,64.09175740,28.90420494
15.58454557,21.23147787,-2.82769614,0.38952815,1.46729981

>  <Name>
ligand

>  <RI>
0

>  <Rbt.Current_Directory>
/home/itssahil/PROJECTS/Mol_Feturizer/New_Systems/rnas/3DJ0

>  <Rbt.Executable>
rbdock ($Id: //depot/dev/client3/rdock/2013.1/src/exe/rbdock.cxx#4 $)

>  <Rbt.Library>
libRbt.so (2013.1, Build901 2013/11/27)

>  <Rbt.Parameter_File>
/export/apps/rDock/src/rDock_2013.1_src/data/scripts/dock_solv.prm

>  <Rbt.Receptor>
prm/blind_docking_60.prm

>  <SCORE>
-6.74766

>  <SCORE.INTER>
-5.0515

>  <SCORE.INTER.CONST>
1

>  <SCORE.INTER.POLAR>
0

>  <SCORE.INTER.ROT>
5

>  <SCORE.INTER.SOLV>
20.4184

>  <SCORE.INTER.VDW>
-17.1071

>  <SCORE.INTER.norm>
-0.50515

>  <SCORE.INTRA>
-1.69616

>  <SCORE.INTRA.DIHEDRAL>
-3.04412

>  <SCORE.INTRA.DIHEDRAL.0>
6.00299

>  <SCORE.INTRA.POLAR>
0

>  <SCORE.INTRA.POLAR.0>
0

>  <SCORE.INTRA.REPUL>
0

>  <SCORE.INTRA.REPUL.0>
0

>  <SCORE.INTRA.SOLV>
-0.203068

>  <SCORE.INTRA.SOLV.lig_0>
-39.3257

>  <SCORE.INTRA.VDW>
-0.0725711

>  <SCORE.INTRA.VDW.0>
-0.734044

>  <SCORE.INTRA.norm>
-0.169616

>  <SCORE.RESTR>
0

>  <SCORE.RESTR.CAVITY>
0

>  <SCORE.RESTR.norm>
0

>  <SCORE.SYSTEM>
0

>  <SCORE.SYSTEM.CONST>
0

>  <SCORE.SYSTEM.DIHEDRAL>
0

>  <SCORE.SYSTEM.SOLV>
0

>  <SCORE.SYSTEM.norm>
0

>  <SCORE.heavy>
10

>  <SCORE.norm>
-0.674766

>  <RMSD>
5.256

$$$$
ligand
 OpenBabel11021811473D
libRbt.so/2013.1/901 2013/11/27
 10  9  0  0  0  0  0  0  0  0999 V2000
   29.1213   14.8384   19.8291 N   0  0  0  0  0  0  0  0  0  0  0  0
   28.6494   14.9853   21.1933 C   0  0  2  0  0  0  0  0  0  0  0  0
   27.1548   15.1624   21.2211 C   0  0  0  0  0  0  0  0  0  0  0  0
   26.5610   15.4923   20.1642 O   0  0  0  0  0  0  0  0  0  0  0  0
   29.3381   16.1781   21.8424 C   0  0  0  0  0  0  0  0  0  0  0  0
   30.7445   15.9470   21.8528 O   0  0  0  0  0  0  0  0  0  0  0  0
   31.3656   17.0780   22.4636 C   0  0  0  0  0  0  0  0  0  0  0  0
   32.8752   16.8474   22.4758 C   0  0  0  0  0  0  0  0  0  0  0  0
   33.3852   16.8134   21.1161 N   0  0  0  0  0  0  0  0  0  0  0  0
   26.5455   14.5263   22.1045 O   0  0  0  0  0  0  0  0  0  0  0  0
  2  1  1  6  0  0  0
  2  5  1  0  0  0  0
  2  3  1  0  0  0  0
  3  4  1  0  0  0  0
  3 10  1  0  0  0  0
  5  6  1  0  0  0  0
  6  7  1  0  0  0  0
  7  8  1  0  0  0  0
  8  9  1  0  0  0  0
M  END
>  <CHROM.1>
-60.61927745,-17.37989112,179.92754193,-179.73657177,65.20906532,29.53030283
15.77771367,21.42745487,-2.92271792,0.27076146,1.33997402

>  <Name>
ligand

>  <RI>
0

>  <Rbt.Current_Directory>
/home/itssahil/PROJECTS/Mol_Feturizer/New_Systems/rnas/3DJ0

>  <Rbt.Executable>
rbdock ($Id: //depot/dev/client3/rdock/2013.1/src/exe/rbdock.cxx#4 $)

>  <Rbt.Library>
libRbt.so (2013.1, Build901 2013/11/27)

>  <Rbt.Parameter_File>
/export/apps/rDock/src/rDock_2013.1_src/data/scripts/dock_solv.prm

>  <Rbt.Receptor>
prm/pocket_docking_5.prm

>  <SCORE>
-7.77235

>  <SCORE.INTER>
-6.05413

>  <SCORE.INTER.CONST>
1

>  <SCORE.INTER.POLAR>
0

>  <SCORE.INTER.ROT>
5

>  <SCORE.INTER.SOLV>
17.471

>  <SCORE.INTER.VDW>
-16.7931

>  <SCORE.INTER.norm>
-0.605413

>  <SCORE.INTRA>
-1.71821

>  <SCORE.INTRA.DIHEDRAL>
-3.48367

>  <SCORE.INTRA.DIHEDRAL.0>
6.00299

>  <SCORE.INTRA.POLAR>
0

>  <SCORE.INTRA.POLAR.0>
0

>  <SCORE.INTRA.REPUL>
0

>  <SCORE.INTRA.REPUL.0>
0

>  <SCORE.INTRA.SOLV>
0.348045

>  <SCORE.INTRA.SOLV.lig_0>
-39.3257

>  <SCORE.INTRA.VDW>
-0.150397

>  <SCORE.INTRA.VDW.0>
-0.734044

>  <SCORE.INTRA.norm>
-0.171821

>  <SCORE.RESTR>
0

>  <SCORE.RESTR.CAVITY>
0

>  <SCORE.RESTR.norm>
0

>  <SCORE.SYSTEM>
0

>  <SCORE.SYSTEM.CONST>
0

>  <SCORE.SYSTEM.DIHEDRAL>
0

>  <SCORE.SYSTEM.SOLV>
0

>  <SCORE.SYSTEM.norm>
0

>  <SCORE.heavy>
10

>  <SCORE.norm>
-0.777235

>  <RMSD>
5.257

$$$$
ligand
 OpenBabel11021811473D
libRbt.so/2013.1/901 2013/11/27
 10  9  0  0  0  0  0  0  0  0999 V2000
   27.4410   14.3373   19.0570 N   0  0  0  0  0  0  0  0  0  0  0  0
   28.1058   14.6186   20.3158 C   0  0  2  0  0  0  0  0  0  0  0  0
   27.0987   14.9449   21.3860 C   0  0  0  0  0  0  0  0  0  0  0  0
   25.8746   14.8699   21.1133 O   0  0  0  0  0  0  0  0  0  0  0  0
   29.0767   15.7765   20.1288 C   0  0  0  0  0  0  0  0  0  0  0  0
   29.8185   15.9533   21.3331 O   0  0  0  0  0  0  0  0  0  0  0  0
   30.6315   17.1160   21.1753 C   0  0  0  0  0  0  0  0  0  0  0  0
   31.4380   17.3144   22.4568 C   0  0  0  0  0  0  0  0  0  0  0  0
   32.3300   16.1867   22.6640 N   0  0  0  0  0  0  0  0  0  0  0  0
   27.4843   14.7956   22.5629 O   0  0  0  0  0  0  0  0  0  0  0  0
  2  1  1  6  0  0  0
  2  5  1  0  0  0  0
  2  3  1  0  0  0  0
  3  4  1  0  0  0  0
  3 10  1  0  0  0  0
  5  6  1  0  0  0  0
  6  7  1  0  0  0  0
  7  8  1  0  0  0  0
  8  9  1  0  0  0  0
M  END
>  <CHROM.1>
-174.20345987,3.73989192,-174.83049275,-179.72722220,62.91642764,28.89876379
15.58692911,21.24304293,-2.82610470,0.39124168,1.46513667

>  <Name>
ligand

>  <RI>
0

>  <Rbt.Current_Directory>
/home/itssahil/PROJECTS/Mol_Feturizer/New_Systems/rnas/3DJ0

>  <Rbt.Executable>
rbdock ($Id: //depot/dev/client3/rdock/2013.1/src/exe/rbdock.cxx#4 $)

>  <Rbt.Library>
libRbt.so (2013.1, Build901 2013/11/27)

>  <Rbt.Parameter_File>
/export/apps/rDock/src/rDock_2013.1_src/data/scripts/dock_solv.prm

>  <Rbt.Receptor>
prm/pocket_docking_8.prm

>  <SCORE>
-6.68786

>  <SCORE.INTER>
-5.04686

>  <SCORE.INTER.CONST>
1

>  <SCORE.INTER.POLAR>
0

>  <SCORE.INTER.ROT>
5

>  <SCORE.INTER.SOLV>
20.344

>  <SCORE.INTER.VDW>
-17.0792

>  <SCORE.INTER.norm>
-0.504686

>  <SCORE.INTRA>
-1.641

>  <SCORE.INTRA.DIHEDRAL>
-2.94828

>  <SCORE.INTRA.DIHEDRAL.0>
6.00299

>  <SCORE.INTRA.POLAR>
0

>  <SCORE.INTRA.POLAR.0>
0

>  <SCORE.INTRA.REPUL>
0

>  <SCORE.INTRA.REPUL.0>
0

>  <SCORE.INTRA.SOLV>
-0.176797

>  <SCORE.INTRA.SOLV.lig_0>
-39.3257

>  <SCORE.INTRA.VDW>
-0.0784626

>  <SCORE.INTRA.VDW.0>
-0.734044

>  <SCORE.INTRA.norm>
-0.1641

>  <SCORE.RESTR>
0

>  <SCORE.RESTR.CAVITY>
0

>  <SCORE.RESTR.norm>
0

>  <SCORE.SYSTEM>
0

>  <SCORE.SYSTEM.CONST>
0

>  <SCORE.SYSTEM.DIHEDRAL>
0

>  <SCORE.SYSTEM.SOLV>
0

>  <SCORE.SYSTEM.norm>
0

>  <SCORE.heavy>
10

>  <SCORE.norm>
-0.668786

>  <RMSD>
5.258

$$$$
ligand
 OpenBabel11021811473D
libRbt.so/2013.1/901 2013/11/27
 10  9  0  0  0  0  0  0  0  0999 V2000
   29.1128   14.8521   19.6235 N   0  0  0  0  0  0  0  0  0  0  0  0
   28.6634   14.9422   21.0002 C   0  0  2  0  0  0  0  0  0  0  0  0
   27.1622   14.8581   21.0745 C   0  0  0  0  0  0  0  0  0  0  0  0
   26.6180   14.6577   22.1890 O   0  0  0  0  0  0  0  0  0  0  0  0
   29.1531   16.2491   21.6090 C   0  0  0  0  0  0  0  0  0  0  0  0
   30.5785   16.2530   21.6034 O   0  0  0  0  0  0  0  0  0  0  0  0
   31.0113   17.4898   22.1698 C   0  0  0  0  0  0  0  0  0  0  0  0
   32.5381   17.5162   22.1534 C   0  0  0  0  0  0  0  0  0  0  0  0
   33.0642   16.4199   22.9480 N   0  0  0  0  0  0  0  0  0  0  0  0
   26.5364   15.4536   20.1746 O   0  0  0  0  0  0  0  0  0  0  0  0
  2  1  1  6  0  0  0
  2  5  1  0  0  0  0
  2  3  1  0  0  0  0
  3  4  1  0  0  0  0
  3 10  1  0  0  0  0
  5  6  1  0  0  0  0
  6  7  1  0  0  0  0
  7  8  1  0  0  0  0
  8  9  1  0  0  0  0
M  END
>  <CHROM.1>
-61.88184707,166.25938068,179.62208776,-179.25584435,-60.82616026,29.40180241
15.86577495,21.45498633,-2.81385620,0.31165955,1.35384220

>  <Name>
ligand

>  <RI>
0

>  <Rbt.Current_Directory>
/home/itssahil/PROJECTS/Mol_Feturizer/New_Systems/rnas/3DJ0

>  <Rbt.Executable>
rbdock ($Id: //depot/dev/client3/rdock/2013.1/src/exe/rbdock.cxx#4 $)

>  <Rbt.Library>
libRbt.so (2013.1, Build901 2013/11/27)

>  <Rbt.Parameter_File>
/export/apps/rDock/src/rDock_2013.1_src/data/scripts/dock_solv.prm

>  <Rbt.Receptor>
prm/pocket_docking_5.prm

>  <SCORE>
-6.52307

>  <SCORE.INTER>
-4.84312

>  <SCORE.INTER.CONST>
1

>  <SCORE.INTER.POLAR>
0

>  <SCORE.INTER.ROT>
5

>  <SCORE.INTER.SOLV>
18.9053

>  <SCORE.INTER.VDW>
-16.4639

>  <SCORE.INTER.norm>
-0.484312

>  <SCORE.INTRA>
-1.67995

>  <SCORE.INTRA.DIHEDRAL>
-3.65636

>  <SCORE.INTRA.DIHEDRAL.0>
6.00299

>  <SCORE.INTRA.POLAR>
0

>  <SCORE.INTRA.POLAR.0>
0

>  <SCORE.INTRA.REPUL>
0

>  <SCORE.INTRA.REPUL.0>
0

>  <SCORE.INTRA.SOLV>
0.331454

>  <SCORE.INTRA.SOLV.lig_0>
-39.3257

>  <SCORE.INTRA.VDW>
-0.0174945

>  <SCORE.INTRA.VDW.0>
-0.734044

>  <SCORE.INTRA.norm>
-0.167995

>  <SCORE.RESTR>
0

>  <SCORE.RESTR.CAVITY>
0

>  <SCORE.RESTR.norm>
0

>  <SCORE.SYSTEM>
0

>  <SCORE.SYSTEM.CONST>
0

>  <SCORE.SYSTEM.DIHEDRAL>
0

>  <SCORE.SYSTEM.SOLV>
0

>  <SCORE.SYSTEM.norm>
0

>  <SCORE.heavy>
10

>  <SCORE.norm>
-0.652307

>  <RMSD>
5.267

$$$$
ligand
 OpenBabel11021811473D
libRbt.so/2013.1/901 2013/11/27
 10  9  0  0  0  0  0  0  0  0999 V2000
   26.1616   14.9271   21.1232 N   0  0  0  0  0  0  0  0  0  0  0  0
   27.4657   15.4572   20.7714 C   0  0  2  0  0  0  0  0  0  0  0  0
   27.9583   14.8448   19.4875 C   0  0  0  0  0  0  0  0  0  0  0  0
   27.4279   13.7826   19.0768 O   0  0  0  0  0  0  0  0  0  0  0  0
   28.4471   15.1817   21.9025 C   0  0  0  0  0  0  0  0  0  0  0  0
   29.6733   15.8515   21.6204 O   0  0  0  0  0  0  0  0  0  0  0  0
   30.5945   15.5269   22.6615 C   0  0  0  0  0  0  0  0  0  0  0  0
   31.8920   16.2917   22.4090 C   0  0  0  0  0  0  0  0  0  0  0  0
   32.4513   15.9135   21.1228 N   0  0  0  0  0  0  0  0  0  0  0  0
   28.4884   15.6299   18.6758 O   0  0  0  0  0  0  0  0  0  0  0  0
  2  1  1  1  0  0  0
  2  5  1  0  0  0  0
  2  3  1  0  0  0  0
  3  4  1  0  0  0  0
  3 10  1  0  0  0  0
  5  6  1  0  0  0  0
  6  7  1  0  0  0  0
  7  8  1  0  0  0  0
  8  9  1  0  0  0  0
M  END
>  <CHROM.1>
-172.75377866,-17.72102540,-177.32543465,-177.29065225,-60.01330669,29.05313114
15.33293145,20.85066138,2.65078059,-0.20964414,-1.71148780

>  <Name>
ligand

>  <RI>
0

>  <Rbt.Current_Directory>
/home/itssahil/PROJECTS/Mol_Feturizer/New_Systems/rnas/3DJ0

>  <Rbt.Executable>
rbdock ($Id: //depot/dev/client3/rdock/2013.1/src/exe/rbdock.cxx#4 $)

>  <Rbt.Library>
libRbt.so (2013.1, Build901 2013/11/27)

>  <Rbt.Parameter_File>
/export/apps/rDock/src/rDock_2013.1_src/data/scripts/dock_solv.prm

>  <Rbt.Receptor>
prm/pocket_docking_7.prm

>  <SCORE>
-7.84509

>  <SCORE.INTER>
-5.8349

>  <SCORE.INTER.CONST>
1

>  <SCORE.INTER.POLAR>
0

>  <SCORE.INTER.ROT>
5

>  <SCORE.INTER.SOLV>
21.45

>  <SCORE.INTER.VDW>
-17.9733

>  <SCORE.INTER.norm>
-0.58349

>  <SCORE.INTRA>
-2.01019

>  <SCORE.INTRA.DIHEDRAL>
-3.331

>  <SCORE.INTRA.DIHEDRAL.0>
6.00299

>  <SCORE.INTRA.POLAR>
0

>  <SCORE.INTRA.POLAR.0>
0

>  <SCORE.INTRA.REPUL>
0

>  <SCORE.INTRA.REPUL.0>
0

>  <SCORE.INTRA.SOLV>
-0.197843

>  <SCORE.INTRA.SOLV.lig_0>
-39.3257

>  <SCORE.INTRA.VDW>
-0.245774

>  <SCORE.INTRA.VDW.0>
-0.734044

>  <SCORE.INTRA.norm>
-0.201019

>  <SCORE.RESTR>
0

>  <SCORE.RESTR.CAVITY>
0

>  <SCORE.RESTR.norm>
0

>  <SCORE.SYSTEM>
0

>  <SCORE.SYSTEM.CONST>
0

>  <SCORE.SYSTEM.DIHEDRAL>
0

>  <SCORE.SYSTEM.SOLV>
0

>  <SCORE.SYSTEM.norm>
0

>  <SCORE.heavy>
10

>  <SCORE.norm>
-0.784509

>  <RMSD>
5.268

$$$$
ligand
 OpenBabel11021811473D
libRbt.so/2013.1/901 2013/11/27
 10  9  0  0  0  0  0  0  0  0999 V2000
   29.1092   14.7891   19.6459 N   0  0  0  0  0  0  0  0  0  0  0  0
   28.6546   14.9308   21.0165 C   0  0  2  0  0  0  0  0  0  0  0  0
   27.1520   14.8719   21.0856 C   0  0  0  0  0  0  0  0  0  0  0  0
   26.5999   14.7049   22.2017 O   0  0  0  0  0  0  0  0  0  0  0  0
   29.1615   16.2492   21.5851 C   0  0  0  0  0  0  0  0  0  0  0  0
   30.5866   16.2260   21.5992 O   0  0  0  0  0  0  0  0  0  0  0  0
   31.0360   17.4795   22.1135 C   0  0  0  0  0  0  0  0  0  0  0  0
   32.5630   17.4699   22.1332 C   0  0  0  0  0  0  0  0  0  0  0  0
   33.0434   16.4139   23.0074 N   0  0  0  0  0  0  0  0  0  0  0  0
   26.5396   15.4572   20.1698 O   0  0  0  0  0  0  0  0  0  0  0  0
  2  1  1  6  0  0  0
  2  5  1  0  0  0  0
  2  3  1  0  0  0  0
  3  4  1  0  0  0  0
  3 10  1  0  0  0  0
  5  6  1  0  0  0  0
  6  7  1  0  0  0  0
  7  8  1  0  0  0  0
  8  9  1  0  0  0  0
M  END
>  <CHROM.1>
-62.44856123,165.66104337,179.00192779,-179.94532968,-61.52968869,29.40259334
15.85643116,21.45605916,-2.81322688,0.30266349,1.34544032

>  <Name>
ligand

>  <RI>
0

>  <Rbt.Current_Directory>
/home/itssahil/PROJECTS/Mol_Feturizer/New_Systems/rnas/3DJ0

>  <Rbt.Executable>
rbdock ($Id: //depot/dev/client3/rdock/2013.1/src/exe/rbdock.cxx#4 $)

>  <Rbt.Library>
libRbt.so (2013.1, Build901 2013/11/27)

>  <Rbt.Parameter_File>
/export/apps/rDock/src/rDock_2013.1_src/data/scripts/dock_solv.prm

>  <Rbt.Receptor>
prm/pocket_docking_6.prm

>  <SCORE>
-6.57792

>  <SCORE.INTER>
-4.89621

>  <SCORE.INTER.CONST>
1

>  <SCORE.INTER.POLAR>
0

>  <SCORE.INTER.ROT>
5

>  <SCORE.INTER.SOLV>
19.0863

>  <SCORE.INTER.VDW>
-16.5596

>  <SCORE.INTER.norm>
-0.489621

>  <SCORE.INTRA>
-1.68171

>  <SCORE.INTRA.DIHEDRAL>
-3.62795

>  <SCORE.INTRA.DIHEDRAL.0>
6.00299

>  <SCORE.INTRA.POLAR>
0

>  <SCORE.INTRA.POLAR.0>
0

>  <SCORE.INTRA.REPUL>
0

>  <SCORE.INTRA.REPUL.0>
0

>  <SCORE.INTRA.SOLV>
0.320541

>  <SCORE.INTRA.SOLV.lig_0>
-39.3257

>  <SCORE.INTRA.VDW>
-0.0280076

>  <SCORE.INTRA.VDW.0>
-0.734044

>  <SCORE.INTRA.norm>
-0.168171

>  <SCORE.RESTR>
0

>  <SCORE.RESTR.CAVITY>
0

>  <SCORE.RESTR.norm>
0

>  <SCORE.SYSTEM>
0

>  <SCORE.SYSTEM.CONST>
0

>  <SCORE.SYSTEM.DIHEDRAL>
0

>  <SCORE.SYSTEM.SOLV>
0

>  <SCORE.SYSTEM.norm>
0

>  <SCORE.heavy>
10

>  <SCORE.norm>
-0.657792

>  <RMSD>
5.269

$$$$
ligand
 OpenBabel11021811473D
libRbt.so/2013.1/901 2013/11/27
 10  9  0  0  0  0  0  0  0  0999 V2000
   26.1380   14.9146   21.1216 N   0  0  0  0  0  0  0  0  0  0  0  0
   27.4389   15.4602   20.7816 C   0  0  2  0  0  0  0  0  0  0  0  0
   27.9469   14.8593   19.4983 C   0  0  0  0  0  0  0  0  0  0  0  0
   27.4275   13.7960   19.0763 O   0  0  0  0  0  0  0  0  0  0  0  0
   28.4151   15.1894   21.9183 C   0  0  0  0  0  0  0  0  0  0  0  0
   29.6347   15.8765   21.6501 O   0  0  0  0  0  0  0  0  0  0  0  0
   30.5456   15.5722   22.7063 C   0  0  0  0  0  0  0  0  0  0  0  0
   31.8263   16.3729   22.4804 C   0  0  0  0  0  0  0  0  0  0  0  0
   32.4042   16.0355   21.1911 N   0  0  0  0  0  0  0  0  0  0  0  0
   28.4786   15.6531   18.6962 O   0  0  0  0  0  0  0  0  0  0  0  0
  2  1  1  1  0  0  0
  2  5  1  0  0  0  0
  2  3  1  0  0  0  0
  3  4  1  0  0  0  0
  3 10  1  0  0  0  0
  5  6  1  0  0  0  0
  6  7  1  0  0  0  0
  7  8  1  0  0  0  0
  8  9  1  0  0  0  0
M  END
>  <CHROM.1>
-172.58337496,-17.48078690,-178.16279637,-176.39338917,-58.87909889,29.02313056
15.36506091,20.87741149,2.63708986,-0.22997221,-1.70602487

>  <Name>
ligand

>  <RI>
0

>  <Rbt.Current_Directory>
/home/itssahil/PROJECTS/Mol_Feturizer/New_Systems/rnas/3DJ0

>  <Rbt.Executable>
rbdock ($Id: //depot/dev/client3/rdock/2013.1/src/exe/rbdock.cxx#4 $)

>  <Rbt.Library>
libRbt.so (2013.1, Build901 2013/11/27)

>  <Rbt.Parameter_File>
/export/apps/rDock/src/rDock_2013.1_src/data/scripts/dock_solv.prm

>  <Rbt.Receptor>
prm/pocket_docking_3.prm

>  <SCORE>
-7.87294

>  <SCORE.INTER>
-5.88778

>  <SCORE.INTER.CONST>
1

>  <SCORE.INTER.POLAR>
0

>  <SCORE.INTER.ROT>
5

>  <SCORE.INTER.SOLV>
21.0744

>  <SCORE.INTER.VDW>
-17.8833

>  <SCORE.INTER.norm>
-0.588778

>  <SCORE.INTRA>
-1.98516

>  <SCORE.INTRA.DIHEDRAL>
-3.30312

>  <SCORE.INTRA.DIHEDRAL.0>
6.00299

>  <SCORE.INTRA.POLAR>
0

>  <SCORE.INTRA.POLAR.0>
0

>  <SCORE.INTRA.REPUL>
0

>  <SCORE.INTRA.REPUL.0>
0

>  <SCORE.INTRA.SOLV>
-0.188972

>  <SCORE.INTRA.SOLV.lig_0>
-39.3257

>  <SCORE.INTRA.VDW>
-0.239109

>  <SCORE.INTRA.VDW.0>
-0.734044

>  <SCORE.INTRA.norm>
-0.198516

>  <SCORE.RESTR>
0

>  <SCORE.RESTR.CAVITY>
0

>  <SCORE.RESTR.norm>
0

>  <SCORE.SYSTEM>
0

>  <SCORE.SYSTEM.CONST>
0

>  <SCORE.SYSTEM.DIHEDRAL>
0

>  <SCORE.SYSTEM.SOLV>
0

>  <SCORE.SYSTEM.norm>
0

>  <SCORE.heavy>
10

>  <SCORE.norm>
-0.787294

>  <RMSD>
5.273

$$$$
ligand
 OpenBabel11021811473D
libRbt.so/2013.1/901 2013/11/27
 10  9  0  0  0  0  0  0  0  0999 V2000
   26.5965   14.6325   21.1848 N   0  0  0  0  0  0  0  0  0  0  0  0
   27.5124   15.4545   20.4162 C   0  0  2  0  0  0  0  0  0  0  0  0
   28.0938   14.6708   19.2700 C   0  0  0  0  0  0  0  0  0  0  0  0
   29.2368   14.1648   19.3961 O   0  0  0  0  0  0  0  0  0  0  0  0
   28.6206   15.9660   21.3265 C   0  0  0  0  0  0  0  0  0  0  0  0
   29.3741   16.9513   20.6244 O   0  0  0  0  0  0  0  0  0  0  0  0
   30.5048   17.2874   21.4283 C   0  0  0  0  0  0  0  0  0  0  0  0
   31.6054   16.2633   21.1598 C   0  0  0  0  0  0  0  0  0  0  0  0
   32.8045   16.6145   21.9007 N   0  0  0  0  0  0  0  0  0  0  0  0
   27.2707   14.1603   18.4839 O   0  0  0  0  0  0  0  0  0  0  0  0
  2  1  1  1  0  0  0
  2  5  1  0  0  0  0
  2  3  1  0  0  0  0
  3  4  1  0  0  0  0
  3 10  1  0  0  0  0
  5  6  1  0  0  0  0
  6  7  1  0  0  0  0
  7  8  1  0  0  0  0
  8  9  1  0  0  0  0
M  END
>  <CHROM.1>
-169.96040473,-98.58465686,-172.59516530,84.20426060,176.66116856,29.15884381
15.60275324,20.48646261,2.54323706,-0.09812996,-2.29217338

>  <Name>
ligand

>  <RI>
0

>  <Rbt.Current_Directory>
/home/itssahil/PROJECTS/Mol_Feturizer/New_Systems/rnas/3DJ0

>  <Rbt.Executable>
rbdock ($Id: //depot/dev/client3/rdock/2013.1/src/exe/rbdock.cxx#4 $)

>  <Rbt.Library>
libRbt.so (2013.1, Build901 2013/11/27)

>  <Rbt.Parameter_File>
/export/apps/rDock/src/rDock_2013.1_src/data/scripts/dock_solv.prm

>  <Rbt.Receptor>
prm/pocket_docking_3.prm

>  <SCORE>
-3.82295

>  <SCORE.INTER>
-4.95454

>  <SCORE.INTER.CONST>
1

>  <SCORE.INTER.POLAR>
0

>  <SCORE.INTER.ROT>
5

>  <SCORE.INTER.SOLV>
20.3888

>  <SCORE.INTER.VDW>
-17.0326

>  <SCORE.INTER.norm>
-0.495454

>  <SCORE.INTRA>
1.1316

>  <SCORE.INTRA.DIHEDRAL>
-0.0454011

>  <SCORE.INTRA.DIHEDRAL.0>
6.00299

>  <SCORE.INTRA.POLAR>
0

>  <SCORE.INTRA.POLAR.0>
0

>  <SCORE.INTRA.REPUL>
0

>  <SCORE.INTRA.REPUL.0>
0

>  <SCORE.INTRA.SOLV>
-0.614337

>  <SCORE.INTRA.SOLV.lig_0>
-39.3257

>  <SCORE.INTRA.VDW>
1.46146

>  <SCORE.INTRA.VDW.0>
-0.734044

>  <SCORE.INTRA.norm>
0.11316

>  <SCORE.RESTR>
0

>  <SCORE.RESTR.CAVITY>
0

>  <SCORE.RESTR.norm>
0

>  <SCORE.SYSTEM>
0

>  <SCORE.SYSTEM.CONST>
0

>  <SCORE.SYSTEM.DIHEDRAL>
0

>  <SCORE.SYSTEM.SOLV>
0

>  <SCORE.SYSTEM.norm>
0

>  <SCORE.heavy>
10

>  <SCORE.norm>
-0.382295

>  <RMSD>
5.276

$$$$
ligand
 OpenBabel11021811473D
libRbt.so/2013.1/901 2013/11/27
 10  9  0  0  0  0  0  0  0  0999 V2000
   26.1648   14.9239   21.1021 N   0  0  0  0  0  0  0  0  0  0  0  0
   27.4676   15.4522   20.7426 C   0  0  2  0  0  0  0  0  0  0  0  0
   27.9436   14.8528   19.4464 C   0  0  0  0  0  0  0  0  0  0  0  0
   27.4004   13.8006   19.0264 O   0  0  0  0  0  0  0  0  0  0  0  0
   28.4596   15.1589   21.8597 C   0  0  0  0  0  0  0  0  0  0  0  0
   29.6705   15.8629   21.5957 O   0  0  0  0  0  0  0  0  0  0  0  0
   30.5911   15.5504   22.6410 C   0  0  0  0  0  0  0  0  0  0  0  0
   31.8764   16.3389   22.3995 C   0  0  0  0  0  0  0  0  0  0  0  0
   32.4384   15.9918   21.1058 N   0  0  0  0  0  0  0  0  0  0  0  0
   28.4732   15.6440   18.6404 O   0  0  0  0  0  0  0  0  0  0  0  0
  2  1  1  1  0  0  0
  2  5  1  0  0  0  0
  2  3  1  0  0  0  0
  3  4  1  0  0  0  0
  3 10  1  0  0  0  0
  5  6  1  0  0  0  0
  6  7  1  0  0  0  0
  7  8  1  0  0  0  0
  8  9  1  0  0  0  0
M  END
>  <CHROM.1>
-170.79661728,-17.46082731,-178.85028256,-177.92331833,-59.09859909,29.04534880
15.34999291,20.82128666,2.64677366,-0.22531679,-1.69954909

>  <Name>
ligand

>  <RI>
0

>  <Rbt.Current_Directory>
/home/itssahil/PROJECTS/Mol_Feturizer/New_Systems/rnas/3DJ0

>  <Rbt.Executable>
rbdock ($Id: //depot/dev/client3/rdock/2013.1/src/exe/rbdock.cxx#4 $)

>  <Rbt.Library>
libRbt.so (2013.1, Build901 2013/11/27)

>  <Rbt.Parameter_File>
/export/apps/rDock/src/rDock_2013.1_src/data/scripts/dock_solv.prm

>  <Rbt.Receptor>
prm/pocket_docking_5.prm

>  <SCORE>
-7.88363

>  <SCORE.INTER>
-5.90484

>  <SCORE.INTER.CONST>
1

>  <SCORE.INTER.POLAR>
0

>  <SCORE.INTER.ROT>
5

>  <SCORE.INTER.SOLV>
21.2865

>  <SCORE.INTER.VDW>
-17.9654

>  <SCORE.INTER.norm>
-0.590484

>  <SCORE.INTRA>
-1.97879

>  <SCORE.INTRA.DIHEDRAL>
-3.2525

>  <SCORE.INTRA.DIHEDRAL.0>
6.00299

>  <SCORE.INTRA.POLAR>
0

>  <SCORE.INTRA.POLAR.0>
0

>  <SCORE.INTRA.REPUL>
0

>  <SCORE.INTRA.REPUL.0>
0

>  <SCORE.INTRA.SOLV>
-0.194819

>  <SCORE.INTRA.SOLV.lig_0>
-39.3257

>  <SCORE.INTRA.VDW>
-0.255128

>  <SCORE.INTRA.VDW.0>
-0.734044

>  <SCORE.INTRA.norm>
-0.197879

>  <SCORE.RESTR>
0

>  <SCORE.RESTR.CAVITY>
0

>  <SCORE.RESTR.norm>
0

>  <SCORE.SYSTEM>
0

>  <SCORE.SYSTEM.CONST>
0

>  <SCORE.SYSTEM.DIHEDRAL>
0

>  <SCORE.SYSTEM.SOLV>
0

>  <SCORE.SYSTEM.norm>
0

>  <SCORE.heavy>
10

>  <SCORE.norm>
-0.788363

>  <RMSD>
5.279

$$$$
ligand
 OpenBabel11021811473D
libRbt.so/2013.1/901 2013/11/27
 10  9  0  0  0  0  0  0  0  0999 V2000
   27.5331   14.3481   19.2215 N   0  0  0  0  0  0  0  0  0  0  0  0
   28.2494   14.5083   20.4731 C   0  0  2  0  0  0  0  0  0  0  0  0
   27.2892   14.7569   21.6055 C   0  0  0  0  0  0  0  0  0  0  0  0
   27.7365   15.1757   22.7023 O   0  0  0  0  0  0  0  0  0  0  0  0
   29.2350   15.6622   20.3492 C   0  0  0  0  0  0  0  0  0  0  0  0
   30.1401   15.6138   21.4493 O   0  0  0  0  0  0  0  0  0  0  0  0
   31.0778   16.6778   21.2870 C   0  0  0  0  0  0  0  0  0  0  0  0
   32.0903   16.6025   22.4278 C   0  0  0  0  0  0  0  0  0  0  0  0
   33.0443   17.6926   22.3202 N   0  0  0  0  0  0  0  0  0  0  0  0
   26.1112   15.0050   21.2785 O   0  0  0  0  0  0  0  0  0  0  0  0
  2  1  1  6  0  0  0
  2  5  1  0  0  0  0
  2  3  1  0  0  0  0
  3  4  1  0  0  0  0
  3 10  1  0  0  0  0
  5  6  1  0  0  0  0
  6  7  1  0  0  0  0
  7  8  1  0  0  0  0
  8  9  1  0  0  0  0
M  END
>  <CHROM.1>
-166.54798823,-166.16913245,178.17814168,-177.64875050,-178.47042981,29.21958251
15.60383176,21.33586825,-2.83885848,0.35893094,1.32198797

>  <Name>
ligand

>  <RI>
0

>  <Rbt.Current_Directory>
/home/itssahil/PROJECTS/Mol_Feturizer/New_Systems/rnas/3DJ0

>  <Rbt.Executable>
rbdock ($Id: //depot/dev/client3/rdock/2013.1/src/exe/rbdock.cxx#4 $)

>  <Rbt.Library>
libRbt.so (2013.1, Build901 2013/11/27)

>  <Rbt.Parameter_File>
/export/apps/rDock/src/rDock_2013.1_src/data/scripts/dock_solv.prm

>  <Rbt.Receptor>
prm/pocket_docking_4.prm

>  <SCORE>
-7.57638

>  <SCORE.INTER>
-5.81579

>  <SCORE.INTER.CONST>
1

>  <SCORE.INTER.POLAR>
0

>  <SCORE.INTER.ROT>
5

>  <SCORE.INTER.SOLV>
19.5264

>  <SCORE.INTER.VDW>
-17.3193

>  <SCORE.INTER.norm>
-0.581579

>  <SCORE.INTRA>
-1.76059

>  <SCORE.INTRA.DIHEDRAL>
-3.30188

>  <SCORE.INTRA.DIHEDRAL.0>
6.00299

>  <SCORE.INTRA.POLAR>
0

>  <SCORE.INTRA.POLAR.0>
0

>  <SCORE.INTRA.REPUL>
0

>  <SCORE.INTRA.REPUL.0>
0

>  <SCORE.INTRA.SOLV>
-1.13185

>  <SCORE.INTRA.SOLV.lig_0>
-39.3257

>  <SCORE.INTRA.VDW>
0.456273

>  <SCORE.INTRA.VDW.0>
-0.734044

>  <SCORE.INTRA.norm>
-0.176059

>  <SCORE.RESTR>
0

>  <SCORE.RESTR.CAVITY>
0

>  <SCORE.RESTR.norm>
0

>  <SCORE.SYSTEM>
0

>  <SCORE.SYSTEM.CONST>
0

>  <SCORE.SYSTEM.DIHEDRAL>
0

>  <SCORE.SYSTEM.SOLV>
0

>  <SCORE.SYSTEM.norm>
0

>  <SCORE.heavy>
10

>  <SCORE.norm>
-0.757638

>  <RMSD>
5.281

$$$$
ligand
 OpenBabel11021811473D
libRbt.so/2013.1/901 2013/11/27
 10  9  0  0  0  0  0  0  0  0999 V2000
   26.1310   14.9198   21.1194 N   0  0  0  0  0  0  0  0  0  0  0  0
   27.4317   15.4619   20.7735 C   0  0  2  0  0  0  0  0  0  0  0  0
   27.9270   14.8685   19.4818 C   0  0  0  0  0  0  0  0  0  0  0  0
   27.4190   13.7956   19.0703 O   0  0  0  0  0  0  0  0  0  0  0  0
   28.4154   15.1779   21.9005 C   0  0  0  0  0  0  0  0  0  0  0  0
   29.6378   15.8575   21.6257 O   0  0  0  0  0  0  0  0  0  0  0  0
   30.5466   15.5619   22.6862 C   0  0  0  0  0  0  0  0  0  0  0  0
   31.8358   16.3442   22.4447 C   0  0  0  0  0  0  0  0  0  0  0  0
   32.4049   15.9821   21.1582 N   0  0  0  0  0  0  0  0  0  0  0  0
   28.4299   15.6706   18.6694 O   0  0  0  0  0  0  0  0  0  0  0  0
  2  1  1  1  0  0  0
  2  5  1  0  0  0  0
  2  3  1  0  0  0  0
  3  4  1  0  0  0  0
  3 10  1  0  0  0  0
  5  6  1  0  0  0  0
  6  7  1  0  0  0  0
  7  8  1  0  0  0  0
  8  9  1  0  0  0  0
M  END
>  <CHROM.1>
-172.78940473,-18.98223302,-179.27926595,-176.97239660,-58.60867848,29.01511566
15.35624294,20.85825832,2.64288237,-0.22328963,-1.69976833

>  <Name>
ligand

>  <RI>
0

>  <Rbt.Current_Directory>
/home/itssahil/PROJECTS/Mol_Feturizer/New_Systems/rnas/3DJ0

>  <Rbt.Executable>
rbdock ($Id: //depot/dev/client3/rdock/2013.1/src/exe/rbdock.cxx#4 $)

>  <Rbt.Library>
libRbt.so (2013.1, Build901 2013/11/27)

>  <Rbt.Parameter_File>
/export/apps/rDock/src/rDock_2013.1_src/data/scripts/dock_solv.prm

>  <Rbt.Receptor>
prm/pocket_docking_7.prm

>  <SCORE>
-7.86121

>  <SCORE.INTER>
-5.83968

>  <SCORE.INTER.CONST>
1

>  <SCORE.INTER.POLAR>
0

>  <SCORE.INTER.ROT>
5

>  <SCORE.INTER.SOLV>
21.2883

>  <SCORE.INTER.VDW>
-17.9225

>  <SCORE.INTER.norm>
-0.583968

>  <SCORE.INTRA>
-2.02153

>  <SCORE.INTRA.DIHEDRAL>
-3.37538

>  <SCORE.INTRA.DIHEDRAL.0>
6.00299

>  <SCORE.INTRA.POLAR>
0

>  <SCORE.INTRA.POLAR.0>
0

>  <SCORE.INTRA.REPUL>
0

>  <SCORE.INTRA.REPUL.0>
0

>  <SCORE.INTRA.SOLV>
-0.185487

>  <SCORE.INTRA.SOLV.lig_0>
-39.3257

>  <SCORE.INTRA.VDW>
-0.241098

>  <SCORE.INTRA.VDW.0>
-0.734044

>  <SCORE.INTRA.norm>
-0.202153

>  <SCORE.RESTR>
0

>  <SCORE.RESTR.CAVITY>
0

>  <SCORE.RESTR.norm>
0

>  <SCORE.SYSTEM>
0

>  <SCORE.SYSTEM.CONST>
0

>  <SCORE.SYSTEM.DIHEDRAL>
0

>  <SCORE.SYSTEM.SOLV>
0

>  <SCORE.SYSTEM.norm>
0

>  <SCORE.heavy>
10

>  <SCORE.norm>
-0.786121

>  <RMSD>
5.281

$$$$
ligand
 OpenBabel11021811473D
libRbt.so/2013.1/901 2013/11/27
 10  9  0  0  0  0  0  0  0  0999 V2000
   27.0239   14.5337   21.4724 N   0  0  0  0  0  0  0  0  0  0  0  0
   27.2698   15.1532   20.1836 C   0  0  2  0  0  0  0  0  0  0  0  0
   27.9078   14.1721   19.2368 C   0  0  0  0  0  0  0  0  0  0  0  0
   27.4640   14.0802   18.0650 O   0  0  0  0  0  0  0  0  0  0  0  0
   28.1643   16.3714   20.3689 C   0  0  0  0  0  0  0  0  0  0  0  0
   29.3244   15.9828   21.1002 O   0  0  0  0  0  0  0  0  0  0  0  0
   30.1212   17.1498   21.3023 C   0  0  0  0  0  0  0  0  0  0  0  0
   31.3761   16.7458   22.0732 C   0  0  0  0  0  0  0  0  0  0  0  0
   32.2229   15.9073   21.2426 N   0  0  0  0  0  0  0  0  0  0  0  0
   29.0946   13.8729   19.4779 O   0  0  0  0  0  0  0  0  0  0  0  0
  2  1  1  1  0  0  0
  2  5  1  0  0  0  0
  2  3  1  0  0  0  0
  3  4  1  0  0  0  0
  3 10  1  0  0  0  0
  5  6  1  0  0  0  0
  6  7  1  0  0  0  0
  7  8  1  0  0  0  0
  8  9  1  0  0  0  0
M  END
>  <CHROM.1>
52.64412180,133.79554060,-177.92852158,-179.43362568,67.92557350,29.00127365
15.37638165,20.42528592,2.42497972,-0.05747197,-2.28134858

>  <Name>
ligand

>  <RI>
0

>  <Rbt.Current_Directory>
/home/itssahil/PROJECTS/Mol_Feturizer/New_Systems/rnas/3DJ0

>  <Rbt.Executable>
rbdock ($Id: //depot/dev/client3/rdock/2013.1/src/exe/rbdock.cxx#4 $)

>  <Rbt.Library>
libRbt.so (2013.1, Build901 2013/11/27)

>  <Rbt.Parameter_File>
/export/apps/rDock/src/rDock_2013.1_src/data/scripts/dock_solv.prm

>  <Rbt.Receptor>
prm/pocket_docking_3.prm

>  <SCORE>
-5.67864

>  <SCORE.INTER>
-4.94093

>  <SCORE.INTER.CONST>
1

>  <SCORE.INTER.POLAR>
0

>  <SCORE.INTER.ROT>
5

>  <SCORE.INTER.SOLV>
19.9522

>  <SCORE.INTER.VDW>
-16.878

>  <SCORE.INTER.norm>
-0.494093

>  <SCORE.INTRA>
-0.737718

>  <SCORE.INTRA.DIHEDRAL>
-2.75258

>  <SCORE.INTRA.DIHEDRAL.0>
6.00299

>  <SCORE.INTRA.POLAR>
0

>  <SCORE.INTRA.POLAR.0>
0

>  <SCORE.INTRA.REPUL>
0

>  <SCORE.INTRA.REPUL.0>
0

>  <SCORE.INTRA.SOLV>
0.932118

>  <SCORE.INTRA.SOLV.lig_0>
-39.3257

>  <SCORE.INTRA.VDW>
0.172515

>  <SCORE.INTRA.VDW.0>
-0.734044

>  <SCORE.INTRA.norm>
-0.0737718

>  <SCORE.RESTR>
0

>  <SCORE.RESTR.CAVITY>
0

>  <SCORE.RESTR.norm>
0

>  <SCORE.SYSTEM>
0

>  <SCORE.SYSTEM.CONST>
0

>  <SCORE.SYSTEM.DIHEDRAL>
0

>  <SCORE.SYSTEM.SOLV>
0

>  <SCORE.SYSTEM.norm>
0

>  <SCORE.heavy>
10

>  <SCORE.norm>
-0.567864

>  <RMSD>
5.282

$$$$
ligand
 OpenBabel11021811473D
libRbt.so/2013.1/901 2013/11/27
 10  9  0  0  0  0  0  0  0  0999 V2000
   26.1438   14.9306   21.0844 N   0  0  0  0  0  0  0  0  0  0  0  0
   27.4545   15.4530   20.7459 C   0  0  2  0  0  0  0  0  0  0  0  0
   27.9490   14.8507   19.4580 C   0  0  0  0  0  0  0  0  0  0  0  0
   27.4209   13.7903   19.0395 O   0  0  0  0  0  0  0  0  0  0  0  0
   28.4269   15.1559   21.8793 C   0  0  0  0  0  0  0  0  0  0  0  0
   29.6339   15.8790   21.6508 O   0  0  0  0  0  0  0  0  0  0  0  0
   30.5466   15.5411   22.6951 C   0  0  0  0  0  0  0  0  0  0  0  0
   31.8162   16.3691   22.5085 C   0  0  0  0  0  0  0  0  0  0  0  0
   32.4098   16.0863   21.2133 N   0  0  0  0  0  0  0  0  0  0  0  0
   28.4779   15.6425   18.6521 O   0  0  0  0  0  0  0  0  0  0  0  0
  2  1  1  1  0  0  0
  2  5  1  0  0  0  0
  2  3  1  0  0  0  0
  3  4  1  0  0  0  0
  3 10  1  0  0  0  0
  5  6  1  0  0  0  0
  6  7  1  0  0  0  0
  7  8  1  0  0  0  0
  8  9  1  0  0  0  0
M  END
>  <CHROM.1>
-169.46735626,-18.45591161,-177.64956683,-176.80861802,-59.49812721,29.02519105
15.36194785,20.85802394,2.62598708,-0.23570716,-1.69778983

>  <Name>
ligand

>  <RI>
0

>  <Rbt.Current_Directory>
/home/itssahil/PROJECTS/Mol_Feturizer/New_Systems/rnas/3DJ0

>  <Rbt.Executable>
rbdock ($Id: //depot/dev/client3/rdock/2013.1/src/exe/rbdock.cxx#4 $)

>  <Rbt.Library>
libRbt.so (2013.1, Build901 2013/11/27)

>  <Rbt.Parameter_File>
/export/apps/rDock/src/rDock_2013.1_src/data/scripts/dock_solv.prm

>  <Rbt.Receptor>
prm/pocket_docking_4.prm

>  <SCORE>
-7.87003

>  <SCORE.INTER>
-5.94402

>  <SCORE.INTER.CONST>
1

>  <SCORE.INTER.POLAR>
0

>  <SCORE.INTER.ROT>
5

>  <SCORE.INTER.SOLV>
20.9551

>  <SCORE.INTER.VDW>
-17.8811

>  <SCORE.INTER.norm>
-0.594402

>  <SCORE.INTRA>
-1.92601

>  <SCORE.INTRA.DIHEDRAL>
-3.13452

>  <SCORE.INTRA.DIHEDRAL.0>
6.00299

>  <SCORE.INTRA.POLAR>
0

>  <SCORE.INTRA.POLAR.0>
0

>  <SCORE.INTRA.REPUL>
0

>  <SCORE.INTRA.REPUL.0>
0

>  <SCORE.INTRA.SOLV>
-0.212119

>  <SCORE.INTRA.SOLV.lig_0>
-39.3257

>  <SCORE.INTRA.VDW>
-0.252688

>  <SCORE.INTRA.VDW.0>
-0.734044

>  <SCORE.INTRA.norm>
-0.192601

>  <SCORE.RESTR>
0

>  <SCORE.RESTR.CAVITY>
0

>  <SCORE.RESTR.norm>
0

>  <SCORE.SYSTEM>
0

>  <SCORE.SYSTEM.CONST>
0

>  <SCORE.SYSTEM.DIHEDRAL>
0

>  <SCORE.SYSTEM.SOLV>
0

>  <SCORE.SYSTEM.norm>
0

>  <SCORE.heavy>
10

>  <SCORE.norm>
-0.787003

>  <RMSD>
5.282

$$$$
ligand
 OpenBabel11021811473D
libRbt.so/2013.1/901 2013/11/27
 10  9  0  0  0  0  0  0  0  0999 V2000
   26.2437   14.8343   21.2698 N   0  0  0  0  0  0  0  0  0  0  0  0
   27.4995   15.4938   20.9642 C   0  0  2  0  0  0  0  0  0  0  0  0
   27.9847   15.1017   19.5943 C   0  0  0  0  0  0  0  0  0  0  0  0
   27.4744   14.1014   19.0308 O   0  0  0  0  0  0  0  0  0  0  0  0
   28.5343   15.1279   22.0195 C   0  0  0  0  0  0  0  0  0  0  0  0
   29.7434   15.8291   21.7400 O   0  0  0  0  0  0  0  0  0  0  0  0
   30.7037   15.4481   22.7251 C   0  0  0  0  0  0  0  0  0  0  0  0
   32.0216   16.1510   22.4069 C   0  0  0  0  0  0  0  0  0  0  0  0
   31.8531   17.5909   22.4977 N   0  0  0  0  0  0  0  0  0  0  0  0
   28.4801   16.0175   18.9072 O   0  0  0  0  0  0  0  0  0  0  0  0
  2  1  1  1  0  0  0
  2  5  1  0  0  0  0
  2  3  1  0  0  0  0
  3  4  1  0  0  0  0
  3 10  1  0  0  0  0
  5  6  1  0  0  0  0
  6  7  1  0  0  0  0
  7  8  1  0  0  0  0
  8  9  1  0  0  0  0
M  END
>  <CHROM.1>
-177.44017429,-15.29256186,-178.81128467,177.85807354,62.83348086,29.05217368
15.56277342,21.07682216,2.63826925,-0.41769454,-1.48522825

>  <Name>
ligand

>  <RI>
0

>  <Rbt.Current_Directory>
/home/itssahil/PROJECTS/Mol_Feturizer/New_Systems/rnas/3DJ0

>  <Rbt.Executable>
rbdock ($Id: //depot/dev/client3/rdock/2013.1/src/exe/rbdock.cxx#4 $)

>  <Rbt.Library>
libRbt.so (2013.1, Build901 2013/11/27)

>  <Rbt.Parameter_File>
/export/apps/rDock/src/rDock_2013.1_src/data/scripts/dock_solv.prm

>  <Rbt.Receptor>
prm/pocket_docking_7.prm

>  <SCORE>
-7.55355

>  <SCORE.INTER>
-5.56462

>  <SCORE.INTER.CONST>
1

>  <SCORE.INTER.POLAR>
0

>  <SCORE.INTER.ROT>
5

>  <SCORE.INTER.SOLV>
20.6294

>  <SCORE.INTER.VDW>
-17.5195

>  <SCORE.INTER.norm>
-0.556462

>  <SCORE.INTRA>
-1.98893

>  <SCORE.INTRA.DIHEDRAL>
-3.45863

>  <SCORE.INTRA.DIHEDRAL.0>
6.00299

>  <SCORE.INTRA.POLAR>
0

>  <SCORE.INTRA.POLAR.0>
0

>  <SCORE.INTRA.REPUL>
0

>  <SCORE.INTRA.REPUL.0>
0

>  <SCORE.INTRA.SOLV>
-0.204315

>  <SCORE.INTRA.SOLV.lig_0>
-39.3257

>  <SCORE.INTRA.VDW>
-0.157452

>  <SCORE.INTRA.VDW.0>
-0.734044

>  <SCORE.INTRA.norm>
-0.198893

>  <SCORE.RESTR>
0

>  <SCORE.RESTR.CAVITY>
0

>  <SCORE.RESTR.norm>
0

>  <SCORE.SYSTEM>
0

>  <SCORE.SYSTEM.CONST>
0

>  <SCORE.SYSTEM.DIHEDRAL>
0

>  <SCORE.SYSTEM.SOLV>
0

>  <SCORE.SYSTEM.norm>
0

>  <SCORE.heavy>
10

>  <SCORE.norm>
-0.755355

>  <RMSD>
5.282

$$$$
ligand
 OpenBabel11021811473D
libRbt.so/2013.1/901 2013/11/27
 10  9  0  0  0  0  0  0  0  0999 V2000
   26.1471   14.9011   21.1008 N   0  0  0  0  0  0  0  0  0  0  0  0
   27.4494   15.4430   20.7606 C   0  0  2  0  0  0  0  0  0  0  0  0
   27.9460   14.8568   19.4661 C   0  0  0  0  0  0  0  0  0  0  0  0
   27.4149   13.8047   19.0308 O   0  0  0  0  0  0  0  0  0  0  0  0
   28.4306   15.1503   21.8875 C   0  0  0  0  0  0  0  0  0  0  0  0
   29.6472   15.8469   21.6301 O   0  0  0  0  0  0  0  0  0  0  0  0
   30.5563   15.5376   22.6863 C   0  0  0  0  0  0  0  0  0  0  0  0
   31.8180   16.3763   22.4940 C   0  0  0  0  0  0  0  0  0  0  0  0
   32.4547   16.0368   21.2333 N   0  0  0  0  0  0  0  0  0  0  0  0
   28.4811   15.6576   18.6733 O   0  0  0  0  0  0  0  0  0  0  0  0
  2  1  1  1  0  0  0
  2  5  1  0  0  0  0
  2  3  1  0  0  0  0
  3  4  1  0  0  0  0
  3 10  1  0  0  0  0
  5  6  1  0  0  0  0
  6  7  1  0  0  0  0
  7  8  1  0  0  0  0
  8  9  1  0  0  0  0
M  END
>  <CHROM.1>
-171.85616524,-17.29769601,-178.98842148,-174.85842259,-61.90263671,29.03179906
15.35342648,20.86124117,2.63379739,-0.23316429,-1.69377356

>  <Name>
ligand

>  <RI>
0

>  <Rbt.Current_Directory>
/home/itssahil/PROJECTS/Mol_Feturizer/New_Systems/rnas/3DJ0

>  <Rbt.Executable>
rbdock ($Id: //depot/dev/client3/rdock/2013.1/src/exe/rbdock.cxx#4 $)

>  <Rbt.Library>
libRbt.so (2013.1, Build901 2013/11/27)

>  <Rbt.Parameter_File>
/export/apps/rDock/src/rDock_2013.1_src/data/scripts/dock_solv.prm

>  <Rbt.Receptor>
prm/pocket_docking_3.prm

>  <SCORE>
-7.85161

>  <SCORE.INTER>
-5.89709

>  <SCORE.INTER.CONST>
1

>  <SCORE.INTER.POLAR>
0

>  <SCORE.INTER.ROT>
5

>  <SCORE.INTER.SOLV>
21.1143

>  <SCORE.INTER.VDW>
-17.9028

>  <SCORE.INTER.norm>
-0.589709

>  <SCORE.INTRA>
-1.95452

>  <SCORE.INTRA.DIHEDRAL>
-3.1962

>  <SCORE.INTRA.DIHEDRAL.0>
6.00299

>  <SCORE.INTRA.POLAR>
0

>  <SCORE.INTRA.POLAR.0>
0

>  <SCORE.INTRA.REPUL>
0

>  <SCORE.INTRA.REPUL.0>
0

>  <SCORE.INTRA.SOLV>
-0.239743

>  <SCORE.INTRA.SOLV.lig_0>
-39.3257

>  <SCORE.INTRA.VDW>
-0.236546

>  <SCORE.INTRA.VDW.0>
-0.734044

>  <SCORE.INTRA.norm>
-0.195452

>  <SCORE.RESTR>
0

>  <SCORE.RESTR.CAVITY>
0

>  <SCORE.RESTR.norm>
0

>  <SCORE.SYSTEM>
0

>  <SCORE.SYSTEM.CONST>
0

>  <SCORE.SYSTEM.DIHEDRAL>
0

>  <SCORE.SYSTEM.SOLV>
0

>  <SCORE.SYSTEM.norm>
0

>  <SCORE.heavy>
10

>  <SCORE.norm>
-0.785161

>  <RMSD>
5.283

$$$$
ligand
 OpenBabel11021811473D
libRbt.so/2013.1/901 2013/11/27
 10  9  0  0  0  0  0  0  0  0999 V2000
   28.5874   16.8832   20.3104 N   0  0  0  0  0  0  0  0  0  0  0  0
   28.6452   15.5302   20.8315 C   0  0  2  0  0  0  0  0  0  0  0  0
   27.2689   15.0450   21.2008 C   0  0  0  0  0  0  0  0  0  0  0  0
   26.9879   14.8761   22.4136 O   0  0  0  0  0  0  0  0  0  0  0  0
   29.5651   15.4928   22.0443 C   0  0  0  0  0  0  0  0  0  0  0  0
   30.8124   16.0869   21.6936 O   0  0  0  0  0  0  0  0  0  0  0  0
   31.6642   16.0145   22.8368 C   0  0  0  0  0  0  0  0  0  0  0  0
   32.9619   16.7525   22.5150 C   0  0  0  0  0  0  0  0  0  0  0  0
   32.7024   18.1735   22.3618 N   0  0  0  0  0  0  0  0  0  0  0  0
   26.3627   15.2968   20.3814 O   0  0  0  0  0  0  0  0  0  0  0  0
  2  1  1  1  0  0  0
  2  5  1  0  0  0  0
  2  3  1  0  0  0  0
  3  4  1  0  0  0  0
  3 10  1  0  0  0  0
  5  6  1  0  0  0  0
  6  7  1  0  0  0  0
  7  8  1  0  0  0  0
  8  9  1  0  0  0  0
M  END
>  <CHROM.1>
-51.99890926,-110.92564005,-178.82726642,-175.25877236,67.01105602,29.51621552
16.00045007,21.66131200,3.11862385,0.39108388,2.28248309

>  <Name>
ligand

>  <RI>
0

>  <Rbt.Current_Directory>
/home/itssahil/PROJECTS/Mol_Feturizer/New_Systems/rnas/3DJ0

>  <Rbt.Executable>
rbdock ($Id: //depot/dev/client3/rdock/2013.1/src/exe/rbdock.cxx#4 $)

>  <Rbt.Library>
libRbt.so (2013.1, Build901 2013/11/27)

>  <Rbt.Parameter_File>
/export/apps/rDock/src/rDock_2013.1_src/data/scripts/dock_solv.prm

>  <Rbt.Receptor>
prm/pocket_docking_8.prm

>  <SCORE>
-5.24609

>  <SCORE.INTER>
-5.22213

>  <SCORE.INTER.CONST>
1

>  <SCORE.INTER.POLAR>
0

>  <SCORE.INTER.ROT>
5

>  <SCORE.INTER.SOLV>
20.4124

>  <SCORE.INTER.VDW>
-17.2189

>  <SCORE.INTER.norm>
-0.522213

>  <SCORE.INTRA>
-0.0239596

>  <SCORE.INTRA.DIHEDRAL>
-2.66848

>  <SCORE.INTRA.DIHEDRAL.0>
6.00299

>  <SCORE.INTRA.POLAR>
0

>  <SCORE.INTRA.POLAR.0>
0

>  <SCORE.INTRA.REPUL>
0

>  <SCORE.INTRA.REPUL.0>
0

>  <SCORE.INTRA.SOLV>
0.563344

>  <SCORE.INTRA.SOLV.lig_0>
-39.3257

>  <SCORE.INTRA.VDW>
1.02861

>  <SCORE.INTRA.VDW.0>
-0.734044

>  <SCORE.INTRA.norm>
-0.00239596

>  <SCORE.RESTR>
0

>  <SCORE.RESTR.CAVITY>
0

>  <SCORE.RESTR.norm>
0

>  <SCORE.SYSTEM>
0

>  <SCORE.SYSTEM.CONST>
0

>  <SCORE.SYSTEM.DIHEDRAL>
0

>  <SCORE.SYSTEM.SOLV>
0

>  <SCORE.SYSTEM.norm>
0

>  <SCORE.heavy>
10

>  <SCORE.norm>
-0.524609

>  <RMSD>
5.284

$$$$
ligand
 OpenBabel11021811473D
libRbt.so/2013.1/901 2013/11/27
 10  9  0  0  0  0  0  0  0  0999 V2000
   28.7541   15.5960   23.0234 N   0  0  0  0  0  0  0  0  0  0  0  0
   28.6598   15.9266   21.6136 C   0  0  2  0  0  0  0  0  0  0  0  0
   27.4258   15.3143   21.0068 C   0  0  0  0  0  0  0  0  0  0  0  0
   27.3606   15.1857   19.7587 O   0  0  0  0  0  0  0  0  0  0  0  0
   29.9071   15.4337   20.8927 C   0  0  0  0  0  0  0  0  0  0  0  0
   31.0152   16.2377   21.2895 O   0  0  0  0  0  0  0  0  0  0  0  0
   32.1833   15.7054   20.6651 C   0  0  0  0  0  0  0  0  0  0  0  0
   33.3516   16.6457   20.9534 C   0  0  0  0  0  0  0  0  0  0  0  0
   33.5183   16.8086   22.3872 N   0  0  0  0  0  0  0  0  0  0  0  0
   26.7761   14.5478   21.7460 O   0  0  0  0  0  0  0  0  0  0  0  0
  2  1  1  1  0  0  0
  2  5  1  0  0  0  0
  2  3  1  0  0  0  0
  3  4  1  0  0  0  0
  3 10  1  0  0  0  0
  5  6  1  0  0  0  0
  6  7  1  0  0  0  0
  7  8  1  0  0  0  0
  8  9  1  0  0  0  0
M  END
>  <CHROM.1>
-70.37033412,-161.08524450,176.50924981,173.75036469,56.87368846,29.85868643
15.72458007,21.31708083,3.06864011,-0.23863255,-1.66605606

>  <Name>
ligand

>  <RI>
0

>  <Rbt.Current_Directory>
/home/itssahil/PROJECTS/Mol_Feturizer/New_Systems/rnas/3DJ0

>  <Rbt.Executable>
rbdock ($Id: //depot/dev/client3/rdock/2013.1/src/exe/rbdock.cxx#4 $)

>  <Rbt.Library>
libRbt.so (2013.1, Build901 2013/11/27)

>  <Rbt.Parameter_File>
/export/apps/rDock/src/rDock_2013.1_src/data/scripts/dock_solv.prm

>  <Rbt.Receptor>
prm/blind_docking_60.prm

>  <SCORE>
-6.09918

>  <SCORE.INTER>
-5.24278

>  <SCORE.INTER.CONST>
1

>  <SCORE.INTER.POLAR>
0

>  <SCORE.INTER.ROT>
5

>  <SCORE.INTER.SOLV>
20.4573

>  <SCORE.INTER.VDW>
-17.2476

>  <SCORE.INTER.norm>
-0.524278

>  <SCORE.INTRA>
-0.856397

>  <SCORE.INTRA.DIHEDRAL>
-3.30666

>  <SCORE.INTRA.DIHEDRAL.0>
6.00299

>  <SCORE.INTRA.POLAR>
0

>  <SCORE.INTRA.POLAR.0>
0

>  <SCORE.INTRA.REPUL>
0

>  <SCORE.INTRA.REPUL.0>
0

>  <SCORE.INTRA.SOLV>
0.402637

>  <SCORE.INTRA.SOLV.lig_0>
-39.3257

>  <SCORE.INTRA.VDW>
0.595612

>  <SCORE.INTRA.VDW.0>
-0.734044

>  <SCORE.INTRA.norm>
-0.0856397

>  <SCORE.RESTR>
0

>  <SCORE.RESTR.CAVITY>
0

>  <SCORE.RESTR.norm>
0

>  <SCORE.SYSTEM>
0

>  <SCORE.SYSTEM.CONST>
0

>  <SCORE.SYSTEM.DIHEDRAL>
0

>  <SCORE.SYSTEM.SOLV>
0

>  <SCORE.SYSTEM.norm>
0

>  <SCORE.heavy>
10

>  <SCORE.norm>
-0.609918

>  <RMSD>
5.285

$$$$
ligand
 OpenBabel11021811473D
libRbt.so/2013.1/901 2013/11/27
 10  9  0  0  0  0  0  0  0  0999 V2000
   29.2776   15.0074   19.8222 N   0  0  0  0  0  0  0  0  0  0  0  0
   28.7667   15.1256   21.1752 C   0  0  2  0  0  0  0  0  0  0  0  0
   27.2616   15.1480   21.1735 C   0  0  0  0  0  0  0  0  0  0  0  0
   26.6568   15.3468   20.0903 O   0  0  0  0  0  0  0  0  0  0  0  0
   29.3164   16.3928   21.8158 C   0  0  0  0  0  0  0  0  0  0  0  0
   30.7399   16.3606   21.7505 O   0  0  0  0  0  0  0  0  0  0  0  0
   31.2288   17.5643   22.3419 C   0  0  0  0  0  0  0  0  0  0  0  0
   32.7443   17.6072   22.1587 C   0  0  0  0  0  0  0  0  0  0  0  0
   33.3738   16.5808   22.9713 N   0  0  0  0  0  0  0  0  0  0  0  0
   26.7046   14.5094   22.0889 O   0  0  0  0  0  0  0  0  0  0  0  0
  2  1  1  6  0  0  0
  2  5  1  0  0  0  0
  2  3  1  0  0  0  0
  3  4  1  0  0  0  0
  3 10  1  0  0  0  0
  5  6  1  0  0  0  0
  6  7  1  0  0  0  0
  7  8  1  0  0  0  0
  8  9  1  0  0  0  0
M  END
>  <CHROM.1>
-55.64999687,-14.61718667,179.31772123,-174.61303991,-68.74524964,29.56424325
15.95298288,21.53457069,-2.83951923,0.34428871,1.43851809

>  <Name>
ligand

>  <RI>
0

>  <Rbt.Current_Directory>
/home/itssahil/PROJECTS/Mol_Feturizer/New_Systems/rnas/3DJ0

>  <Rbt.Executable>
rbdock ($Id: //depot/dev/client3/rdock/2013.1/src/exe/rbdock.cxx#4 $)

>  <Rbt.Library>
libRbt.so (2013.1, Build901 2013/11/27)

>  <Rbt.Parameter_File>
/export/apps/rDock/src/rDock_2013.1_src/data/scripts/dock_solv.prm

>  <Rbt.Receptor>
prm/pocket_docking_2.prm

>  <SCORE>
-5.66579

>  <SCORE.INTER>
-4.1967

>  <SCORE.INTER.CONST>
1

>  <SCORE.INTER.POLAR>
0

>  <SCORE.INTER.ROT>
5

>  <SCORE.INTER.SOLV>
18.7834

>  <SCORE.INTER.VDW>
-15.9923

>  <SCORE.INTER.norm>
-0.41967

>  <SCORE.INTRA>
-1.46909

>  <SCORE.INTRA.DIHEDRAL>
-3.03027

>  <SCORE.INTRA.DIHEDRAL.0>
6.00299

>  <SCORE.INTRA.POLAR>
0

>  <SCORE.INTRA.POLAR.0>
0

>  <SCORE.INTRA.REPUL>
0

>  <SCORE.INTRA.REPUL.0>
0

>  <SCORE.INTRA.SOLV>
0.3242

>  <SCORE.INTRA.SOLV.lig_0>
-39.3257

>  <SCORE.INTRA.VDW>
-0.116054

>  <SCORE.INTRA.VDW.0>
-0.734044

>  <SCORE.INTRA.norm>
-0.146909

>  <SCORE.RESTR>
0

>  <SCORE.RESTR.CAVITY>
0

>  <SCORE.RESTR.norm>
0

>  <SCORE.SYSTEM>
0

>  <SCORE.SYSTEM.CONST>
0

>  <SCORE.SYSTEM.DIHEDRAL>
0

>  <SCORE.SYSTEM.SOLV>
0

>  <SCORE.SYSTEM.norm>
0

>  <SCORE.heavy>
10

>  <SCORE.norm>
-0.566579

>  <RMSD>
5.285

$$$$
ligand
 OpenBabel11021811473D
libRbt.so/2013.1/901 2013/11/27
 10  9  0  0  0  0  0  0  0  0999 V2000
   26.1482   14.9141   21.1071 N   0  0  0  0  0  0  0  0  0  0  0  0
   27.4543   15.4428   20.7603 C   0  0  2  0  0  0  0  0  0  0  0  0
   27.9400   14.8486   19.4653 C   0  0  0  0  0  0  0  0  0  0  0  0
   27.4355   13.7707   19.0629 O   0  0  0  0  0  0  0  0  0  0  0  0
   28.4372   15.1436   21.8840 C   0  0  0  0  0  0  0  0  0  0  0  0
   29.6482   15.8534   21.6365 O   0  0  0  0  0  0  0  0  0  0  0  0
   30.5564   15.5440   22.6934 C   0  0  0  0  0  0  0  0  0  0  0  0
   31.8323   16.3563   22.4823 C   0  0  0  0  0  0  0  0  0  0  0  0
   32.4139   16.0434   21.1885 N   0  0  0  0  0  0  0  0  0  0  0  0
   28.4281   15.6516   18.6448 O   0  0  0  0  0  0  0  0  0  0  0  0
  2  1  1  1  0  0  0
  2  5  1  0  0  0  0
  2  3  1  0  0  0  0
  3  4  1  0  0  0  0
  3 10  1  0  0  0  0
  5  6  1  0  0  0  0
  6  7  1  0  0  0  0
  7  8  1  0  0  0  0
  8  9  1  0  0  0  0
M  END
>  <CHROM.1>
-170.48435718,-20.22478914,-179.32133342,-176.98957911,-58.52207166,29.02639658
15.34888450,20.85771861,2.63334804,-0.23446650,-1.69346368

>  <Name>
ligand

>  <RI>
0

>  <Rbt.Current_Directory>
/home/itssahil/PROJECTS/Mol_Feturizer/New_Systems/rnas/3DJ0

>  <Rbt.Executable>
rbdock ($Id: //depot/dev/client3/rdock/2013.1/src/exe/rbdock.cxx#4 $)

>  <Rbt.Library>
libRbt.so (2013.1, Build901 2013/11/27)

>  <Rbt.Parameter_File>
/export/apps/rDock/src/rDock_2013.1_src/data/scripts/dock_solv.prm

>  <Rbt.Receptor>
prm/pocket_docking_7.prm

>  <SCORE>
-7.89372

>  <SCORE.INTER>
-5.91558

>  <SCORE.INTER.CONST>
1

>  <SCORE.INTER.POLAR>
0

>  <SCORE.INTER.ROT>
5

>  <SCORE.INTER.SOLV>
21.1168

>  <SCORE.INTER.VDW>
-17.916

>  <SCORE.INTER.norm>
-0.591558

>  <SCORE.INTRA>
-1.97813

>  <SCORE.INTRA.DIHEDRAL>
-3.26502

>  <SCORE.INTRA.DIHEDRAL.0>
6.00299

>  <SCORE.INTRA.POLAR>
0

>  <SCORE.INTRA.POLAR.0>
0

>  <SCORE.INTRA.REPUL>
0

>  <SCORE.INTRA.REPUL.0>
0

>  <SCORE.INTRA.SOLV>
-0.198421

>  <SCORE.INTRA.SOLV.lig_0>
-39.3257

>  <SCORE.INTRA.VDW>
-0.246416

>  <SCORE.INTRA.VDW.0>
-0.734044

>  <SCORE.INTRA.norm>
-0.197813

>  <SCORE.RESTR>
0

>  <SCORE.RESTR.CAVITY>
0

>  <SCORE.RESTR.norm>
0

>  <SCORE.SYSTEM>
0

>  <SCORE.SYSTEM.CONST>
0

>  <SCORE.SYSTEM.DIHEDRAL>
0

>  <SCORE.SYSTEM.SOLV>
0

>  <SCORE.SYSTEM.norm>
0

>  <SCORE.heavy>
10

>  <SCORE.norm>
-0.789372

>  <RMSD>
5.285

$$$$
ligand
 OpenBabel11021811473D
libRbt.so/2013.1/901 2013/11/27
 10  9  0  0  0  0  0  0  0  0999 V2000
   26.2190   14.9694   21.0980 N   0  0  0  0  0  0  0  0  0  0  0  0
   27.5551   15.3850   20.7140 C   0  0  2  0  0  0  0  0  0  0  0  0
   28.0687   14.5379   19.5806 C   0  0  0  0  0  0  0  0  0  0  0  0
   27.2919   13.7147   19.0352 O   0  0  0  0  0  0  0  0  0  0  0  0
   28.4832   15.2828   21.9168 C   0  0  0  0  0  0  0  0  0  0  0  0
   29.7691   15.7749   21.5481 O   0  0  0  0  0  0  0  0  0  0  0  0
   30.6391   15.5958   22.6656 C   0  0  0  0  0  0  0  0  0  0  0  0
   32.0252   16.1088   22.2810 C   0  0  0  0  0  0  0  0  0  0  0  0
   31.9701   17.5337   22.0040 N   0  0  0  0  0  0  0  0  0  0  0  0
   29.0272   15.0097   18.9366 O   0  0  0  0  0  0  0  0  0  0  0  0
  2  1  1  1  0  0  0
  2  5  1  0  0  0  0
  2  3  1  0  0  0  0
  3  4  1  0  0  0  0
  3 10  1  0  0  0  0
  5  6  1  0  0  0  0
  6  7  1  0  0  0  0
  7  8  1  0  0  0  0
  8  9  1  0  0  0  0
M  END
>  <CHROM.1>
-176.29997365,6.85516669,-176.64847496,179.54763902,63.12168487,29.10616188
15.37412067,20.94273374,2.54862520,-0.27528744,-1.87794012

>  <Name>
ligand

>  <RI>
0

>  <Rbt.Current_Directory>
/home/itssahil/PROJECTS/Mol_Feturizer/New_Systems/rnas/3DJ0

>  <Rbt.Executable>
rbdock ($Id: //depot/dev/client3/rdock/2013.1/src/exe/rbdock.cxx#4 $)

>  <Rbt.Library>
libRbt.so (2013.1, Build901 2013/11/27)

>  <Rbt.Parameter_File>
/export/apps/rDock/src/rDock_2013.1_src/data/scripts/dock_solv.prm

>  <Rbt.Receptor>
prm/pocket_docking_2.prm

>  <SCORE>
-6.69678

>  <SCORE.INTER>
-5.06205

>  <SCORE.INTER.CONST>
1

>  <SCORE.INTER.POLAR>
0

>  <SCORE.INTER.ROT>
5

>  <SCORE.INTER.SOLV>
20.2075

>  <SCORE.INTER.VDW>
-17.0439

>  <SCORE.INTER.norm>
-0.506205

>  <SCORE.INTRA>
-1.63473

>  <SCORE.INTRA.DIHEDRAL>
-3.06783

>  <SCORE.INTRA.DIHEDRAL.0>
6.00299

>  <SCORE.INTRA.POLAR>
0

>  <SCORE.INTRA.POLAR.0>
0

>  <SCORE.INTRA.REPUL>
0

>  <SCORE.INTRA.REPUL.0>
0

>  <SCORE.INTRA.SOLV>
-0.17047

>  <SCORE.INTRA.SOLV.lig_0>
-39.3257

>  <SCORE.INTRA.VDW>
-0.0155808

>  <SCORE.INTRA.VDW.0>
-0.734044

>  <SCORE.INTRA.norm>
-0.163473

>  <SCORE.RESTR>
0

>  <SCORE.RESTR.CAVITY>
0

>  <SCORE.RESTR.norm>
0

>  <SCORE.SYSTEM>
0

>  <SCORE.SYSTEM.CONST>
0

>  <SCORE.SYSTEM.DIHEDRAL>
0

>  <SCORE.SYSTEM.SOLV>
0

>  <SCORE.SYSTEM.norm>
0

>  <SCORE.heavy>
10

>  <SCORE.norm>
-0.669678

>  <RMSD>
5.287

$$$$
ligand
 OpenBabel11021811473D
libRbt.so/2013.1/901 2013/11/27
 10  9  0  0  0  0  0  0  0  0999 V2000
   28.4638   16.9781   19.9131 N   0  0  0  0  0  0  0  0  0  0  0  0
   28.7984   15.5691   20.0041 C   0  0  2  0  0  0  0  0  0  0  0  0
   27.5498   14.7292   20.0442 C   0  0  0  0  0  0  0  0  0  0  0  0
   26.6187   15.0592   20.8204 O   0  0  0  0  0  0  0  0  0  0  0  0
   29.6417   15.3274   21.2486 C   0  0  0  0  0  0  0  0  0  0  0  0
   30.7588   16.2124   21.2258 O   0  0  0  0  0  0  0  0  0  0  0  0
   31.5644   15.9239   22.3684 C   0  0  0  0  0  0  0  0  0  0  0  0
   32.7272   16.9135   22.3972 C   0  0  0  0  0  0  0  0  0  0  0  0
   33.5230   16.7828   21.1890 N   0  0  0  0  0  0  0  0  0  0  0  0
   27.2972   14.0761   19.0118 O   0  0  0  0  0  0  0  0  0  0  0  0
  2  1  1  1  0  0  0
  2  5  1  0  0  0  0
  2  3  1  0  0  0  0
  3  4  1  0  0  0  0
  3 10  1  0  0  0  0
  5  6  1  0  0  0  0
  6  7  1  0  0  0  0
  7  8  1  0  0  0  0
  8  9  1  0  0  0  0
M  END
>  <CHROM.1>
-53.52805927,-47.03611802,-177.36583000,-177.08037741,-59.99051076,29.65487063
15.73901954,20.81422099,-2.86783692,0.37435877,1.76044978

>  <Name>
ligand

>  <RI>
0

>  <Rbt.Current_Directory>
/home/itssahil/PROJECTS/Mol_Feturizer/New_Systems/rnas/3DJ0

>  <Rbt.Executable>
rbdock ($Id: //depot/dev/client3/rdock/2013.1/src/exe/rbdock.cxx#4 $)

>  <Rbt.Library>
libRbt.so (2013.1, Build901 2013/11/27)

>  <Rbt.Parameter_File>
/export/apps/rDock/src/rDock_2013.1_src/data/scripts/dock_solv.prm

>  <Rbt.Receptor>
prm/pocket_docking_3.prm

>  <SCORE>
-6.3796

>  <SCORE.INTER>
-4.58326

>  <SCORE.INTER.CONST>
1

>  <SCORE.INTER.POLAR>
0

>  <SCORE.INTER.ROT>
5

>  <SCORE.INTER.SOLV>
20.231

>  <SCORE.INTER.VDW>
-16.7325

>  <SCORE.INTER.norm>
-0.458326

>  <SCORE.INTRA>
-1.79634

>  <SCORE.INTRA.DIHEDRAL>
-3.75943

>  <SCORE.INTRA.DIHEDRAL.0>
6.00299

>  <SCORE.INTRA.POLAR>
0

>  <SCORE.INTRA.POLAR.0>
0

>  <SCORE.INTRA.REPUL>
0

>  <SCORE.INTRA.REPUL.0>
0

>  <SCORE.INTRA.SOLV>
0.50385

>  <SCORE.INTRA.SOLV.lig_0>
-39.3257

>  <SCORE.INTRA.VDW>
-0.168545

>  <SCORE.INTRA.VDW.0>
-0.734044

>  <SCORE.INTRA.norm>
-0.179634

>  <SCORE.RESTR>
0

>  <SCORE.RESTR.CAVITY>
0

>  <SCORE.RESTR.norm>
0

>  <SCORE.SYSTEM>
0

>  <SCORE.SYSTEM.CONST>
0

>  <SCORE.SYSTEM.DIHEDRAL>
0

>  <SCORE.SYSTEM.SOLV>
0

>  <SCORE.SYSTEM.norm>
0

>  <SCORE.heavy>
10

>  <SCORE.norm>
-0.63796

>  <RMSD>
5.287

$$$$
ligand
 OpenBabel11021811473D
libRbt.so/2013.1/901 2013/11/27
 10  9  0  0  0  0  0  0  0  0999 V2000
   28.6248   14.1355   19.4052 N   0  0  0  0  0  0  0  0  0  0  0  0
   28.5887   14.6134   20.7748 C   0  0  2  0  0  0  0  0  0  0  0  0
   27.2055   15.0852   21.1356 C   0  0  0  0  0  0  0  0  0  0  0  0
   26.4448   15.4950   20.2235 O   0  0  0  0  0  0  0  0  0  0  0  0
   29.5964   15.7422   20.9447 C   0  0  0  0  0  0  0  0  0  0  0  0
   30.9077   15.2223   20.7403 O   0  0  0  0  0  0  0  0  0  0  0  0
   31.8322   16.2961   20.9138 C   0  0  0  0  0  0  0  0  0  0  0  0
   32.0004   16.5467   22.4109 C   0  0  0  0  0  0  0  0  0  0  0  0
   32.8865   17.6765   22.6306 N   0  0  0  0  0  0  0  0  0  0  0  0
   26.7217   14.6096   22.1825 O   0  0  0  0  0  0  0  0  0  0  0  0
  2  1  1  6  0  0  0
  2  5  1  0  0  0  0
  2  3  1  0  0  0  0
  3  4  1  0  0  0  0
  3 10  1  0  0  0  0
  5  6  1  0  0  0  0
  6  7  1  0  0  0  0
  7  8  1  0  0  0  0
  8  9  1  0  0  0  0
M  END
>  <CHROM.1>
-64.39550679,-26.37505582,-179.61210604,77.57924734,-177.29168552,29.44287629
15.53404370,21.13517541,-2.78984276,0.21355507,1.05553164

>  <Name>
ligand

>  <RI>
0

>  <Rbt.Current_Directory>
/home/itssahil/PROJECTS/Mol_Feturizer/New_Systems/rnas/3DJ0

>  <Rbt.Executable>
rbdock ($Id: //depot/dev/client3/rdock/2013.1/src/exe/rbdock.cxx#4 $)

>  <Rbt.Library>
libRbt.so (2013.1, Build901 2013/11/27)

>  <Rbt.Parameter_File>
/export/apps/rDock/src/rDock_2013.1_src/data/scripts/dock_solv.prm

>  <Rbt.Receptor>
prm/pocket_docking_4.prm

>  <SCORE>
-6.08702

>  <SCORE.INTER>
-6.08669

>  <SCORE.INTER.CONST>
1

>  <SCORE.INTER.POLAR>
0

>  <SCORE.INTER.ROT>
5

>  <SCORE.INTER.SOLV>
18.4979

>  <SCORE.INTER.VDW>
-17.1571

>  <SCORE.INTER.norm>
-0.608669

>  <SCORE.INTRA>
-0.000334522

>  <SCORE.INTRA.DIHEDRAL>
-2.2524

>  <SCORE.INTRA.DIHEDRAL.0>
6.00299

>  <SCORE.INTRA.POLAR>
0

>  <SCORE.INTRA.POLAR.0>
0

>  <SCORE.INTRA.REPUL>
0

>  <SCORE.INTRA.REPUL.0>
0

>  <SCORE.INTRA.SOLV>
-0.288546

>  <SCORE.INTRA.SOLV.lig_0>
-39.3257

>  <SCORE.INTRA.VDW>
1.27014

>  <SCORE.INTRA.VDW.0>
-0.734044

>  <SCORE.INTRA.norm>
-3.34522e-05

>  <SCORE.RESTR>
0

>  <SCORE.RESTR.CAVITY>
0

>  <SCORE.RESTR.norm>
0

>  <SCORE.SYSTEM>
0

>  <SCORE.SYSTEM.CONST>
0

>  <SCORE.SYSTEM.DIHEDRAL>
0

>  <SCORE.SYSTEM.SOLV>
0

>  <SCORE.SYSTEM.norm>
0

>  <SCORE.heavy>
10

>  <SCORE.norm>
-0.608702

>  <RMSD>
5.287

$$$$
ligand
 OpenBabel11021811473D
libRbt.so/2013.1/901 2013/11/27
 10  9  0  0  0  0  0  0  0  0999 V2000
   26.7168   14.6912   21.6928 N   0  0  0  0  0  0  0  0  0  0  0  0
   27.7607   15.6021   21.2613 C   0  0  2  0  0  0  0  0  0  0  0  0
   28.0811   15.3901   19.8058 C   0  0  0  0  0  0  0  0  0  0  0  0
   27.4509   14.5121   19.1652 O   0  0  0  0  0  0  0  0  0  0  0  0
   29.0033   15.3905   22.1153 C   0  0  0  0  0  0  0  0  0  0  0  0
   30.0049   16.3189   21.7074 O   0  0  0  0  0  0  0  0  0  0  0  0
   31.1458   16.1211   22.5423 C   0  0  0  0  0  0  0  0  0  0  0  0
   32.2370   17.0943   22.1012 C   0  0  0  0  0  0  0  0  0  0  0  0
   33.4175   16.9291   22.9314 N   0  0  0  0  0  0  0  0  0  0  0  0
   28.5679   16.3691   19.2053 O   0  0  0  0  0  0  0  0  0  0  0  0
  2  1  1  1  0  0  0
  2  5  1  0  0  0  0
  2  3  1  0  0  0  0
  3  4  1  0  0  0  0
  3 10  1  0  0  0  0
  5  6  1  0  0  0  0
  6  7  1  0  0  0  0
  7  8  1  0  0  0  0
  8  9  1  0  0  0  0
M  END
>  <CHROM.1>
-178.24786404,0.24346893,178.67610745,179.06959431,179.77469584,29.42827533
15.84223123,21.21219235,2.76448912,-0.40513455,-1.39621782

>  <Name>
ligand

>  <RI>
0

>  <Rbt.Current_Directory>
/home/itssahil/PROJECTS/Mol_Feturizer/New_Systems/rnas/3DJ0

>  <Rbt.Executable>
rbdock ($Id: //depot/dev/client3/rdock/2013.1/src/exe/rbdock.cxx#4 $)

>  <Rbt.Library>
libRbt.so (2013.1, Build901 2013/11/27)

>  <Rbt.Parameter_File>
/export/apps/rDock/src/rDock_2013.1_src/data/scripts/dock_solv.prm

>  <Rbt.Receptor>
prm/pocket_docking_8.prm

>  <SCORE>
-6.61437

>  <SCORE.INTER>
-4.37271

>  <SCORE.INTER.CONST>
1

>  <SCORE.INTER.POLAR>
0

>  <SCORE.INTER.ROT>
5

>  <SCORE.INTER.SOLV>
22.5838

>  <SCORE.INTER.VDW>
-17.3764

>  <SCORE.INTER.norm>
-0.437271

>  <SCORE.INTRA>
-2.24165

>  <SCORE.INTRA.DIHEDRAL>
-3.24788

>  <SCORE.INTRA.DIHEDRAL.0>
6.00299

>  <SCORE.INTRA.POLAR>
0

>  <SCORE.INTRA.POLAR.0>
0

>  <SCORE.INTRA.REPUL>
0

>  <SCORE.INTRA.REPUL.0>
0

>  <SCORE.INTRA.SOLV>
-1.24736

>  <SCORE.INTRA.SOLV.lig_0>
-39.3257

>  <SCORE.INTRA.VDW>
0.0059645

>  <SCORE.INTRA.VDW.0>
-0.734044

>  <SCORE.INTRA.norm>
-0.224165

>  <SCORE.RESTR>
0

>  <SCORE.RESTR.CAVITY>
0

>  <SCORE.RESTR.norm>
0

>  <SCORE.SYSTEM>
0

>  <SCORE.SYSTEM.CONST>
0

>  <SCORE.SYSTEM.DIHEDRAL>
0

>  <SCORE.SYSTEM.SOLV>
0

>  <SCORE.SYSTEM.norm>
0

>  <SCORE.heavy>
10

>  <SCORE.norm>
-0.661437

>  <RMSD>
5.291

$$$$
ligand
 OpenBabel11021811473D
libRbt.so/2013.1/901 2013/11/27
 10  9  0  0  0  0  0  0  0  0999 V2000
   27.5350   14.4042   19.1328 N   0  0  0  0  0  0  0  0  0  0  0  0
   28.2356   14.5474   20.3954 C   0  0  2  0  0  0  0  0  0  0  0  0
   27.2596   14.7524   21.5230 C   0  0  0  0  0  0  0  0  0  0  0  0
   27.6936   15.1104   22.6463 O   0  0  0  0  0  0  0  0  0  0  0  0
   29.2019   15.7209   20.3089 C   0  0  0  0  0  0  0  0  0  0  0  0
   30.0852   15.6722   21.4265 O   0  0  0  0  0  0  0  0  0  0  0  0
   31.0126   16.7493   21.2940 C   0  0  0  0  0  0  0  0  0  0  0  0
   32.0043   16.6733   22.4528 C   0  0  0  0  0  0  0  0  0  0  0  0
   32.9414   17.7809   22.3804 N   0  0  0  0  0  0  0  0  0  0  0  0
   26.0905   15.0321   21.1897 O   0  0  0  0  0  0  0  0  0  0  0  0
  2  1  1  6  0  0  0
  2  5  1  0  0  0  0
  2  3  1  0  0  0  0
  3  4  1  0  0  0  0
  3 10  1  0  0  0  0
  5  6  1  0  0  0  0
  6  7  1  0  0  0  0
  7  8  1  0  0  0  0
  8  9  1  0  0  0  0
M  END
>  <CHROM.1>
-167.30182212,-168.49992632,177.73183949,-177.54649005,-178.10952135,29.17474721
15.64278990,21.29922686,-2.82301790,0.37673811,1.34656702

>  <Name>
ligand

>  <RI>
0

>  <Rbt.Current_Directory>
/home/itssahil/PROJECTS/Mol_Feturizer/New_Systems/rnas/3DJ0

>  <Rbt.Executable>
rbdock ($Id: //depot/dev/client3/rdock/2013.1/src/exe/rbdock.cxx#4 $)

>  <Rbt.Library>
libRbt.so (2013.1, Build901 2013/11/27)

>  <Rbt.Parameter_File>
/export/apps/rDock/src/rDock_2013.1_src/data/scripts/dock_solv.prm

>  <Rbt.Receptor>
prm/pocket_docking_6.prm

>  <SCORE>
-7.64805

>  <SCORE.INTER>
-5.8107

>  <SCORE.INTER.CONST>
1

>  <SCORE.INTER.POLAR>
0

>  <SCORE.INTER.ROT>
5

>  <SCORE.INTER.SOLV>
19.4117

>  <SCORE.INTER.VDW>
-17.2777

>  <SCORE.INTER.norm>
-0.58107

>  <SCORE.INTRA>
-1.83735

>  <SCORE.INTRA.DIHEDRAL>
-3.35267

>  <SCORE.INTRA.DIHEDRAL.0>
6.00299

>  <SCORE.INTRA.POLAR>
0

>  <SCORE.INTRA.POLAR.0>
0

>  <SCORE.INTRA.REPUL>
0

>  <SCORE.INTRA.REPUL.0>
0

>  <SCORE.INTRA.SOLV>
-1.13503

>  <SCORE.INTRA.SOLV.lig_0>
-39.3257

>  <SCORE.INTRA.VDW>
0.406504

>  <SCORE.INTRA.VDW.0>
-0.734044

>  <SCORE.INTRA.norm>
-0.183735

>  <SCORE.RESTR>
0

>  <SCORE.RESTR.CAVITY>
0

>  <SCORE.RESTR.norm>
0

>  <SCORE.SYSTEM>
0

>  <SCORE.SYSTEM.CONST>
0

>  <SCORE.SYSTEM.DIHEDRAL>
0

>  <SCORE.SYSTEM.SOLV>
0

>  <SCORE.SYSTEM.norm>
0

>  <SCORE.heavy>
10

>  <SCORE.norm>
-0.764805

>  <RMSD>
5.292

$$$$
ligand
 OpenBabel11021811473D
libRbt.so/2013.1/901 2013/11/27
 10  9  0  0  0  0  0  0  0  0999 V2000
   29.1728   14.9037   22.9810 N   0  0  0  0  0  0  0  0  0  0  0  0
   28.7905   15.8150   21.9186 C   0  0  2  0  0  0  0  0  0  0  0  0
   27.5583   15.3177   21.2113 C   0  0  0  0  0  0  0  0  0  0  0  0
   26.7061   14.6620   21.8611 O   0  0  0  0  0  0  0  0  0  0  0  0
   29.9445   15.9614   20.9363 C   0  0  0  0  0  0  0  0  0  0  0  0
   31.1216   16.3131   21.6591 O   0  0  0  0  0  0  0  0  0  0  0  0
   32.1842   16.4536   20.7163 C   0  0  0  0  0  0  0  0  0  0  0  0
   33.4620   16.7920   21.4811 C   0  0  0  0  0  0  0  0  0  0  0  0
   33.2380   17.9401   22.3424 N   0  0  0  0  0  0  0  0  0  0  0  0
   27.2097   15.9629   20.2022 O   0  0  0  0  0  0  0  0  0  0  0  0
  2  1  1  1  0  0  0
  2  5  1  0  0  0  0
  2  3  1  0  0  0  0
  3  4  1  0  0  0  0
  3 10  1  0  0  0  0
  5  6  1  0  0  0  0
  6  7  1  0  0  0  0
  7  8  1  0  0  0  0
  8  9  1  0  0  0  0
M  END
>  <CHROM.1>
-52.66117827,31.44630416,-179.58427585,-178.42802855,-53.03486253,29.89767475
16.00323548,21.51823022,-3.07025248,-0.31395439,-1.20089515

>  <Name>
ligand

>  <RI>
0

>  <Rbt.Current_Directory>
/home/itssahil/PROJECTS/Mol_Feturizer/New_Systems/rnas/3DJ0

>  <Rbt.Executable>
rbdock ($Id: //depot/dev/client3/rdock/2013.1/src/exe/rbdock.cxx#4 $)

>  <Rbt.Library>
libRbt.so (2013.1, Build901 2013/11/27)

>  <Rbt.Parameter_File>
/export/apps/rDock/src/rDock_2013.1_src/data/scripts/dock_solv.prm

>  <Rbt.Receptor>
prm/blind_docking_60.prm

>  <SCORE>
-6.33301

>  <SCORE.INTER>
-5.43228

>  <SCORE.INTER.CONST>
1

>  <SCORE.INTER.POLAR>
0

>  <SCORE.INTER.ROT>
5

>  <SCORE.INTER.SOLV>
19.6663

>  <SCORE.INTER.VDW>
-17.1103

>  <SCORE.INTER.norm>
-0.543228

>  <SCORE.INTRA>
-0.900724

>  <SCORE.INTRA.DIHEDRAL>
-2.9878

>  <SCORE.INTRA.DIHEDRAL.0>
6.00299

>  <SCORE.INTRA.POLAR>
0

>  <SCORE.INTRA.POLAR.0>
0

>  <SCORE.INTRA.REPUL>
0

>  <SCORE.INTRA.REPUL.0>
0

>  <SCORE.INTRA.SOLV>
0.48831

>  <SCORE.INTRA.SOLV.lig_0>
-39.3257

>  <SCORE.INTRA.VDW>
0.349022

>  <SCORE.INTRA.VDW.0>
-0.734044

>  <SCORE.INTRA.norm>
-0.0900724

>  <SCORE.RESTR>
0

>  <SCORE.RESTR.CAVITY>
0

>  <SCORE.RESTR.norm>
0

>  <SCORE.SYSTEM>
0

>  <SCORE.SYSTEM.CONST>
0

>  <SCORE.SYSTEM.DIHEDRAL>
0

>  <SCORE.SYSTEM.SOLV>
0

>  <SCORE.SYSTEM.norm>
0

>  <SCORE.heavy>
10

>  <SCORE.norm>
-0.633301

>  <RMSD>
5.293

$$$$
ligand
 OpenBabel11021811473D
libRbt.so/2013.1/901 2013/11/27
 10  9  0  0  0  0  0  0  0  0999 V2000
   28.4028   16.9974   19.9684 N   0  0  0  0  0  0  0  0  0  0  0  0
   28.7534   15.5917   20.0482 C   0  0  2  0  0  0  0  0  0  0  0  0
   27.5144   14.7376   20.0884 C   0  0  0  0  0  0  0  0  0  0  0  0
   26.5102   15.1511   20.7201 O   0  0  0  0  0  0  0  0  0  0  0  0
   29.6051   15.3510   21.2871 C   0  0  0  0  0  0  0  0  0  0  0  0
   30.7325   16.2222   21.2462 O   0  0  0  0  0  0  0  0  0  0  0  0
   31.5461   15.9329   22.3829 C   0  0  0  0  0  0  0  0  0  0  0  0
   32.6649   16.9703   22.4481 C   0  0  0  0  0  0  0  0  0  0  0  0
   33.4787   16.9018   21.2468 N   0  0  0  0  0  0  0  0  0  0  0  0
   27.3679   13.9424   19.1385 O   0  0  0  0  0  0  0  0  0  0  0  0
  2  1  1  1  0  0  0
  2  5  1  0  0  0  0
  2  3  1  0  0  0  0
  3  4  1  0  0  0  0
  3 10  1  0  0  0  0
  5  6  1  0  0  0  0
  6  7  1  0  0  0  0
  7  8  1  0  0  0  0
  8  9  1  0  0  0  0
M  END
>  <CHROM.1>
-55.14990612,-36.86253653,-177.28630461,-173.11744161,-60.63406490,29.61884715
15.76040624,20.84847883,2.86845976,0.38382778,3.03826848

>  <Name>
ligand

>  <RI>
0

>  <Rbt.Current_Directory>
/home/itssahil/PROJECTS/Mol_Feturizer/New_Systems/rnas/3DJ0

>  <Rbt.Executable>
rbdock ($Id: //depot/dev/client3/rdock/2013.1/src/exe/rbdock.cxx#4 $)

>  <Rbt.Library>
libRbt.so (2013.1, Build901 2013/11/27)

>  <Rbt.Parameter_File>
/export/apps/rDock/src/rDock_2013.1_src/data/scripts/dock_solv.prm

>  <Rbt.Receptor>
prm/blind_docking_60.prm

>  <SCORE>
-6.18594

>  <SCORE.INTER>
-4.45936

>  <SCORE.INTER.CONST>
1

>  <SCORE.INTER.POLAR>
0

>  <SCORE.INTER.ROT>
5

>  <SCORE.INTER.SOLV>
20.2448

>  <SCORE.INTER.VDW>
-16.6545

>  <SCORE.INTER.norm>
-0.445936

>  <SCORE.INTRA>
-1.72658

>  <SCORE.INTRA.DIHEDRAL>
-3.57125

>  <SCORE.INTRA.DIHEDRAL.0>
6.00299

>  <SCORE.INTRA.POLAR>
0

>  <SCORE.INTRA.POLAR.0>
0

>  <SCORE.INTRA.REPUL>
0

>  <SCORE.INTRA.REPUL.0>
0

>  <SCORE.INTRA.SOLV>
0.448659

>  <SCORE.INTRA.SOLV.lig_0>
-39.3257

>  <SCORE.INTRA.VDW>
-0.165285

>  <SCORE.INTRA.VDW.0>
-0.734044

>  <SCORE.INTRA.norm>
-0.172658

>  <SCORE.RESTR>
0

>  <SCORE.RESTR.CAVITY>
0

>  <SCORE.RESTR.norm>
0

>  <SCORE.SYSTEM>
0

>  <SCORE.SYSTEM.CONST>
0

>  <SCORE.SYSTEM.DIHEDRAL>
0

>  <SCORE.SYSTEM.SOLV>
0

>  <SCORE.SYSTEM.norm>
0

>  <SCORE.heavy>
10

>  <SCORE.norm>
-0.618594

>  <RMSD>
5.298

$$$$
ligand
 OpenBabel11021811473D
libRbt.so/2013.1/901 2013/11/27
 10  9  0  0  0  0  0  0  0  0999 V2000
   27.5325   14.3545   19.0653 N   0  0  0  0  0  0  0  0  0  0  0  0
   28.2233   14.4936   20.3337 C   0  0  2  0  0  0  0  0  0  0  0  0
   27.2387   14.6946   21.4545 C   0  0  0  0  0  0  0  0  0  0  0  0
   27.6683   14.9987   22.5952 O   0  0  0  0  0  0  0  0  0  0  0  0
   29.1899   15.6677   20.2586 C   0  0  0  0  0  0  0  0  0  0  0  0
   30.0378   15.6390   21.4039 O   0  0  0  0  0  0  0  0  0  0  0  0
   30.9905   16.6930   21.2652 C   0  0  0  0  0  0  0  0  0  0  0  0
   31.9295   16.6518   22.4688 C   0  0  0  0  0  0  0  0  0  0  0  0
   32.9135   17.7158   22.3699 N   0  0  0  0  0  0  0  0  0  0  0  0
   26.0850   15.0265   21.1153 O   0  0  0  0  0  0  0  0  0  0  0  0
  2  1  1  6  0  0  0
  2  5  1  0  0  0  0
  2  3  1  0  0  0  0
  3  4  1  0  0  0  0
  3 10  1  0  0  0  0
  5  6  1  0  0  0  0
  6  7  1  0  0  0  0
  7  8  1  0  0  0  0
  8  9  1  0  0  0  0
M  END
>  <CHROM.1>
-169.05606194,-171.21233677,176.16096189,-178.55710471,-179.71156218,29.14954662
15.59209750,21.25729269,-2.81409846,0.38006399,1.35634641

>  <Name>
ligand

>  <RI>
0

>  <Rbt.Current_Directory>
/home/itssahil/PROJECTS/Mol_Feturizer/New_Systems/rnas/3DJ0

>  <Rbt.Executable>
rbdock ($Id: //depot/dev/client3/rdock/2013.1/src/exe/rbdock.cxx#4 $)

>  <Rbt.Library>
libRbt.so (2013.1, Build901 2013/11/27)

>  <Rbt.Parameter_File>
/export/apps/rDock/src/rDock_2013.1_src/data/scripts/dock_solv.prm

>  <Rbt.Receptor>
prm/blind_docking_60.prm

>  <SCORE>
-7.67138

>  <SCORE.INTER>
-5.73568

>  <SCORE.INTER.CONST>
1

>  <SCORE.INTER.POLAR>
0

>  <SCORE.INTER.ROT>
5

>  <SCORE.INTER.SOLV>
19.4875

>  <SCORE.INTER.VDW>
-17.253

>  <SCORE.INTER.norm>
-0.573568

>  <SCORE.INTRA>
-1.9357

>  <SCORE.INTRA.DIHEDRAL>
-3.47274

>  <SCORE.INTRA.DIHEDRAL.0>
6.00299

>  <SCORE.INTRA.POLAR>
0

>  <SCORE.INTRA.POLAR.0>
0

>  <SCORE.INTRA.REPUL>
0

>  <SCORE.INTRA.REPUL.0>
0

>  <SCORE.INTRA.SOLV>
-1.13339

>  <SCORE.INTRA.SOLV.lig_0>
-39.3257

>  <SCORE.INTRA.VDW>
0.367368

>  <SCORE.INTRA.VDW.0>
-0.734044

>  <SCORE.INTRA.norm>
-0.19357

>  <SCORE.RESTR>
0

>  <SCORE.RESTR.CAVITY>
0

>  <SCORE.RESTR.norm>
0

>  <SCORE.SYSTEM>
0

>  <SCORE.SYSTEM.CONST>
0

>  <SCORE.SYSTEM.DIHEDRAL>
0

>  <SCORE.SYSTEM.SOLV>
0

>  <SCORE.SYSTEM.norm>
0

>  <SCORE.heavy>
10

>  <SCORE.norm>
-0.767138

>  <RMSD>
5.301

$$$$
ligand
 OpenBabel11021811473D
libRbt.so/2013.1/901 2013/11/27
 10  9  0  0  0  0  0  0  0  0999 V2000
   26.7467   14.7129   21.8307 N   0  0  0  0  0  0  0  0  0  0  0  0
   27.8119   15.5590   21.3260 C   0  0  2  0  0  0  0  0  0  0  0  0
   28.0958   15.2488   19.8806 C   0  0  0  0  0  0  0  0  0  0  0  0
   27.4882   14.2960   19.3317 O   0  0  0  0  0  0  0  0  0  0  0  0
   29.0635   15.3556   22.1689 C   0  0  0  0  0  0  0  0  0  0  0  0
   30.0634   16.2746   21.7361 O   0  0  0  0  0  0  0  0  0  0  0  0
   31.2222   16.0674   22.5437 C   0  0  0  0  0  0  0  0  0  0  0  0
   32.3050   17.0430   22.0878 C   0  0  0  0  0  0  0  0  0  0  0  0
   33.4888   16.8966   22.9166 N   0  0  0  0  0  0  0  0  0  0  0  0
   28.5159   16.1990   19.1902 O   0  0  0  0  0  0  0  0  0  0  0  0
  2  1  1  1  0  0  0
  2  5  1  0  0  0  0
  2  3  1  0  0  0  0
  3  4  1  0  0  0  0
  3 10  1  0  0  0  0
  5  6  1  0  0  0  0
  6  7  1  0  0  0  0
  7  8  1  0  0  0  0
  8  9  1  0  0  0  0
M  END
>  <CHROM.1>
-175.03911996,-4.57380162,179.78208672,179.80849866,178.03867697,29.46883127
15.76312552,21.26079782,2.76691536,-0.39344551,-1.44367869

>  <Name>
ligand

>  <RI>
0

>  <Rbt.Current_Directory>
/home/itssahil/PROJECTS/Mol_Feturizer/New_Systems/rnas/3DJ0

>  <Rbt.Executable>
rbdock ($Id: //depot/dev/client3/rdock/2013.1/src/exe/rbdock.cxx#4 $)

>  <Rbt.Library>
libRbt.so (2013.1, Build901 2013/11/27)

>  <Rbt.Parameter_File>
/export/apps/rDock/src/rDock_2013.1_src/data/scripts/dock_solv.prm

>  <Rbt.Receptor>
prm/pocket_docking_6.prm

>  <SCORE>
-6.70729

>  <SCORE.INTER>
-4.38091

>  <SCORE.INTER.CONST>
1

>  <SCORE.INTER.POLAR>
0

>  <SCORE.INTER.ROT>
5

>  <SCORE.INTER.SOLV>
22.8455

>  <SCORE.INTER.VDW>
-17.4691

>  <SCORE.INTER.norm>
-0.438091

>  <SCORE.INTRA>
-2.32637

>  <SCORE.INTRA.DIHEDRAL>
-3.23546

>  <SCORE.INTRA.DIHEDRAL.0>
6.00299

>  <SCORE.INTRA.POLAR>
0

>  <SCORE.INTRA.POLAR.0>
0

>  <SCORE.INTRA.REPUL>
0

>  <SCORE.INTRA.REPUL.0>
0

>  <SCORE.INTRA.SOLV>
-1.27122

>  <SCORE.INTRA.SOLV.lig_0>
-39.3257

>  <SCORE.INTRA.VDW>
-0.0730362

>  <SCORE.INTRA.VDW.0>
-0.734044

>  <SCORE.INTRA.norm>
-0.232637

>  <SCORE.RESTR>
0

>  <SCORE.RESTR.CAVITY>
0

>  <SCORE.RESTR.norm>
0

>  <SCORE.SYSTEM>
0

>  <SCORE.SYSTEM.CONST>
0

>  <SCORE.SYSTEM.DIHEDRAL>
0

>  <SCORE.SYSTEM.SOLV>
0

>  <SCORE.SYSTEM.norm>
0

>  <SCORE.heavy>
10

>  <SCORE.norm>
-0.670729

>  <RMSD>
5.305

$$$$
ligand
 OpenBabel11021811473D
libRbt.so/2013.1/901 2013/11/27
 10  9  0  0  0  0  0  0  0  0999 V2000
   27.5213   14.3655   19.0057 N   0  0  0  0  0  0  0  0  0  0  0  0
   28.1998   14.4977   20.2814 C   0  0  2  0  0  0  0  0  0  0  0  0
   27.2052   14.7079   21.3917 C   0  0  0  0  0  0  0  0  0  0  0  0
   27.6271   14.9739   22.5448 O   0  0  0  0  0  0  0  0  0  0  0  0
   29.1783   15.6625   20.2170 C   0  0  0  0  0  0  0  0  0  0  0  0
   30.0109   15.6278   21.3734 O   0  0  0  0  0  0  0  0  0  0  0  0
   30.9301   16.7159   21.2792 C   0  0  0  0  0  0  0  0  0  0  0  0
   31.8752   16.6501   22.4770 C   0  0  0  0  0  0  0  0  0  0  0  0
   32.7767   17.7890   22.4637 N   0  0  0  0  0  0  0  0  0  0  0  0
   26.0684   15.0849   21.0428 O   0  0  0  0  0  0  0  0  0  0  0  0
  2  1  1  6  0  0  0
  2  5  1  0  0  0  0
  2  3  1  0  0  0  0
  3  4  1  0  0  0  0
  3 10  1  0  0  0  0
  5  6  1  0  0  0  0
  6  7  1  0  0  0  0
  7  8  1  0  0  0  0
  8  9  1  0  0  0  0
M  END
>  <CHROM.1>
-169.24062340,-173.02215715,179.15786192,-177.18629951,-176.51760552,29.10830263
15.60589535,21.23130362,-2.78597662,0.37995638,1.34585150

>  <Name>
ligand

>  <RI>
0

>  <Rbt.Current_Directory>
/home/itssahil/PROJECTS/Mol_Feturizer/New_Systems/rnas/3DJ0

>  <Rbt.Executable>
rbdock ($Id: //depot/dev/client3/rdock/2013.1/src/exe/rbdock.cxx#4 $)

>  <Rbt.Library>
libRbt.so (2013.1, Build901 2013/11/27)

>  <Rbt.Parameter_File>
/export/apps/rDock/src/rDock_2013.1_src/data/scripts/dock_solv.prm

>  <Rbt.Receptor>
prm/blind_docking_60.prm

>  <SCORE>
-7.70856

>  <SCORE.INTER>
-5.72238

>  <SCORE.INTER.CONST>
1

>  <SCORE.INTER.POLAR>
0

>  <SCORE.INTER.ROT>
5

>  <SCORE.INTER.SOLV>
19.383

>  <SCORE.INTER.VDW>
-17.2092

>  <SCORE.INTER.norm>
-0.572238

>  <SCORE.INTRA>
-1.98618

>  <SCORE.INTRA.DIHEDRAL>
-3.47266

>  <SCORE.INTRA.DIHEDRAL.0>
6.00299

>  <SCORE.INTRA.POLAR>
0

>  <SCORE.INTRA.POLAR.0>
0

>  <SCORE.INTRA.REPUL>
0

>  <SCORE.INTRA.REPUL.0>
0

>  <SCORE.INTRA.SOLV>
-1.13266

>  <SCORE.INTRA.SOLV.lig_0>
-39.3257

>  <SCORE.INTRA.VDW>
0.316483

>  <SCORE.INTRA.VDW.0>
-0.734044

>  <SCORE.INTRA.norm>
-0.198618

>  <SCORE.RESTR>
0

>  <SCORE.RESTR.CAVITY>
0

>  <SCORE.RESTR.norm>
0

>  <SCORE.SYSTEM>
0

>  <SCORE.SYSTEM.CONST>
0

>  <SCORE.SYSTEM.DIHEDRAL>
0

>  <SCORE.SYSTEM.SOLV>
0

>  <SCORE.SYSTEM.norm>
0

>  <SCORE.heavy>
10

>  <SCORE.norm>
-0.770856

>  <RMSD>
5.308

$$$$
ligand
 OpenBabel11021811473D
libRbt.so/2013.1/901 2013/11/27
 10  9  0  0  0  0  0  0  0  0999 V2000
   27.5321   14.3738   19.0160 N   0  0  0  0  0  0  0  0  0  0  0  0
   28.2079   14.4978   20.2940 C   0  0  2  0  0  0  0  0  0  0  0  0
   27.2108   14.6981   21.4038 C   0  0  0  0  0  0  0  0  0  0  0  0
   27.6297   14.9667   22.5574 O   0  0  0  0  0  0  0  0  0  0  0  0
   29.1846   15.6647   20.2400 C   0  0  0  0  0  0  0  0  0  0  0  0
   30.0206   15.6180   21.3934 O   0  0  0  0  0  0  0  0  0  0  0  0
   30.9460   16.7011   21.3029 C   0  0  0  0  0  0  0  0  0  0  0  0
   31.8901   16.6264   22.5009 C   0  0  0  0  0  0  0  0  0  0  0  0
   32.7893   17.7673   22.4988 N   0  0  0  0  0  0  0  0  0  0  0  0
   26.0710   15.0653   21.0546 O   0  0  0  0  0  0  0  0  0  0  0  0
  2  1  1  6  0  0  0
  2  5  1  0  0  0  0
  2  3  1  0  0  0  0
  3  4  1  0  0  0  0
  3 10  1  0  0  0  0
  5  6  1  0  0  0  0
  6  7  1  0  0  0  0
  7  8  1  0  0  0  0
  8  9  1  0  0  0  0
M  END
>  <CHROM.1>
-168.87197819,-172.46805789,178.63243083,-177.46877301,-175.94924945,29.11708448
15.59609619,21.24974638,-2.78662070,0.37840394,1.35209544

>  <Name>
ligand

>  <RI>
0

>  <Rbt.Current_Directory>
/home/itssahil/PROJECTS/Mol_Feturizer/New_Systems/rnas/3DJ0

>  <Rbt.Executable>
rbdock ($Id: //depot/dev/client3/rdock/2013.1/src/exe/rbdock.cxx#4 $)

>  <Rbt.Library>
libRbt.so (2013.1, Build901 2013/11/27)

>  <Rbt.Parameter_File>
/export/apps/rDock/src/rDock_2013.1_src/data/scripts/dock_solv.prm

>  <Rbt.Receptor>
prm/pocket_docking_3.prm

>  <SCORE>
-7.63032

>  <SCORE.INTER>
-5.67161

>  <SCORE.INTER.CONST>
1

>  <SCORE.INTER.POLAR>
0

>  <SCORE.INTER.ROT>
5

>  <SCORE.INTER.SOLV>
19.3439

>  <SCORE.INTER.VDW>
-17.1624

>  <SCORE.INTER.norm>
-0.567161

>  <SCORE.INTRA>
-1.95871

>  <SCORE.INTRA.DIHEDRAL>
-3.43357

>  <SCORE.INTRA.DIHEDRAL.0>
6.00299

>  <SCORE.INTRA.POLAR>
0

>  <SCORE.INTRA.POLAR.0>
0

>  <SCORE.INTRA.REPUL>
0

>  <SCORE.INTRA.REPUL.0>
0

>  <SCORE.INTRA.SOLV>
-1.13431

>  <SCORE.INTRA.SOLV.lig_0>
-39.3257

>  <SCORE.INTRA.VDW>
0.325231

>  <SCORE.INTRA.VDW.0>
-0.734044

>  <SCORE.INTRA.norm>
-0.195871

>  <SCORE.RESTR>
0

>  <SCORE.RESTR.CAVITY>
0

>  <SCORE.RESTR.norm>
0

>  <SCORE.SYSTEM>
0

>  <SCORE.SYSTEM.CONST>
0

>  <SCORE.SYSTEM.DIHEDRAL>
0

>  <SCORE.SYSTEM.SOLV>
0

>  <SCORE.SYSTEM.norm>
0

>  <SCORE.heavy>
10

>  <SCORE.norm>
-0.763032

>  <RMSD>
5.308

$$$$
ligand
 OpenBabel11021811473D
libRbt.so/2013.1/901 2013/11/27
 10  9  0  0  0  0  0  0  0  0999 V2000
   26.7358   14.6079   21.8471 N   0  0  0  0  0  0  0  0  0  0  0  0
   27.7593   15.5177   21.3674 C   0  0  2  0  0  0  0  0  0  0  0  0
   28.0477   15.2709   19.9107 C   0  0  0  0  0  0  0  0  0  0  0  0
   27.4391   14.3454   19.3178 O   0  0  0  0  0  0  0  0  0  0  0  0
   29.0239   15.3410   22.1968 C   0  0  0  0  0  0  0  0  0  0  0  0
   29.9632   16.3456   21.8224 O   0  0  0  0  0  0  0  0  0  0  0  0
   31.1545   16.1294   22.5786 C   0  0  0  0  0  0  0  0  0  0  0  0
   32.1773   17.1893   22.1752 C   0  0  0  0  0  0  0  0  0  0  0  0
   33.4301   16.9650   22.8754 N   0  0  0  0  0  0  0  0  0  0  0  0
   28.4737   16.2493   19.2646 O   0  0  0  0  0  0  0  0  0  0  0  0
  2  1  1  1  0  0  0
  2  5  1  0  0  0  0
  2  3  1  0  0  0  0
  3  4  1  0  0  0  0
  3 10  1  0  0  0  0
  5  6  1  0  0  0  0
  6  7  1  0  0  0  0
  7  8  1  0  0  0  0
  8  9  1  0  0  0  0
M  END
>  <CHROM.1>
-173.16521157,-1.73012166,-177.97982480,179.32439393,-177.21271664,29.40882505
15.79565305,21.29574993,2.78332840,-0.42556097,-1.41171287

>  <Name>
ligand

>  <RI>
0

>  <Rbt.Current_Directory>
/home/itssahil/PROJECTS/Mol_Feturizer/New_Systems/rnas/3DJ0

>  <Rbt.Executable>
rbdock ($Id: //depot/dev/client3/rdock/2013.1/src/exe/rbdock.cxx#4 $)

>  <Rbt.Library>
libRbt.so (2013.1, Build901 2013/11/27)

>  <Rbt.Parameter_File>
/export/apps/rDock/src/rDock_2013.1_src/data/scripts/dock_solv.prm

>  <Rbt.Receptor>
prm/pocket_docking_3.prm

>  <SCORE>
-6.62359

>  <SCORE.INTER>
-4.36606

>  <SCORE.INTER.CONST>
1

>  <SCORE.INTER.POLAR>
0

>  <SCORE.INTER.ROT>
5

>  <SCORE.INTER.SOLV>
22.827

>  <SCORE.INTER.VDW>
-17.4531

>  <SCORE.INTER.norm>
-0.436606

>  <SCORE.INTRA>
-2.25753

>  <SCORE.INTRA.DIHEDRAL>
-3.07635

>  <SCORE.INTRA.DIHEDRAL.0>
6.00299

>  <SCORE.INTRA.POLAR>
0

>  <SCORE.INTRA.POLAR.0>
0

>  <SCORE.INTRA.REPUL>
0

>  <SCORE.INTRA.REPUL.0>
0

>  <SCORE.INTRA.SOLV>
-1.27445

>  <SCORE.INTRA.SOLV.lig_0>
-39.3257

>  <SCORE.INTRA.VDW>
-0.0821287

>  <SCORE.INTRA.VDW.0>
-0.734044

>  <SCORE.INTRA.norm>
-0.225753

>  <SCORE.RESTR>
0

>  <SCORE.RESTR.CAVITY>
0

>  <SCORE.RESTR.norm>
0

>  <SCORE.SYSTEM>
0

>  <SCORE.SYSTEM.CONST>
0

>  <SCORE.SYSTEM.DIHEDRAL>
0

>  <SCORE.SYSTEM.SOLV>
0

>  <SCORE.SYSTEM.norm>
0

>  <SCORE.heavy>
10

>  <SCORE.norm>
-0.662359

>  <RMSD>
5.311

$$$$
ligand
 OpenBabel11021811473D
libRbt.so/2013.1/901 2013/11/27
 10  9  0  0  0  0  0  0  0  0999 V2000
   27.5319   14.4006   19.0093 N   0  0  0  0  0  0  0  0  0  0  0  0
   28.2088   14.5251   20.2867 C   0  0  2  0  0  0  0  0  0  0  0  0
   27.2115   14.7032   21.4001 C   0  0  0  0  0  0  0  0  0  0  0  0
   27.6285   14.9782   22.5529 O   0  0  0  0  0  0  0  0  0  0  0  0
   29.1686   15.7061   20.2391 C   0  0  0  0  0  0  0  0  0  0  0  0
   30.0287   15.6454   21.3741 O   0  0  0  0  0  0  0  0  0  0  0  0
   30.9580   16.7242   21.2726 C   0  0  0  0  0  0  0  0  0  0  0  0
   31.9265   16.6350   22.4500 C   0  0  0  0  0  0  0  0  0  0  0  0
   32.8761   17.7330   22.3987 N   0  0  0  0  0  0  0  0  0  0  0  0
   26.0633   15.0478   21.0552 O   0  0  0  0  0  0  0  0  0  0  0  0
  2  1  1  6  0  0  0
  2  5  1  0  0  0  0
  2  3  1  0  0  0  0
  3  4  1  0  0  0  0
  3 10  1  0  0  0  0
  5  6  1  0  0  0  0
  6  7  1  0  0  0  0
  7  8  1  0  0  0  0
  8  9  1  0  0  0  0
M  END
>  <CHROM.1>
-167.52014987,-172.00008270,177.28302583,-177.49475945,-178.90875472,29.12871091
15.60781943,21.22780614,-2.81003073,0.38051286,1.37031438

>  <Name>
ligand

>  <RI>
0

>  <Rbt.Current_Directory>
/home/itssahil/PROJECTS/Mol_Feturizer/New_Systems/rnas/3DJ0

>  <Rbt.Executable>
rbdock ($Id: //depot/dev/client3/rdock/2013.1/src/exe/rbdock.cxx#4 $)

>  <Rbt.Library>
libRbt.so (2013.1, Build901 2013/11/27)

>  <Rbt.Parameter_File>
/export/apps/rDock/src/rDock_2013.1_src/data/scripts/dock_solv.prm

>  <Rbt.Receptor>
prm/pocket_docking_2.prm

>  <SCORE>
-7.66653

>  <SCORE.INTER>
-5.72878

>  <SCORE.INTER.CONST>
1

>  <SCORE.INTER.POLAR>
0

>  <SCORE.INTER.ROT>
5

>  <SCORE.INTER.SOLV>
19.4665

>  <SCORE.INTER.VDW>
-17.2413

>  <SCORE.INTER.norm>
-0.572878

>  <SCORE.INTRA>
-1.93776

>  <SCORE.INTRA.DIHEDRAL>
-3.35814

>  <SCORE.INTRA.DIHEDRAL.0>
6.00299

>  <SCORE.INTRA.POLAR>
0

>  <SCORE.INTRA.POLAR.0>
0

>  <SCORE.INTRA.REPUL>
0

>  <SCORE.INTRA.REPUL.0>
0

>  <SCORE.INTRA.SOLV>
-1.14917

>  <SCORE.INTRA.SOLV.lig_0>
-39.3257

>  <SCORE.INTRA.VDW>
0.3159

>  <SCORE.INTRA.VDW.0>
-0.734044

>  <SCORE.INTRA.norm>
-0.193776

>  <SCORE.RESTR>
0

>  <SCORE.RESTR.CAVITY>
0

>  <SCORE.RESTR.norm>
0

>  <SCORE.SYSTEM>
0

>  <SCORE.SYSTEM.CONST>
0

>  <SCORE.SYSTEM.DIHEDRAL>
0

>  <SCORE.SYSTEM.SOLV>
0

>  <SCORE.SYSTEM.norm>
0

>  <SCORE.heavy>
10

>  <SCORE.norm>
-0.766653

>  <RMSD>
5.312

$$$$
ligand
 OpenBabel11021811473D
libRbt.so/2013.1/901 2013/11/27
 10  9  0  0  0  0  0  0  0  0999 V2000
   27.5283   14.3821   18.9822 N   0  0  0  0  0  0  0  0  0  0  0  0
   28.2012   14.5056   20.2618 C   0  0  2  0  0  0  0  0  0  0  0  0
   27.2018   14.7088   21.3690 C   0  0  0  0  0  0  0  0  0  0  0  0
   27.6169   15.0047   22.5172 O   0  0  0  0  0  0  0  0  0  0  0  0
   29.1805   15.6703   20.2095 C   0  0  0  0  0  0  0  0  0  0  0  0
   30.0358   15.6030   21.3477 O   0  0  0  0  0  0  0  0  0  0  0  0
   30.9330   16.7115   21.2825 C   0  0  0  0  0  0  0  0  0  0  0  0
   31.9030   16.6128   22.4579 C   0  0  0  0  0  0  0  0  0  0  0  0
   32.7654   17.7811   22.4918 N   0  0  0  0  0  0  0  0  0  0  0  0
   26.0556   15.0508   21.0145 O   0  0  0  0  0  0  0  0  0  0  0  0
  2  1  1  6  0  0  0
  2  5  1  0  0  0  0
  2  3  1  0  0  0  0
  3  4  1  0  0  0  0
  3 10  1  0  0  0  0
  5  6  1  0  0  0  0
  6  7  1  0  0  0  0
  7  8  1  0  0  0  0
  8  9  1  0  0  0  0
M  END
>  <CHROM.1>
-167.41419613,-171.00090923,-179.39072442,-177.13150336,-175.38088363,29.11114705
15.60110579,21.21659196,-2.78102863,0.37339870,1.34248650

>  <Name>
ligand

>  <RI>
0

>  <Rbt.Current_Directory>
/home/itssahil/PROJECTS/Mol_Feturizer/New_Systems/rnas/3DJ0

>  <Rbt.Executable>
rbdock ($Id: //depot/dev/client3/rdock/2013.1/src/exe/rbdock.cxx#4 $)

>  <Rbt.Library>
libRbt.so (2013.1, Build901 2013/11/27)

>  <Rbt.Parameter_File>
/export/apps/rDock/src/rDock_2013.1_src/data/scripts/dock_solv.prm

>  <Rbt.Receptor>
prm/pocket_docking_2.prm

>  <SCORE>
-7.62164

>  <SCORE.INTER>
-5.73753

>  <SCORE.INTER.CONST>
1

>  <SCORE.INTER.POLAR>
0

>  <SCORE.INTER.ROT>
5

>  <SCORE.INTER.SOLV>
19.3547

>  <SCORE.INTER.VDW>
-17.2099

>  <SCORE.INTER.norm>
-0.573753

>  <SCORE.INTRA>
-1.88411

>  <SCORE.INTRA.DIHEDRAL>
-3.30243

>  <SCORE.INTRA.DIHEDRAL.0>
6.00299

>  <SCORE.INTRA.POLAR>
0

>  <SCORE.INTRA.POLAR.0>
0

>  <SCORE.INTRA.REPUL>
0

>  <SCORE.INTRA.REPUL.0>
0

>  <SCORE.INTRA.SOLV>
-1.13545

>  <SCORE.INTRA.SOLV.lig_0>
-39.3257

>  <SCORE.INTRA.VDW>
0.33483

>  <SCORE.INTRA.VDW.0>
-0.734044

>  <SCORE.INTRA.norm>
-0.188411

>  <SCORE.RESTR>
0

>  <SCORE.RESTR.CAVITY>
0

>  <SCORE.RESTR.norm>
0

>  <SCORE.SYSTEM>
0

>  <SCORE.SYSTEM.CONST>
0

>  <SCORE.SYSTEM.DIHEDRAL>
0

>  <SCORE.SYSTEM.SOLV>
0

>  <SCORE.SYSTEM.norm>
0

>  <SCORE.heavy>
10

>  <SCORE.norm>
-0.762164

>  <RMSD>
5.313

$$$$
ligand
 OpenBabel11021811473D
libRbt.so/2013.1/901 2013/11/27
 10  9  0  0  0  0  0  0  0  0999 V2000
   28.5527   16.8587   19.7077 N   0  0  0  0  0  0  0  0  0  0  0  0
   28.8064   15.4591   19.9948 C   0  0  2  0  0  0  0  0  0  0  0  0
   27.5244   14.6707   19.9640 C   0  0  0  0  0  0  0  0  0  0  0  0
   26.5428   15.0783   20.6340 O   0  0  0  0  0  0  0  0  0  0  0  0
   29.4747   15.3340   21.3572 C   0  0  0  0  0  0  0  0  0  0  0  0
   30.7329   16.0024   21.3150 O   0  0  0  0  0  0  0  0  0  0  0  0
   31.3567   15.8339   22.5880 C   0  0  0  0  0  0  0  0  0  0  0  0
   32.7125   16.5358   22.5539 C   0  0  0  0  0  0  0  0  0  0  0  0
   32.5282   17.9695   22.4108 N   0  0  0  0  0  0  0  0  0  0  0  0
   27.3371   13.9717   18.9479 O   0  0  0  0  0  0  0  0  0  0  0  0
  2  1  1  1  0  0  0
  2  5  1  0  0  0  0
  2  3  1  0  0  0  0
  3  4  1  0  0  0  0
  3 10  1  0  0  0  0
  5  6  1  0  0  0  0
  6  7  1  0  0  0  0
  7  8  1  0  0  0  0
  8  9  1  0  0  0  0
M  END
>  <CHROM.1>
-62.56720257,-51.05236213,-178.17182960,179.53572946,65.66719401,29.52047189
15.74987257,20.93421994,2.98040129,0.58262208,2.76202603

>  <Name>
ligand

>  <RI>
0

>  <Rbt.Current_Directory>
/home/itssahil/PROJECTS/Mol_Feturizer/New_Systems/rnas/3DJ0

>  <Rbt.Executable>
rbdock ($Id: //depot/dev/client3/rdock/2013.1/src/exe/rbdock.cxx#4 $)

>  <Rbt.Library>
libRbt.so (2013.1, Build901 2013/11/27)

>  <Rbt.Parameter_File>
/export/apps/rDock/src/rDock_2013.1_src/data/scripts/dock_solv.prm

>  <Rbt.Receptor>
prm/pocket_docking_3.prm

>  <SCORE>
-6.36279

>  <SCORE.INTER>
-4.4239

>  <SCORE.INTER.CONST>
1

>  <SCORE.INTER.POLAR>
0

>  <SCORE.INTER.ROT>
5

>  <SCORE.INTER.SOLV>
19.118

>  <SCORE.INTER.VDW>
-16.2553

>  <SCORE.INTER.norm>
-0.44239

>  <SCORE.INTRA>
-1.93889

>  <SCORE.INTRA.DIHEDRAL>
-3.82317

>  <SCORE.INTRA.DIHEDRAL.0>
6.00299

>  <SCORE.INTRA.POLAR>
0

>  <SCORE.INTRA.POLAR.0>
0

>  <SCORE.INTRA.REPUL>
0

>  <SCORE.INTRA.REPUL.0>
0

>  <SCORE.INTRA.SOLV>
0.350762

>  <SCORE.INTRA.SOLV.lig_0>
-39.3257

>  <SCORE.INTRA.VDW>
-0.202688

>  <SCORE.INTRA.VDW.0>
-0.734044

>  <SCORE.INTRA.norm>
-0.193889

>  <SCORE.RESTR>
0

>  <SCORE.RESTR.CAVITY>
0

>  <SCORE.RESTR.norm>
0

>  <SCORE.SYSTEM>
0

>  <SCORE.SYSTEM.CONST>
0

>  <SCORE.SYSTEM.DIHEDRAL>
0

>  <SCORE.SYSTEM.SOLV>
0

>  <SCORE.SYSTEM.norm>
0

>  <SCORE.heavy>
10

>  <SCORE.norm>
-0.636279

>  <RMSD>
5.313

$$$$
ligand
 OpenBabel11021811473D
libRbt.so/2013.1/901 2013/11/27
 10  9  0  0  0  0  0  0  0  0999 V2000
   29.1071   14.5302   21.6817 N   0  0  0  0  0  0  0  0  0  0  0  0
   28.2920   15.6942   21.3886 C   0  0  2  0  0  0  0  0  0  0  0  0
   27.1033   15.3111   20.5481 C   0  0  0  0  0  0  0  0  0  0  0  0
   27.2914   14.9258   19.3672 O   0  0  0  0  0  0  0  0  0  0  0  0
   29.1370   16.7371   20.6699 C   0  0  0  0  0  0  0  0  0  0  0  0
   30.1950   17.1458   21.5333 O   0  0  0  0  0  0  0  0  0  0  0  0
   31.2921   16.2562   21.3265 C   0  0  0  0  0  0  0  0  0  0  0  0
   32.3489   16.5429   22.3910 C   0  0  0  0  0  0  0  0  0  0  0  0
   32.8159   17.9133   22.2734 N   0  0  0  0  0  0  0  0  0  0  0  0
   26.0919   14.9325   21.1725 O   0  0  0  0  0  0  0  0  0  0  0  0
  2  1  1  6  0  0  0
  2  5  1  0  0  0  0
  2  3  1  0  0  0  0
  3  4  1  0  0  0  0
  3 10  1  0  0  0  0
  5  6  1  0  0  0  0
  6  7  1  0  0  0  0
  7  8  1  0  0  0  0
  8  9  1  0  0  0  0
M  END
>  <CHROM.1>
-62.16761377,-67.67380038,88.09540413,-171.35091119,-60.67344151,29.32843777
15.99220336,21.21641744,-2.99725601,-0.44352229,-0.61837265

>  <Name>
ligand

>  <RI>
0

>  <Rbt.Current_Directory>
/home/itssahil/PROJECTS/Mol_Feturizer/New_Systems/rnas/3DJ0

>  <Rbt.Executable>
rbdock ($Id: //depot/dev/client3/rdock/2013.1/src/exe/rbdock.cxx#4 $)

>  <Rbt.Library>
libRbt.so (2013.1, Build901 2013/11/27)

>  <Rbt.Parameter_File>
/export/apps/rDock/src/rDock_2013.1_src/data/scripts/dock_solv.prm

>  <Rbt.Receptor>
prm/pocket_docking_7.prm

>  <SCORE>
-4.94701

>  <SCORE.INTER>
-6.69264

>  <SCORE.INTER.CONST>
1

>  <SCORE.INTER.POLAR>
0

>  <SCORE.INTER.ROT>
5

>  <SCORE.INTER.SOLV>
17.0038

>  <SCORE.INTER.VDW>
-17.063

>  <SCORE.INTER.norm>
-0.669264

>  <SCORE.INTRA>
1.74563

>  <SCORE.INTRA.DIHEDRAL>
-0.169439

>  <SCORE.INTRA.DIHEDRAL.0>
6.00299

>  <SCORE.INTRA.POLAR>
0

>  <SCORE.INTRA.POLAR.0>
0

>  <SCORE.INTRA.REPUL>
0

>  <SCORE.INTRA.REPUL.0>
0

>  <SCORE.INTRA.SOLV>
1.85852

>  <SCORE.INTRA.SOLV.lig_0>
-39.3257

>  <SCORE.INTRA.VDW>
0.901086

>  <SCORE.INTRA.VDW.0>
-0.734044

>  <SCORE.INTRA.norm>
0.174563

>  <SCORE.RESTR>
0

>  <SCORE.RESTR.CAVITY>
0

>  <SCORE.RESTR.norm>
0

>  <SCORE.SYSTEM>
0

>  <SCORE.SYSTEM.CONST>
0

>  <SCORE.SYSTEM.DIHEDRAL>
0

>  <SCORE.SYSTEM.SOLV>
0

>  <SCORE.SYSTEM.norm>
0

>  <SCORE.heavy>
10

>  <SCORE.norm>
-0.494701

>  <RMSD>
5.314

$$$$
ligand
 OpenBabel11021811473D
libRbt.so/2013.1/901 2013/11/27
 10  9  0  0  0  0  0  0  0  0999 V2000
   27.5411   14.4808   19.0145 N   0  0  0  0  0  0  0  0  0  0  0  0
   28.2156   14.5718   20.2960 C   0  0  2  0  0  0  0  0  0  0  0  0
   27.2153   14.6988   21.4138 C   0  0  0  0  0  0  0  0  0  0  0  0
   27.6265   14.9579   22.5723 O   0  0  0  0  0  0  0  0  0  0  0  0
   29.1590   15.7669   20.2888 C   0  0  0  0  0  0  0  0  0  0  0  0
   30.0372   15.6659   21.4069 O   0  0  0  0  0  0  0  0  0  0  0  0
   30.9432   16.7675   21.3480 C   0  0  0  0  0  0  0  0  0  0  0  0
   31.9420   16.6285   22.4949 C   0  0  0  0  0  0  0  0  0  0  0  0
   32.8816   17.7361   22.4745 N   0  0  0  0  0  0  0  0  0  0  0  0
   26.0583   15.0218   21.0775 O   0  0  0  0  0  0  0  0  0  0  0  0
  2  1  1  6  0  0  0
  2  5  1  0  0  0  0
  2  3  1  0  0  0  0
  3  4  1  0  0  0  0
  3 10  1  0  0  0  0
  5  6  1  0  0  0  0
  6  7  1  0  0  0  0
  7  8  1  0  0  0  0
  8  9  1  0  0  0  0
M  END
>  <CHROM.1>
-166.35247791,-171.09646134,177.77855745,-176.78114498,-179.76537963,29.13039436
15.62634547,21.26257006,-2.81567791,0.38815832,1.40333231

>  <Name>
ligand

>  <RI>
0

>  <Rbt.Current_Directory>
/home/itssahil/PROJECTS/Mol_Feturizer/New_Systems/rnas/3DJ0

>  <Rbt.Executable>
rbdock ($Id: //depot/dev/client3/rdock/2013.1/src/exe/rbdock.cxx#4 $)

>  <Rbt.Library>
libRbt.so (2013.1, Build901 2013/11/27)

>  <Rbt.Parameter_File>
/export/apps/rDock/src/rDock_2013.1_src/data/scripts/dock_solv.prm

>  <Rbt.Receptor>
prm/pocket_docking_2.prm

>  <SCORE>
-7.60124

>  <SCORE.INTER>
-5.71656

>  <SCORE.INTER.CONST>
1

>  <SCORE.INTER.POLAR>
0

>  <SCORE.INTER.ROT>
5

>  <SCORE.INTER.SOLV>
19.4689

>  <SCORE.INTER.VDW>
-17.234

>  <SCORE.INTER.norm>
-0.571656

>  <SCORE.INTRA>
-1.88468

>  <SCORE.INTRA.DIHEDRAL>
-3.256

>  <SCORE.INTRA.DIHEDRAL.0>
6.00299

>  <SCORE.INTRA.POLAR>
0

>  <SCORE.INTRA.POLAR.0>
0

>  <SCORE.INTRA.REPUL>
0

>  <SCORE.INTRA.REPUL.0>
0

>  <SCORE.INTRA.SOLV>
-1.15438

>  <SCORE.INTRA.SOLV.lig_0>
-39.3257

>  <SCORE.INTRA.VDW>
0.320504

>  <SCORE.INTRA.VDW.0>
-0.734044

>  <SCORE.INTRA.norm>
-0.188468

>  <SCORE.RESTR>
0

>  <SCORE.RESTR.CAVITY>
0

>  <SCORE.RESTR.norm>
0

>  <SCORE.SYSTEM>
0

>  <SCORE.SYSTEM.CONST>
0

>  <SCORE.SYSTEM.DIHEDRAL>
0

>  <SCORE.SYSTEM.SOLV>
0

>  <SCORE.SYSTEM.norm>
0

>  <SCORE.heavy>
10

>  <SCORE.norm>
-0.760124

>  <RMSD>
5.315

$$$$
ligand
 OpenBabel11021811473D
libRbt.so/2013.1/901 2013/11/27
 10  9  0  0  0  0  0  0  0  0999 V2000
   27.5157   14.4283   19.1000 N   0  0  0  0  0  0  0  0  0  0  0  0
   28.1975   14.5500   20.3751 C   0  0  2  0  0  0  0  0  0  0  0  0
   27.2040   14.7131   21.4942 C   0  0  0  0  0  0  0  0  0  0  0  0
   27.6209   15.0230   22.6381 O   0  0  0  0  0  0  0  0  0  0  0  0
   29.1477   15.7389   20.3306 C   0  0  0  0  0  0  0  0  0  0  0  0
   30.0302   15.6641   21.4474 O   0  0  0  0  0  0  0  0  0  0  0  0
   30.9428   16.7578   21.3535 C   0  0  0  0  0  0  0  0  0  0  0  0
   31.9515   16.6396   22.4940 C   0  0  0  0  0  0  0  0  0  0  0  0
   32.8728   17.7622   22.4628 N   0  0  0  0  0  0  0  0  0  0  0  0
   26.0416   15.0112   21.1537 O   0  0  0  0  0  0  0  0  0  0  0  0
  2  1  1  6  0  0  0
  2  5  1  0  0  0  0
  2  3  1  0  0  0  0
  3  4  1  0  0  0  0
  3 10  1  0  0  0  0
  5  6  1  0  0  0  0
  6  7  1  0  0  0  0
  7  8  1  0  0  0  0
  8  9  1  0  0  0  0
M  END
>  <CHROM.1>
-166.43277793,-169.91170518,177.73746110,-176.39786259,-178.01510604,29.12094695
15.62636832,21.30893439,-2.81809744,0.38339706,1.37319686

>  <Name>
ligand

>  <RI>
0

>  <Rbt.Current_Directory>
/home/itssahil/PROJECTS/Mol_Feturizer/New_Systems/rnas/3DJ0

>  <Rbt.Executable>
rbdock ($Id: //depot/dev/client3/rdock/2013.1/src/exe/rbdock.cxx#4 $)

>  <Rbt.Library>
libRbt.so (2013.1, Build901 2013/11/27)

>  <Rbt.Parameter_File>
/export/apps/rDock/src/rDock_2013.1_src/data/scripts/dock_solv.prm

>  <Rbt.Receptor>
prm/pocket_docking_3.prm

>  <SCORE>
-7.62252

>  <SCORE.INTER>
-5.78223

>  <SCORE.INTER.CONST>
1

>  <SCORE.INTER.POLAR>
0

>  <SCORE.INTER.ROT>
5

>  <SCORE.INTER.SOLV>
19.4298

>  <SCORE.INTER.VDW>
-17.2647

>  <SCORE.INTER.norm>
-0.578223

>  <SCORE.INTRA>
-1.84029

>  <SCORE.INTRA.DIHEDRAL>
-3.23848

>  <SCORE.INTRA.DIHEDRAL.0>
6.00299

>  <SCORE.INTRA.POLAR>
0

>  <SCORE.INTRA.POLAR.0>
0

>  <SCORE.INTRA.REPUL>
0

>  <SCORE.INTRA.REPUL.0>
0

>  <SCORE.INTRA.SOLV>
-1.14949

>  <SCORE.INTRA.SOLV.lig_0>
-39.3257

>  <SCORE.INTRA.VDW>
0.3537

>  <SCORE.INTRA.VDW.0>
-0.734044

>  <SCORE.INTRA.norm>
-0.184029

>  <SCORE.RESTR>
0

>  <SCORE.RESTR.CAVITY>
0

>  <SCORE.RESTR.norm>
0

>  <SCORE.SYSTEM>
0

>  <SCORE.SYSTEM.CONST>
0

>  <SCORE.SYSTEM.DIHEDRAL>
0

>  <SCORE.SYSTEM.SOLV>
0

>  <SCORE.SYSTEM.norm>
0

>  <SCORE.heavy>
10

>  <SCORE.norm>
-0.762252

>  <RMSD>
5.316

$$$$
ligand
 OpenBabel11021811473D
libRbt.so/2013.1/901 2013/11/27
 10  9  0  0  0  0  0  0  0  0999 V2000
   27.5128   14.3993   19.1507 N   0  0  0  0  0  0  0  0  0  0  0  0
   28.2013   14.5823   20.4148 C   0  0  2  0  0  0  0  0  0  0  0  0
   27.2295   14.9725   21.4963 C   0  0  0  0  0  0  0  0  0  0  0  0
   26.0009   14.7937   21.3042 O   0  0  0  0  0  0  0  0  0  0  0  0
   29.2768   15.6485   20.2568 C   0  0  0  0  0  0  0  0  0  0  0  0
   30.0922   15.6556   21.4258 O   0  0  0  0  0  0  0  0  0  0  0  0
   31.1052   16.6445   21.2424 C   0  0  0  0  0  0  0  0  0  0  0  0
   32.0245   16.6208   22.4617 C   0  0  0  0  0  0  0  0  0  0  0  0
   33.0508   17.6407   22.3319 N   0  0  0  0  0  0  0  0  0  0  0  0
   27.6821   14.9861   22.6586 O   0  0  0  0  0  0  0  0  0  0  0  0
  2  1  1  6  0  0  0
  2  5  1  0  0  0  0
  2  3  1  0  0  0  0
  3  4  1  0  0  0  0
  3 10  1  0  0  0  0
  5  6  1  0  0  0  0
  6  7  1  0  0  0  0
  7  8  1  0  0  0  0
  8  9  1  0  0  0  0
M  END
>  <CHROM.1>
-170.07998616,16.28566248,178.95169402,-177.53378905,-178.42583236,29.18525029
15.58725734,21.30037618,-2.85962904,0.37216129,1.37760409

>  <Name>
ligand

>  <RI>
0

>  <Rbt.Current_Directory>
/home/itssahil/PROJECTS/Mol_Feturizer/New_Systems/rnas/3DJ0

>  <Rbt.Executable>
rbdock ($Id: //depot/dev/client3/rdock/2013.1/src/exe/rbdock.cxx#4 $)

>  <Rbt.Library>
libRbt.so (2013.1, Build901 2013/11/27)

>  <Rbt.Parameter_File>
/export/apps/rDock/src/rDock_2013.1_src/data/scripts/dock_solv.prm

>  <Rbt.Receptor>
prm/pocket_docking_5.prm

>  <SCORE>
-7.69953

>  <SCORE.INTER>
-5.70579

>  <SCORE.INTER.CONST>
1

>  <SCORE.INTER.POLAR>
0

>  <SCORE.INTER.ROT>
5

>  <SCORE.INTER.SOLV>
19.6861

>  <SCORE.INTER.VDW>
-17.2992

>  <SCORE.INTER.norm>
-0.570579

>  <SCORE.INTRA>
-1.99375

>  <SCORE.INTRA.DIHEDRAL>
-2.80689

>  <SCORE.INTRA.DIHEDRAL.0>
6.00299

>  <SCORE.INTRA.POLAR>
0

>  <SCORE.INTRA.POLAR.0>
0

>  <SCORE.INTRA.REPUL>
0

>  <SCORE.INTRA.REPUL.0>
0

>  <SCORE.INTRA.SOLV>
-1.27663

>  <SCORE.INTRA.SOLV.lig_0>
-39.3257

>  <SCORE.INTRA.VDW>
0.0480142

>  <SCORE.INTRA.VDW.0>
-0.734044

>  <SCORE.INTRA.norm>
-0.199375

>  <SCORE.RESTR>
0

>  <SCORE.RESTR.CAVITY>
0

>  <SCORE.RESTR.norm>
0

>  <SCORE.SYSTEM>
0

>  <SCORE.SYSTEM.CONST>
0

>  <SCORE.SYSTEM.DIHEDRAL>
0

>  <SCORE.SYSTEM.SOLV>
0

>  <SCORE.SYSTEM.norm>
0

>  <SCORE.heavy>
10

>  <SCORE.norm>
-0.769953

>  <RMSD>
5.317

$$$$
ligand
 OpenBabel11021811473D
libRbt.so/2013.1/901 2013/11/27
 10  9  0  0  0  0  0  0  0  0999 V2000
   27.5088   14.3473   19.0115 N   0  0  0  0  0  0  0  0  0  0  0  0
   28.1788   14.4945   20.2901 C   0  0  2  0  0  0  0  0  0  0  0  0
   27.1778   14.7327   21.3889 C   0  0  0  0  0  0  0  0  0  0  0  0
   27.5930   15.0285   22.5372 O   0  0  0  0  0  0  0  0  0  0  0  0
   29.1690   15.6486   20.2139 C   0  0  0  0  0  0  0  0  0  0  0  0
   30.0225   15.5980   21.3543 O   0  0  0  0  0  0  0  0  0  0  0  0
   30.9475   16.6805   21.2526 C   0  0  0  0  0  0  0  0  0  0  0  0
   31.8995   16.6112   22.4447 C   0  0  0  0  0  0  0  0  0  0  0  0
   32.8110   17.7419   22.4210 N   0  0  0  0  0  0  0  0  0  0  0  0
   26.0429   15.1000   21.0239 O   0  0  0  0  0  0  0  0  0  0  0  0
  2  1  1  6  0  0  0
  2  5  1  0  0  0  0
  2  3  1  0  0  0  0
  3  4  1  0  0  0  0
  3 10  1  0  0  0  0
  5  6  1  0  0  0  0
  6  7  1  0  0  0  0
  7  8  1  0  0  0  0
  8  9  1  0  0  0  0
M  END
>  <CHROM.1>
-167.25202010,-172.24174415,179.45727809,-178.12302634,-176.73944131,29.10387987
15.59733997,21.21715206,-2.78949849,0.36179779,1.32736356

>  <Name>
ligand

>  <RI>
0

>  <Rbt.Current_Directory>
/home/itssahil/PROJECTS/Mol_Feturizer/New_Systems/rnas/3DJ0

>  <Rbt.Executable>
rbdock ($Id: //depot/dev/client3/rdock/2013.1/src/exe/rbdock.cxx#4 $)

>  <Rbt.Library>
libRbt.so (2013.1, Build901 2013/11/27)

>  <Rbt.Parameter_File>
/export/apps/rDock/src/rDock_2013.1_src/data/scripts/dock_solv.prm

>  <Rbt.Receptor>
prm/pocket_docking_6.prm

>  <SCORE>
-7.62093

>  <SCORE.INTER>
-5.67542

>  <SCORE.INTER.CONST>
1

>  <SCORE.INTER.POLAR>
0

>  <SCORE.INTER.ROT>
5

>  <SCORE.INTER.SOLV>
19.4243

>  <SCORE.INTER.VDW>
-17.1917

>  <SCORE.INTER.norm>
-0.567542

>  <SCORE.INTRA>
-1.94552

>  <SCORE.INTRA.DIHEDRAL>
-3.34704

>  <SCORE.INTRA.DIHEDRAL.0>
6.00299

>  <SCORE.INTRA.POLAR>
0

>  <SCORE.INTRA.POLAR.0>
0

>  <SCORE.INTRA.REPUL>
0

>  <SCORE.INTRA.REPUL.0>
0

>  <SCORE.INTRA.SOLV>
-1.14518

>  <SCORE.INTRA.SOLV.lig_0>
-39.3257

>  <SCORE.INTRA.VDW>
0.300592

>  <SCORE.INTRA.VDW.0>
-0.734044

>  <SCORE.INTRA.norm>
-0.194552

>  <SCORE.RESTR>
0

>  <SCORE.RESTR.CAVITY>
0

>  <SCORE.RESTR.norm>
0

>  <SCORE.SYSTEM>
0

>  <SCORE.SYSTEM.CONST>
0

>  <SCORE.SYSTEM.DIHEDRAL>
0

>  <SCORE.SYSTEM.SOLV>
0

>  <SCORE.SYSTEM.norm>
0

>  <SCORE.heavy>
10

>  <SCORE.norm>
-0.762093

>  <RMSD>
5.317

$$$$
ligand
 OpenBabel11021811473D
libRbt.so/2013.1/901 2013/11/27
 10  9  0  0  0  0  0  0  0  0999 V2000
   27.5070   14.4605   19.0798 N   0  0  0  0  0  0  0  0  0  0  0  0
   28.1890   14.5638   20.3564 C   0  0  2  0  0  0  0  0  0  0  0  0
   27.1956   14.7104   21.4779 C   0  0  0  0  0  0  0  0  0  0  0  0
   27.6135   14.9942   22.6282 O   0  0  0  0  0  0  0  0  0  0  0  0
   29.1389   15.7535   20.3290 C   0  0  0  0  0  0  0  0  0  0  0  0
   30.0365   15.6505   21.4314 O   0  0  0  0  0  0  0  0  0  0  0  0
   30.9294   16.7624   21.3695 C   0  0  0  0  0  0  0  0  0  0  0  0
   31.9462   16.6243   22.5005 C   0  0  0  0  0  0  0  0  0  0  0  0
   32.8542   17.7581   22.4958 N   0  0  0  0  0  0  0  0  0  0  0  0
   26.0354   15.0230   21.1427 O   0  0  0  0  0  0  0  0  0  0  0  0
  2  1  1  6  0  0  0
  2  5  1  0  0  0  0
  2  3  1  0  0  0  0
  3  4  1  0  0  0  0
  3 10  1  0  0  0  0
  5  6  1  0  0  0  0
  6  7  1  0  0  0  0
  7  8  1  0  0  0  0
  8  9  1  0  0  0  0
M  END
>  <CHROM.1>
-165.44224489,-170.43103857,178.99496227,-176.92810497,-178.45012917,29.11327799
15.62709894,21.30493687,-2.81763156,0.38421561,1.38694979

>  <Name>
ligand

>  <RI>
0

>  <Rbt.Current_Directory>
/home/itssahil/PROJECTS/Mol_Feturizer/New_Systems/rnas/3DJ0

>  <Rbt.Executable>
rbdock ($Id: //depot/dev/client3/rdock/2013.1/src/exe/rbdock.cxx#4 $)

>  <Rbt.Library>
libRbt.so (2013.1, Build901 2013/11/27)

>  <Rbt.Parameter_File>
/export/apps/rDock/src/rDock_2013.1_src/data/scripts/dock_solv.prm

>  <Rbt.Receptor>
prm/pocket_docking_5.prm

>  <SCORE>
-7.62717

>  <SCORE.INTER>
-5.77737

>  <SCORE.INTER.CONST>
1

>  <SCORE.INTER.POLAR>
0

>  <SCORE.INTER.ROT>
5

>  <SCORE.INTER.SOLV>
19.4551

>  <SCORE.INTER.VDW>
-17.2699

>  <SCORE.INTER.norm>
-0.577737

>  <SCORE.INTRA>
-1.8498

>  <SCORE.INTRA.DIHEDRAL>
-3.18843

>  <SCORE.INTRA.DIHEDRAL.0>
6.00299

>  <SCORE.INTRA.POLAR>
0

>  <SCORE.INTRA.POLAR.0>
0

>  <SCORE.INTRA.REPUL>
0

>  <SCORE.INTRA.REPUL.0>
0

>  <SCORE.INTRA.SOLV>
-1.15564

>  <SCORE.INTRA.SOLV.lig_0>
-39.3257

>  <SCORE.INTRA.VDW>
0.322236

>  <SCORE.INTRA.VDW.0>
-0.734044

>  <SCORE.INTRA.norm>
-0.18498

>  <SCORE.RESTR>
0

>  <SCORE.RESTR.CAVITY>
0

>  <SCORE.RESTR.norm>
0

>  <SCORE.SYSTEM>
0

>  <SCORE.SYSTEM.CONST>
0

>  <SCORE.SYSTEM.DIHEDRAL>
0

>  <SCORE.SYSTEM.SOLV>
0

>  <SCORE.SYSTEM.norm>
0

>  <SCORE.heavy>
10

>  <SCORE.norm>
-0.762717

>  <RMSD>
5.319

$$$$
ligand
 OpenBabel11021811473D
libRbt.so/2013.1/901 2013/11/27
 10  9  0  0  0  0  0  0  0  0999 V2000
   27.5009   14.3989   19.0201 N   0  0  0  0  0  0  0  0  0  0  0  0
   28.1793   14.5182   20.2972 C   0  0  2  0  0  0  0  0  0  0  0  0
   27.1836   14.6970   21.4119 C   0  0  0  0  0  0  0  0  0  0  0  0
   27.6030   14.9614   22.5663 O   0  0  0  0  0  0  0  0  0  0  0  0
   29.1430   15.6961   20.2514 C   0  0  0  0  0  0  0  0  0  0  0  0
   29.9969   15.6360   21.3911 O   0  0  0  0  0  0  0  0  0  0  0  0
   30.8990   16.7397   21.3163 C   0  0  0  0  0  0  0  0  0  0  0  0
   31.8682   16.6473   22.4929 C   0  0  0  0  0  0  0  0  0  0  0  0
   32.7896   17.7700   22.4690 N   0  0  0  0  0  0  0  0  0  0  0  0
   26.0381   15.0529   21.0694 O   0  0  0  0  0  0  0  0  0  0  0  0
  2  1  1  6  0  0  0
  2  5  1  0  0  0  0
  2  3  1  0  0  0  0
  3  4  1  0  0  0  0
  3 10  1  0  0  0  0
  5  6  1  0  0  0  0
  6  7  1  0  0  0  0
  7  8  1  0  0  0  0
  8  9  1  0  0  0  0
M  END
>  <CHROM.1>
-167.98410130,-172.35150367,179.32701525,-177.08240658,-178.87642254,29.08903492
15.60943509,21.25228984,-2.79749267,0.38527408,1.36670360

>  <Name>
ligand

>  <RI>
0

>  <Rbt.Current_Directory>
/home/itssahil/PROJECTS/Mol_Feturizer/New_Systems/rnas/3DJ0

>  <Rbt.Executable>
rbdock ($Id: //depot/dev/client3/rdock/2013.1/src/exe/rbdock.cxx#4 $)

>  <Rbt.Library>
libRbt.so (2013.1, Build901 2013/11/27)

>  <Rbt.Parameter_File>
/export/apps/rDock/src/rDock_2013.1_src/data/scripts/dock_solv.prm

>  <Rbt.Receptor>
prm/pocket_docking_5.prm

>  <SCORE>
-7.65472

>  <SCORE.INTER>
-5.68625

>  <SCORE.INTER.CONST>
1

>  <SCORE.INTER.POLAR>
0

>  <SCORE.INTER.ROT>
5

>  <SCORE.INTER.SOLV>
19.4467

>  <SCORE.INTER.VDW>
-17.2064

>  <SCORE.INTER.norm>
-0.568625

>  <SCORE.INTRA>
-1.96847

>  <SCORE.INTRA.DIHEDRAL>
-3.41776

>  <SCORE.INTRA.DIHEDRAL.0>
6.00299

>  <SCORE.INTRA.POLAR>
0

>  <SCORE.INTRA.POLAR.0>
0

>  <SCORE.INTRA.REPUL>
0

>  <SCORE.INTRA.REPUL.0>
0

>  <SCORE.INTRA.SOLV>
-1.14132

>  <SCORE.INTRA.SOLV.lig_0>
-39.3257

>  <SCORE.INTRA.VDW>
0.311073

>  <SCORE.INTRA.VDW.0>
-0.734044

>  <SCORE.INTRA.norm>
-0.196847

>  <SCORE.RESTR>
0

>  <SCORE.RESTR.CAVITY>
0

>  <SCORE.RESTR.norm>
0

>  <SCORE.SYSTEM>
0

>  <SCORE.SYSTEM.CONST>
0

>  <SCORE.SYSTEM.DIHEDRAL>
0

>  <SCORE.SYSTEM.SOLV>
0

>  <SCORE.SYSTEM.norm>
0

>  <SCORE.heavy>
10

>  <SCORE.norm>
-0.765472

>  <RMSD>
5.319

$$$$
ligand
 OpenBabel11021811473D
libRbt.so/2013.1/901 2013/11/27
 10  9  0  0  0  0  0  0  0  0999 V2000
   27.5106   14.3587   19.0071 N   0  0  0  0  0  0  0  0  0  0  0  0
   28.1804   14.4991   20.2866 C   0  0  2  0  0  0  0  0  0  0  0  0
   27.1774   14.7030   21.3905 C   0  0  0  0  0  0  0  0  0  0  0  0
   27.5908   14.9517   22.5505 O   0  0  0  0  0  0  0  0  0  0  0  0
   29.1494   15.6720   20.2257 C   0  0  0  0  0  0  0  0  0  0  0  0
   30.0019   15.6235   21.3670 O   0  0  0  0  0  0  0  0  0  0  0  0
   30.9013   16.7290   21.2841 C   0  0  0  0  0  0  0  0  0  0  0  0
   31.8653   16.6522   22.4661 C   0  0  0  0  0  0  0  0  0  0  0  0
   32.7700   17.7885   22.4460 N   0  0  0  0  0  0  0  0  0  0  0  0
   26.0465   15.0925   21.0361 O   0  0  0  0  0  0  0  0  0  0  0  0
  2  1  1  6  0  0  0
  2  5  1  0  0  0  0
  2  3  1  0  0  0  0
  3  4  1  0  0  0  0
  3 10  1  0  0  0  0
  5  6  1  0  0  0  0
  6  7  1  0  0  0  0
  7  8  1  0  0  0  0
  8  9  1  0  0  0  0
M  END
>  <CHROM.1>
-167.51291671,-174.24990276,179.83035134,-177.33006952,-177.97612070,29.08832499
15.60517569,21.22952530,-2.79075024,0.38163627,1.34869521

>  <Name>
ligand

>  <RI>
0

>  <Rbt.Current_Directory>
/home/itssahil/PROJECTS/Mol_Feturizer/New_Systems/rnas/3DJ0

>  <Rbt.Executable>
rbdock ($Id: //depot/dev/client3/rdock/2013.1/src/exe/rbdock.cxx#4 $)

>  <Rbt.Library>
libRbt.so (2013.1, Build901 2013/11/27)

>  <Rbt.Parameter_File>
/export/apps/rDock/src/rDock_2013.1_src/data/scripts/dock_solv.prm

>  <Rbt.Receptor>
prm/pocket_docking_7.prm

>  <SCORE>
-7.67545

>  <SCORE.INTER>
-5.64994

>  <SCORE.INTER.CONST>
1

>  <SCORE.INTER.POLAR>
0

>  <SCORE.INTER.ROT>
5

>  <SCORE.INTER.SOLV>
19.4522

>  <SCORE.INTER.VDW>
-17.184

>  <SCORE.INTER.norm>
-0.564994

>  <SCORE.INTRA>
-2.02551

>  <SCORE.INTRA.DIHEDRAL>
-3.36542

>  <SCORE.INTRA.DIHEDRAL.0>
6.00299

>  <SCORE.INTRA.POLAR>
0

>  <SCORE.INTRA.POLAR.0>
0

>  <SCORE.INTRA.REPUL>
0

>  <SCORE.INTRA.REPUL.0>
0

>  <SCORE.INTRA.SOLV>
-1.1525

>  <SCORE.INTRA.SOLV.lig_0>
-39.3257

>  <SCORE.INTRA.VDW>
0.233441

>  <SCORE.INTRA.VDW.0>
-0.734044

>  <SCORE.INTRA.norm>
-0.202551

>  <SCORE.RESTR>
0

>  <SCORE.RESTR.CAVITY>
0

>  <SCORE.RESTR.norm>
0

>  <SCORE.SYSTEM>
0

>  <SCORE.SYSTEM.CONST>
0

>  <SCORE.SYSTEM.DIHEDRAL>
0

>  <SCORE.SYSTEM.SOLV>
0

>  <SCORE.SYSTEM.norm>
0

>  <SCORE.heavy>
10

>  <SCORE.norm>
-0.767545

>  <RMSD>
5.319

$$$$
ligand
 OpenBabel11021811473D
libRbt.so/2013.1/901 2013/11/27
 10  9  0  0  0  0  0  0  0  0999 V2000
   27.4750   14.4397   19.1266 N   0  0  0  0  0  0  0  0  0  0  0  0
   28.1747   14.6018   20.3874 C   0  0  2  0  0  0  0  0  0  0  0  0
   27.2144   14.9858   21.4812 C   0  0  0  0  0  0  0  0  0  0  0  0
   25.9841   14.8045   21.3027 O   0  0  0  0  0  0  0  0  0  0  0  0
   29.2570   15.6618   20.2341 C   0  0  0  0  0  0  0  0  0  0  0  0
   30.0639   15.6680   21.4090 O   0  0  0  0  0  0  0  0  0  0  0  0
   31.0798   16.6552   21.2327 C   0  0  0  0  0  0  0  0  0  0  0  0
   31.9912   16.6293   22.4578 C   0  0  0  0  0  0  0  0  0  0  0  0
   33.0208   17.6465   22.3345 N   0  0  0  0  0  0  0  0  0  0  0  0
   27.6803   14.9965   22.6384 O   0  0  0  0  0  0  0  0  0  0  0  0
  2  1  1  6  0  0  0
  2  5  1  0  0  0  0
  2  3  1  0  0  0  0
  3  4  1  0  0  0  0
  3 10  1  0  0  0  0
  5  6  1  0  0  0  0
  6  7  1  0  0  0  0
  7  8  1  0  0  0  0
  8  9  1  0  0  0  0
M  END
>  <CHROM.1>
-171.32548456,17.08688471,179.21372419,-177.46081892,-178.48226090,29.16204394
15.60161145,21.28661660,-2.85957821,0.37325637,1.38726081

>  <Name>
ligand

>  <RI>
0

>  <Rbt.Current_Directory>
/home/itssahil/PROJECTS/Mol_Feturizer/New_Systems/rnas/3DJ0

>  <Rbt.Executable>
rbdock ($Id: //depot/dev/client3/rdock/2013.1/src/exe/rbdock.cxx#4 $)

>  <Rbt.Library>
libRbt.so (2013.1, Build901 2013/11/27)

>  <Rbt.Parameter_File>
/export/apps/rDock/src/rDock_2013.1_src/data/scripts/dock_solv.prm

>  <Rbt.Receptor>
prm/blind_docking_60.prm

>  <SCORE>
-7.6895

>  <SCORE.INTER>
-5.68862

>  <SCORE.INTER.CONST>
1

>  <SCORE.INTER.POLAR>
0

>  <SCORE.INTER.ROT>
5

>  <SCORE.INTER.SOLV>
19.6938

>  <SCORE.INTER.VDW>
-17.2904

>  <SCORE.INTER.norm>
-0.568862

>  <SCORE.INTRA>
-2.00088

>  <SCORE.INTRA.DIHEDRAL>
-2.89283

>  <SCORE.INTRA.DIHEDRAL.0>
6.00299

>  <SCORE.INTRA.POLAR>
0

>  <SCORE.INTRA.POLAR.0>
0

>  <SCORE.INTRA.REPUL>
0

>  <SCORE.INTRA.REPUL.0>
0

>  <SCORE.INTRA.SOLV>
-1.26762

>  <SCORE.INTRA.SOLV.lig_0>
-39.3257

>  <SCORE.INTRA.VDW>
0.0793431

>  <SCORE.INTRA.VDW.0>
-0.734044

>  <SCORE.INTRA.norm>
-0.200088

>  <SCORE.RESTR>
0

>  <SCORE.RESTR.CAVITY>
0

>  <SCORE.RESTR.norm>
0

>  <SCORE.SYSTEM>
0

>  <SCORE.SYSTEM.CONST>
0

>  <SCORE.SYSTEM.DIHEDRAL>
0

>  <SCORE.SYSTEM.SOLV>
0

>  <SCORE.SYSTEM.norm>
0

>  <SCORE.heavy>
10

>  <SCORE.norm>
-0.76895

>  <RMSD>
5.320

$$$$
ligand
 OpenBabel11021811473D
libRbt.so/2013.1/901 2013/11/27
 10  9  0  0  0  0  0  0  0  0999 V2000
   27.4969   14.3944   19.0183 N   0  0  0  0  0  0  0  0  0  0  0  0
   28.1744   14.5149   20.2958 C   0  0  2  0  0  0  0  0  0  0  0  0
   27.1778   14.6943   21.4097 C   0  0  0  0  0  0  0  0  0  0  0  0
   27.5963   14.9602   22.5640 O   0  0  0  0  0  0  0  0  0  0  0  0
   29.1378   15.6930   20.2497 C   0  0  0  0  0  0  0  0  0  0  0  0
   29.9935   15.6318   21.3880 O   0  0  0  0  0  0  0  0  0  0  0  0
   30.8949   16.7361   21.3133 C   0  0  0  0  0  0  0  0  0  0  0  0
   31.8640   16.6444   22.4900 C   0  0  0  0  0  0  0  0  0  0  0  0
   32.7603   17.7875   22.4879 N   0  0  0  0  0  0  0  0  0  0  0  0
   26.0323   15.0491   21.0660 O   0  0  0  0  0  0  0  0  0  0  0  0
  2  1  1  6  0  0  0
  2  5  1  0  0  0  0
  2  3  1  0  0  0  0
  3  4  1  0  0  0  0
  3 10  1  0  0  0  0
  5  6  1  0  0  0  0
  6  7  1  0  0  0  0
  7  8  1  0  0  0  0
  8  9  1  0  0  0  0
M  END
>  <CHROM.1>
-167.81404335,-172.32679959,179.35455086,-177.20738685,-177.27659648,29.08175691
15.60821731,21.25191127,-2.79375952,0.38595357,1.36314587

>  <Name>
ligand

>  <RI>
0

>  <Rbt.Current_Directory>
/home/itssahil/PROJECTS/Mol_Feturizer/New_Systems/rnas/3DJ0

>  <Rbt.Executable>
rbdock ($Id: //depot/dev/client3/rdock/2013.1/src/exe/rbdock.cxx#4 $)

>  <Rbt.Library>
libRbt.so (2013.1, Build901 2013/11/27)

>  <Rbt.Parameter_File>
/export/apps/rDock/src/rDock_2013.1_src/data/scripts/dock_solv.prm

>  <Rbt.Receptor>
prm/pocket_docking_7.prm

>  <SCORE>
-7.65575

>  <SCORE.INTER>
-5.70109

>  <SCORE.INTER.CONST>
1

>  <SCORE.INTER.POLAR>
0

>  <SCORE.INTER.ROT>
5

>  <SCORE.INTER.SOLV>
19.4349

>  <SCORE.INTER.VDW>
-17.2124

>  <SCORE.INTER.norm>
-0.570109

>  <SCORE.INTRA>
-1.95466

>  <SCORE.INTRA.DIHEDRAL>
-3.38438

>  <SCORE.INTRA.DIHEDRAL.0>
6.00299

>  <SCORE.INTRA.POLAR>
0

>  <SCORE.INTRA.POLAR.0>
0

>  <SCORE.INTRA.REPUL>
0

>  <SCORE.INTRA.REPUL.0>
0

>  <SCORE.INTRA.SOLV>
-1.14214

>  <SCORE.INTRA.SOLV.lig_0>
-39.3257

>  <SCORE.INTRA.VDW>
0.3086

>  <SCORE.INTRA.VDW.0>
-0.734044

>  <SCORE.INTRA.norm>
-0.195466

>  <SCORE.RESTR>
0

>  <SCORE.RESTR.CAVITY>
0

>  <SCORE.RESTR.norm>
0

>  <SCORE.SYSTEM>
0

>  <SCORE.SYSTEM.CONST>
0

>  <SCORE.SYSTEM.DIHEDRAL>
0

>  <SCORE.SYSTEM.SOLV>
0

>  <SCORE.SYSTEM.norm>
0

>  <SCORE.heavy>
10

>  <SCORE.norm>
-0.765575

>  <RMSD>
5.322

$$$$
ligand
 OpenBabel11021811473D
libRbt.so/2013.1/901 2013/11/27
 10  9  0  0  0  0  0  0  0  0999 V2000
   27.5102   14.3273   18.9905 N   0  0  0  0  0  0  0  0  0  0  0  0
   28.1688   14.4779   20.2747 C   0  0  2  0  0  0  0  0  0  0  0  0
   27.1581   14.7211   21.3636 C   0  0  0  0  0  0  0  0  0  0  0  0
   27.5637   15.0004   22.5194 O   0  0  0  0  0  0  0  0  0  0  0  0
   29.1611   15.6305   20.2036 C   0  0  0  0  0  0  0  0  0  0  0  0
   29.9998   15.5866   21.3553 O   0  0  0  0  0  0  0  0  0  0  0  0
   30.8972   16.6942   21.2811 C   0  0  0  0  0  0  0  0  0  0  0  0
   31.8410   16.6276   22.4799 C   0  0  0  0  0  0  0  0  0  0  0  0
   32.7129   17.7893   22.4930 N   0  0  0  0  0  0  0  0  0  0  0  0
   26.0333   15.1085   20.9884 O   0  0  0  0  0  0  0  0  0  0  0  0
  2  1  1  6  0  0  0
  2  5  1  0  0  0  0
  2  3  1  0  0  0  0
  3  4  1  0  0  0  0
  3 10  1  0  0  0  0
  5  6  1  0  0  0  0
  6  7  1  0  0  0  0
  7  8  1  0  0  0  0
  8  9  1  0  0  0  0
M  END
>  <CHROM.1>
-167.54176750,-173.30857973,-178.59456183,-177.69753133,-176.09671928,29.07361301
15.59518090,21.21784363,-2.76715376,0.36529514,1.31569059

>  <Name>
ligand

>  <RI>
0

>  <Rbt.Current_Directory>
/home/itssahil/PROJECTS/Mol_Feturizer/New_Systems/rnas/3DJ0

>  <Rbt.Executable>
rbdock ($Id: //depot/dev/client3/rdock/2013.1/src/exe/rbdock.cxx#4 $)

>  <Rbt.Library>
libRbt.so (2013.1, Build901 2013/11/27)

>  <Rbt.Parameter_File>
/export/apps/rDock/src/rDock_2013.1_src/data/scripts/dock_solv.prm

>  <Rbt.Receptor>
prm/pocket_docking_8.prm

>  <SCORE>
-7.63582

>  <SCORE.INTER>
-5.65399

>  <SCORE.INTER.CONST>
1

>  <SCORE.INTER.POLAR>
0

>  <SCORE.INTER.ROT>
5

>  <SCORE.INTER.SOLV>
19.3721

>  <SCORE.INTER.VDW>
-17.16

>  <SCORE.INTER.norm>
-0.565399

>  <SCORE.INTRA>
-1.98183

>  <SCORE.INTRA.DIHEDRAL>
-3.33143

>  <SCORE.INTRA.DIHEDRAL.0>
6.00299

>  <SCORE.INTRA.POLAR>
0

>  <SCORE.INTRA.POLAR.0>
0

>  <SCORE.INTRA.REPUL>
0

>  <SCORE.INTRA.REPUL.0>
0

>  <SCORE.INTRA.SOLV>
-1.14195

>  <SCORE.INTRA.SOLV.lig_0>
-39.3257

>  <SCORE.INTRA.VDW>
0.254863

>  <SCORE.INTRA.VDW.0>
-0.734044

>  <SCORE.INTRA.norm>
-0.198183

>  <SCORE.RESTR>
0

>  <SCORE.RESTR.CAVITY>
0

>  <SCORE.RESTR.norm>
0

>  <SCORE.SYSTEM>
0

>  <SCORE.SYSTEM.CONST>
0

>  <SCORE.SYSTEM.DIHEDRAL>
0

>  <SCORE.SYSTEM.SOLV>
0

>  <SCORE.SYSTEM.norm>
0

>  <SCORE.heavy>
10

>  <SCORE.norm>
-0.763582

>  <RMSD>
5.322

$$$$
ligand
 OpenBabel11021811473D
libRbt.so/2013.1/901 2013/11/27
 10  9  0  0  0  0  0  0  0  0999 V2000
   29.0447   14.5357   22.7981 N   0  0  0  0  0  0  0  0  0  0  0  0
   28.6703   15.6062   21.8928 C   0  0  2  0  0  0  0  0  0  0  0  0
   27.4279   15.2412   21.1251 C   0  0  0  0  0  0  0  0  0  0  0  0
   26.4891   14.6618   21.7261 O   0  0  0  0  0  0  0  0  0  0  0  0
   29.8218   15.8883   20.9374 C   0  0  0  0  0  0  0  0  0  0  0  0
   30.9888   16.1864   21.6994 O   0  0  0  0  0  0  0  0  0  0  0  0
   32.0483   16.4584   20.7823 C   0  0  0  0  0  0  0  0  0  0  0  0
   33.3099   16.7677   21.5853 C   0  0  0  0  0  0  0  0  0  0  0  0
   33.0751   17.8983   22.4666 N   0  0  0  0  0  0  0  0  0  0  0  0
   27.1874   15.9321   20.1147 O   0  0  0  0  0  0  0  0  0  0  0  0
  2  1  1  1  0  0  0
  2  5  1  0  0  0  0
  2  3  1  0  0  0  0
  3  4  1  0  0  0  0
  3 10  1  0  0  0  0
  5  6  1  0  0  0  0
  6  7  1  0  0  0  0
  7  8  1  0  0  0  0
  8  9  1  0  0  0  0
M  END
>  <CHROM.1>
-56.09507159,41.13706606,-179.48108852,-179.50471349,-58.25612091,29.76549619
15.91111523,21.49886188,-3.05800799,-0.32708308,-1.08127264

>  <Name>
ligand

>  <RI>
0

>  <Rbt.Current_Directory>
/home/itssahil/PROJECTS/Mol_Feturizer/New_Systems/rnas/3DJ0

>  <Rbt.Executable>
rbdock ($Id: //depot/dev/client3/rdock/2013.1/src/exe/rbdock.cxx#4 $)

>  <Rbt.Library>
libRbt.so (2013.1, Build901 2013/11/27)

>  <Rbt.Parameter_File>
/export/apps/rDock/src/rDock_2013.1_src/data/scripts/dock_solv.prm

>  <Rbt.Receptor>
prm/pocket_docking_2.prm

>  <SCORE>
-6.34973

>  <SCORE.INTER>
-5.30831

>  <SCORE.INTER.CONST>
1

>  <SCORE.INTER.POLAR>
0

>  <SCORE.INTER.ROT>
5

>  <SCORE.INTER.SOLV>
20.0562

>  <SCORE.INTER.VDW>
-17.1576

>  <SCORE.INTER.norm>
-0.530831

>  <SCORE.INTRA>
-1.04142

>  <SCORE.INTRA.DIHEDRAL>
-3.49672

>  <SCORE.INTRA.DIHEDRAL.0>
6.00299

>  <SCORE.INTRA.POLAR>
0

>  <SCORE.INTRA.POLAR.0>
0

>  <SCORE.INTRA.REPUL>
0

>  <SCORE.INTRA.REPUL.0>
0

>  <SCORE.INTRA.SOLV>
0.380809

>  <SCORE.INTRA.SOLV.lig_0>
-39.3257

>  <SCORE.INTRA.VDW>
0.516538

>  <SCORE.INTRA.VDW.0>
-0.734044

>  <SCORE.INTRA.norm>
-0.104142

>  <SCORE.RESTR>
0

>  <SCORE.RESTR.CAVITY>
0

>  <SCORE.RESTR.norm>
0

>  <SCORE.SYSTEM>
0

>  <SCORE.SYSTEM.CONST>
0

>  <SCORE.SYSTEM.DIHEDRAL>
0

>  <SCORE.SYSTEM.SOLV>
0

>  <SCORE.SYSTEM.norm>
0

>  <SCORE.heavy>
10

>  <SCORE.norm>
-0.634973

>  <RMSD>
5.324

$$$$
ligand
 OpenBabel11021811473D
libRbt.so/2013.1/901 2013/11/27
 10  9  0  0  0  0  0  0  0  0999 V2000
   27.5064   14.3960   19.0158 N   0  0  0  0  0  0  0  0  0  0  0  0
   28.1770   14.5209   20.2965 C   0  0  2  0  0  0  0  0  0  0  0  0
   27.1738   14.6888   21.4062 C   0  0  0  0  0  0  0  0  0  0  0  0
   27.5860   14.9306   22.5682 O   0  0  0  0  0  0  0  0  0  0  0  0
   29.1292   15.7084   20.2567 C   0  0  0  0  0  0  0  0  0  0  0  0
   29.9944   15.6419   21.3874 O   0  0  0  0  0  0  0  0  0  0  0  0
   30.8829   16.7571   21.3203 C   0  0  0  0  0  0  0  0  0  0  0  0
   31.8672   16.6565   22.4835 C   0  0  0  0  0  0  0  0  0  0  0  0
   32.7655   17.7980   22.4764 N   0  0  0  0  0  0  0  0  0  0  0  0
   26.0338   15.0592   21.0608 O   0  0  0  0  0  0  0  0  0  0  0  0
  2  1  1  6  0  0  0
  2  5  1  0  0  0  0
  2  3  1  0  0  0  0
  3  4  1  0  0  0  0
  3 10  1  0  0  0  0
  5  6  1  0  0  0  0
  6  7  1  0  0  0  0
  7  8  1  0  0  0  0
  8  9  1  0  0  0  0
M  END
>  <CHROM.1>
-166.90052394,-173.72123116,179.49266910,-176.88814259,-178.22621809,29.08049377
15.61311404,21.25083816,-2.79813407,0.39100086,1.37041284

>  <Name>
ligand

>  <RI>
0

>  <Rbt.Current_Directory>
/home/itssahil/PROJECTS/Mol_Feturizer/New_Systems/rnas/3DJ0

>  <Rbt.Executable>
rbdock ($Id: //depot/dev/client3/rdock/2013.1/src/exe/rbdock.cxx#4 $)

>  <Rbt.Library>
libRbt.so (2013.1, Build901 2013/11/27)

>  <Rbt.Parameter_File>
/export/apps/rDock/src/rDock_2013.1_src/data/scripts/dock_solv.prm

>  <Rbt.Receptor>
prm/pocket_docking_5.prm

>  <SCORE>
-7.62692

>  <SCORE.INTER>
-5.65243

>  <SCORE.INTER.CONST>
1

>  <SCORE.INTER.POLAR>
0

>  <SCORE.INTER.ROT>
5

>  <SCORE.INTER.SOLV>
19.4683

>  <SCORE.INTER.VDW>
-17.1911

>  <SCORE.INTER.norm>
-0.565243

>  <SCORE.INTRA>
-1.97449

>  <SCORE.INTRA.DIHEDRAL>
-3.30621

>  <SCORE.INTRA.DIHEDRAL.0>
6.00299

>  <SCORE.INTRA.POLAR>
0

>  <SCORE.INTRA.POLAR.0>
0

>  <SCORE.INTRA.REPUL>
0

>  <SCORE.INTRA.REPUL.0>
0

>  <SCORE.INTRA.SOLV>
-1.1571

>  <SCORE.INTRA.SOLV.lig_0>
-39.3257

>  <SCORE.INTRA.VDW>
0.257158

>  <SCORE.INTRA.VDW.0>
-0.734044

>  <SCORE.INTRA.norm>
-0.197449

>  <SCORE.RESTR>
0

>  <SCORE.RESTR.CAVITY>
0

>  <SCORE.RESTR.norm>
0

>  <SCORE.SYSTEM>
0

>  <SCORE.SYSTEM.CONST>
0

>  <SCORE.SYSTEM.DIHEDRAL>
0

>  <SCORE.SYSTEM.SOLV>
0

>  <SCORE.SYSTEM.norm>
0

>  <SCORE.heavy>
10

>  <SCORE.norm>
-0.762692

>  <RMSD>
5.324

$$$$
ligand
 OpenBabel11021811473D
libRbt.so/2013.1/901 2013/11/27
 10  9  0  0  0  0  0  0  0  0999 V2000
   27.4681   14.3708   19.1184 N   0  0  0  0  0  0  0  0  0  0  0  0
   28.1619   14.5501   20.3801 C   0  0  2  0  0  0  0  0  0  0  0  0
   27.1999   14.9700   21.4592 C   0  0  0  0  0  0  0  0  0  0  0  0
   25.9673   14.8190   21.2685 O   0  0  0  0  0  0  0  0  0  0  0  0
   29.2593   15.5920   20.2118 C   0  0  0  0  0  0  0  0  0  0  0  0
   30.0592   15.6118   21.3914 O   0  0  0  0  0  0  0  0  0  0  0  0
   31.0597   16.6155   21.2206 C   0  0  0  0  0  0  0  0  0  0  0  0
   31.9311   16.6419   22.4744 C   0  0  0  0  0  0  0  0  0  0  0  0
   32.9124   17.7086   22.3771 N   0  0  0  0  0  0  0  0  0  0  0  0
   27.6530   14.9802   22.6214 O   0  0  0  0  0  0  0  0  0  0  0  0
  2  1  1  6  0  0  0
  2  5  1  0  0  0  0
  2  3  1  0  0  0  0
  3  4  1  0  0  0  0
  3 10  1  0  0  0  0
  5  6  1  0  0  0  0
  6  7  1  0  0  0  0
  7  8  1  0  0  0  0
  8  9  1  0  0  0  0
M  END
>  <CHROM.1>
-171.29494054,16.08149891,-178.70611652,-179.62975168,-176.45104803,29.13538223
15.57897836,21.27794406,-2.83493566,0.37250099,1.35215733

>  <Name>
ligand

>  <RI>
0

>  <Rbt.Current_Directory>
/home/itssahil/PROJECTS/Mol_Feturizer/New_Systems/rnas/3DJ0

>  <Rbt.Executable>
rbdock ($Id: //depot/dev/client3/rdock/2013.1/src/exe/rbdock.cxx#4 $)

>  <Rbt.Library>
libRbt.so (2013.1, Build901 2013/11/27)

>  <Rbt.Parameter_File>
/export/apps/rDock/src/rDock_2013.1_src/data/scripts/dock_solv.prm

>  <Rbt.Receptor>
prm/pocket_docking_6.prm

>  <SCORE>
-7.6882

>  <SCORE.INTER>
-5.67983

>  <SCORE.INTER.CONST>
1

>  <SCORE.INTER.POLAR>
0

>  <SCORE.INTER.ROT>
5

>  <SCORE.INTER.SOLV>
19.692

>  <SCORE.INTER.VDW>
-17.2839

>  <SCORE.INTER.norm>
-0.567983

>  <SCORE.INTRA>
-2.00837

>  <SCORE.INTRA.DIHEDRAL>
-2.87343

>  <SCORE.INTRA.DIHEDRAL.0>
6.00299

>  <SCORE.INTRA.POLAR>
0

>  <SCORE.INTRA.POLAR.0>
0

>  <SCORE.INTRA.REPUL>
0

>  <SCORE.INTRA.REPUL.0>
0

>  <SCORE.INTRA.SOLV>
-1.26203

>  <SCORE.INTRA.SOLV.lig_0>
-39.3257

>  <SCORE.INTRA.VDW>
0.0593647

>  <SCORE.INTRA.VDW.0>
-0.734044

>  <SCORE.INTRA.norm>
-0.200837

>  <SCORE.RESTR>
0

>  <SCORE.RESTR.CAVITY>
0

>  <SCORE.RESTR.norm>
0

>  <SCORE.SYSTEM>
0

>  <SCORE.SYSTEM.CONST>
0

>  <SCORE.SYSTEM.DIHEDRAL>
0

>  <SCORE.SYSTEM.SOLV>
0

>  <SCORE.SYSTEM.norm>
0

>  <SCORE.heavy>
10

>  <SCORE.norm>
-0.76882

>  <RMSD>
5.324

$$$$
ligand
 OpenBabel11021811473D
libRbt.so/2013.1/901 2013/11/27
 10  9  0  0  0  0  0  0  0  0999 V2000
   27.4693   14.4042   19.1361 N   0  0  0  0  0  0  0  0  0  0  0  0
   28.1633   14.5776   20.3986 C   0  0  2  0  0  0  0  0  0  0  0  0
   27.1984   14.9745   21.4838 C   0  0  0  0  0  0  0  0  0  0  0  0
   25.9691   14.7886   21.3034 O   0  0  0  0  0  0  0  0  0  0  0  0
   29.2484   15.6339   20.2399 C   0  0  0  0  0  0  0  0  0  0  0  0
   30.0539   15.6456   21.4157 O   0  0  0  0  0  0  0  0  0  0  0  0
   31.0480   16.6567   21.2508 C   0  0  0  0  0  0  0  0  0  0  0  0
   31.9554   16.6416   22.4790 C   0  0  0  0  0  0  0  0  0  0  0  0
   32.9284   17.7168   22.3931 N   0  0  0  0  0  0  0  0  0  0  0  0
   27.6602   15.0016   22.6423 O   0  0  0  0  0  0  0  0  0  0  0  0
  2  1  1  6  0  0  0
  2  5  1  0  0  0  0
  2  3  1  0  0  0  0
  3  4  1  0  0  0  0
  3 10  1  0  0  0  0
  5  6  1  0  0  0  0
  6  7  1  0  0  0  0
  7  8  1  0  0  0  0
  8  9  1  0  0  0  0
M  END
>  <CHROM.1>
-171.02401883,17.38373234,-179.08194245,-177.67211348,-176.19304077,29.13761109
15.59671876,21.30013902,-2.84266007,0.37777583,1.36654820

>  <Name>
ligand

>  <RI>
0

>  <Rbt.Current_Directory>
/home/itssahil/PROJECTS/Mol_Feturizer/New_Systems/rnas/3DJ0

>  <Rbt.Executable>
rbdock ($Id: //depot/dev/client3/rdock/2013.1/src/exe/rbdock.cxx#4 $)

>  <Rbt.Library>
libRbt.so (2013.1, Build901 2013/11/27)

>  <Rbt.Parameter_File>
/export/apps/rDock/src/rDock_2013.1_src/data/scripts/dock_solv.prm

>  <Rbt.Receptor>
prm/pocket_docking_5.prm

>  <SCORE>
-7.6866

>  <SCORE.INTER>
-5.71322

>  <SCORE.INTER.CONST>
1

>  <SCORE.INTER.POLAR>
0

>  <SCORE.INTER.ROT>
5

>  <SCORE.INTER.SOLV>
19.6567

>  <SCORE.INTER.VDW>
-17.2944

>  <SCORE.INTER.norm>
-0.571322

>  <SCORE.INTRA>
-1.97339

>  <SCORE.INTRA.DIHEDRAL>
-2.83372

>  <SCORE.INTRA.DIHEDRAL.0>
6.00299

>  <SCORE.INTRA.POLAR>
0

>  <SCORE.INTRA.POLAR.0>
0

>  <SCORE.INTRA.REPUL>
0

>  <SCORE.INTRA.REPUL.0>
0

>  <SCORE.INTRA.SOLV>
-1.26424

>  <SCORE.INTRA.SOLV.lig_0>
-39.3257

>  <SCORE.INTRA.VDW>
0.0755937

>  <SCORE.INTRA.VDW.0>
-0.734044

>  <SCORE.INTRA.norm>
-0.197339

>  <SCORE.RESTR>
0

>  <SCORE.RESTR.CAVITY>
0

>  <SCORE.RESTR.norm>
0

>  <SCORE.SYSTEM>
0

>  <SCORE.SYSTEM.CONST>
0

>  <SCORE.SYSTEM.DIHEDRAL>
0

>  <SCORE.SYSTEM.SOLV>
0

>  <SCORE.SYSTEM.norm>
0

>  <SCORE.heavy>
10

>  <SCORE.norm>
-0.76866

>  <RMSD>
5.325

$$$$
ligand
 OpenBabel11021811473D
libRbt.so/2013.1/901 2013/11/27
 10  9  0  0  0  0  0  0  0  0999 V2000
   27.4981   14.4017   19.1543 N   0  0  0  0  0  0  0  0  0  0  0  0
   28.1779   14.5997   20.4208 C   0  0  2  0  0  0  0  0  0  0  0  0
   27.1978   14.9967   21.4922 C   0  0  0  0  0  0  0  0  0  0  0  0
   25.9711   14.8116   21.2941 O   0  0  0  0  0  0  0  0  0  0  0  0
   29.2502   15.6684   20.2591 C   0  0  0  0  0  0  0  0  0  0  0  0
   30.0651   15.6825   21.4284 O   0  0  0  0  0  0  0  0  0  0  0  0
   31.0522   16.6995   21.2574 C   0  0  0  0  0  0  0  0  0  0  0  0
   31.9616   16.6960   22.4842 C   0  0  0  0  0  0  0  0  0  0  0  0
   32.9384   17.7664   22.3836 N   0  0  0  0  0  0  0  0  0  0  0  0
   27.6429   15.0231   22.6573 O   0  0  0  0  0  0  0  0  0  0  0  0
  2  1  1  6  0  0  0
  2  5  1  0  0  0  0
  2  3  1  0  0  0  0
  3  4  1  0  0  0  0
  3 10  1  0  0  0  0
  5  6  1  0  0  0  0
  6  7  1  0  0  0  0
  7  8  1  0  0  0  0
  8  9  1  0  0  0  0
M  END
>  <CHROM.1>
-169.60338413,16.26579471,-179.44182369,-178.19432745,-176.93078034,29.14336778
15.62715163,21.30880966,-2.84185068,0.38082070,1.35777048

>  <Name>
ligand

>  <RI>
0

>  <Rbt.Current_Directory>
/home/itssahil/PROJECTS/Mol_Feturizer/New_Systems/rnas/3DJ0

>  <Rbt.Executable>
rbdock ($Id: //depot/dev/client3/rdock/2013.1/src/exe/rbdock.cxx#4 $)

>  <Rbt.Library>
libRbt.so (2013.1, Build901 2013/11/27)

>  <Rbt.Parameter_File>
/export/apps/rDock/src/rDock_2013.1_src/data/scripts/dock_solv.prm

>  <Rbt.Receptor>
prm/pocket_docking_4.prm

>  <SCORE>
-7.70112

>  <SCORE.INTER>
-5.71805

>  <SCORE.INTER.CONST>
1

>  <SCORE.INTER.POLAR>
0

>  <SCORE.INTER.ROT>
5

>  <SCORE.INTER.SOLV>
19.6047

>  <SCORE.INTER.VDW>
-17.2803

>  <SCORE.INTER.norm>
-0.571805

>  <SCORE.INTRA>
-1.98307

>  <SCORE.INTRA.DIHEDRAL>
-2.76483

>  <SCORE.INTRA.DIHEDRAL.0>
6.00299

>  <SCORE.INTRA.POLAR>
0

>  <SCORE.INTRA.POLAR.0>
0

>  <SCORE.INTRA.REPUL>
0

>  <SCORE.INTRA.REPUL.0>
0

>  <SCORE.INTRA.SOLV>
-1.27659

>  <SCORE.INTRA.SOLV.lig_0>
-39.3257

>  <SCORE.INTRA.VDW>
0.0376417

>  <SCORE.INTRA.VDW.0>
-0.734044

>  <SCORE.INTRA.norm>
-0.198307

>  <SCORE.RESTR>
0

>  <SCORE.RESTR.CAVITY>
0

>  <SCORE.RESTR.norm>
0

>  <SCORE.SYSTEM>
0

>  <SCORE.SYSTEM.CONST>
0

>  <SCORE.SYSTEM.DIHEDRAL>
0

>  <SCORE.SYSTEM.SOLV>
0

>  <SCORE.SYSTEM.norm>
0

>  <SCORE.heavy>
10

>  <SCORE.norm>
-0.770112

>  <RMSD>
5.326

$$$$
ligand
 OpenBabel11021811473D
libRbt.so/2013.1/901 2013/11/27
 10  9  0  0  0  0  0  0  0  0999 V2000
   27.5445   14.3441   19.0151 N   0  0  0  0  0  0  0  0  0  0  0  0
   28.1901   14.5460   20.2988 C   0  0  2  0  0  0  0  0  0  0  0  0
   27.1957   15.0227   21.3234 C   0  0  0  0  0  0  0  0  0  0  0  0
   25.9718   15.0006   21.0403 O   0  0  0  0  0  0  0  0  0  0  0  0
   29.3200   15.5551   20.1450 C   0  0  0  0  0  0  0  0  0  0  0  0
   30.0341   15.6365   21.3759 O   0  0  0  0  0  0  0  0  0  0  0  0
   31.1064   16.5612   21.1951 C   0  0  0  0  0  0  0  0  0  0  0  0
   31.9197   16.6106   22.4867 C   0  0  0  0  0  0  0  0  0  0  0  0
   33.0148   17.5552   22.3504 N   0  0  0  0  0  0  0  0  0  0  0  0
   27.5604   14.9496   22.5141 O   0  0  0  0  0  0  0  0  0  0  0  0
  2  1  1  6  0  0  0
  2  5  1  0  0  0  0
  2  3  1  0  0  0  0
  3  4  1  0  0  0  0
  3 10  1  0  0  0  0
  5  6  1  0  0  0  0
  6  7  1  0  0  0  0
  7  8  1  0  0  0  0
  8  9  1  0  0  0  0
M  END
>  <CHROM.1>
-173.87632365,10.12185178,178.53544878,-177.43394997,-179.30805707,29.15169589
15.57344610,21.19894903,-2.81230718,0.33494634,1.33092828

>  <Name>
ligand

>  <RI>
0

>  <Rbt.Current_Directory>
/home/itssahil/PROJECTS/Mol_Feturizer/New_Systems/rnas/3DJ0

>  <Rbt.Executable>
rbdock ($Id: //depot/dev/client3/rdock/2013.1/src/exe/rbdock.cxx#4 $)

>  <Rbt.Library>
libRbt.so (2013.1, Build901 2013/11/27)

>  <Rbt.Parameter_File>
/export/apps/rDock/src/rDock_2013.1_src/data/scripts/dock_solv.prm

>  <Rbt.Receptor>
prm/pocket_docking_2.prm

>  <SCORE>
-7.54764

>  <SCORE.INTER>
-5.44023

>  <SCORE.INTER.CONST>
1

>  <SCORE.INTER.POLAR>
0

>  <SCORE.INTER.ROT>
5

>  <SCORE.INTER.SOLV>
19.6682

>  <SCORE.INTER.VDW>
-17.1162

>  <SCORE.INTER.norm>
-0.544023

>  <SCORE.INTRA>
-2.10741

>  <SCORE.INTRA.DIHEDRAL>
-3.01614

>  <SCORE.INTRA.DIHEDRAL.0>
6.00299

>  <SCORE.INTRA.POLAR>
0

>  <SCORE.INTRA.POLAR.0>
0

>  <SCORE.INTRA.REPUL>
0

>  <SCORE.INTRA.REPUL.0>
0

>  <SCORE.INTRA.SOLV>
-1.2607

>  <SCORE.INTRA.SOLV.lig_0>
-39.3257

>  <SCORE.INTRA.VDW>
0.0310051

>  <SCORE.INTRA.VDW.0>
-0.734044

>  <SCORE.INTRA.norm>
-0.210741

>  <SCORE.RESTR>
0

>  <SCORE.RESTR.CAVITY>
0

>  <SCORE.RESTR.norm>
0

>  <SCORE.SYSTEM>
0

>  <SCORE.SYSTEM.CONST>
0

>  <SCORE.SYSTEM.DIHEDRAL>
0

>  <SCORE.SYSTEM.SOLV>
0

>  <SCORE.SYSTEM.norm>
0

>  <SCORE.heavy>
10

>  <SCORE.norm>
-0.754764

>  <RMSD>
5.328

$$$$
ligand
 OpenBabel11021811473D
libRbt.so/2013.1/901 2013/11/27
 10  9  0  0  0  0  0  0  0  0999 V2000
   27.4978   14.4267   19.1329 N   0  0  0  0  0  0  0  0  0  0  0  0
   28.1805   14.6035   20.4010 C   0  0  2  0  0  0  0  0  0  0  0  0
   27.2027   14.9813   21.4815 C   0  0  0  0  0  0  0  0  0  0  0  0
   25.9744   14.8158   21.2761 O   0  0  0  0  0  0  0  0  0  0  0  0
   29.2517   15.6756   20.2551 C   0  0  0  0  0  0  0  0  0  0  0  0
   30.0664   15.6735   21.4248 O   0  0  0  0  0  0  0  0  0  0  0  0
   31.0893   16.6524   21.2430 C   0  0  0  0  0  0  0  0  0  0  0  0
   32.0039   16.6228   22.4656 C   0  0  0  0  0  0  0  0  0  0  0  0
   33.0477   17.6241   22.3316 N   0  0  0  0  0  0  0  0  0  0  0  0
   27.6457   14.9698   22.6476 O   0  0  0  0  0  0  0  0  0  0  0  0
  2  1  1  6  0  0  0
  2  5  1  0  0  0  0
  2  3  1  0  0  0  0
  3  4  1  0  0  0  0
  3 10  1  0  0  0  0
  5  6  1  0  0  0  0
  6  7  1  0  0  0  0
  7  8  1  0  0  0  0
  8  9  1  0  0  0  0
M  END
>  <CHROM.1>
-169.81814848,15.30136600,177.97500622,-177.77626629,-178.96396400,29.16333624
15.59724735,21.29183068,-2.86237303,0.37076799,1.38949864

>  <Name>
ligand

>  <RI>
0

>  <Rbt.Current_Directory>
/home/itssahil/PROJECTS/Mol_Feturizer/New_Systems/rnas/3DJ0

>  <Rbt.Executable>
rbdock ($Id: //depot/dev/client3/rdock/2013.1/src/exe/rbdock.cxx#4 $)

>  <Rbt.Library>
libRbt.so (2013.1, Build901 2013/11/27)

>  <Rbt.Parameter_File>
/export/apps/rDock/src/rDock_2013.1_src/data/scripts/dock_solv.prm

>  <Rbt.Receptor>
prm/pocket_docking_4.prm

>  <SCORE>
-7.67535

>  <SCORE.INTER>
-5.67723

>  <SCORE.INTER.CONST>
1

>  <SCORE.INTER.POLAR>
0

>  <SCORE.INTER.ROT>
5

>  <SCORE.INTER.SOLV>
19.6992

>  <SCORE.INTER.VDW>
-17.2846

>  <SCORE.INTER.norm>
-0.567723

>  <SCORE.INTRA>
-1.99812

>  <SCORE.INTRA.DIHEDRAL>
-2.78106

>  <SCORE.INTRA.DIHEDRAL.0>
6.00299

>  <SCORE.INTRA.POLAR>
0

>  <SCORE.INTRA.POLAR.0>
0

>  <SCORE.INTRA.REPUL>
0

>  <SCORE.INTRA.REPUL.0>
0

>  <SCORE.INTRA.SOLV>
-1.2803

>  <SCORE.INTRA.SOLV.lig_0>
-39.3257

>  <SCORE.INTRA.VDW>
0.0325645

>  <SCORE.INTRA.VDW.0>
-0.734044

>  <SCORE.INTRA.norm>
-0.199812

>  <SCORE.RESTR>
0

>  <SCORE.RESTR.CAVITY>
0

>  <SCORE.RESTR.norm>
0

>  <SCORE.SYSTEM>
0

>  <SCORE.SYSTEM.CONST>
0

>  <SCORE.SYSTEM.DIHEDRAL>
0

>  <SCORE.SYSTEM.SOLV>
0

>  <SCORE.SYSTEM.norm>
0

>  <SCORE.heavy>
10

>  <SCORE.norm>
-0.767535

>  <RMSD>
5.328

$$$$
ligand
 OpenBabel11021811473D
libRbt.so/2013.1/901 2013/11/27
 10  9  0  0  0  0  0  0  0  0999 V2000
   27.4700   14.3866   19.1492 N   0  0  0  0  0  0  0  0  0  0  0  0
   28.1631   14.5696   20.4108 C   0  0  2  0  0  0  0  0  0  0  0  0
   27.1962   14.9650   21.4946 C   0  0  0  0  0  0  0  0  0  0  0  0
   25.9648   14.8124   21.2974 O   0  0  0  0  0  0  0  0  0  0  0  0
   29.2417   15.6319   20.2473 C   0  0  0  0  0  0  0  0  0  0  0  0
   30.0568   15.6429   21.4166 O   0  0  0  0  0  0  0  0  0  0  0  0
   31.0363   16.6684   21.2531 C   0  0  0  0  0  0  0  0  0  0  0  0
   31.9524   16.6554   22.4749 C   0  0  0  0  0  0  0  0  0  0  0  0
   32.9305   17.7247   22.3758 N   0  0  0  0  0  0  0  0  0  0  0  0
   27.6458   14.9554   22.6582 O   0  0  0  0  0  0  0  0  0  0  0  0
  2  1  1  6  0  0  0
  2  5  1  0  0  0  0
  2  3  1  0  0  0  0
  3  4  1  0  0  0  0
  3 10  1  0  0  0  0
  5  6  1  0  0  0  0
  6  7  1  0  0  0  0
  7  8  1  0  0  0  0
  8  9  1  0  0  0  0
M  END
>  <CHROM.1>
-170.36771816,15.01372207,-178.52718099,-177.78461403,-177.52091536,29.13384312
15.59370167,21.30353510,-2.84707257,0.38154102,1.36914409

>  <Name>
ligand

>  <RI>
0

>  <Rbt.Current_Directory>
/home/itssahil/PROJECTS/Mol_Feturizer/New_Systems/rnas/3DJ0

>  <Rbt.Executable>
rbdock ($Id: //depot/dev/client3/rdock/2013.1/src/exe/rbdock.cxx#4 $)

>  <Rbt.Library>
libRbt.so (2013.1, Build901 2013/11/27)

>  <Rbt.Parameter_File>
/export/apps/rDock/src/rDock_2013.1_src/data/scripts/dock_solv.prm

>  <Rbt.Receptor>
prm/pocket_docking_5.prm

>  <SCORE>
-7.69193

>  <SCORE.INTER>
-5.6829

>  <SCORE.INTER.CONST>
1

>  <SCORE.INTER.POLAR>
0

>  <SCORE.INTER.ROT>
5

>  <SCORE.INTER.SOLV>
19.6915

>  <SCORE.INTER.VDW>
-17.2858

>  <SCORE.INTER.norm>
-0.56829

>  <SCORE.INTRA>
-2.00903

>  <SCORE.INTRA.DIHEDRAL>
-2.80855

>  <SCORE.INTRA.DIHEDRAL.0>
6.00299

>  <SCORE.INTRA.POLAR>
0

>  <SCORE.INTRA.POLAR.0>
0

>  <SCORE.INTRA.REPUL>
0

>  <SCORE.INTRA.REPUL.0>
0

>  <SCORE.INTRA.SOLV>
-1.27198

>  <SCORE.INTRA.SOLV.lig_0>
-39.3257

>  <SCORE.INTRA.VDW>
0.0312379

>  <SCORE.INTRA.VDW.0>
-0.734044

>  <SCORE.INTRA.norm>
-0.200903

>  <SCORE.RESTR>
0

>  <SCORE.RESTR.CAVITY>
0

>  <SCORE.RESTR.norm>
0

>  <SCORE.SYSTEM>
0

>  <SCORE.SYSTEM.CONST>
0

>  <SCORE.SYSTEM.DIHEDRAL>
0

>  <SCORE.SYSTEM.SOLV>
0

>  <SCORE.SYSTEM.norm>
0

>  <SCORE.heavy>
10

>  <SCORE.norm>
-0.769193

>  <RMSD>
5.328

$$$$
ligand
 OpenBabel11021811473D
libRbt.so/2013.1/901 2013/11/27
 10  9  0  0  0  0  0  0  0  0999 V2000
   27.4682   14.4096   19.1191 N   0  0  0  0  0  0  0  0  0  0  0  0
   28.1615   14.5799   20.3823 C   0  0  2  0  0  0  0  0  0  0  0  0
   27.1958   14.9719   21.4685 C   0  0  0  0  0  0  0  0  0  0  0  0
   25.9643   14.8195   21.2724 O   0  0  0  0  0  0  0  0  0  0  0  0
   29.2452   15.6382   20.2273 C   0  0  0  0  0  0  0  0  0  0  0  0
   30.0585   15.6380   21.3979 O   0  0  0  0  0  0  0  0  0  0  0  0
   31.0491   16.6533   21.2382 C   0  0  0  0  0  0  0  0  0  0  0  0
   31.9487   16.6436   22.4723 C   0  0  0  0  0  0  0  0  0  0  0  0
   32.9294   17.7114   22.3826 N   0  0  0  0  0  0  0  0  0  0  0  0
   27.6470   14.9590   22.6314 O   0  0  0  0  0  0  0  0  0  0  0  0
  2  1  1  6  0  0  0
  2  5  1  0  0  0  0
  2  3  1  0  0  0  0
  3  4  1  0  0  0  0
  3 10  1  0  0  0  0
  5  6  1  0  0  0  0
  6  7  1  0  0  0  0
  7  8  1  0  0  0  0
  8  9  1  0  0  0  0
M  END
>  <CHROM.1>
-170.45536910,15.41534256,-178.94816284,-178.72551083,-176.98072601,29.13487518
15.59483629,21.28487267,-2.84474910,0.37800063,1.37394209

>  <Name>
ligand

>  <RI>
0

>  <Rbt.Current_Directory>
/home/itssahil/PROJECTS/Mol_Feturizer/New_Systems/rnas/3DJ0

>  <Rbt.Executable>
rbdock ($Id: //depot/dev/client3/rdock/2013.1/src/exe/rbdock.cxx#4 $)

>  <Rbt.Library>
libRbt.so (2013.1, Build901 2013/11/27)

>  <Rbt.Parameter_File>
/export/apps/rDock/src/rDock_2013.1_src/data/scripts/dock_solv.prm

>  <Rbt.Receptor>
prm/pocket_docking_7.prm

>  <SCORE>
-7.7118

>  <SCORE.INTER>
-5.70096

>  <SCORE.INTER.CONST>
1

>  <SCORE.INTER.POLAR>
0

>  <SCORE.INTER.ROT>
5

>  <SCORE.INTER.SOLV>
19.6895

>  <SCORE.INTER.VDW>
-17.2972

>  <SCORE.INTER.norm>
-0.570096

>  <SCORE.INTRA>
-2.01084

>  <SCORE.INTRA.DIHEDRAL>
-2.82589

>  <SCORE.INTRA.DIHEDRAL.0>
6.00299

>  <SCORE.INTRA.POLAR>
0

>  <SCORE.INTRA.POLAR.0>
0

>  <SCORE.INTRA.REPUL>
0

>  <SCORE.INTRA.REPUL.0>
0

>  <SCORE.INTRA.SOLV>
-1.27163

>  <SCORE.INTRA.SOLV.lig_0>
-39.3257

>  <SCORE.INTRA.VDW>
0.0379257

>  <SCORE.INTRA.VDW.0>
-0.734044

>  <SCORE.INTRA.norm>
-0.201084

>  <SCORE.RESTR>
0

>  <SCORE.RESTR.CAVITY>
0

>  <SCORE.RESTR.norm>
0

>  <SCORE.SYSTEM>
0

>  <SCORE.SYSTEM.CONST>
0

>  <SCORE.SYSTEM.DIHEDRAL>
0

>  <SCORE.SYSTEM.SOLV>
0

>  <SCORE.SYSTEM.norm>
0

>  <SCORE.heavy>
10

>  <SCORE.norm>
-0.77118

>  <RMSD>
5.328

$$$$
ligand
 OpenBabel11021811473D
libRbt.so/2013.1/901 2013/11/27
 10  9  0  0  0  0  0  0  0  0999 V2000
   27.4988   14.4118   19.1290 N   0  0  0  0  0  0  0  0  0  0  0  0
   28.1799   14.5977   20.3966 C   0  0  2  0  0  0  0  0  0  0  0  0
   27.1997   14.9754   21.4749 C   0  0  0  0  0  0  0  0  0  0  0  0
   25.9714   14.8168   21.2638 O   0  0  0  0  0  0  0  0  0  0  0  0
   29.2458   15.6746   20.2464 C   0  0  0  0  0  0  0  0  0  0  0  0
   30.0610   15.6806   21.4156 O   0  0  0  0  0  0  0  0  0  0  0  0
   31.0525   16.6939   21.2482 C   0  0  0  0  0  0  0  0  0  0  0  0
   31.9632   16.6805   22.4740 C   0  0  0  0  0  0  0  0  0  0  0  0
   32.9374   17.7541   22.3828 N   0  0  0  0  0  0  0  0  0  0  0  0
   27.6379   14.9563   22.6427 O   0  0  0  0  0  0  0  0  0  0  0  0
  2  1  1  6  0  0  0
  2  5  1  0  0  0  0
  2  3  1  0  0  0  0
  3  4  1  0  0  0  0
  3 10  1  0  0  0  0
  5  6  1  0  0  0  0
  6  7  1  0  0  0  0
  7  8  1  0  0  0  0
  8  9  1  0  0  0  0
M  END
>  <CHROM.1>
-169.73257014,14.50016364,179.82394051,-178.12599784,-176.43840779,29.14248043
15.61633540,21.29298002,-2.84659966,0.38530845,1.37628610

>  <Name>
ligand

>  <RI>
0

>  <Rbt.Current_Directory>
/home/itssahil/PROJECTS/Mol_Feturizer/New_Systems/rnas/3DJ0

>  <Rbt.Executable>
rbdock ($Id: //depot/dev/client3/rdock/2013.1/src/exe/rbdock.cxx#4 $)

>  <Rbt.Library>
libRbt.so (2013.1, Build901 2013/11/27)

>  <Rbt.Parameter_File>
/export/apps/rDock/src/rDock_2013.1_src/data/scripts/dock_solv.prm

>  <Rbt.Receptor>
prm/pocket_docking_3.prm

>  <SCORE>
-7.71808

>  <SCORE.INTER>
-5.71929

>  <SCORE.INTER.CONST>
1

>  <SCORE.INTER.POLAR>
0

>  <SCORE.INTER.ROT>
5

>  <SCORE.INTER.SOLV>
19.6274

>  <SCORE.INTER.VDW>
-17.2886

>  <SCORE.INTER.norm>
-0.571929

>  <SCORE.INTRA>
-1.99879

>  <SCORE.INTRA.DIHEDRAL>
-2.7561

>  <SCORE.INTRA.DIHEDRAL.0>
6.00299

>  <SCORE.INTRA.POLAR>
0

>  <SCORE.INTRA.POLAR.0>
0

>  <SCORE.INTRA.REPUL>
0

>  <SCORE.INTRA.REPUL.0>
0

>  <SCORE.INTRA.SOLV>
-1.27807

>  <SCORE.INTRA.SOLV.lig_0>
-39.3257

>  <SCORE.INTRA.VDW>
0.018299

>  <SCORE.INTRA.VDW.0>
-0.734044

>  <SCORE.INTRA.norm>
-0.199879

>  <SCORE.RESTR>
0

>  <SCORE.RESTR.CAVITY>
0

>  <SCORE.RESTR.norm>
0

>  <SCORE.SYSTEM>
0

>  <SCORE.SYSTEM.CONST>
0

>  <SCORE.SYSTEM.DIHEDRAL>
0

>  <SCORE.SYSTEM.SOLV>
0

>  <SCORE.SYSTEM.norm>
0

>  <SCORE.heavy>
10

>  <SCORE.norm>
-0.771808

>  <RMSD>
5.329

$$$$
ligand
 OpenBabel11021811473D
libRbt.so/2013.1/901 2013/11/27
 10  9  0  0  0  0  0  0  0  0999 V2000
   27.4556   14.5687   21.1655 N   0  0  0  0  0  0  0  0  0  0  0  0
   27.6816   15.4146   20.0085 C   0  0  2  0  0  0  0  0  0  0  0  0
   28.2650   14.6160   18.8736 C   0  0  0  0  0  0  0  0  0  0  0  0
   29.4561   14.2245   18.9539 O   0  0  0  0  0  0  0  0  0  0  0  0
   28.6142   16.5563   20.3894 C   0  0  0  0  0  0  0  0  0  0  0  0
   29.7866   16.0113   20.9895 O   0  0  0  0  0  0  0  0  0  0  0  0
   30.5983   17.1018   21.4248 C   0  0  0  0  0  0  0  0  0  0  0  0
   31.8548   16.5325   22.0801 C   0  0  0  0  0  0  0  0  0  0  0  0
   32.6929   17.6119   22.5725 N   0  0  0  0  0  0  0  0  0  0  0  0
   27.4483   13.9844   18.1735 O   0  0  0  0  0  0  0  0  0  0  0  0
  2  1  1  1  0  0  0
  2  5  1  0  0  0  0
  2  3  1  0  0  0  0
  3  4  1  0  0  0  0
  3 10  1  0  0  0  0
  5  6  1  0  0  0  0
  6  7  1  0  0  0  0
  7  8  1  0  0  0  0
  8  9  1  0  0  0  0
M  END
>  <CHROM.1>
52.93897933,-71.80782913,-175.84383297,179.58097647,-178.39092000,29.38484339
15.63324267,20.43224107,2.34846210,-0.11699908,-2.18227351

>  <Name>
ligand

>  <RI>
0

>  <Rbt.Current_Directory>
/home/itssahil/PROJECTS/Mol_Feturizer/New_Systems/rnas/3DJ0

>  <Rbt.Executable>
rbdock ($Id: //depot/dev/client3/rdock/2013.1/src/exe/rbdock.cxx#4 $)

>  <Rbt.Library>
libRbt.so (2013.1, Build901 2013/11/27)

>  <Rbt.Parameter_File>
/export/apps/rDock/src/rDock_2013.1_src/data/scripts/dock_solv.prm

>  <Rbt.Receptor>
prm/pocket_docking_4.prm

>  <SCORE>
-7.4196

>  <SCORE.INTER>
-5.68995

>  <SCORE.INTER.CONST>
1

>  <SCORE.INTER.POLAR>
0

>  <SCORE.INTER.ROT>
5

>  <SCORE.INTER.SOLV>
17.8763

>  <SCORE.INTER.VDW>
-16.6854

>  <SCORE.INTER.norm>
-0.568995

>  <SCORE.INTRA>
-1.72964

>  <SCORE.INTRA.DIHEDRAL>
-3.44401

>  <SCORE.INTRA.DIHEDRAL.0>
6.00299

>  <SCORE.INTRA.POLAR>
0

>  <SCORE.INTRA.POLAR.0>
0

>  <SCORE.INTRA.REPUL>
0

>  <SCORE.INTRA.REPUL.0>
0

>  <SCORE.INTRA.SOLV>
-0.0625705

>  <SCORE.INTRA.SOLV.lig_0>
-39.3257

>  <SCORE.INTRA.VDW>
0.0236462

>  <SCORE.INTRA.VDW.0>
-0.734044

>  <SCORE.INTRA.norm>
-0.172964

>  <SCORE.RESTR>
0

>  <SCORE.RESTR.CAVITY>
0

>  <SCORE.RESTR.norm>
0

>  <SCORE.SYSTEM>
0

>  <SCORE.SYSTEM.CONST>
0

>  <SCORE.SYSTEM.DIHEDRAL>
0

>  <SCORE.SYSTEM.SOLV>
0

>  <SCORE.SYSTEM.norm>
0

>  <SCORE.heavy>
10

>  <SCORE.norm>
-0.74196

>  <RMSD>
5.330

$$$$
ligand
 OpenBabel11021811473D
libRbt.so/2013.1/901 2013/11/27
 10  9  0  0  0  0  0  0  0  0999 V2000
   27.4763   14.3717   19.1410 N   0  0  0  0  0  0  0  0  0  0  0  0
   28.1593   14.5597   20.4073 C   0  0  2  0  0  0  0  0  0  0  0  0
   27.1853   14.9703   21.4792 C   0  0  0  0  0  0  0  0  0  0  0  0
   25.9570   14.7893   21.2875 O   0  0  0  0  0  0  0  0  0  0  0  0
   29.2467   15.6131   20.2455 C   0  0  0  0  0  0  0  0  0  0  0  0
   30.0523   15.6264   21.4213 O   0  0  0  0  0  0  0  0  0  0  0  0
   31.0403   16.6439   21.2590 C   0  0  0  0  0  0  0  0  0  0  0  0
   31.9394   16.6402   22.4935 C   0  0  0  0  0  0  0  0  0  0  0  0
   32.9272   17.7006   22.3937 N   0  0  0  0  0  0  0  0  0  0  0  0
   27.6352   15.0043   22.6422 O   0  0  0  0  0  0  0  0  0  0  0  0
  2  1  1  6  0  0  0
  2  5  1  0  0  0  0
  2  3  1  0  0  0  0
  3  4  1  0  0  0  0
  3 10  1  0  0  0  0
  5  6  1  0  0  0  0
  6  7  1  0  0  0  0
  7  8  1  0  0  0  0
  8  9  1  0  0  0  0
M  END
>  <CHROM.1>
-170.29360214,17.03232014,-178.51435640,-178.23517503,-177.64454159,29.12987843
15.58481830,21.30263500,-2.83650508,0.37317098,1.35322264

>  <Name>
ligand

>  <RI>
0

>  <Rbt.Current_Directory>
/home/itssahil/PROJECTS/Mol_Feturizer/New_Systems/rnas/3DJ0

>  <Rbt.Executable>
rbdock ($Id: //depot/dev/client3/rdock/2013.1/src/exe/rbdock.cxx#4 $)

>  <Rbt.Library>
libRbt.so (2013.1, Build901 2013/11/27)

>  <Rbt.Parameter_File>
/export/apps/rDock/src/rDock_2013.1_src/data/scripts/dock_solv.prm

>  <Rbt.Receptor>
prm/pocket_docking_5.prm

>  <SCORE>
-7.68749

>  <SCORE.INTER>
-5.69874

>  <SCORE.INTER.CONST>
1

>  <SCORE.INTER.POLAR>
0

>  <SCORE.INTER.ROT>
5

>  <SCORE.INTER.SOLV>
19.6793

>  <SCORE.INTER.VDW>
-17.2922

>  <SCORE.INTER.norm>
-0.569874

>  <SCORE.INTRA>
-1.98875

>  <SCORE.INTRA.DIHEDRAL>
-2.8225

>  <SCORE.INTRA.DIHEDRAL.0>
6.00299

>  <SCORE.INTRA.POLAR>
0

>  <SCORE.INTRA.POLAR.0>
0

>  <SCORE.INTRA.REPUL>
0

>  <SCORE.INTRA.REPUL.0>
0

>  <SCORE.INTRA.SOLV>
-1.26921

>  <SCORE.INTRA.SOLV.lig_0>
-39.3257

>  <SCORE.INTRA.VDW>
0.057109

>  <SCORE.INTRA.VDW.0>
-0.734044

>  <SCORE.INTRA.norm>
-0.198875

>  <SCORE.RESTR>
0

>  <SCORE.RESTR.CAVITY>
0

>  <SCORE.RESTR.norm>
0

>  <SCORE.SYSTEM>
0

>  <SCORE.SYSTEM.CONST>
0

>  <SCORE.SYSTEM.DIHEDRAL>
0

>  <SCORE.SYSTEM.SOLV>
0

>  <SCORE.SYSTEM.norm>
0

>  <SCORE.heavy>
10

>  <SCORE.norm>
-0.768749

>  <RMSD>
5.330

$$$$
ligand
 OpenBabel11021811473D
libRbt.so/2013.1/901 2013/11/27
 10  9  0  0  0  0  0  0  0  0999 V2000
   27.4546   14.4251   19.1130 N   0  0  0  0  0  0  0  0  0  0  0  0
   28.1505   14.5890   20.3757 C   0  0  2  0  0  0  0  0  0  0  0  0
   27.1869   14.9753   21.4658 C   0  0  0  0  0  0  0  0  0  0  0  0
   25.9557   14.8137   21.2756 O   0  0  0  0  0  0  0  0  0  0  0  0
   29.2338   15.6481   20.2240 C   0  0  0  0  0  0  0  0  0  0  0  0
   30.0417   15.6507   21.3983 O   0  0  0  0  0  0  0  0  0  0  0  0
   31.0470   16.6503   21.2313 C   0  0  0  0  0  0  0  0  0  0  0  0
   31.9404   16.6432   22.4698 C   0  0  0  0  0  0  0  0  0  0  0  0
   32.9276   17.7048   22.3783 N   0  0  0  0  0  0  0  0  0  0  0  0
   27.6435   14.9672   22.6267 O   0  0  0  0  0  0  0  0  0  0  0  0
  2  1  1  6  0  0  0
  2  5  1  0  0  0  0
  2  3  1  0  0  0  0
  3  4  1  0  0  0  0
  3 10  1  0  0  0  0
  5  6  1  0  0  0  0
  6  7  1  0  0  0  0
  7  8  1  0  0  0  0
  8  9  1  0  0  0  0
M  END
>  <CHROM.1>
-170.99905389,15.98806116,-179.97996120,-178.74951004,-176.41165687,29.12623919
15.59912598,21.28165888,-2.84726550,0.37810811,1.37940536

>  <Name>
ligand

>  <RI>
0

>  <Rbt.Current_Directory>
/home/itssahil/PROJECTS/Mol_Feturizer/New_Systems/rnas/3DJ0

>  <Rbt.Executable>
rbdock ($Id: //depot/dev/client3/rdock/2013.1/src/exe/rbdock.cxx#4 $)

>  <Rbt.Library>
libRbt.so (2013.1, Build901 2013/11/27)

>  <Rbt.Parameter_File>
/export/apps/rDock/src/rDock_2013.1_src/data/scripts/dock_solv.prm

>  <Rbt.Receptor>
prm/pocket_docking_6.prm

>  <SCORE>
-7.70704

>  <SCORE.INTER>
-5.70115

>  <SCORE.INTER.CONST>
1

>  <SCORE.INTER.POLAR>
0

>  <SCORE.INTER.ROT>
5

>  <SCORE.INTER.SOLV>
19.6974

>  <SCORE.INTER.VDW>
-17.2999

>  <SCORE.INTER.norm>
-0.570115

>  <SCORE.INTRA>
-2.00589

>  <SCORE.INTRA.DIHEDRAL>
-2.85483

>  <SCORE.INTRA.DIHEDRAL.0>
6.00299

>  <SCORE.INTRA.POLAR>
0

>  <SCORE.INTRA.POLAR.0>
0

>  <SCORE.INTRA.REPUL>
0

>  <SCORE.INTRA.REPUL.0>
0

>  <SCORE.INTRA.SOLV>
-1.26872

>  <SCORE.INTRA.SOLV.lig_0>
-39.3257

>  <SCORE.INTRA.VDW>
0.0558829

>  <SCORE.INTRA.VDW.0>
-0.734044

>  <SCORE.INTRA.norm>
-0.200589

>  <SCORE.RESTR>
0

>  <SCORE.RESTR.CAVITY>
0

>  <SCORE.RESTR.norm>
0

>  <SCORE.SYSTEM>
0

>  <SCORE.SYSTEM.CONST>
0

>  <SCORE.SYSTEM.DIHEDRAL>
0

>  <SCORE.SYSTEM.SOLV>
0

>  <SCORE.SYSTEM.norm>
0

>  <SCORE.heavy>
10

>  <SCORE.norm>
-0.770704

>  <RMSD>
5.331

$$$$
ligand
 OpenBabel11021811473D
libRbt.so/2013.1/901 2013/11/27
 10  9  0  0  0  0  0  0  0  0999 V2000
   27.4690   14.3796   19.1339 N   0  0  0  0  0  0  0  0  0  0  0  0
   28.1523   14.5655   20.4004 C   0  0  2  0  0  0  0  0  0  0  0  0
   27.1797   14.9812   21.4716 C   0  0  0  0  0  0  0  0  0  0  0  0
   25.9500   14.8148   21.2753 O   0  0  0  0  0  0  0  0  0  0  0  0
   29.2444   15.6140   20.2383 C   0  0  0  0  0  0  0  0  0  0  0  0
   30.0413   15.6341   21.4199 O   0  0  0  0  0  0  0  0  0  0  0  0
   31.0401   16.6402   21.2527 C   0  0  0  0  0  0  0  0  0  0  0  0
   31.9307   16.6423   22.4933 C   0  0  0  0  0  0  0  0  0  0  0  0
   32.9270   17.6943   22.3899 N   0  0  0  0  0  0  0  0  0  0  0  0
   27.6264   15.0042   22.6361 O   0  0  0  0  0  0  0  0  0  0  0  0
  2  1  1  6  0  0  0
  2  5  1  0  0  0  0
  2  3  1  0  0  0  0
  3  4  1  0  0  0  0
  3 10  1  0  0  0  0
  5  6  1  0  0  0  0
  6  7  1  0  0  0  0
  7  8  1  0  0  0  0
  8  9  1  0  0  0  0
M  END
>  <CHROM.1>
-170.87981696,16.50009598,-178.94391267,-178.17986983,-177.48494675,29.12394569
15.59010692,21.29677181,-2.83596729,0.37030272,1.35333940

>  <Name>
ligand

>  <RI>
0

>  <Rbt.Current_Directory>
/home/itssahil/PROJECTS/Mol_Feturizer/New_Systems/rnas/3DJ0

>  <Rbt.Executable>
rbdock ($Id: //depot/dev/client3/rdock/2013.1/src/exe/rbdock.cxx#4 $)

>  <Rbt.Library>
libRbt.so (2013.1, Build901 2013/11/27)

>  <Rbt.Parameter_File>
/export/apps/rDock/src/rDock_2013.1_src/data/scripts/dock_solv.prm

>  <Rbt.Receptor>
prm/pocket_docking_8.prm

>  <SCORE>
-7.69501

>  <SCORE.INTER>
-5.69132

>  <SCORE.INTER.CONST>
1

>  <SCORE.INTER.POLAR>
0

>  <SCORE.INTER.ROT>
5

>  <SCORE.INTER.SOLV>
19.6731

>  <SCORE.INTER.VDW>
-17.2853

>  <SCORE.INTER.norm>
-0.569132

>  <SCORE.INTRA>
-2.00369

>  <SCORE.INTRA.DIHEDRAL>
-2.85997

>  <SCORE.INTRA.DIHEDRAL.0>
6.00299

>  <SCORE.INTRA.POLAR>
0

>  <SCORE.INTRA.POLAR.0>
0

>  <SCORE.INTRA.REPUL>
0

>  <SCORE.INTRA.REPUL.0>
0

>  <SCORE.INTRA.SOLV>
-1.26693

>  <SCORE.INTRA.SOLV.lig_0>
-39.3257

>  <SCORE.INTRA.VDW>
0.0597643

>  <SCORE.INTRA.VDW.0>
-0.734044

>  <SCORE.INTRA.norm>
-0.200369

>  <SCORE.RESTR>
0

>  <SCORE.RESTR.CAVITY>
0

>  <SCORE.RESTR.norm>
0

>  <SCORE.SYSTEM>
0

>  <SCORE.SYSTEM.CONST>
0

>  <SCORE.SYSTEM.DIHEDRAL>
0

>  <SCORE.SYSTEM.SOLV>
0

>  <SCORE.SYSTEM.norm>
0

>  <SCORE.heavy>
10

>  <SCORE.norm>
-0.769501

>  <RMSD>
5.331

$$$$
ligand
 OpenBabel11021811473D
libRbt.so/2013.1/901 2013/11/27
 10  9  0  0  0  0  0  0  0  0999 V2000
   27.5381   14.3466   19.0210 N   0  0  0  0  0  0  0  0  0  0  0  0
   28.1848   14.5537   20.3033 C   0  0  2  0  0  0  0  0  0  0  0  0
   27.1874   15.0157   21.3317 C   0  0  0  0  0  0  0  0  0  0  0  0
   25.9637   14.9881   21.0485 O   0  0  0  0  0  0  0  0  0  0  0  0
   29.3015   15.5771   20.1486 C   0  0  0  0  0  0  0  0  0  0  0  0
   30.0426   15.6361   21.3648 O   0  0  0  0  0  0  0  0  0  0  0  0
   31.0591   16.6256   21.2061 C   0  0  0  0  0  0  0  0  0  0  0  0
   31.9052   16.6518   22.4771 C   0  0  0  0  0  0  0  0  0  0  0  0
   32.9201   17.6864   22.3791 N   0  0  0  0  0  0  0  0  0  0  0  0
   27.5526   14.9352   22.5218 O   0  0  0  0  0  0  0  0  0  0  0  0
  2  1  1  6  0  0  0
  2  5  1  0  0  0  0
  2  3  1  0  0  0  0
  3  4  1  0  0  0  0
  3 10  1  0  0  0  0
  5  6  1  0  0  0  0
  6  7  1  0  0  0  0
  7  8  1  0  0  0  0
  8  9  1  0  0  0  0
M  END
>  <CHROM.1>
-172.18301650,9.61014692,-178.50822059,-177.25163809,-177.65451372,29.13201762
15.59589324,21.20449432,-2.80604463,0.35156636,1.32818111

>  <Name>
ligand

>  <RI>
0

>  <Rbt.Current_Directory>
/home/itssahil/PROJECTS/Mol_Feturizer/New_Systems/rnas/3DJ0

>  <Rbt.Executable>
rbdock ($Id: //depot/dev/client3/rdock/2013.1/src/exe/rbdock.cxx#4 $)

>  <Rbt.Library>
libRbt.so (2013.1, Build901 2013/11/27)

>  <Rbt.Parameter_File>
/export/apps/rDock/src/rDock_2013.1_src/data/scripts/dock_solv.prm

>  <Rbt.Receptor>
prm/pocket_docking_2.prm

>  <SCORE>
-7.59369

>  <SCORE.INTER>
-5.50148

>  <SCORE.INTER.CONST>
1

>  <SCORE.INTER.POLAR>
0

>  <SCORE.INTER.ROT>
5

>  <SCORE.INTER.SOLV>
19.5835

>  <SCORE.INTER.VDW>
-17.1288

>  <SCORE.INTER.norm>
-0.550148

>  <SCORE.INTRA>
-2.0922

>  <SCORE.INTRA.DIHEDRAL>
-2.90912

>  <SCORE.INTRA.DIHEDRAL.0>
6.00299

>  <SCORE.INTRA.POLAR>
0

>  <SCORE.INTRA.POLAR.0>
0

>  <SCORE.INTRA.REPUL>
0

>  <SCORE.INTRA.REPUL.0>
0

>  <SCORE.INTRA.SOLV>
-1.26666

>  <SCORE.INTRA.SOLV.lig_0>
-39.3257

>  <SCORE.INTRA.VDW>
-0.00431078

>  <SCORE.INTRA.VDW.0>
-0.734044

>  <SCORE.INTRA.norm>
-0.20922

>  <SCORE.RESTR>
0

>  <SCORE.RESTR.CAVITY>
0

>  <SCORE.RESTR.norm>
0

>  <SCORE.SYSTEM>
0

>  <SCORE.SYSTEM.CONST>
0

>  <SCORE.SYSTEM.DIHEDRAL>
0

>  <SCORE.SYSTEM.SOLV>
0

>  <SCORE.SYSTEM.norm>
0

>  <SCORE.heavy>
10

>  <SCORE.norm>
-0.759369

>  <RMSD>
5.332

$$$$
ligand
 OpenBabel11021811473D
libRbt.so/2013.1/901 2013/11/27
 10  9  0  0  0  0  0  0  0  0999 V2000
   27.5009   14.3821   19.0231 N   0  0  0  0  0  0  0  0  0  0  0  0
   28.1621   14.5227   20.3070 C   0  0  2  0  0  0  0  0  0  0  0  0
   27.1511   14.7108   21.4064 C   0  0  0  0  0  0  0  0  0  0  0  0
   27.5545   14.9840   22.5644 O   0  0  0  0  0  0  0  0  0  0  0  0
   29.1196   15.7055   20.2575 C   0  0  0  0  0  0  0  0  0  0  0  0
   29.9971   15.6337   21.3785 O   0  0  0  0  0  0  0  0  0  0  0  0
   30.8706   16.7612   21.3188 C   0  0  0  0  0  0  0  0  0  0  0  0
   31.8674   16.6568   22.4710 C   0  0  0  0  0  0  0  0  0  0  0  0
   32.7484   17.8118   22.4741 N   0  0  0  0  0  0  0  0  0  0  0  0
   26.0107   15.0645   21.0452 O   0  0  0  0  0  0  0  0  0  0  0  0
  2  1  1  6  0  0  0
  2  5  1  0  0  0  0
  2  3  1  0  0  0  0
  3  4  1  0  0  0  0
  3 10  1  0  0  0  0
  5  6  1  0  0  0  0
  6  7  1  0  0  0  0
  7  8  1  0  0  0  0
  8  9  1  0  0  0  0
M  END
>  <CHROM.1>
-165.50555046,-172.84529987,-179.22021793,-176.91697441,-178.05402618,29.06701912
15.62100242,21.24785871,-2.79157049,0.38227178,1.34898332

>  <Name>
ligand

>  <RI>
0

>  <Rbt.Current_Directory>
/home/itssahil/PROJECTS/Mol_Feturizer/New_Systems/rnas/3DJ0

>  <Rbt.Executable>
rbdock ($Id: //depot/dev/client3/rdock/2013.1/src/exe/rbdock.cxx#4 $)

>  <Rbt.Library>
libRbt.so (2013.1, Build901 2013/11/27)

>  <Rbt.Parameter_File>
/export/apps/rDock/src/rDock_2013.1_src/data/scripts/dock_solv.prm

>  <Rbt.Receptor>
prm/pocket_docking_4.prm

>  <SCORE>
-7.6065

>  <SCORE.INTER>
-5.69303

>  <SCORE.INTER.CONST>
1

>  <SCORE.INTER.POLAR>
0

>  <SCORE.INTER.ROT>
5

>  <SCORE.INTER.SOLV>
19.4664

>  <SCORE.INTER.VDW>
-17.2175

>  <SCORE.INTER.norm>
-0.569303

>  <SCORE.INTRA>
-1.91347

>  <SCORE.INTRA.DIHEDRAL>
-3.18053

>  <SCORE.INTRA.DIHEDRAL.0>
6.00299

>  <SCORE.INTRA.POLAR>
0

>  <SCORE.INTRA.POLAR.0>
0

>  <SCORE.INTRA.REPUL>
0

>  <SCORE.INTRA.REPUL.0>
0

>  <SCORE.INTRA.SOLV>
-1.16075

>  <SCORE.INTRA.SOLV.lig_0>
-39.3257

>  <SCORE.INTRA.VDW>
0.257175

>  <SCORE.INTRA.VDW.0>
-0.734044

>  <SCORE.INTRA.norm>
-0.191347

>  <SCORE.RESTR>
0

>  <SCORE.RESTR.CAVITY>
0

>  <SCORE.RESTR.norm>
0

>  <SCORE.SYSTEM>
0

>  <SCORE.SYSTEM.CONST>
0

>  <SCORE.SYSTEM.DIHEDRAL>
0

>  <SCORE.SYSTEM.SOLV>
0

>  <SCORE.SYSTEM.norm>
0

>  <SCORE.heavy>
10

>  <SCORE.norm>
-0.76065

>  <RMSD>
5.332

$$$$
ligand
 OpenBabel11021811473D
libRbt.so/2013.1/901 2013/11/27
 10  9  0  0  0  0  0  0  0  0999 V2000
   27.4321   14.5703   21.1612 N   0  0  0  0  0  0  0  0  0  0  0  0
   27.6732   15.4039   19.9983 C   0  0  2  0  0  0  0  0  0  0  0  0
   28.2570   14.5903   18.8744 C   0  0  0  0  0  0  0  0  0  0  0  0
   29.4577   14.2274   18.9453 O   0  0  0  0  0  0  0  0  0  0  0  0
   28.6133   16.5407   20.3754 C   0  0  0  0  0  0  0  0  0  0  0  0
   29.7770   15.9907   20.9878 O   0  0  0  0  0  0  0  0  0  0  0  0
   30.5934   17.0779   21.4229 C   0  0  0  0  0  0  0  0  0  0  0  0
   31.8382   16.5032   22.0956 C   0  0  0  0  0  0  0  0  0  0  0  0
   32.6902   17.5798   22.5702 N   0  0  0  0  0  0  0  0  0  0  0  0
   27.4441   13.9234   18.2031 O   0  0  0  0  0  0  0  0  0  0  0  0
  2  1  1  1  0  0  0
  2  5  1  0  0  0  0
  2  3  1  0  0  0  0
  3  4  1  0  0  0  0
  3 10  1  0  0  0  0
  5  6  1  0  0  0  0
  6  7  1  0  0  0  0
  7  8  1  0  0  0  0
  8  9  1  0  0  0  0
M  END
>  <CHROM.1>
52.95094833,-74.18568519,-175.65624408,179.38931201,-179.24573187,29.37727621
15.61158499,20.43284946,2.34897528,-0.11312312,-2.18668584

>  <Name>
ligand

>  <RI>
0

>  <Rbt.Current_Directory>
/home/itssahil/PROJECTS/Mol_Feturizer/New_Systems/rnas/3DJ0

>  <Rbt.Executable>
rbdock ($Id: //depot/dev/client3/rdock/2013.1/src/exe/rbdock.cxx#4 $)

>  <Rbt.Library>
libRbt.so (2013.1, Build901 2013/11/27)

>  <Rbt.Parameter_File>
/export/apps/rDock/src/rDock_2013.1_src/data/scripts/dock_solv.prm

>  <Rbt.Receptor>
prm/pocket_docking_6.prm

>  <SCORE>
-7.40698

>  <SCORE.INTER>
-5.76063

>  <SCORE.INTER.CONST>
1

>  <SCORE.INTER.POLAR>
0

>  <SCORE.INTER.ROT>
5

>  <SCORE.INTER.SOLV>
17.9126

>  <SCORE.INTER.VDW>
-16.7446

>  <SCORE.INTER.norm>
-0.576063

>  <SCORE.INTRA>
-1.64635

>  <SCORE.INTRA.DIHEDRAL>
-3.39557

>  <SCORE.INTRA.DIHEDRAL.0>
6.00299

>  <SCORE.INTRA.POLAR>
0

>  <SCORE.INTRA.POLAR.0>
0

>  <SCORE.INTRA.REPUL>
0

>  <SCORE.INTRA.REPUL.0>
0

>  <SCORE.INTRA.SOLV>
-0.0531933

>  <SCORE.INTRA.SOLV.lig_0>
-39.3257

>  <SCORE.INTRA.VDW>
0.078031

>  <SCORE.INTRA.VDW.0>
-0.734044

>  <SCORE.INTRA.norm>
-0.164635

>  <SCORE.RESTR>
0

>  <SCORE.RESTR.CAVITY>
0

>  <SCORE.RESTR.norm>
0

>  <SCORE.SYSTEM>
0

>  <SCORE.SYSTEM.CONST>
0

>  <SCORE.SYSTEM.DIHEDRAL>
0

>  <SCORE.SYSTEM.SOLV>
0

>  <SCORE.SYSTEM.norm>
0

>  <SCORE.heavy>
10

>  <SCORE.norm>
-0.740698

>  <RMSD>
5.332

$$$$
ligand
 OpenBabel11021811473D
libRbt.so/2013.1/901 2013/11/27
 10  9  0  0  0  0  0  0  0  0999 V2000
   27.4927   14.3847   19.1356 N   0  0  0  0  0  0  0  0  0  0  0  0
   28.1692   14.5805   20.4042 C   0  0  2  0  0  0  0  0  0  0  0  0
   27.1857   14.9708   21.4749 C   0  0  0  0  0  0  0  0  0  0  0  0
   25.9581   14.8084   21.2625 O   0  0  0  0  0  0  0  0  0  0  0  0
   29.2386   15.6532   20.2483 C   0  0  0  0  0  0  0  0  0  0  0  0
   30.0520   15.6648   21.4188 O   0  0  0  0  0  0  0  0  0  0  0  0
   31.0276   16.6945   21.2591 C   0  0  0  0  0  0  0  0  0  0  0  0
   31.9402   16.6842   22.4835 C   0  0  0  0  0  0  0  0  0  0  0  0
   32.9271   17.7449   22.3786 N   0  0  0  0  0  0  0  0  0  0  0  0
   27.6207   14.9669   22.6441 O   0  0  0  0  0  0  0  0  0  0  0  0
  2  1  1  6  0  0  0
  2  5  1  0  0  0  0
  2  3  1  0  0  0  0
  3  4  1  0  0  0  0
  3 10  1  0  0  0  0
  5  6  1  0  0  0  0
  6  7  1  0  0  0  0
  7  8  1  0  0  0  0
  8  9  1  0  0  0  0
M  END
>  <CHROM.1>
-169.53549168,14.79487658,-178.86635758,-177.90207038,-178.38641992,29.12891090
15.60765525,21.29644017,-2.84133402,0.38333680,1.36449818

>  <Name>
ligand

>  <RI>
0

>  <Rbt.Current_Directory>
/home/itssahil/PROJECTS/Mol_Feturizer/New_Systems/rnas/3DJ0

>  <Rbt.Executable>
rbdock ($Id: //depot/dev/client3/rdock/2013.1/src/exe/rbdock.cxx#4 $)

>  <Rbt.Library>
libRbt.so (2013.1, Build901 2013/11/27)

>  <Rbt.Parameter_File>
/export/apps/rDock/src/rDock_2013.1_src/data/scripts/dock_solv.prm

>  <Rbt.Receptor>
prm/pocket_docking_8.prm

>  <SCORE>
-7.66737

>  <SCORE.INTER>
-5.66069

>  <SCORE.INTER.CONST>
1

>  <SCORE.INTER.POLAR>
0

>  <SCORE.INTER.ROT>
5

>  <SCORE.INTER.SOLV>
19.6545

>  <SCORE.INTER.VDW>
-17.2586

>  <SCORE.INTER.norm>
-0.566069

>  <SCORE.INTRA>
-2.00667

>  <SCORE.INTRA.DIHEDRAL>
-2.77015

>  <SCORE.INTRA.DIHEDRAL.0>
6.00299

>  <SCORE.INTRA.POLAR>
0

>  <SCORE.INTRA.POLAR.0>
0

>  <SCORE.INTRA.REPUL>
0

>  <SCORE.INTRA.REPUL.0>
0

>  <SCORE.INTRA.SOLV>
-1.27761

>  <SCORE.INTRA.SOLV.lig_0>
-39.3257

>  <SCORE.INTRA.VDW>
0.0172025

>  <SCORE.INTRA.VDW.0>
-0.734044

>  <SCORE.INTRA.norm>
-0.200667

>  <SCORE.RESTR>
0

>  <SCORE.RESTR.CAVITY>
0

>  <SCORE.RESTR.norm>
0

>  <SCORE.SYSTEM>
0

>  <SCORE.SYSTEM.CONST>
0

>  <SCORE.SYSTEM.DIHEDRAL>
0

>  <SCORE.SYSTEM.SOLV>
0

>  <SCORE.SYSTEM.norm>
0

>  <SCORE.heavy>
10

>  <SCORE.norm>
-0.766737

>  <RMSD>
5.333

$$$$
ligand
 OpenBabel11021811473D
libRbt.so/2013.1/901 2013/11/27
 10  9  0  0  0  0  0  0  0  0999 V2000
   27.4823   14.3860   19.1369 N   0  0  0  0  0  0  0  0  0  0  0  0
   28.1599   14.5851   20.4044 C   0  0  2  0  0  0  0  0  0  0  0  0
   27.1787   14.9883   21.4726 C   0  0  0  0  0  0  0  0  0  0  0  0
   25.9505   14.8271   21.2632 O   0  0  0  0  0  0  0  0  0  0  0  0
   29.2362   15.6498   20.2423 C   0  0  0  0  0  0  0  0  0  0  0  0
   30.0359   15.6783   21.4219 O   0  0  0  0  0  0  0  0  0  0  0  0
   31.0340   16.6835   21.2454 C   0  0  0  0  0  0  0  0  0  0  0  0
   31.9335   16.6877   22.4795 C   0  0  0  0  0  0  0  0  0  0  0  0
   32.9297   17.7389   22.3666 N   0  0  0  0  0  0  0  0  0  0  0  0
   27.6152   14.9945   22.6411 O   0  0  0  0  0  0  0  0  0  0  0  0
  2  1  1  6  0  0  0
  2  5  1  0  0  0  0
  2  3  1  0  0  0  0
  3  4  1  0  0  0  0
  3 10  1  0  0  0  0
  5  6  1  0  0  0  0
  6  7  1  0  0  0  0
  7  8  1  0  0  0  0
  8  9  1  0  0  0  0
M  END
>  <CHROM.1>
-170.48056845,15.10490267,-179.92729482,-177.78740496,-177.49213314,29.12317976
15.61477738,21.29299230,-2.84050704,0.37845884,1.35767369

>  <Name>
ligand

>  <RI>
0

>  <Rbt.Current_Directory>
/home/itssahil/PROJECTS/Mol_Feturizer/New_Systems/rnas/3DJ0

>  <Rbt.Executable>
rbdock ($Id: //depot/dev/client3/rdock/2013.1/src/exe/rbdock.cxx#4 $)

>  <Rbt.Library>
libRbt.so (2013.1, Build901 2013/11/27)

>  <Rbt.Parameter_File>
/export/apps/rDock/src/rDock_2013.1_src/data/scripts/dock_solv.prm

>  <Rbt.Receptor>
prm/pocket_docking_8.prm

>  <SCORE>
-7.67675

>  <SCORE.INTER>
-5.66322

>  <SCORE.INTER.CONST>
1

>  <SCORE.INTER.POLAR>
0

>  <SCORE.INTER.ROT>
5

>  <SCORE.INTER.SOLV>
19.65

>  <SCORE.INTER.VDW>
-17.2588

>  <SCORE.INTER.norm>
-0.566322

>  <SCORE.INTRA>
-2.01353

>  <SCORE.INTRA.DIHEDRAL>
-2.82655

>  <SCORE.INTRA.DIHEDRAL.0>
6.00299

>  <SCORE.INTRA.POLAR>
0

>  <SCORE.INTRA.POLAR.0>
0

>  <SCORE.INTRA.REPUL>
0

>  <SCORE.INTRA.REPUL.0>
0

>  <SCORE.INTRA.SOLV>
-1.27336

>  <SCORE.INTRA.SOLV.lig_0>
-39.3257

>  <SCORE.INTRA.VDW>
0.0364259

>  <SCORE.INTRA.VDW.0>
-0.734044

>  <SCORE.INTRA.norm>
-0.201353

>  <SCORE.RESTR>
0

>  <SCORE.RESTR.CAVITY>
0

>  <SCORE.RESTR.norm>
0

>  <SCORE.SYSTEM>
0

>  <SCORE.SYSTEM.CONST>
0

>  <SCORE.SYSTEM.DIHEDRAL>
0

>  <SCORE.SYSTEM.SOLV>
0

>  <SCORE.SYSTEM.norm>
0

>  <SCORE.heavy>
10

>  <SCORE.norm>
-0.767675

>  <RMSD>
5.333

$$$$
ligand
 OpenBabel11021811473D
libRbt.so/2013.1/901 2013/11/27
 10  9  0  0  0  0  0  0  0  0999 V2000
   26.0733   14.8217   21.1141 N   0  0  0  0  0  0  0  0  0  0  0  0
   27.3545   15.3824   20.7273 C   0  0  2  0  0  0  0  0  0  0  0  0
   27.7424   14.9176   19.3491 C   0  0  0  0  0  0  0  0  0  0  0  0
   28.6486   15.5311   18.7321 O   0  0  0  0  0  0  0  0  0  0  0  0
   28.4135   14.9756   21.7429 C   0  0  0  0  0  0  0  0  0  0  0  0
   29.6203   15.6771   21.4545 O   0  0  0  0  0  0  0  0  0  0  0  0
   30.6043   15.2540   22.3982 C   0  0  0  0  0  0  0  0  0  0  0  0
   31.8999   16.0098   22.1111 C   0  0  0  0  0  0  0  0  0  0  0  0
   31.7119   17.4301   22.3509 N   0  0  0  0  0  0  0  0  0  0  0  0
   27.5195   13.7168   19.0946 O   0  0  0  0  0  0  0  0  0  0  0  0
  2  1  1  1  0  0  0
  2  5  1  0  0  0  0
  2  3  1  0  0  0  0
  3  4  1  0  0  0  0
  3 10  1  0  0  0  0
  5  6  1  0  0  0  0
  6  7  1  0  0  0  0
  7  8  1  0  0  0  0
  8  9  1  0  0  0  0
M  END
>  <CHROM.1>
-172.20636928,163.72474720,-178.57814466,-179.36622292,64.94970716,28.96367669
15.35822112,20.87230770,2.59833774,-0.33433885,-1.68480675

>  <Name>
ligand

>  <RI>
0

>  <Rbt.Current_Directory>
/home/itssahil/PROJECTS/Mol_Feturizer/New_Systems/rnas/3DJ0

>  <Rbt.Executable>
rbdock ($Id: //depot/dev/client3/rdock/2013.1/src/exe/rbdock.cxx#4 $)

>  <Rbt.Library>
libRbt.so (2013.1, Build901 2013/11/27)

>  <Rbt.Parameter_File>
/export/apps/rDock/src/rDock_2013.1_src/data/scripts/dock_solv.prm

>  <Rbt.Receptor>
prm/pocket_docking_4.prm

>  <SCORE>
-7.54938

>  <SCORE.INTER>
-5.6476

>  <SCORE.INTER.CONST>
1

>  <SCORE.INTER.POLAR>
0

>  <SCORE.INTER.ROT>
5

>  <SCORE.INTER.SOLV>
20.3676

>  <SCORE.INTER.VDW>
-17.4876

>  <SCORE.INTER.norm>
-0.56476

>  <SCORE.INTRA>
-1.90178

>  <SCORE.INTRA.DIHEDRAL>
-3.2967

>  <SCORE.INTRA.DIHEDRAL.0>
6.00299

>  <SCORE.INTRA.POLAR>
0

>  <SCORE.INTRA.POLAR.0>
0

>  <SCORE.INTRA.REPUL>
0

>  <SCORE.INTRA.REPUL.0>
0

>  <SCORE.INTRA.SOLV>
-0.171355

>  <SCORE.INTRA.SOLV.lig_0>
-39.3257

>  <SCORE.INTRA.VDW>
-0.167756

>  <SCORE.INTRA.VDW.0>
-0.734044

>  <SCORE.INTRA.norm>
-0.190178

>  <SCORE.RESTR>
0

>  <SCORE.RESTR.CAVITY>
0

>  <SCORE.RESTR.norm>
0

>  <SCORE.SYSTEM>
0

>  <SCORE.SYSTEM.CONST>
0

>  <SCORE.SYSTEM.DIHEDRAL>
0

>  <SCORE.SYSTEM.SOLV>
0

>  <SCORE.SYSTEM.norm>
0

>  <SCORE.heavy>
10

>  <SCORE.norm>
-0.754938

>  <RMSD>
5.334

$$$$
ligand
 OpenBabel11021811473D
libRbt.so/2013.1/901 2013/11/27
 10  9  0  0  0  0  0  0  0  0999 V2000
   27.4613   14.3728   19.1473 N   0  0  0  0  0  0  0  0  0  0  0  0
   28.1465   14.5653   20.4118 C   0  0  2  0  0  0  0  0  0  0  0  0
   27.1746   14.9801   21.4839 C   0  0  0  0  0  0  0  0  0  0  0  0
   25.9444   14.8195   21.2857 O   0  0  0  0  0  0  0  0  0  0  0  0
   29.2340   15.6178   20.2442 C   0  0  0  0  0  0  0  0  0  0  0  0
   30.0460   15.6301   21.4155 O   0  0  0  0  0  0  0  0  0  0  0  0
   31.0384   16.6420   21.2450 C   0  0  0  0  0  0  0  0  0  0  0  0
   31.9445   16.6368   22.4743 C   0  0  0  0  0  0  0  0  0  0  0  0
   32.9216   17.7073   22.3778 N   0  0  0  0  0  0  0  0  0  0  0  0
   27.6203   14.9960   22.6489 O   0  0  0  0  0  0  0  0  0  0  0  0
  2  1  1  6  0  0  0
  2  5  1  0  0  0  0
  2  3  1  0  0  0  0
  3  4  1  0  0  0  0
  3 10  1  0  0  0  0
  5  6  1  0  0  0  0
  6  7  1  0  0  0  0
  7  8  1  0  0  0  0
  8  9  1  0  0  0  0
M  END
>  <CHROM.1>
-169.98492796,15.84464512,-178.81836756,-178.21260803,-176.58977346,29.12106922
15.58976545,21.29907453,-2.84111458,0.37155599,1.35346912

>  <Name>
ligand

>  <RI>
0

>  <Rbt.Current_Directory>
/home/itssahil/PROJECTS/Mol_Feturizer/New_Systems/rnas/3DJ0

>  <Rbt.Executable>
rbdock ($Id: //depot/dev/client3/rdock/2013.1/src/exe/rbdock.cxx#4 $)

>  <Rbt.Library>
libRbt.so (2013.1, Build901 2013/11/27)

>  <Rbt.Parameter_File>
/export/apps/rDock/src/rDock_2013.1_src/data/scripts/dock_solv.prm

>  <Rbt.Receptor>
prm/pocket_docking_5.prm

>  <SCORE>
-7.69756

>  <SCORE.INTER>
-5.70894

>  <SCORE.INTER.CONST>
1

>  <SCORE.INTER.POLAR>
0

>  <SCORE.INTER.ROT>
5

>  <SCORE.INTER.SOLV>
19.6955

>  <SCORE.INTER.VDW>
-17.3045

>  <SCORE.INTER.norm>
-0.570894

>  <SCORE.INTRA>
-1.98862

>  <SCORE.INTRA.DIHEDRAL>
-2.77677

>  <SCORE.INTRA.DIHEDRAL.0>
6.00299

>  <SCORE.INTRA.POLAR>
0

>  <SCORE.INTRA.POLAR.0>
0

>  <SCORE.INTRA.REPUL>
0

>  <SCORE.INTRA.REPUL.0>
0

>  <SCORE.INTRA.SOLV>
-1.27363

>  <SCORE.INTRA.SOLV.lig_0>
-39.3257

>  <SCORE.INTRA.VDW>
0.0365862

>  <SCORE.INTRA.VDW.0>
-0.734044

>  <SCORE.INTRA.norm>
-0.198862

>  <SCORE.RESTR>
0

>  <SCORE.RESTR.CAVITY>
0

>  <SCORE.RESTR.norm>
0

>  <SCORE.SYSTEM>
0

>  <SCORE.SYSTEM.CONST>
0

>  <SCORE.SYSTEM.DIHEDRAL>
0

>  <SCORE.SYSTEM.SOLV>
0

>  <SCORE.SYSTEM.norm>
0

>  <SCORE.heavy>
10

>  <SCORE.norm>
-0.769756

>  <RMSD>
5.334

$$$$
ligand
 OpenBabel11021811473D
libRbt.so/2013.1/901 2013/11/27
 10  9  0  0  0  0  0  0  0  0999 V2000
   29.2403   14.6712   21.6905 N   0  0  0  0  0  0  0  0  0  0  0  0
   28.2726   15.6738   21.2860 C   0  0  2  0  0  0  0  0  0  0  0  0
   27.1384   15.0398   20.5259 C   0  0  0  0  0  0  0  0  0  0  0  0
   27.4021   14.2692   19.5694 O   0  0  0  0  0  0  0  0  0  0  0  0
   28.9621   16.7279   20.4304 C   0  0  0  0  0  0  0  0  0  0  0  0
   29.8536   17.4763   21.2530 O   0  0  0  0  0  0  0  0  0  0  0  0
   31.0983   16.7783   21.2911 C   0  0  0  0  0  0  0  0  0  0  0  0
   32.0544   17.5524   22.1960 C   0  0  0  0  0  0  0  0  0  0  0  0
   33.3409   16.8803   22.2527 N   0  0  0  0  0  0  0  0  0  0  0  0
   26.0662   14.9121   21.1505 O   0  0  0  0  0  0  0  0  0  0  0  0
  2  1  1  6  0  0  0
  2  5  1  0  0  0  0
  2  3  1  0  0  0  0
  3  4  1  0  0  0  0
  3 10  1  0  0  0  0
  5  6  1  0  0  0  0
  6  7  1  0  0  0  0
  7  8  1  0  0  0  0
  8  9  1  0  0  0  0
M  END
>  <CHROM.1>
-68.81113485,-50.36314742,86.39170237,-178.70537016,-179.47663508,29.30082624
15.98885725,21.14711409,-2.74142703,-0.28371533,-0.05021366

>  <Name>
ligand

>  <RI>
0

>  <Rbt.Current_Directory>
/home/itssahil/PROJECTS/Mol_Feturizer/New_Systems/rnas/3DJ0

>  <Rbt.Executable>
rbdock ($Id: //depot/dev/client3/rdock/2013.1/src/exe/rbdock.cxx#4 $)

>  <Rbt.Library>
libRbt.so (2013.1, Build901 2013/11/27)

>  <Rbt.Parameter_File>
/export/apps/rDock/src/rDock_2013.1_src/data/scripts/dock_solv.prm

>  <Rbt.Receptor>
prm/pocket_docking_4.prm

>  <SCORE>
-5.84863

>  <SCORE.INTER>
-6.47639

>  <SCORE.INTER.CONST>
1

>  <SCORE.INTER.POLAR>
0

>  <SCORE.INTER.ROT>
5

>  <SCORE.INTER.SOLV>
17.8858

>  <SCORE.INTER.VDW>
-17.2129

>  <SCORE.INTER.norm>
-0.647639

>  <SCORE.INTRA>
0.627769

>  <SCORE.INTRA.DIHEDRAL>
-0.783118

>  <SCORE.INTRA.DIHEDRAL.0>
6.00299

>  <SCORE.INTRA.POLAR>
0

>  <SCORE.INTRA.POLAR.0>
0

>  <SCORE.INTRA.REPUL>
0

>  <SCORE.INTRA.REPUL.0>
0

>  <SCORE.INTRA.SOLV>
0.595612

>  <SCORE.INTRA.SOLV.lig_0>
-39.3257

>  <SCORE.INTRA.VDW>
0.721521

>  <SCORE.INTRA.VDW.0>
-0.734044

>  <SCORE.INTRA.norm>
0.0627769

>  <SCORE.RESTR>
0

>  <SCORE.RESTR.CAVITY>
0

>  <SCORE.RESTR.norm>
0

>  <SCORE.SYSTEM>
0

>  <SCORE.SYSTEM.CONST>
0

>  <SCORE.SYSTEM.DIHEDRAL>
0

>  <SCORE.SYSTEM.SOLV>
0

>  <SCORE.SYSTEM.norm>
0

>  <SCORE.heavy>
10

>  <SCORE.norm>
-0.584863

>  <RMSD>
5.335

$$$$
ligand
 OpenBabel11021811473D
libRbt.so/2013.1/901 2013/11/27
 10  9  0  0  0  0  0  0  0  0999 V2000
   27.4598   14.3830   19.1410 N   0  0  0  0  0  0  0  0  0  0  0  0
   28.1456   14.5683   20.4062 C   0  0  2  0  0  0  0  0  0  0  0  0
   27.1738   14.9755   21.4814 C   0  0  0  0  0  0  0  0  0  0  0  0
   25.9433   14.8227   21.2795 O   0  0  0  0  0  0  0  0  0  0  0  0
   29.2319   15.6229   20.2445 C   0  0  0  0  0  0  0  0  0  0  0  0
   30.0329   15.6421   21.4234 O   0  0  0  0  0  0  0  0  0  0  0  0
   31.0386   16.6400   21.2485 C   0  0  0  0  0  0  0  0  0  0  0  0
   31.9335   16.6407   22.4860 C   0  0  0  0  0  0  0  0  0  0  0  0
   32.9270   17.6953   22.3821 N   0  0  0  0  0  0  0  0  0  0  0  0
   27.6177   14.9765   22.6472 O   0  0  0  0  0  0  0  0  0  0  0  0
  2  1  1  6  0  0  0
  2  5  1  0  0  0  0
  2  3  1  0  0  0  0
  3  4  1  0  0  0  0
  3 10  1  0  0  0  0
  5  6  1  0  0  0  0
  6  7  1  0  0  0  0
  7  8  1  0  0  0  0
  8  9  1  0  0  0  0
M  END
>  <CHROM.1>
-170.80743945,15.40139400,-179.80512405,-178.17472524,-176.79440974,29.11814861
15.58965004,21.29966671,-2.84236669,0.37308631,1.36179870

>  <Name>
ligand

>  <RI>
0

>  <Rbt.Current_Directory>
/home/itssahil/PROJECTS/Mol_Feturizer/New_Systems/rnas/3DJ0

>  <Rbt.Executable>
rbdock ($Id: //depot/dev/client3/rdock/2013.1/src/exe/rbdock.cxx#4 $)

>  <Rbt.Library>
libRbt.so (2013.1, Build901 2013/11/27)

>  <Rbt.Parameter_File>
/export/apps/rDock/src/rDock_2013.1_src/data/scripts/dock_solv.prm

>  <Rbt.Receptor>
prm/pocket_docking_5.prm

>  <SCORE>
-7.70017

>  <SCORE.INTER>
-5.68894

>  <SCORE.INTER.CONST>
1

>  <SCORE.INTER.POLAR>
0

>  <SCORE.INTER.ROT>
5

>  <SCORE.INTER.SOLV>
19.6984

>  <SCORE.INTER.VDW>
-17.2921

>  <SCORE.INTER.norm>
-0.568894

>  <SCORE.INTRA>
-2.01122

>  <SCORE.INTRA.DIHEDRAL>
-2.84137

>  <SCORE.INTRA.DIHEDRAL.0>
6.00299

>  <SCORE.INTRA.POLAR>
0

>  <SCORE.INTRA.POLAR.0>
0

>  <SCORE.INTRA.REPUL>
0

>  <SCORE.INTRA.REPUL.0>
0

>  <SCORE.INTRA.SOLV>
-1.27084

>  <SCORE.INTRA.SOLV.lig_0>
-39.3257

>  <SCORE.INTRA.VDW>
0.0448802

>  <SCORE.INTRA.VDW.0>
-0.734044

>  <SCORE.INTRA.norm>
-0.201122

>  <SCORE.RESTR>
0

>  <SCORE.RESTR.CAVITY>
0

>  <SCORE.RESTR.norm>
0

>  <SCORE.SYSTEM>
0

>  <SCORE.SYSTEM.CONST>
0

>  <SCORE.SYSTEM.DIHEDRAL>
0

>  <SCORE.SYSTEM.SOLV>
0

>  <SCORE.SYSTEM.norm>
0

>  <SCORE.heavy>
10

>  <SCORE.norm>
-0.770017

>  <RMSD>
5.335

$$$$
ligand
 OpenBabel11021811473D
libRbt.so/2013.1/901 2013/11/27
 10  9  0  0  0  0  0  0  0  0999 V2000
   27.4700   14.3594   19.1374 N   0  0  0  0  0  0  0  0  0  0  0  0
   28.1471   14.5595   20.4051 C   0  0  2  0  0  0  0  0  0  0  0  0
   27.1687   14.9834   21.4677 C   0  0  0  0  0  0  0  0  0  0  0  0
   25.9392   14.8317   21.2587 O   0  0  0  0  0  0  0  0  0  0  0  0
   29.2375   15.6090   20.2375 C   0  0  0  0  0  0  0  0  0  0  0  0
   30.0386   15.6317   21.4162 O   0  0  0  0  0  0  0  0  0  0  0  0
   31.0392   16.6347   21.2416 C   0  0  0  0  0  0  0  0  0  0  0  0
   31.9315   16.6424   22.4809 C   0  0  0  0  0  0  0  0  0  0  0  0
   32.9183   17.7034   22.3780 N   0  0  0  0  0  0  0  0  0  0  0  0
   27.6040   14.9980   22.6366 O   0  0  0  0  0  0  0  0  0  0  0  0
  2  1  1  6  0  0  0
  2  5  1  0  0  0  0
  2  3  1  0  0  0  0
  3  4  1  0  0  0  0
  3 10  1  0  0  0  0
  5  6  1  0  0  0  0
  6  7  1  0  0  0  0
  7  8  1  0  0  0  0
  8  9  1  0  0  0  0
M  END
>  <CHROM.1>
-170.20499091,15.37694955,-179.18882701,-178.35317042,-176.71621070,29.11706792
15.58856301,21.29144430,-2.83525593,0.36841257,1.34553842

>  <Name>
ligand

>  <RI>
0

>  <Rbt.Current_Directory>
/home/itssahil/PROJECTS/Mol_Feturizer/New_Systems/rnas/3DJ0

>  <Rbt.Executable>
rbdock ($Id: //depot/dev/client3/rdock/2013.1/src/exe/rbdock.cxx#4 $)

>  <Rbt.Library>
libRbt.so (2013.1, Build901 2013/11/27)

>  <Rbt.Parameter_File>
/export/apps/rDock/src/rDock_2013.1_src/data/scripts/dock_solv.prm

>  <Rbt.Receptor>
prm/pocket_docking_8.prm

>  <SCORE>
-7.68991

>  <SCORE.INTER>
-5.68779

>  <SCORE.INTER.CONST>
1

>  <SCORE.INTER.POLAR>
0

>  <SCORE.INTER.ROT>
5

>  <SCORE.INTER.SOLV>
19.6951

>  <SCORE.INTER.VDW>
-17.2902

>  <SCORE.INTER.norm>
-0.568779

>  <SCORE.INTRA>
-2.00212

>  <SCORE.INTRA.DIHEDRAL>
-2.79947

>  <SCORE.INTRA.DIHEDRAL.0>
6.00299

>  <SCORE.INTRA.POLAR>
0

>  <SCORE.INTRA.POLAR.0>
0

>  <SCORE.INTRA.REPUL>
0

>  <SCORE.INTRA.REPUL.0>
0

>  <SCORE.INTRA.SOLV>
-1.27335

>  <SCORE.INTRA.SOLV.lig_0>
-39.3257

>  <SCORE.INTRA.VDW>
0.0342875

>  <SCORE.INTRA.VDW.0>
-0.734044

>  <SCORE.INTRA.norm>
-0.200212

>  <SCORE.RESTR>
0

>  <SCORE.RESTR.CAVITY>
0

>  <SCORE.RESTR.norm>
0

>  <SCORE.SYSTEM>
0

>  <SCORE.SYSTEM.CONST>
0

>  <SCORE.SYSTEM.DIHEDRAL>
0

>  <SCORE.SYSTEM.SOLV>
0

>  <SCORE.SYSTEM.norm>
0

>  <SCORE.heavy>
10

>  <SCORE.norm>
-0.768991

>  <RMSD>
5.336

$$$$
ligand
 OpenBabel11021811473D
libRbt.so/2013.1/901 2013/11/27
 10  9  0  0  0  0  0  0  0  0999 V2000
   27.4697   14.3813   19.1337 N   0  0  0  0  0  0  0  0  0  0  0  0
   28.1509   14.5747   20.4002 C   0  0  2  0  0  0  0  0  0  0  0  0
   27.1732   14.9760   21.4722 C   0  0  0  0  0  0  0  0  0  0  0  0
   25.9440   14.8191   21.2650 O   0  0  0  0  0  0  0  0  0  0  0  0
   29.2287   15.6380   20.2390 C   0  0  0  0  0  0  0  0  0  0  0  0
   30.0462   15.6444   21.4066 O   0  0  0  0  0  0  0  0  0  0  0  0
   31.0223   16.6738   21.2473 C   0  0  0  0  0  0  0  0  0  0  0  0
   31.9463   16.6505   22.4631 C   0  0  0  0  0  0  0  0  0  0  0  0
   32.9159   17.7283   22.3729 N   0  0  0  0  0  0  0  0  0  0  0  0
   27.6123   14.9759   22.6399 O   0  0  0  0  0  0  0  0  0  0  0  0
  2  1  1  6  0  0  0
  2  5  1  0  0  0  0
  2  3  1  0  0  0  0
  3  4  1  0  0  0  0
  3 10  1  0  0  0  0
  5  6  1  0  0  0  0
  6  7  1  0  0  0  0
  7  8  1  0  0  0  0
  8  9  1  0  0  0  0
M  END
>  <CHROM.1>
-169.44798195,15.03114736,-178.33870124,-177.44128001,-177.16270846,29.11878299
15.59883417,21.28952089,-2.84231882,0.37725036,1.36074421

>  <Name>
ligand

>  <RI>
0

>  <Rbt.Current_Directory>
/home/itssahil/PROJECTS/Mol_Feturizer/New_Systems/rnas/3DJ0

>  <Rbt.Executable>
rbdock ($Id: //depot/dev/client3/rdock/2013.1/src/exe/rbdock.cxx#4 $)

>  <Rbt.Library>
libRbt.so (2013.1, Build901 2013/11/27)

>  <Rbt.Parameter_File>
/export/apps/rDock/src/rDock_2013.1_src/data/scripts/dock_solv.prm

>  <Rbt.Receptor>
prm/pocket_docking_5.prm

>  <SCORE>
-7.69567

>  <SCORE.INTER>
-5.71248

>  <SCORE.INTER.CONST>
1

>  <SCORE.INTER.POLAR>
0

>  <SCORE.INTER.ROT>
5

>  <SCORE.INTER.SOLV>
19.6842

>  <SCORE.INTER.VDW>
-17.3031

>  <SCORE.INTER.norm>
-0.571248

>  <SCORE.INTRA>
-1.98319

>  <SCORE.INTRA.DIHEDRAL>
-2.72607

>  <SCORE.INTRA.DIHEDRAL.0>
6.00299

>  <SCORE.INTRA.POLAR>
0

>  <SCORE.INTRA.POLAR.0>
0

>  <SCORE.INTRA.REPUL>
0

>  <SCORE.INTRA.REPUL.0>
0

>  <SCORE.INTRA.SOLV>
-1.27676

>  <SCORE.INTRA.SOLV.lig_0>
-39.3257

>  <SCORE.INTRA.VDW>
0.018223

>  <SCORE.INTRA.VDW.0>
-0.734044

>  <SCORE.INTRA.norm>
-0.198319

>  <SCORE.RESTR>
0

>  <SCORE.RESTR.CAVITY>
0

>  <SCORE.RESTR.norm>
0

>  <SCORE.SYSTEM>
0

>  <SCORE.SYSTEM.CONST>
0

>  <SCORE.SYSTEM.DIHEDRAL>
0

>  <SCORE.SYSTEM.SOLV>
0

>  <SCORE.SYSTEM.norm>
0

>  <SCORE.heavy>
10

>  <SCORE.norm>
-0.769567

>  <RMSD>
5.337

$$$$
ligand
 OpenBabel11021811473D
libRbt.so/2013.1/901 2013/11/27
 10  9  0  0  0  0  0  0  0  0999 V2000
   26.0381   14.8615   21.1849 N   0  0  0  0  0  0  0  0  0  0  0  0
   27.3161   15.4223   20.7877 C   0  0  2  0  0  0  0  0  0  0  0  0
   27.6840   14.9724   19.3991 C   0  0  0  0  0  0  0  0  0  0  0  0
   28.6221   15.5541   18.7991 O   0  0  0  0  0  0  0  0  0  0  0  0
   28.3869   15.0001   21.7843 C   0  0  0  0  0  0  0  0  0  0  0  0
   29.6007   15.6777   21.4694 O   0  0  0  0  0  0  0  0  0  0  0  0
   30.5941   15.2426   22.3976 C   0  0  0  0  0  0  0  0  0  0  0  0
   31.8862   16.0039   22.1089 C   0  0  0  0  0  0  0  0  0  0  0  0
   31.6770   17.4292   22.2952 N   0  0  0  0  0  0  0  0  0  0  0  0
   27.4014   13.7911   19.1147 O   0  0  0  0  0  0  0  0  0  0  0  0
  2  1  1  1  0  0  0
  2  5  1  0  0  0  0
  2  3  1  0  0  0  0
  3  4  1  0  0  0  0
  3 10  1  0  0  0  0
  5  6  1  0  0  0  0
  6  7  1  0  0  0  0
  7  8  1  0  0  0  0
  8  9  1  0  0  0  0
M  END
>  <CHROM.1>
-173.51879264,166.66938276,-178.71414567,-177.68610221,61.64368277,28.92498049
15.38211822,20.89880657,2.62081317,-0.32932464,-1.66947983

>  <Name>
ligand

>  <RI>
0

>  <Rbt.Current_Directory>
/home/itssahil/PROJECTS/Mol_Feturizer/New_Systems/rnas/3DJ0

>  <Rbt.Executable>
rbdock ($Id: //depot/dev/client3/rdock/2013.1/src/exe/rbdock.cxx#4 $)

>  <Rbt.Library>
libRbt.so (2013.1, Build901 2013/11/27)

>  <Rbt.Parameter_File>
/export/apps/rDock/src/rDock_2013.1_src/data/scripts/dock_solv.prm

>  <Rbt.Receptor>
prm/pocket_docking_4.prm

>  <SCORE>
-7.48481

>  <SCORE.INTER>
-5.58662

>  <SCORE.INTER.CONST>
1

>  <SCORE.INTER.POLAR>
0

>  <SCORE.INTER.ROT>
5

>  <SCORE.INTER.SOLV>
20.5022

>  <SCORE.INTER.VDW>
-17.4918

>  <SCORE.INTER.norm>
-0.558662

>  <SCORE.INTRA>
-1.8982

>  <SCORE.INTRA.DIHEDRAL>
-3.48325

>  <SCORE.INTRA.DIHEDRAL.0>
6.00299

>  <SCORE.INTRA.POLAR>
0

>  <SCORE.INTRA.POLAR.0>
0

>  <SCORE.INTRA.REPUL>
0

>  <SCORE.INTRA.REPUL.0>
0

>  <SCORE.INTRA.SOLV>
-0.0954301

>  <SCORE.INTRA.SOLV.lig_0>
-39.3257

>  <SCORE.INTRA.VDW>
-0.10886

>  <SCORE.INTRA.VDW.0>
-0.734044

>  <SCORE.INTRA.norm>
-0.18982

>  <SCORE.RESTR>
0

>  <SCORE.RESTR.CAVITY>
0

>  <SCORE.RESTR.norm>
0

>  <SCORE.SYSTEM>
0

>  <SCORE.SYSTEM.CONST>
0

>  <SCORE.SYSTEM.DIHEDRAL>
0

>  <SCORE.SYSTEM.SOLV>
0

>  <SCORE.SYSTEM.norm>
0

>  <SCORE.heavy>
10

>  <SCORE.norm>
-0.748481

>  <RMSD>
5.338

$$$$
ligand
 OpenBabel11021811473D
libRbt.so/2013.1/901 2013/11/27
 10  9  0  0  0  0  0  0  0  0999 V2000
   26.0841   14.7827   21.2535 N   0  0  0  0  0  0  0  0  0  0  0  0
   27.3461   15.3713   20.8456 C   0  0  2  0  0  0  0  0  0  0  0  0
   27.6950   14.9569   19.4411 C   0  0  0  0  0  0  0  0  0  0  0  0
   28.5655   15.6092   18.8124 O   0  0  0  0  0  0  0  0  0  0  0  0
   28.4412   14.9440   21.8133 C   0  0  0  0  0  0  0  0  0  0  0  0
   29.6223   15.6897   21.5292 O   0  0  0  0  0  0  0  0  0  0  0  0
   30.6447   15.2382   22.4171 C   0  0  0  0  0  0  0  0  0  0  0  0
   31.9139   16.0387   22.1332 C   0  0  0  0  0  0  0  0  0  0  0  0
   31.7016   17.4397   22.4531 N   0  0  0  0  0  0  0  0  0  0  0  0
   27.4894   13.7597   19.1576 O   0  0  0  0  0  0  0  0  0  0  0  0
  2  1  1  1  0  0  0
  2  5  1  0  0  0  0
  2  3  1  0  0  0  0
  3  4  1  0  0  0  0
  3 10  1  0  0  0  0
  5  6  1  0  0  0  0
  6  7  1  0  0  0  0
  7  8  1  0  0  0  0
  8  9  1  0  0  0  0
M  END
>  <CHROM.1>
-170.98426878,163.06366106,-178.00906725,-179.45527868,64.74821941,28.95432964
15.37095144,20.94982069,2.62048834,-0.35238805,-1.64523160

>  <Name>
ligand

>  <RI>
0

>  <Rbt.Current_Directory>
/home/itssahil/PROJECTS/Mol_Feturizer/New_Systems/rnas/3DJ0

>  <Rbt.Executable>
rbdock ($Id: //depot/dev/client3/rdock/2013.1/src/exe/rbdock.cxx#4 $)

>  <Rbt.Library>
libRbt.so (2013.1, Build901 2013/11/27)

>  <Rbt.Parameter_File>
/export/apps/rDock/src/rDock_2013.1_src/data/scripts/dock_solv.prm

>  <Rbt.Receptor>
prm/pocket_docking_3.prm

>  <SCORE>
-7.47088

>  <SCORE.INTER>
-5.5903

>  <SCORE.INTER.CONST>
1

>  <SCORE.INTER.POLAR>
0

>  <SCORE.INTER.ROT>
5

>  <SCORE.INTER.SOLV>
20.5227

>  <SCORE.INTER.VDW>
-17.5011

>  <SCORE.INTER.norm>
-0.55903

>  <SCORE.INTRA>
-1.88058

>  <SCORE.INTRA.DIHEDRAL>
-3.20884

>  <SCORE.INTRA.DIHEDRAL.0>
6.00299

>  <SCORE.INTRA.POLAR>
0

>  <SCORE.INTRA.POLAR.0>
0

>  <SCORE.INTRA.REPUL>
0

>  <SCORE.INTRA.REPUL.0>
0

>  <SCORE.INTRA.SOLV>
-0.179387

>  <SCORE.INTRA.SOLV.lig_0>
-39.3257

>  <SCORE.INTRA.VDW>
-0.186465

>  <SCORE.INTRA.VDW.0>
-0.734044

>  <SCORE.INTRA.norm>
-0.188058

>  <SCORE.RESTR>
0

>  <SCORE.RESTR.CAVITY>
0

>  <SCORE.RESTR.norm>
0

>  <SCORE.SYSTEM>
0

>  <SCORE.SYSTEM.CONST>
0

>  <SCORE.SYSTEM.DIHEDRAL>
0

>  <SCORE.SYSTEM.SOLV>
0

>  <SCORE.SYSTEM.norm>
0

>  <SCORE.heavy>
10

>  <SCORE.norm>
-0.747088

>  <RMSD>
5.339

$$$$
ligand
 OpenBabel11021811473D
libRbt.so/2013.1/901 2013/11/27
 10  9  0  0  0  0  0  0  0  0999 V2000
   28.9930   14.5983   19.8762 N   0  0  0  0  0  0  0  0  0  0  0  0
   28.5472   15.0276   21.1886 C   0  0  2  0  0  0  0  0  0  0  0  0
   27.0470   15.1462   21.2265 C   0  0  0  0  0  0  0  0  0  0  0  0
   26.4360   15.4787   20.1803 O   0  0  0  0  0  0  0  0  0  0  0  0
   29.1947   16.3620   21.5326 C   0  0  0  0  0  0  0  0  0  0  0  0
   30.6074   16.1840   21.5984 O   0  0  0  0  0  0  0  0  0  0  0  0
   31.1914   17.4526   21.8939 C   0  0  0  0  0  0  0  0  0  0  0  0
   32.7087   17.2841   21.9343 C   0  0  0  0  0  0  0  0  0  0  0  0
   33.0835   16.4039   23.0273 N   0  0  0  0  0  0  0  0  0  0  0  0
   26.4669   14.4658   22.0963 O   0  0  0  0  0  0  0  0  0  0  0  0
  2  1  1  6  0  0  0
  2  5  1  0  0  0  0
  2  3  1  0  0  0  0
  3  4  1  0  0  0  0
  3 10  1  0  0  0  0
  5  6  1  0  0  0  0
  6  7  1  0  0  0  0
  7  8  1  0  0  0  0
  8  9  1  0  0  0  0
M  END
>  <CHROM.1>
-62.86822304,-31.74822464,178.80127828,-178.65043518,-64.43559065,29.38460918
15.83189804,21.45217906,-2.93780033,0.35370661,1.61144550

>  <Name>
ligand

>  <RI>
0

>  <Rbt.Current_Directory>
/home/itssahil/PROJECTS/Mol_Feturizer/New_Systems/rnas/3DJ0

>  <Rbt.Executable>
rbdock ($Id: //depot/dev/client3/rdock/2013.1/src/exe/rbdock.cxx#4 $)

>  <Rbt.Library>
libRbt.so (2013.1, Build901 2013/11/27)

>  <Rbt.Parameter_File>
/export/apps/rDock/src/rDock_2013.1_src/data/scripts/dock_solv.prm

>  <Rbt.Receptor>
prm/pocket_docking_8.prm

>  <SCORE>
-5.93879

>  <SCORE.INTER>
-4.01773

>  <SCORE.INTER.CONST>
1

>  <SCORE.INTER.POLAR>
0

>  <SCORE.INTER.ROT>
5

>  <SCORE.INTER.SOLV>
19.515

>  <SCORE.INTER.VDW>
-16.1168

>  <SCORE.INTER.norm>
-0.401773

>  <SCORE.INTRA>
-1.92106

>  <SCORE.INTRA.DIHEDRAL>
-3.74175

>  <SCORE.INTRA.DIHEDRAL.0>
6.00299

>  <SCORE.INTRA.POLAR>
0

>  <SCORE.INTRA.POLAR.0>
0

>  <SCORE.INTRA.REPUL>
0

>  <SCORE.INTRA.REPUL.0>
0

>  <SCORE.INTRA.SOLV>
0.35009

>  <SCORE.INTRA.SOLV.lig_0>
-39.3257

>  <SCORE.INTRA.VDW>
-0.225228

>  <SCORE.INTRA.VDW.0>
-0.734044

>  <SCORE.INTRA.norm>
-0.192106

>  <SCORE.RESTR>
0

>  <SCORE.RESTR.CAVITY>
0

>  <SCORE.RESTR.norm>
0

>  <SCORE.SYSTEM>
0

>  <SCORE.SYSTEM.CONST>
0

>  <SCORE.SYSTEM.DIHEDRAL>
0

>  <SCORE.SYSTEM.SOLV>
0

>  <SCORE.SYSTEM.norm>
0

>  <SCORE.heavy>
10

>  <SCORE.norm>
-0.593879

>  <RMSD>
5.339

$$$$
ligand
 OpenBabel11021811473D
libRbt.so/2013.1/901 2013/11/27
 10  9  0  0  0  0  0  0  0  0999 V2000
   27.5499   14.3778   19.0181 N   0  0  0  0  0  0  0  0  0  0  0  0
   28.1827   14.5926   20.3061 C   0  0  2  0  0  0  0  0  0  0  0  0
   27.1689   15.0331   21.3280 C   0  0  0  0  0  0  0  0  0  0  0  0
   25.9484   14.9874   21.0338 O   0  0  0  0  0  0  0  0  0  0  0  0
   29.2816   15.6369   20.1633 C   0  0  0  0  0  0  0  0  0  0  0  0
   30.0402   15.6735   21.3694 O   0  0  0  0  0  0  0  0  0  0  0  0
   31.0483   16.6728   21.2179 C   0  0  0  0  0  0  0  0  0  0  0  0
   31.9110   16.6784   22.4780 C   0  0  0  0  0  0  0  0  0  0  0  0
   32.9189   17.7205   22.3873 N   0  0  0  0  0  0  0  0  0  0  0  0
   27.5249   14.9520   22.5209 O   0  0  0  0  0  0  0  0  0  0  0  0
  2  1  1  6  0  0  0
  2  5  1  0  0  0  0
  2  3  1  0  0  0  0
  3  4  1  0  0  0  0
  3 10  1  0  0  0  0
  5  6  1  0  0  0  0
  6  7  1  0  0  0  0
  7  8  1  0  0  0  0
  8  9  1  0  0  0  0
M  END
>  <CHROM.1>
-170.24688566,9.41718760,-179.10232290,-177.37959740,-177.71802629,29.12371195
15.62626073,21.20637807,-2.80877069,0.35591672,1.33635378

>  <Name>
ligand

>  <RI>
0

>  <Rbt.Current_Directory>
/home/itssahil/PROJECTS/Mol_Feturizer/New_Systems/rnas/3DJ0

>  <Rbt.Executable>
rbdock ($Id: //depot/dev/client3/rdock/2013.1/src/exe/rbdock.cxx#4 $)

>  <Rbt.Library>
libRbt.so (2013.1, Build901 2013/11/27)

>  <Rbt.Parameter_File>
/export/apps/rDock/src/rDock_2013.1_src/data/scripts/dock_solv.prm

>  <Rbt.Receptor>
prm/pocket_docking_2.prm

>  <SCORE>
-7.52889

>  <SCORE.INTER>
-5.45835

>  <SCORE.INTER.CONST>
1

>  <SCORE.INTER.POLAR>
0

>  <SCORE.INTER.ROT>
5

>  <SCORE.INTER.SOLV>
19.535

>  <SCORE.INTER.VDW>
-17.0839

>  <SCORE.INTER.norm>
-0.545835

>  <SCORE.INTRA>
-2.07053

>  <SCORE.INTRA.DIHEDRAL>
-2.80175

>  <SCORE.INTRA.DIHEDRAL.0>
6.00299

>  <SCORE.INTRA.POLAR>
0

>  <SCORE.INTRA.POLAR.0>
0

>  <SCORE.INTRA.REPUL>
0

>  <SCORE.INTRA.REPUL.0>
0

>  <SCORE.INTRA.SOLV>
-1.27863

>  <SCORE.INTRA.SOLV.lig_0>
-39.3257

>  <SCORE.INTRA.VDW>
-0.0303434

>  <SCORE.INTRA.VDW.0>
-0.734044

>  <SCORE.INTRA.norm>
-0.207053

>  <SCORE.RESTR>
0

>  <SCORE.RESTR.CAVITY>
0

>  <SCORE.RESTR.norm>
0

>  <SCORE.SYSTEM>
0

>  <SCORE.SYSTEM.CONST>
0

>  <SCORE.SYSTEM.DIHEDRAL>
0

>  <SCORE.SYSTEM.SOLV>
0

>  <SCORE.SYSTEM.norm>
0

>  <SCORE.heavy>
10

>  <SCORE.norm>
-0.752889

>  <RMSD>
5.340

$$$$
ligand
 OpenBabel11021811473D
libRbt.so/2013.1/901 2013/11/27
 10  9  0  0  0  0  0  0  0  0999 V2000
   27.4461   14.5493   21.1458 N   0  0  0  0  0  0  0  0  0  0  0  0
   27.6803   15.3829   19.9815 C   0  0  2  0  0  0  0  0  0  0  0  0
   28.2518   14.5678   18.8522 C   0  0  0  0  0  0  0  0  0  0  0  0
   29.4479   14.1895   18.9189 O   0  0  0  0  0  0  0  0  0  0  0  0
   28.6276   16.5161   20.3514 C   0  0  0  0  0  0  0  0  0  0  0  0
   29.7829   15.9636   20.9771 O   0  0  0  0  0  0  0  0  0  0  0  0
   30.6054   17.0489   21.4054 C   0  0  0  0  0  0  0  0  0  0  0  0
   31.8334   16.4720   22.1065 C   0  0  0  0  0  0  0  0  0  0  0  0
   32.7052   17.5464   22.5490 N   0  0  0  0  0  0  0  0  0  0  0  0
   27.4293   13.9148   18.1790 O   0  0  0  0  0  0  0  0  0  0  0  0
  2  1  1  1  0  0  0
  2  5  1  0  0  0  0
  2  3  1  0  0  0  0
  3  4  1  0  0  0  0
  3 10  1  0  0  0  0
  5  6  1  0  0  0  0
  6  7  1  0  0  0  0
  7  8  1  0  0  0  0
  8  9  1  0  0  0  0
M  END
>  <CHROM.1>
51.83609158,-73.49181911,-175.62621123,178.74028229,179.49936166,29.38029616
15.58593566,20.41600314,2.34942115,-0.11276424,-2.18213266

>  <Name>
ligand

>  <RI>
0

>  <Rbt.Current_Directory>
/home/itssahil/PROJECTS/Mol_Feturizer/New_Systems/rnas/3DJ0

>  <Rbt.Executable>
rbdock ($Id: //depot/dev/client3/rdock/2013.1/src/exe/rbdock.cxx#4 $)

>  <Rbt.Library>
libRbt.so (2013.1, Build901 2013/11/27)

>  <Rbt.Parameter_File>
/export/apps/rDock/src/rDock_2013.1_src/data/scripts/dock_solv.prm

>  <Rbt.Receptor>
prm/pocket_docking_7.prm

>  <SCORE>
-7.39656

>  <SCORE.INTER>
-5.74415

>  <SCORE.INTER.CONST>
1

>  <SCORE.INTER.POLAR>
0

>  <SCORE.INTER.ROT>
5

>  <SCORE.INTER.SOLV>
17.9144

>  <SCORE.INTER.VDW>
-16.7342

>  <SCORE.INTER.norm>
-0.574415

>  <SCORE.INTRA>
-1.65241

>  <SCORE.INTRA.DIHEDRAL>
-3.34478

>  <SCORE.INTRA.DIHEDRAL.0>
6.00299

>  <SCORE.INTRA.POLAR>
0

>  <SCORE.INTRA.POLAR.0>
0

>  <SCORE.INTRA.REPUL>
0

>  <SCORE.INTRA.REPUL.0>
0

>  <SCORE.INTRA.SOLV>
-0.0563339

>  <SCORE.INTRA.SOLV.lig_0>
-39.3257

>  <SCORE.INTRA.VDW>
0.0481426

>  <SCORE.INTRA.VDW.0>
-0.734044

>  <SCORE.INTRA.norm>
-0.165241

>  <SCORE.RESTR>
0

>  <SCORE.RESTR.CAVITY>
0

>  <SCORE.RESTR.norm>
0

>  <SCORE.SYSTEM>
0

>  <SCORE.SYSTEM.CONST>
0

>  <SCORE.SYSTEM.DIHEDRAL>
0

>  <SCORE.SYSTEM.SOLV>
0

>  <SCORE.SYSTEM.norm>
0

>  <SCORE.heavy>
10

>  <SCORE.norm>
-0.739656

>  <RMSD>
5.340

$$$$
ligand
 OpenBabel11021811473D
libRbt.so/2013.1/901 2013/11/27
 10  9  0  0  0  0  0  0  0  0999 V2000
   28.6466   15.5792   22.8864 N   0  0  0  0  0  0  0  0  0  0  0  0
   28.5637   15.7131   21.4439 C   0  0  2  0  0  0  0  0  0  0  0  0
   27.4229   14.8953   20.9002 C   0  0  0  0  0  0  0  0  0  0  0  0
   26.4089   14.7113   21.6188 O   0  0  0  0  0  0  0  0  0  0  0  0
   29.8796   15.2723   20.8173 C   0  0  0  0  0  0  0  0  0  0  0  0
   30.9068   16.1728   21.2242 O   0  0  0  0  0  0  0  0  0  0  0  0
   32.1409   15.6931   20.6906 C   0  0  0  0  0  0  0  0  0  0  0  0
   33.2405   16.6873   21.0577 C   0  0  0  0  0  0  0  0  0  0  0  0
   33.3103   16.8431   22.5002 N   0  0  0  0  0  0  0  0  0  0  0  0
   27.3195   14.8601   19.6575 O   0  0  0  0  0  0  0  0  0  0  0  0
  2  1  1  1  0  0  0
  2  5  1  0  0  0  0
  2  3  1  0  0  0  0
  3  4  1  0  0  0  0
  3 10  1  0  0  0  0
  5  6  1  0  0  0  0
  6  7  1  0  0  0  0
  7  8  1  0  0  0  0
  8  9  1  0  0  0  0
M  END
>  <CHROM.1>
-65.22175961,30.30974078,176.57972369,177.10773819,57.93591736,29.74412165
15.63113884,21.26247196,3.00650546,-0.24823291,-1.77443465

>  <Name>
ligand

>  <RI>
0

>  <Rbt.Current_Directory>
/home/itssahil/PROJECTS/Mol_Feturizer/New_Systems/rnas/3DJ0

>  <Rbt.Executable>
rbdock ($Id: //depot/dev/client3/rdock/2013.1/src/exe/rbdock.cxx#4 $)

>  <Rbt.Library>
libRbt.so (2013.1, Build901 2013/11/27)

>  <Rbt.Parameter_File>
/export/apps/rDock/src/rDock_2013.1_src/data/scripts/dock_solv.prm

>  <Rbt.Receptor>
prm/pocket_docking_8.prm

>  <SCORE>
-6.6086

>  <SCORE.INTER>
-5.42513

>  <SCORE.INTER.CONST>
1

>  <SCORE.INTER.POLAR>
0

>  <SCORE.INTER.ROT>
5

>  <SCORE.INTER.SOLV>
20.2781

>  <SCORE.INTER.VDW>
-17.3095

>  <SCORE.INTER.norm>
-0.542513

>  <SCORE.INTRA>
-1.18347

>  <SCORE.INTRA.DIHEDRAL>
-3.15026

>  <SCORE.INTRA.DIHEDRAL.0>
6.00299

>  <SCORE.INTRA.POLAR>
0

>  <SCORE.INTRA.POLAR.0>
0

>  <SCORE.INTRA.REPUL>
0

>  <SCORE.INTRA.REPUL.0>
0

>  <SCORE.INTRA.SOLV>
0.316051

>  <SCORE.INTRA.SOLV.lig_0>
-39.3257

>  <SCORE.INTRA.VDW>
0.233629

>  <SCORE.INTRA.VDW.0>
-0.734044

>  <SCORE.INTRA.norm>
-0.118347

>  <SCORE.RESTR>
0

>  <SCORE.RESTR.CAVITY>
0

>  <SCORE.RESTR.norm>
0

>  <SCORE.SYSTEM>
0

>  <SCORE.SYSTEM.CONST>
0

>  <SCORE.SYSTEM.DIHEDRAL>
0

>  <SCORE.SYSTEM.SOLV>
0

>  <SCORE.SYSTEM.norm>
0

>  <SCORE.heavy>
10

>  <SCORE.norm>
-0.66086

>  <RMSD>
5.341

$$$$
ligand
 OpenBabel11021811473D
libRbt.so/2013.1/901 2013/11/27
 10  9  0  0  0  0  0  0  0  0999 V2000
   27.4079   14.5714   21.1361 N   0  0  0  0  0  0  0  0  0  0  0  0
   27.6592   15.4057   19.9759 C   0  0  2  0  0  0  0  0  0  0  0  0
   28.2420   14.5904   18.8526 C   0  0  0  0  0  0  0  0  0  0  0  0
   29.4363   14.2088   18.9333 O   0  0  0  0  0  0  0  0  0  0  0  0
   28.6055   16.5354   20.3591 C   0  0  0  0  0  0  0  0  0  0  0  0
   29.7594   15.9769   20.9822 O   0  0  0  0  0  0  0  0  0  0  0  0
   30.5880   17.0580   21.4093 C   0  0  0  0  0  0  0  0  0  0  0  0
   31.8214   16.4745   22.0953 C   0  0  0  0  0  0  0  0  0  0  0  0
   32.6851   17.5449   22.5624 N   0  0  0  0  0  0  0  0  0  0  0  0
   27.4259   13.9403   18.1689 O   0  0  0  0  0  0  0  0  0  0  0  0
  2  1  1  1  0  0  0
  2  5  1  0  0  0  0
  2  3  1  0  0  0  0
  3  4  1  0  0  0  0
  3 10  1  0  0  0  0
  5  6  1  0  0  0  0
  6  7  1  0  0  0  0
  7  8  1  0  0  0  0
  8  9  1  0  0  0  0
M  END
>  <CHROM.1>
52.60372283,-73.53447303,-176.27873377,179.29990646,-179.24071321,29.36255018
15.60150049,20.41698084,2.35008522,-0.10507150,-2.18497878

>  <Name>
ligand

>  <RI>
0

>  <Rbt.Current_Directory>
/home/itssahil/PROJECTS/Mol_Feturizer/New_Systems/rnas/3DJ0

>  <Rbt.Executable>
rbdock ($Id: //depot/dev/client3/rdock/2013.1/src/exe/rbdock.cxx#4 $)

>  <Rbt.Library>
libRbt.so (2013.1, Build901 2013/11/27)

>  <Rbt.Parameter_File>
/export/apps/rDock/src/rDock_2013.1_src/data/scripts/dock_solv.prm

>  <Rbt.Receptor>
prm/pocket_docking_8.prm

>  <SCORE>
-7.39501

>  <SCORE.INTER>
-5.71634

>  <SCORE.INTER.CONST>
1

>  <SCORE.INTER.POLAR>
0

>  <SCORE.INTER.ROT>
5

>  <SCORE.INTER.SOLV>
17.9315

>  <SCORE.INTER.VDW>
-16.7214

>  <SCORE.INTER.norm>
-0.571634

>  <SCORE.INTRA>
-1.67867

>  <SCORE.INTRA.DIHEDRAL>
-3.41537

>  <SCORE.INTRA.DIHEDRAL.0>
6.00299

>  <SCORE.INTRA.POLAR>
0

>  <SCORE.INTRA.POLAR.0>
0

>  <SCORE.INTRA.REPUL>
0

>  <SCORE.INTRA.REPUL.0>
0

>  <SCORE.INTRA.SOLV>
-0.0570359

>  <SCORE.INTRA.SOLV.lig_0>
-39.3257

>  <SCORE.INTRA.VDW>
0.0575322

>  <SCORE.INTRA.VDW.0>
-0.734044

>  <SCORE.INTRA.norm>
-0.167867

>  <SCORE.RESTR>
0

>  <SCORE.RESTR.CAVITY>
0

>  <SCORE.RESTR.norm>
0

>  <SCORE.SYSTEM>
0

>  <SCORE.SYSTEM.CONST>
0

>  <SCORE.SYSTEM.DIHEDRAL>
0

>  <SCORE.SYSTEM.SOLV>
0

>  <SCORE.SYSTEM.norm>
0

>  <SCORE.heavy>
10

>  <SCORE.norm>
-0.739501

>  <RMSD>
5.341

$$$$
ligand
 OpenBabel11021811473D
libRbt.so/2013.1/901 2013/11/27
 10  9  0  0  0  0  0  0  0  0999 V2000
   27.4593   14.3981   19.1144 N   0  0  0  0  0  0  0  0  0  0  0  0
   28.1430   14.5727   20.3823 C   0  0  2  0  0  0  0  0  0  0  0  0
   27.1672   14.9557   21.4626 C   0  0  0  0  0  0  0  0  0  0  0  0
   25.9361   14.8400   21.2400 O   0  0  0  0  0  0  0  0  0  0  0  0
   29.2190   15.6400   20.2354 C   0  0  0  0  0  0  0  0  0  0  0  0
   30.0148   15.6562   21.4178 O   0  0  0  0  0  0  0  0  0  0  0  0
   31.0290   16.6457   21.2449 C   0  0  0  0  0  0  0  0  0  0  0  0
   31.9174   16.6437   22.4870 C   0  0  0  0  0  0  0  0  0  0  0  0
   32.9175   17.6923   22.3862 N   0  0  0  0  0  0  0  0  0  0  0  0
   27.5962   14.8964   22.6325 O   0  0  0  0  0  0  0  0  0  0  0  0
  2  1  1  6  0  0  0
  2  5  1  0  0  0  0
  2  3  1  0  0  0  0
  3  4  1  0  0  0  0
  3 10  1  0  0  0  0
  5  6  1  0  0  0  0
  6  7  1  0  0  0  0
  7  8  1  0  0  0  0
  8  9  1  0  0  0  0
M  END
>  <CHROM.1>
-171.14018059,12.80206788,178.94537616,-178.22497405,-176.66321075,29.10740715
15.58654990,21.28584016,-2.84632357,0.37998894,1.38321734

>  <Name>
ligand

>  <RI>
0

>  <Rbt.Current_Directory>
/home/itssahil/PROJECTS/Mol_Feturizer/New_Systems/rnas/3DJ0

>  <Rbt.Executable>
rbdock ($Id: //depot/dev/client3/rdock/2013.1/src/exe/rbdock.cxx#4 $)

>  <Rbt.Library>
libRbt.so (2013.1, Build901 2013/11/27)

>  <Rbt.Parameter_File>
/export/apps/rDock/src/rDock_2013.1_src/data/scripts/dock_solv.prm

>  <Rbt.Receptor>
prm/blind_docking_60.prm

>  <SCORE>
-7.70344

>  <SCORE.INTER>
-5.66137

>  <SCORE.INTER.CONST>
1

>  <SCORE.INTER.POLAR>
0

>  <SCORE.INTER.ROT>
5

>  <SCORE.INTER.SOLV>
19.7245

>  <SCORE.INTER.VDW>
-17.2824

>  <SCORE.INTER.norm>
-0.566137

>  <SCORE.INTRA>
-2.04207

>  <SCORE.INTRA.DIHEDRAL>
-2.8498

>  <SCORE.INTRA.DIHEDRAL.0>
6.00299

>  <SCORE.INTRA.POLAR>
0

>  <SCORE.INTRA.POLAR.0>
0

>  <SCORE.INTRA.REPUL>
0

>  <SCORE.INTRA.REPUL.0>
0

>  <SCORE.INTRA.SOLV>
-1.27278

>  <SCORE.INTRA.SOLV.lig_0>
-39.3257

>  <SCORE.INTRA.VDW>
0.0192242

>  <SCORE.INTRA.VDW.0>
-0.734044

>  <SCORE.INTRA.norm>
-0.204207

>  <SCORE.RESTR>
0

>  <SCORE.RESTR.CAVITY>
0

>  <SCORE.RESTR.norm>
0

>  <SCORE.SYSTEM>
0

>  <SCORE.SYSTEM.CONST>
0

>  <SCORE.SYSTEM.DIHEDRAL>
0

>  <SCORE.SYSTEM.SOLV>
0

>  <SCORE.SYSTEM.norm>
0

>  <SCORE.heavy>
10

>  <SCORE.norm>
-0.770344

>  <RMSD>
5.342

$$$$
ligand
 OpenBabel11021811473D
libRbt.so/2013.1/901 2013/11/27
 10  9  0  0  0  0  0  0  0  0999 V2000
   27.4340   14.5616   21.1380 N   0  0  0  0  0  0  0  0  0  0  0  0
   27.6620   15.4045   19.9791 C   0  0  2  0  0  0  0  0  0  0  0  0
   28.2368   14.6005   18.8436 C   0  0  0  0  0  0  0  0  0  0  0  0
   29.4341   14.2256   18.9080 O   0  0  0  0  0  0  0  0  0  0  0  0
   28.6031   16.5406   20.3556 C   0  0  0  0  0  0  0  0  0  0  0  0
   29.7561   15.9917   20.9887 O   0  0  0  0  0  0  0  0  0  0  0  0
   30.5859   17.0789   21.3974 C   0  0  0  0  0  0  0  0  0  0  0  0
   31.8199   16.5058   22.0910 C   0  0  0  0  0  0  0  0  0  0  0  0
   32.6854   17.5830   22.5388 N   0  0  0  0  0  0  0  0  0  0  0  0
   27.4168   13.9503   18.1646 O   0  0  0  0  0  0  0  0  0  0  0  0
  2  1  1  1  0  0  0
  2  5  1  0  0  0  0
  2  3  1  0  0  0  0
  3  4  1  0  0  0  0
  3 10  1  0  0  0  0
  5  6  1  0  0  0  0
  6  7  1  0  0  0  0
  7  8  1  0  0  0  0
  8  9  1  0  0  0  0
M  END
>  <CHROM.1>
51.24062608,-73.29979200,-176.84172117,179.42159930,-179.28933364,29.36269432
15.61526376,20.40987266,2.34950087,-0.11994886,-2.17598532

>  <Name>
ligand

>  <RI>
0

>  <Rbt.Current_Directory>
/home/itssahil/PROJECTS/Mol_Feturizer/New_Systems/rnas/3DJ0

>  <Rbt.Executable>
rbdock ($Id: //depot/dev/client3/rdock/2013.1/src/exe/rbdock.cxx#4 $)

>  <Rbt.Library>
libRbt.so (2013.1, Build901 2013/11/27)

>  <Rbt.Parameter_File>
/export/apps/rDock/src/rDock_2013.1_src/data/scripts/dock_solv.prm

>  <Rbt.Receptor>
prm/pocket_docking_5.prm

>  <SCORE>
-7.39399

>  <SCORE.INTER>
-5.71865

>  <SCORE.INTER.CONST>
1

>  <SCORE.INTER.POLAR>
0

>  <SCORE.INTER.ROT>
5

>  <SCORE.INTER.SOLV>
17.9015

>  <SCORE.INTER.VDW>
-16.7129

>  <SCORE.INTER.norm>
-0.571865

>  <SCORE.INTRA>
-1.67534

>  <SCORE.INTRA.DIHEDRAL>
-3.36397

>  <SCORE.INTRA.DIHEDRAL.0>
6.00299

>  <SCORE.INTRA.POLAR>
0

>  <SCORE.INTRA.POLAR.0>
0

>  <SCORE.INTRA.REPUL>
0

>  <SCORE.INTRA.REPUL.0>
0

>  <SCORE.INTRA.SOLV>
-0.0586446

>  <SCORE.INTRA.SOLV.lig_0>
-39.3257

>  <SCORE.INTRA.VDW>
0.0359672

>  <SCORE.INTRA.VDW.0>
-0.734044

>  <SCORE.INTRA.norm>
-0.167534

>  <SCORE.RESTR>
0

>  <SCORE.RESTR.CAVITY>
0

>  <SCORE.RESTR.norm>
0

>  <SCORE.SYSTEM>
0

>  <SCORE.SYSTEM.CONST>
0

>  <SCORE.SYSTEM.DIHEDRAL>
0

>  <SCORE.SYSTEM.SOLV>
0

>  <SCORE.SYSTEM.norm>
0

>  <SCORE.heavy>
10

>  <SCORE.norm>
-0.739399

>  <RMSD>
5.343

$$$$
ligand
 OpenBabel11021811473D
libRbt.so/2013.1/901 2013/11/27
 10  9  0  0  0  0  0  0  0  0999 V2000
   27.4576   14.5718   21.1554 N   0  0  0  0  0  0  0  0  0  0  0  0
   27.6790   15.3991   19.9841 C   0  0  2  0  0  0  0  0  0  0  0  0
   28.2329   14.5770   18.8513 C   0  0  0  0  0  0  0  0  0  0  0  0
   29.4426   14.2388   18.8791 O   0  0  0  0  0  0  0  0  0  0  0  0
   28.6346   16.5311   20.3360 C   0  0  0  0  0  0  0  0  0  0  0  0
   29.7902   15.9791   20.9618 O   0  0  0  0  0  0  0  0  0  0  0  0
   30.6477   17.0620   21.3219 C   0  0  0  0  0  0  0  0  0  0  0  0
   31.8447   16.4935   22.0810 C   0  0  0  0  0  0  0  0  0  0  0  0
   32.6952   17.5732   22.5512 N   0  0  0  0  0  0  0  0  0  0  0  0
   27.4070   13.8825   18.2254 O   0  0  0  0  0  0  0  0  0  0  0  0
  2  1  1  1  0  0  0
  2  5  1  0  0  0  0
  2  3  1  0  0  0  0
  3  4  1  0  0  0  0
  3 10  1  0  0  0  0
  5  6  1  0  0  0  0
  6  7  1  0  0  0  0
  7  8  1  0  0  0  0
  8  9  1  0  0  0  0
M  END
>  <CHROM.1>
51.23351822,-76.21256593,-178.07022303,176.08941492,-175.88052650,29.38224887
15.60146859,20.40423238,2.35564036,-0.12885203,-2.17442398

>  <Name>
ligand

>  <RI>
0

>  <Rbt.Current_Directory>
/home/itssahil/PROJECTS/Mol_Feturizer/New_Systems/rnas/3DJ0

>  <Rbt.Executable>
rbdock ($Id: //depot/dev/client3/rdock/2013.1/src/exe/rbdock.cxx#4 $)

>  <Rbt.Library>
libRbt.so (2013.1, Build901 2013/11/27)

>  <Rbt.Parameter_File>
/export/apps/rDock/src/rDock_2013.1_src/data/scripts/dock_solv.prm

>  <Rbt.Receptor>
prm/blind_docking_60.prm

>  <SCORE>
-7.38029

>  <SCORE.INTER>
-5.85622

>  <SCORE.INTER.CONST>
1

>  <SCORE.INTER.POLAR>
0

>  <SCORE.INTER.ROT>
5

>  <SCORE.INTER.SOLV>
17.8405

>  <SCORE.INTER.VDW>
-16.7843

>  <SCORE.INTER.norm>
-0.585622

>  <SCORE.INTRA>
-1.52407

>  <SCORE.INTRA.DIHEDRAL>
-3.19896

>  <SCORE.INTRA.DIHEDRAL.0>
6.00299

>  <SCORE.INTRA.POLAR>
0

>  <SCORE.INTRA.POLAR.0>
0

>  <SCORE.INTRA.REPUL>
0

>  <SCORE.INTRA.REPUL.0>
0

>  <SCORE.INTRA.SOLV>
-0.0530466

>  <SCORE.INTRA.SOLV.lig_0>
-39.3257

>  <SCORE.INTRA.VDW>
0.101932

>  <SCORE.INTRA.VDW.0>
-0.734044

>  <SCORE.INTRA.norm>
-0.152407

>  <SCORE.RESTR>
0

>  <SCORE.RESTR.CAVITY>
0

>  <SCORE.RESTR.norm>
0

>  <SCORE.SYSTEM>
0

>  <SCORE.SYSTEM.CONST>
0

>  <SCORE.SYSTEM.DIHEDRAL>
0

>  <SCORE.SYSTEM.SOLV>
0

>  <SCORE.SYSTEM.norm>
0

>  <SCORE.heavy>
10

>  <SCORE.norm>
-0.738029

>  <RMSD>
5.344

$$$$
ligand
 OpenBabel11021811473D
libRbt.so/2013.1/901 2013/11/27
 10  9  0  0  0  0  0  0  0  0999 V2000
   27.4339   14.5485   21.1344 N   0  0  0  0  0  0  0  0  0  0  0  0
   27.6651   15.3871   19.9731 C   0  0  2  0  0  0  0  0  0  0  0  0
   28.2391   14.5781   18.8408 C   0  0  0  0  0  0  0  0  0  0  0  0
   29.4333   14.1941   18.9111 O   0  0  0  0  0  0  0  0  0  0  0  0
   28.6086   16.5221   20.3470 C   0  0  0  0  0  0  0  0  0  0  0  0
   29.7745   15.9698   20.9531 O   0  0  0  0  0  0  0  0  0  0  0  0
   30.5868   17.0552   21.4003 C   0  0  0  0  0  0  0  0  0  0  0  0
   31.8185   16.4778   22.0944 C   0  0  0  0  0  0  0  0  0  0  0  0
   32.6626   17.5525   22.5871 N   0  0  0  0  0  0  0  0  0  0  0  0
   27.4175   13.9338   18.1582 O   0  0  0  0  0  0  0  0  0  0  0  0
  2  1  1  1  0  0  0
  2  5  1  0  0  0  0
  2  3  1  0  0  0  0
  3  4  1  0  0  0  0
  3 10  1  0  0  0  0
  5  6  1  0  0  0  0
  6  7  1  0  0  0  0
  7  8  1  0  0  0  0
  8  9  1  0  0  0  0
M  END
>  <CHROM.1>
52.66677847,-72.90565023,-174.95272606,178.12017580,-178.98922845,29.36346569
15.59284888,20.40885757,2.34504202,-0.11025575,-2.18064941

>  <Name>
ligand

>  <RI>
0

>  <Rbt.Current_Directory>
/home/itssahil/PROJECTS/Mol_Feturizer/New_Systems/rnas/3DJ0

>  <Rbt.Executable>
rbdock ($Id: //depot/dev/client3/rdock/2013.1/src/exe/rbdock.cxx#4 $)

>  <Rbt.Library>
libRbt.so (2013.1, Build901 2013/11/27)

>  <Rbt.Parameter_File>
/export/apps/rDock/src/rDock_2013.1_src/data/scripts/dock_solv.prm

>  <Rbt.Receptor>
prm/pocket_docking_5.prm

>  <SCORE>
-7.37669

>  <SCORE.INTER>
-5.71487

>  <SCORE.INTER.CONST>
1

>  <SCORE.INTER.POLAR>
0

>  <SCORE.INTER.ROT>
5

>  <SCORE.INTER.SOLV>
17.8831

>  <SCORE.INTER.VDW>
-16.7043

>  <SCORE.INTER.norm>
-0.571487

>  <SCORE.INTRA>
-1.66182

>  <SCORE.INTRA.DIHEDRAL>
-3.35775

>  <SCORE.INTRA.DIHEDRAL.0>
6.00299

>  <SCORE.INTRA.POLAR>
0

>  <SCORE.INTRA.POLAR.0>
0

>  <SCORE.INTRA.REPUL>
0

>  <SCORE.INTRA.REPUL.0>
0

>  <SCORE.INTRA.SOLV>
-0.0578108

>  <SCORE.INTRA.SOLV.lig_0>
-39.3257

>  <SCORE.INTRA.VDW>
0.0459569

>  <SCORE.INTRA.VDW.0>
-0.734044

>  <SCORE.INTRA.norm>
-0.166182

>  <SCORE.RESTR>
0

>  <SCORE.RESTR.CAVITY>
0

>  <SCORE.RESTR.norm>
0

>  <SCORE.SYSTEM>
0

>  <SCORE.SYSTEM.CONST>
0

>  <SCORE.SYSTEM.DIHEDRAL>
0

>  <SCORE.SYSTEM.SOLV>
0

>  <SCORE.SYSTEM.norm>
0

>  <SCORE.heavy>
10

>  <SCORE.norm>
-0.737669

>  <RMSD>
5.344

$$$$
ligand
 OpenBabel11021811473D
libRbt.so/2013.1/901 2013/11/27
 10  9  0  0  0  0  0  0  0  0999 V2000
   26.1942   14.9720   21.0157 N   0  0  0  0  0  0  0  0  0  0  0  0
   27.5219   15.4383   20.6615 C   0  0  2  0  0  0  0  0  0  0  0  0
   27.9736   14.8185   19.3662 C   0  0  0  0  0  0  0  0  0  0  0  0
   27.4357   13.7499   18.9825 O   0  0  0  0  0  0  0  0  0  0  0  0
   28.4949   15.0969   21.7818 C   0  0  0  0  0  0  0  0  0  0  0  0
   29.7567   15.6932   21.4923 O   0  0  0  0  0  0  0  0  0  0  0  0
   30.6460   15.3672   22.5603 C   0  0  0  0  0  0  0  0  0  0  0  0
   31.9855   16.0506   22.2942 C   0  0  0  0  0  0  0  0  0  0  0  0
   31.8187   17.4936   22.3003 N   0  0  0  0  0  0  0  0  0  0  0  0
   28.4705   15.6000   18.5306 O   0  0  0  0  0  0  0  0  0  0  0  0
  2  1  1  1  0  0  0
  2  5  1  0  0  0  0
  2  3  1  0  0  0  0
  3  4  1  0  0  0  0
  3 10  1  0  0  0  0
  5  6  1  0  0  0  0
  6  7  1  0  0  0  0
  7  8  1  0  0  0  0
  8  9  1  0  0  0  0
M  END
>  <CHROM.1>
-173.39657380,-21.60176860,179.56949191,-177.55814134,63.14423421,29.02819065
15.41500286,20.86019475,2.56593840,-0.35670968,-1.63563468

>  <Name>
ligand

>  <RI>
0

>  <Rbt.Current_Directory>
/home/itssahil/PROJECTS/Mol_Feturizer/New_Systems/rnas/3DJ0

>  <Rbt.Executable>
rbdock ($Id: //depot/dev/client3/rdock/2013.1/src/exe/rbdock.cxx#4 $)

>  <Rbt.Library>
libRbt.so (2013.1, Build901 2013/11/27)

>  <Rbt.Parameter_File>
/export/apps/rDock/src/rDock_2013.1_src/data/scripts/dock_solv.prm

>  <Rbt.Receptor>
prm/pocket_docking_7.prm

>  <SCORE>
-7.84927

>  <SCORE.INTER>
-5.80624

>  <SCORE.INTER.CONST>
1

>  <SCORE.INTER.POLAR>
0

>  <SCORE.INTER.ROT>
5

>  <SCORE.INTER.SOLV>
20.3334

>  <SCORE.INTER.VDW>
-17.582

>  <SCORE.INTER.norm>
-0.580624

>  <SCORE.INTRA>
-2.04304

>  <SCORE.INTRA.DIHEDRAL>
-3.44659

>  <SCORE.INTRA.DIHEDRAL.0>
6.00299

>  <SCORE.INTRA.POLAR>
0

>  <SCORE.INTRA.POLAR.0>
0

>  <SCORE.INTRA.REPUL>
0

>  <SCORE.INTRA.REPUL.0>
0

>  <SCORE.INTRA.SOLV>
-0.217515

>  <SCORE.INTRA.SOLV.lig_0>
-39.3257

>  <SCORE.INTRA.VDW>
-0.210982

>  <SCORE.INTRA.VDW.0>
-0.734044

>  <SCORE.INTRA.norm>
-0.204304

>  <SCORE.RESTR>
0

>  <SCORE.RESTR.CAVITY>
0

>  <SCORE.RESTR.norm>
0

>  <SCORE.SYSTEM>
0

>  <SCORE.SYSTEM.CONST>
0

>  <SCORE.SYSTEM.DIHEDRAL>
0

>  <SCORE.SYSTEM.SOLV>
0

>  <SCORE.SYSTEM.norm>
0

>  <SCORE.heavy>
10

>  <SCORE.norm>
-0.784927

>  <RMSD>
5.345

$$$$
ligand
 OpenBabel11021811473D
libRbt.so/2013.1/901 2013/11/27
 10  9  0  0  0  0  0  0  0  0999 V2000
   27.4178   14.5166   21.1436 N   0  0  0  0  0  0  0  0  0  0  0  0
   27.6463   15.3630   19.9874 C   0  0  2  0  0  0  0  0  0  0  0  0
   28.2263   14.5636   18.8514 C   0  0  0  0  0  0  0  0  0  0  0  0
   29.4271   14.1996   18.9139 O   0  0  0  0  0  0  0  0  0  0  0  0
   28.5831   16.5010   20.3692 C   0  0  0  0  0  0  0  0  0  0  0  0
   29.7438   15.9525   20.9885 O   0  0  0  0  0  0  0  0  0  0  0  0
   30.5703   17.0406   21.4019 C   0  0  0  0  0  0  0  0  0  0  0  0
   31.8066   16.4682   22.0920 C   0  0  0  0  0  0  0  0  0  0  0  0
   32.6456   17.5462   22.5859 N   0  0  0  0  0  0  0  0  0  0  0  0
   27.4111   13.9056   18.1742 O   0  0  0  0  0  0  0  0  0  0  0  0
  2  1  1  1  0  0  0
  2  5  1  0  0  0  0
  2  3  1  0  0  0  0
  3  4  1  0  0  0  0
  3 10  1  0  0  0  0
  5  6  1  0  0  0  0
  6  7  1  0  0  0  0
  7  8  1  0  0  0  0
  8  9  1  0  0  0  0
M  END
>  <CHROM.1>
51.97425809,-73.76436776,-176.87987341,178.92717690,-177.29358674,29.34735954
15.57678185,20.42000724,2.34629933,-0.12064279,-2.17434745

>  <Name>
ligand

>  <RI>
0

>  <Rbt.Current_Directory>
/home/itssahil/PROJECTS/Mol_Feturizer/New_Systems/rnas/3DJ0

>  <Rbt.Executable>
rbdock ($Id: //depot/dev/client3/rdock/2013.1/src/exe/rbdock.cxx#4 $)

>  <Rbt.Library>
libRbt.so (2013.1, Build901 2013/11/27)

>  <Rbt.Parameter_File>
/export/apps/rDock/src/rDock_2013.1_src/data/scripts/dock_solv.prm

>  <Rbt.Receptor>
prm/pocket_docking_7.prm

>  <SCORE>
-7.40472

>  <SCORE.INTER>
-5.74615

>  <SCORE.INTER.CONST>
1

>  <SCORE.INTER.POLAR>
0

>  <SCORE.INTER.ROT>
5

>  <SCORE.INTER.SOLV>
17.9556

>  <SCORE.INTER.VDW>
-16.7493

>  <SCORE.INTER.norm>
-0.574615

>  <SCORE.INTRA>
-1.65857

>  <SCORE.INTRA.DIHEDRAL>
-3.36848

>  <SCORE.INTRA.DIHEDRAL.0>
6.00299

>  <SCORE.INTRA.POLAR>
0

>  <SCORE.INTRA.POLAR.0>
0

>  <SCORE.INTRA.REPUL>
0

>  <SCORE.INTRA.REPUL.0>
0

>  <SCORE.INTRA.SOLV>
-0.0572231

>  <SCORE.INTRA.SOLV.lig_0>
-39.3257

>  <SCORE.INTRA.VDW>
0.0542818

>  <SCORE.INTRA.VDW.0>
-0.734044

>  <SCORE.INTRA.norm>
-0.165857

>  <SCORE.RESTR>
0

>  <SCORE.RESTR.CAVITY>
0

>  <SCORE.RESTR.norm>
0

>  <SCORE.SYSTEM>
0

>  <SCORE.SYSTEM.CONST>
0

>  <SCORE.SYSTEM.DIHEDRAL>
0

>  <SCORE.SYSTEM.SOLV>
0

>  <SCORE.SYSTEM.norm>
0

>  <SCORE.heavy>
10

>  <SCORE.norm>
-0.740472

>  <RMSD>
5.347

$$$$
ligand
 OpenBabel11021811473D
libRbt.so/2013.1/901 2013/11/27
 10  9  0  0  0  0  0  0  0  0999 V2000
   28.9134   14.1722   22.0042 N   0  0  0  0  0  0  0  0  0  0  0  0
   28.6226   15.3777   21.2508 C   0  0  2  0  0  0  0  0  0  0  0  0
   27.5775   15.1080   20.2015 C   0  0  0  0  0  0  0  0  0  0  0  0
   27.6934   14.0903   19.4741 O   0  0  0  0  0  0  0  0  0  0  0  0
   29.9019   15.8938   20.6062 C   0  0  0  0  0  0  0  0  0  0  0  0
   30.8402   16.2059   21.6327 O   0  0  0  0  0  0  0  0  0  0  0  0
   32.0686   16.5684   21.0023 C   0  0  0  0  0  0  0  0  0  0  0  0
   33.0723   16.9460   22.0897 C   0  0  0  0  0  0  0  0  0  0  0  0
   32.6420   18.1574   22.7661 N   0  0  0  0  0  0  0  0  0  0  0  0
   26.4487   15.5932   20.4174 O   0  0  0  0  0  0  0  0  0  0  0  0
  2  1  1  6  0  0  0
  2  5  1  0  0  0  0
  2  3  1  0  0  0  0
  3  4  1  0  0  0  0
  3 10  1  0  0  0  0
  5  6  1  0  0  0  0
  6  7  1  0  0  0  0
  7  8  1  0  0  0  0
  8  9  1  0  0  0  0
M  END
>  <CHROM.1>
-61.10114045,-46.69401888,174.73999294,178.34044076,-66.44236506,29.74169156
15.79798849,21.12386756,-2.63122491,-0.13437242,0.40687127

>  <Name>
ligand

>  <RI>
0

>  <Rbt.Current_Directory>
/home/itssahil/PROJECTS/Mol_Feturizer/New_Systems/rnas/3DJ0

>  <Rbt.Executable>
rbdock ($Id: //depot/dev/client3/rdock/2013.1/src/exe/rbdock.cxx#4 $)

>  <Rbt.Library>
libRbt.so (2013.1, Build901 2013/11/27)

>  <Rbt.Parameter_File>
/export/apps/rDock/src/rDock_2013.1_src/data/scripts/dock_solv.prm

>  <Rbt.Receptor>
prm/pocket_docking_2.prm

>  <SCORE>
-6.04036

>  <SCORE.INTER>
-4.17934

>  <SCORE.INTER.CONST>
1

>  <SCORE.INTER.POLAR>
0

>  <SCORE.INTER.ROT>
5

>  <SCORE.INTER.SOLV>
18.877

>  <SCORE.INTER.VDW>
-16.0119

>  <SCORE.INTER.norm>
-0.417934

>  <SCORE.INTRA>
-1.86102

>  <SCORE.INTRA.DIHEDRAL>
-3.68064

>  <SCORE.INTRA.DIHEDRAL.0>
6.00299

>  <SCORE.INTRA.POLAR>
0

>  <SCORE.INTRA.POLAR.0>
0

>  <SCORE.INTRA.REPUL>
0

>  <SCORE.INTRA.REPUL.0>
0

>  <SCORE.INTRA.SOLV>
0.397919

>  <SCORE.INTRA.SOLV.lig_0>
-39.3257

>  <SCORE.INTRA.VDW>
-0.219658

>  <SCORE.INTRA.VDW.0>
-0.734044

>  <SCORE.INTRA.norm>
-0.186102

>  <SCORE.RESTR>
0

>  <SCORE.RESTR.CAVITY>
0

>  <SCORE.RESTR.norm>
0

>  <SCORE.SYSTEM>
0

>  <SCORE.SYSTEM.CONST>
0

>  <SCORE.SYSTEM.DIHEDRAL>
0

>  <SCORE.SYSTEM.SOLV>
0

>  <SCORE.SYSTEM.norm>
0

>  <SCORE.heavy>
10

>  <SCORE.norm>
-0.604036

>  <RMSD>
5.348

$$$$
ligand
 OpenBabel11021811473D
libRbt.so/2013.1/901 2013/11/27
 10  9  0  0  0  0  0  0  0  0999 V2000
   28.9524   14.9348   19.5451 N   0  0  0  0  0  0  0  0  0  0  0  0
   28.7087   14.8543   20.9732 C   0  0  2  0  0  0  0  0  0  0  0  0
   27.2316   14.8861   21.2617 C   0  0  0  0  0  0  0  0  0  0  0  0
   26.8419   14.8019   22.4531 O   0  0  0  0  0  0  0  0  0  0  0  0
   29.4119   16.0090   21.6735 C   0  0  0  0  0  0  0  0  0  0  0  0
   30.8162   15.8887   21.4612 O   0  0  0  0  0  0  0  0  0  0  0  0
   31.4525   16.9687   22.1441 C   0  0  0  0  0  0  0  0  0  0  0  0
   32.9571   16.8688   21.9020 C   0  0  0  0  0  0  0  0  0  0  0  0
   33.6360   17.9995   22.5108 N   0  0  0  0  0  0  0  0  0  0  0  0
   26.5217   15.4642   20.4142 O   0  0  0  0  0  0  0  0  0  0  0  0
  2  1  1  6  0  0  0
  2  5  1  0  0  0  0
  2  3  1  0  0  0  0
  3  4  1  0  0  0  0
  3 10  1  0  0  0  0
  5  6  1  0  0  0  0
  6  7  1  0  0  0  0
  7  8  1  0  0  0  0
  8  9  1  0  0  0  0
M  END
>  <CHROM.1>
-62.30391732,178.78740123,-179.09227948,-178.87986360,176.40864575,29.61066643
15.86155303,21.43879469,-2.86840316,0.31918010,1.28545653

>  <Name>
ligand

>  <RI>
0

>  <Rbt.Current_Directory>
/home/itssahil/PROJECTS/Mol_Feturizer/New_Systems/rnas/3DJ0

>  <Rbt.Executable>
rbdock ($Id: //depot/dev/client3/rdock/2013.1/src/exe/rbdock.cxx#4 $)

>  <Rbt.Library>
libRbt.so (2013.1, Build901 2013/11/27)

>  <Rbt.Parameter_File>
/export/apps/rDock/src/rDock_2013.1_src/data/scripts/dock_solv.prm

>  <Rbt.Receptor>
prm/pocket_docking_5.prm

>  <SCORE>
-7.96873

>  <SCORE.INTER>
-5.85707

>  <SCORE.INTER.CONST>
1

>  <SCORE.INTER.POLAR>
0

>  <SCORE.INTER.ROT>
5

>  <SCORE.INTER.SOLV>
17.8077

>  <SCORE.INTER.VDW>
-16.774

>  <SCORE.INTER.norm>
-0.585707

>  <SCORE.INTRA>
-2.11166

>  <SCORE.INTRA.DIHEDRAL>
-3.81742

>  <SCORE.INTRA.DIHEDRAL.0>
6.00299

>  <SCORE.INTRA.POLAR>
0

>  <SCORE.INTRA.POLAR.0>
0

>  <SCORE.INTRA.REPUL>
0

>  <SCORE.INTRA.REPUL.0>
0

>  <SCORE.INTRA.SOLV>
-0.742278

>  <SCORE.INTRA.SOLV.lig_0>
-39.3257

>  <SCORE.INTRA.VDW>
0.168191

>  <SCORE.INTRA.VDW.0>
-0.734044

>  <SCORE.INTRA.norm>
-0.211166

>  <SCORE.RESTR>
0

>  <SCORE.RESTR.CAVITY>
0

>  <SCORE.RESTR.norm>
0

>  <SCORE.SYSTEM>
0

>  <SCORE.SYSTEM.CONST>
0

>  <SCORE.SYSTEM.DIHEDRAL>
0

>  <SCORE.SYSTEM.SOLV>
0

>  <SCORE.SYSTEM.norm>
0

>  <SCORE.heavy>
10

>  <SCORE.norm>
-0.796873

>  <RMSD>
5.350

$$$$
ligand
 OpenBabel11021811473D
libRbt.so/2013.1/901 2013/11/27
 10  9  0  0  0  0  0  0  0  0999 V2000
   28.7254   16.6820   19.6306 N   0  0  0  0  0  0  0  0  0  0  0  0
   28.9727   15.4249   20.3117 C   0  0  2  0  0  0  0  0  0  0  0  0
   27.6761   14.7255   20.6213 C   0  0  0  0  0  0  0  0  0  0  0  0
   26.8636   15.2704   21.4096 O   0  0  0  0  0  0  0  0  0  0  0  0
   29.7541   15.6869   21.5920 C   0  0  0  0  0  0  0  0  0  0  0  0
   31.0193   16.2481   21.2515 O   0  0  0  0  0  0  0  0  0  0  0  0
   31.6794   16.6000   22.4673 C   0  0  0  0  0  0  0  0  0  0  0  0
   33.0153   17.2514   22.1163 C   0  0  0  0  0  0  0  0  0  0  0  0
   33.6173   17.8267   23.3065 N   0  0  0  0  0  0  0  0  0  0  0  0
   27.2630   13.9310   19.7529 O   0  0  0  0  0  0  0  0  0  0  0  0
  2  1  1  1  0  0  0
  2  5  1  0  0  0  0
  2  3  1  0  0  0  0
  3  4  1  0  0  0  0
  3 10  1  0  0  0  0
  5  6  1  0  0  0  0
  6  7  1  0  0  0  0
  7  8  1  0  0  0  0
  8  9  1  0  0  0  0
M  END
>  <CHROM.1>
-62.70531200,-63.74057964,174.64634006,-177.89970733,170.44592596,29.81908455
15.94330738,21.23868072,-2.84322142,0.47036222,1.71216059

>  <Name>
ligand

>  <RI>
0

>  <Rbt.Current_Directory>
/home/itssahil/PROJECTS/Mol_Feturizer/New_Systems/rnas/3DJ0

>  <Rbt.Executable>
rbdock ($Id: //depot/dev/client3/rdock/2013.1/src/exe/rbdock.cxx#4 $)

>  <Rbt.Library>
libRbt.so (2013.1, Build901 2013/11/27)

>  <Rbt.Parameter_File>
/export/apps/rDock/src/rDock_2013.1_src/data/scripts/dock_solv.prm

>  <Rbt.Receptor>
prm/pocket_docking_6.prm

>  <SCORE>
-5.38541

>  <SCORE.INTER>
-3.3297

>  <SCORE.INTER.CONST>
1

>  <SCORE.INTER.POLAR>
0

>  <SCORE.INTER.ROT>
5

>  <SCORE.INTER.SOLV>
19.8547

>  <SCORE.INTER.VDW>
-15.7714

>  <SCORE.INTER.norm>
-0.33297

>  <SCORE.INTRA>
-2.05571

>  <SCORE.INTRA.DIHEDRAL>
-3.33217

>  <SCORE.INTRA.DIHEDRAL.0>
6.00299

>  <SCORE.INTRA.POLAR>
0

>  <SCORE.INTRA.POLAR.0>
0

>  <SCORE.INTRA.REPUL>
0

>  <SCORE.INTRA.REPUL.0>
0

>  <SCORE.INTRA.SOLV>
-0.639891

>  <SCORE.INTRA.SOLV.lig_0>
-39.3257

>  <SCORE.INTRA.VDW>
-0.0696831

>  <SCORE.INTRA.VDW.0>
-0.734044

>  <SCORE.INTRA.norm>
-0.205571

>  <SCORE.RESTR>
0

>  <SCORE.RESTR.CAVITY>
0

>  <SCORE.RESTR.norm>
0

>  <SCORE.SYSTEM>
0

>  <SCORE.SYSTEM.CONST>
0

>  <SCORE.SYSTEM.DIHEDRAL>
0

>  <SCORE.SYSTEM.SOLV>
0

>  <SCORE.SYSTEM.norm>
0

>  <SCORE.heavy>
10

>  <SCORE.norm>
-0.538541

>  <RMSD>
5.350

$$$$
ligand
 OpenBabel11021811473D
libRbt.so/2013.1/901 2013/11/27
 10  9  0  0  0  0  0  0  0  0999 V2000
   26.1241   14.9919   20.9156 N   0  0  0  0  0  0  0  0  0  0  0  0
   27.4714   15.4381   20.6139 C   0  0  2  0  0  0  0  0  0  0  0  0
   27.9626   14.8143   19.3349 C   0  0  0  0  0  0  0  0  0  0  0  0
   27.4734   13.7178   18.9652 O   0  0  0  0  0  0  0  0  0  0  0  0
   28.3953   15.0786   21.7695 C   0  0  0  0  0  0  0  0  0  0  0  0
   29.6906   15.6116   21.5054 O   0  0  0  0  0  0  0  0  0  0  0  0
   30.5202   15.3126   22.6279 C   0  0  0  0  0  0  0  0  0  0  0  0
   31.8823   15.9662   22.4049 C   0  0  0  0  0  0  0  0  0  0  0  0
   31.7378   17.4102   22.3417 N   0  0  0  0  0  0  0  0  0  0  0  0
   28.4364   15.6007   18.4903 O   0  0  0  0  0  0  0  0  0  0  0  0
  2  1  1  1  0  0  0
  2  5  1  0  0  0  0
  2  3  1  0  0  0  0
  3  4  1  0  0  0  0
  3 10  1  0  0  0  0
  5  6  1  0  0  0  0
  6  7  1  0  0  0  0
  7  8  1  0  0  0  0
  8  9  1  0  0  0  0
M  END
>  <CHROM.1>
-175.62590727,-25.41401752,177.48417757,-175.89314428,62.77559105,28.96904803
15.38058229,20.85857894,2.53720248,-0.34512730,-1.63120940

>  <Name>
ligand

>  <RI>
0

>  <Rbt.Current_Directory>
/home/itssahil/PROJECTS/Mol_Feturizer/New_Systems/rnas/3DJ0

>  <Rbt.Executable>
rbdock ($Id: //depot/dev/client3/rdock/2013.1/src/exe/rbdock.cxx#4 $)

>  <Rbt.Library>
libRbt.so (2013.1, Build901 2013/11/27)

>  <Rbt.Parameter_File>
/export/apps/rDock/src/rDock_2013.1_src/data/scripts/dock_solv.prm

>  <Rbt.Receptor>
prm/pocket_docking_6.prm

>  <SCORE>
-7.81474

>  <SCORE.INTER>
-5.73284

>  <SCORE.INTER.CONST>
1

>  <SCORE.INTER.POLAR>
0

>  <SCORE.INTER.ROT>
5

>  <SCORE.INTER.SOLV>
20.2708

>  <SCORE.INTER.VDW>
-17.5122

>  <SCORE.INTER.norm>
-0.573284

>  <SCORE.INTRA>
-2.08189

>  <SCORE.INTRA.DIHEDRAL>
-3.53476

>  <SCORE.INTRA.DIHEDRAL.0>
6.00299

>  <SCORE.INTRA.POLAR>
0

>  <SCORE.INTRA.POLAR.0>
0

>  <SCORE.INTRA.REPUL>
0

>  <SCORE.INTRA.REPUL.0>
0

>  <SCORE.INTRA.SOLV>
-0.195641

>  <SCORE.INTRA.SOLV.lig_0>
-39.3257

>  <SCORE.INTRA.VDW>
-0.21669

>  <SCORE.INTRA.VDW.0>
-0.734044

>  <SCORE.INTRA.norm>
-0.208189

>  <SCORE.RESTR>
0

>  <SCORE.RESTR.CAVITY>
0

>  <SCORE.RESTR.norm>
0

>  <SCORE.SYSTEM>
0

>  <SCORE.SYSTEM.CONST>
0

>  <SCORE.SYSTEM.DIHEDRAL>
0

>  <SCORE.SYSTEM.SOLV>
0

>  <SCORE.SYSTEM.norm>
0

>  <SCORE.heavy>
10

>  <SCORE.norm>
-0.781474

>  <RMSD>
5.352

$$$$
ligand
 OpenBabel11021811473D
libRbt.so/2013.1/901 2013/11/27
 10  9  0  0  0  0  0  0  0  0999 V2000
   26.1775   14.8858   21.1301 N   0  0  0  0  0  0  0  0  0  0  0  0
   27.4471   15.3988   20.6504 C   0  0  2  0  0  0  0  0  0  0  0  0
   27.7186   14.9174   19.2501 C   0  0  0  0  0  0  0  0  0  0  0  0
   28.5961   15.5000   18.5654 O   0  0  0  0  0  0  0  0  0  0  0  0
   28.5606   14.9559   21.5898 C   0  0  0  0  0  0  0  0  0  0  0  0
   29.7581   15.6454   21.2404 O   0  0  0  0  0  0  0  0  0  0  0  0
   30.8020   15.1561   22.0822 C   0  0  0  0  0  0  0  0  0  0  0  0
   32.0650   15.9669   21.8001 C   0  0  0  0  0  0  0  0  0  0  0  0
   31.8755   17.3457   22.2160 N   0  0  0  0  0  0  0  0  0  0  0  0
   27.4402   13.7235   19.0192 O   0  0  0  0  0  0  0  0  0  0  0  0
  2  1  1  1  0  0  0
  2  5  1  0  0  0  0
  2  3  1  0  0  0  0
  3  4  1  0  0  0  0
  3 10  1  0  0  0  0
  5  6  1  0  0  0  0
  6  7  1  0  0  0  0
  7  8  1  0  0  0  0
  8  9  1  0  0  0  0
M  END
>  <CHROM.1>
-170.33295433,163.43110783,-176.66201086,-175.35960314,66.21828222,29.04621265
15.33586603,20.71829478,2.63380325,-0.30400000,-1.69482872

>  <Name>
ligand

>  <RI>
0

>  <Rbt.Current_Directory>
/home/itssahil/PROJECTS/Mol_Feturizer/New_Systems/rnas/3DJ0

>  <Rbt.Executable>
rbdock ($Id: //depot/dev/client3/rdock/2013.1/src/exe/rbdock.cxx#4 $)

>  <Rbt.Library>
libRbt.so (2013.1, Build901 2013/11/27)

>  <Rbt.Parameter_File>
/export/apps/rDock/src/rDock_2013.1_src/data/scripts/dock_solv.prm

>  <Rbt.Receptor>
prm/blind_docking_60.prm

>  <SCORE>
-7.49553

>  <SCORE.INTER>
-5.72497

>  <SCORE.INTER.CONST>
1

>  <SCORE.INTER.POLAR>
0

>  <SCORE.INTER.ROT>
5

>  <SCORE.INTER.SOLV>
20.1029

>  <SCORE.INTER.VDW>
-17.4509

>  <SCORE.INTER.norm>
-0.572497

>  <SCORE.INTRA>
-1.77055

>  <SCORE.INTRA.DIHEDRAL>
-2.97422

>  <SCORE.INTRA.DIHEDRAL.0>
6.00299

>  <SCORE.INTRA.POLAR>
0

>  <SCORE.INTRA.POLAR.0>
0

>  <SCORE.INTRA.REPUL>
0

>  <SCORE.INTRA.REPUL.0>
0

>  <SCORE.INTRA.SOLV>
-0.174456

>  <SCORE.INTRA.SOLV.lig_0>
-39.3257

>  <SCORE.INTRA.VDW>
-0.196216

>  <SCORE.INTRA.VDW.0>
-0.734044

>  <SCORE.INTRA.norm>
-0.177055

>  <SCORE.RESTR>
0

>  <SCORE.RESTR.CAVITY>
0

>  <SCORE.RESTR.norm>
0

>  <SCORE.SYSTEM>
0

>  <SCORE.SYSTEM.CONST>
0

>  <SCORE.SYSTEM.DIHEDRAL>
0

>  <SCORE.SYSTEM.SOLV>
0

>  <SCORE.SYSTEM.norm>
0

>  <SCORE.heavy>
10

>  <SCORE.norm>
-0.749553

>  <RMSD>
5.353

$$$$
ligand
 OpenBabel11021811473D
libRbt.so/2013.1/901 2013/11/27
 10  9  0  0  0  0  0  0  0  0999 V2000
   28.4132   15.4074   19.4519 N   0  0  0  0  0  0  0  0  0  0  0  0
   28.4956   14.9843   20.8374 C   0  0  2  0  0  0  0  0  0  0  0  0
   27.1602   15.1301   21.5167 C   0  0  0  0  0  0  0  0  0  0  0  0
   26.1131   14.9554   20.8448 O   0  0  0  0  0  0  0  0  0  0  0  0
   29.5516   15.8112   21.5582 C   0  0  0  0  0  0  0  0  0  0  0  0
   30.7973   15.6551   20.8833 O   0  0  0  0  0  0  0  0  0  0  0  0
   31.7768   16.4058   21.6008 C   0  0  0  0  0  0  0  0  0  0  0  0
   33.1010   16.3108   20.8462 C   0  0  0  0  0  0  0  0  0  0  0  0
   34.1348   17.0400   21.5599 N   0  0  0  0  0  0  0  0  0  0  0  0
   27.1493   14.9329   22.7484 O   0  0  0  0  0  0  0  0  0  0  0  0
  2  1  1  6  0  0  0
  2  5  1  0  0  0  0
  2  3  1  0  0  0  0
  3  4  1  0  0  0  0
  3 10  1  0  0  0  0
  5  6  1  0  0  0  0
  6  7  1  0  0  0  0
  7  8  1  0  0  0  0
  8  9  1  0  0  0  0
M  END
>  <CHROM.1>
-57.62566734,32.79981391,-178.25927099,-176.92182060,-178.79947337,29.62686864
15.65181314,21.19768855,-3.13773053,0.24908088,1.53464734

>  <Name>
ligand

>  <RI>
0

>  <Rbt.Current_Directory>
/home/itssahil/PROJECTS/Mol_Feturizer/New_Systems/rnas/3DJ0

>  <Rbt.Executable>
rbdock ($Id: //depot/dev/client3/rdock/2013.1/src/exe/rbdock.cxx#4 $)

>  <Rbt.Library>
libRbt.so (2013.1, Build901 2013/11/27)

>  <Rbt.Parameter_File>
/export/apps/rDock/src/rDock_2013.1_src/data/scripts/dock_solv.prm

>  <Rbt.Receptor>
prm/pocket_docking_3.prm

>  <SCORE>
-7.2868

>  <SCORE.INTER>
-5.59825

>  <SCORE.INTER.CONST>
1

>  <SCORE.INTER.POLAR>
0

>  <SCORE.INTER.ROT>
5

>  <SCORE.INTER.SOLV>
19.1779

>  <SCORE.INTER.VDW>
-17.0581

>  <SCORE.INTER.norm>
-0.559825

>  <SCORE.INTRA>
-1.68855

>  <SCORE.INTRA.DIHEDRAL>
-3.31415

>  <SCORE.INTRA.DIHEDRAL.0>
6.00299

>  <SCORE.INTRA.POLAR>
0

>  <SCORE.INTRA.POLAR.0>
0

>  <SCORE.INTRA.REPUL>
0

>  <SCORE.INTRA.REPUL.0>
0

>  <SCORE.INTRA.SOLV>
-0.767386

>  <SCORE.INTRA.SOLV.lig_0>
-39.3257

>  <SCORE.INTRA.VDW>
0.352221

>  <SCORE.INTRA.VDW.0>
-0.734044

>  <SCORE.INTRA.norm>
-0.168855

>  <SCORE.RESTR>
0

>  <SCORE.RESTR.CAVITY>
0

>  <SCORE.RESTR.norm>
0

>  <SCORE.SYSTEM>
0

>  <SCORE.SYSTEM.CONST>
0

>  <SCORE.SYSTEM.DIHEDRAL>
0

>  <SCORE.SYSTEM.SOLV>
0

>  <SCORE.SYSTEM.norm>
0

>  <SCORE.heavy>
10

>  <SCORE.norm>
-0.72868

>  <RMSD>
5.353

$$$$
ligand
 OpenBabel11021811473D
libRbt.so/2013.1/901 2013/11/27
 10  9  0  0  0  0  0  0  0  0999 V2000
   26.1737   14.9435   21.0221 N   0  0  0  0  0  0  0  0  0  0  0  0
   27.4957   15.4302   20.6745 C   0  0  2  0  0  0  0  0  0  0  0  0
   27.9639   14.8164   19.3822 C   0  0  0  0  0  0  0  0  0  0  0  0
   27.4200   13.7582   18.9786 O   0  0  0  0  0  0  0  0  0  0  0  0
   28.4681   15.1051   21.8002 C   0  0  0  0  0  0  0  0  0  0  0  0
   29.7081   15.7576   21.5392 O   0  0  0  0  0  0  0  0  0  0  0  0
   30.6236   15.3765   22.5661 C   0  0  0  0  0  0  0  0  0  0  0  0
   31.9557   16.0760   22.3044 C   0  0  0  0  0  0  0  0  0  0  0  0
   31.8051   17.5117   22.4667 N   0  0  0  0  0  0  0  0  0  0  0  0
   28.4861   15.5991   18.5632 O   0  0  0  0  0  0  0  0  0  0  0  0
  2  1  1  1  0  0  0
  2  5  1  0  0  0  0
  2  3  1  0  0  0  0
  3  4  1  0  0  0  0
  3 10  1  0  0  0  0
  5  6  1  0  0  0  0
  6  7  1  0  0  0  0
  7  8  1  0  0  0  0
  8  9  1  0  0  0  0
M  END
>  <CHROM.1>
-171.47523155,-19.71789369,-176.76044304,-179.63614834,66.35614369,29.00854693
15.42521523,20.89133292,2.54821775,-0.35123896,-1.65949540

>  <Name>
ligand

>  <RI>
0

>  <Rbt.Current_Directory>
/home/itssahil/PROJECTS/Mol_Feturizer/New_Systems/rnas/3DJ0

>  <Rbt.Executable>
rbdock ($Id: //depot/dev/client3/rdock/2013.1/src/exe/rbdock.cxx#4 $)

>  <Rbt.Library>
libRbt.so (2013.1, Build901 2013/11/27)

>  <Rbt.Parameter_File>
/export/apps/rDock/src/rDock_2013.1_src/data/scripts/dock_solv.prm

>  <Rbt.Receptor>
prm/pocket_docking_6.prm

>  <SCORE>
-7.79376

>  <SCORE.INTER>
-5.81963

>  <SCORE.INTER.CONST>
1

>  <SCORE.INTER.POLAR>
0

>  <SCORE.INTER.ROT>
5

>  <SCORE.INTER.SOLV>
20.3956

>  <SCORE.INTER.VDW>
-17.6116

>  <SCORE.INTER.norm>
-0.581963

>  <SCORE.INTRA>
-1.97413

>  <SCORE.INTRA.DIHEDRAL>
-3.16862

>  <SCORE.INTRA.DIHEDRAL.0>
6.00299

>  <SCORE.INTRA.POLAR>
0

>  <SCORE.INTRA.POLAR.0>
0

>  <SCORE.INTRA.REPUL>
0

>  <SCORE.INTRA.REPUL.0>
0

>  <SCORE.INTRA.SOLV>
-0.274311

>  <SCORE.INTRA.SOLV.lig_0>
-39.3257

>  <SCORE.INTRA.VDW>
-0.252666

>  <SCORE.INTRA.VDW.0>
-0.734044

>  <SCORE.INTRA.norm>
-0.197413

>  <SCORE.RESTR>
0

>  <SCORE.RESTR.CAVITY>
0

>  <SCORE.RESTR.norm>
0

>  <SCORE.SYSTEM>
0

>  <SCORE.SYSTEM.CONST>
0

>  <SCORE.SYSTEM.DIHEDRAL>
0

>  <SCORE.SYSTEM.SOLV>
0

>  <SCORE.SYSTEM.norm>
0

>  <SCORE.heavy>
10

>  <SCORE.norm>
-0.779376

>  <RMSD>
5.355

$$$$
ligand
 OpenBabel11021811473D
libRbt.so/2013.1/901 2013/11/27
 10  9  0  0  0  0  0  0  0  0999 V2000
   29.0719   14.8143   19.6665 N   0  0  0  0  0  0  0  0  0  0  0  0
   28.7278   14.8513   21.0756 C   0  0  2  0  0  0  0  0  0  0  0  0
   27.2343   14.9065   21.2555 C   0  0  0  0  0  0  0  0  0  0  0  0
   26.7562   14.8042   22.4128 O   0  0  0  0  0  0  0  0  0  0  0  0
   29.3865   16.0597   21.7269 C   0  0  0  0  0  0  0  0  0  0  0  0
   30.8015   15.9235   21.6230 O   0  0  0  0  0  0  0  0  0  0  0  0
   31.3945   17.0545   22.2610 C   0  0  0  0  0  0  0  0  0  0  0  0
   32.9118   16.9341   22.1369 C   0  0  0  0  0  0  0  0  0  0  0  0
   33.5560   18.0638   22.7840 N   0  0  0  0  0  0  0  0  0  0  0  0
   26.5997   15.5170   20.3719 O   0  0  0  0  0  0  0  0  0  0  0  0
  2  1  1  6  0  0  0
  2  5  1  0  0  0  0
  2  3  1  0  0  0  0
  3  4  1  0  0  0  0
  3 10  1  0  0  0  0
  5  6  1  0  0  0  0
  6  7  1  0  0  0  0
  7  8  1  0  0  0  0
  8  9  1  0  0  0  0
M  END
>  <CHROM.1>
-62.21731853,172.71478972,-178.96702620,-179.06108660,-179.57488285,29.60146110
15.88729266,21.53405717,-2.80459902,0.29711823,1.20375881

>  <Name>
ligand

>  <RI>
0

>  <Rbt.Current_Directory>
/home/itssahil/PROJECTS/Mol_Feturizer/New_Systems/rnas/3DJ0

>  <Rbt.Executable>
rbdock ($Id: //depot/dev/client3/rdock/2013.1/src/exe/rbdock.cxx#4 $)

>  <Rbt.Library>
libRbt.so (2013.1, Build901 2013/11/27)

>  <Rbt.Parameter_File>
/export/apps/rDock/src/rDock_2013.1_src/data/scripts/dock_solv.prm

>  <Rbt.Receptor>
prm/pocket_docking_7.prm

>  <SCORE>
-8.02288

>  <SCORE.INTER>
-5.84467

>  <SCORE.INTER.CONST>
1

>  <SCORE.INTER.POLAR>
0

>  <SCORE.INTER.ROT>
5

>  <SCORE.INTER.SOLV>
17.8949

>  <SCORE.INTER.VDW>
-16.7947

>  <SCORE.INTER.norm>
-0.584467

>  <SCORE.INTRA>
-2.1782

>  <SCORE.INTRA.DIHEDRAL>
-3.77153

>  <SCORE.INTRA.DIHEDRAL.0>
6.00299

>  <SCORE.INTRA.POLAR>
0

>  <SCORE.INTRA.POLAR.0>
0

>  <SCORE.INTRA.REPUL>
0

>  <SCORE.INTRA.REPUL.0>
0

>  <SCORE.INTRA.SOLV>
-0.762903

>  <SCORE.INTRA.SOLV.lig_0>
-39.3257

>  <SCORE.INTRA.VDW>
0.0890132

>  <SCORE.INTRA.VDW.0>
-0.734044

>  <SCORE.INTRA.norm>
-0.21782

>  <SCORE.RESTR>
0

>  <SCORE.RESTR.CAVITY>
0

>  <SCORE.RESTR.norm>
0

>  <SCORE.SYSTEM>
0

>  <SCORE.SYSTEM.CONST>
0

>  <SCORE.SYSTEM.DIHEDRAL>
0

>  <SCORE.SYSTEM.SOLV>
0

>  <SCORE.SYSTEM.norm>
0

>  <SCORE.heavy>
10

>  <SCORE.norm>
-0.802288

>  <RMSD>
5.356

$$$$
ligand
 OpenBabel11021811473D
libRbt.so/2013.1/901 2013/11/27
 10  9  0  0  0  0  0  0  0  0999 V2000
   29.0094   15.0892   19.5662 N   0  0  0  0  0  0  0  0  0  0  0  0
   28.7284   14.9468   20.9826 C   0  0  2  0  0  0  0  0  0  0  0  0
   27.2436   14.9381   21.2303 C   0  0  0  0  0  0  0  0  0  0  0  0
   26.8232   14.7964   22.4057 O   0  0  0  0  0  0  0  0  0  0  0  0
   29.3881   16.0861   21.7476 C   0  0  0  0  0  0  0  0  0  0  0  0
   30.8008   15.9934   21.5821 O   0  0  0  0  0  0  0  0  0  0  0  0
   31.3945   17.0680   22.3104 C   0  0  0  0  0  0  0  0  0  0  0  0
   32.9095   16.9851   22.1370 C   0  0  0  0  0  0  0  0  0  0  0  0
   33.5534   18.0719   22.8542 N   0  0  0  0  0  0  0  0  0  0  0  0
   26.5456   15.5376   20.3879 O   0  0  0  0  0  0  0  0  0  0  0  0
  2  1  1  6  0  0  0
  2  5  1  0  0  0  0
  2  3  1  0  0  0  0
  3  4  1  0  0  0  0
  3 10  1  0  0  0  0
  5  6  1  0  0  0  0
  6  7  1  0  0  0  0
  7  8  1  0  0  0  0
  8  9  1  0  0  0  0
M  END
>  <CHROM.1>
-62.92024064,178.67332704,-179.83926777,-179.75344638,179.45516710,29.59730473
15.94431214,21.52374952,-2.82981582,0.32579076,1.31764737

>  <Name>
ligand

>  <RI>
0

>  <Rbt.Current_Directory>
/home/itssahil/PROJECTS/Mol_Feturizer/New_Systems/rnas/3DJ0

>  <Rbt.Executable>
rbdock ($Id: //depot/dev/client3/rdock/2013.1/src/exe/rbdock.cxx#4 $)

>  <Rbt.Library>
libRbt.so (2013.1, Build901 2013/11/27)

>  <Rbt.Parameter_File>
/export/apps/rDock/src/rDock_2013.1_src/data/scripts/dock_solv.prm

>  <Rbt.Receptor>
prm/pocket_docking_6.prm

>  <SCORE>
-8.02436

>  <SCORE.INTER>
-5.88382

>  <SCORE.INTER.CONST>
1

>  <SCORE.INTER.POLAR>
0

>  <SCORE.INTER.ROT>
5

>  <SCORE.INTER.SOLV>
17.5996

>  <SCORE.INTER.VDW>
-16.7224

>  <SCORE.INTER.norm>
-0.588382

>  <SCORE.INTRA>
-2.14054

>  <SCORE.INTRA.DIHEDRAL>
-3.86206

>  <SCORE.INTRA.DIHEDRAL.0>
6.00299

>  <SCORE.INTRA.POLAR>
0

>  <SCORE.INTRA.POLAR.0>
0

>  <SCORE.INTRA.REPUL>
0

>  <SCORE.INTRA.REPUL.0>
0

>  <SCORE.INTRA.SOLV>
-0.746349

>  <SCORE.INTRA.SOLV.lig_0>
-39.3257

>  <SCORE.INTRA.VDW>
0.163667

>  <SCORE.INTRA.VDW.0>
-0.734044

>  <SCORE.INTRA.norm>
-0.214054

>  <SCORE.RESTR>
0

>  <SCORE.RESTR.CAVITY>
0

>  <SCORE.RESTR.norm>
0

>  <SCORE.SYSTEM>
0

>  <SCORE.SYSTEM.CONST>
0

>  <SCORE.SYSTEM.DIHEDRAL>
0

>  <SCORE.SYSTEM.SOLV>
0

>  <SCORE.SYSTEM.norm>
0

>  <SCORE.heavy>
10

>  <SCORE.norm>
-0.802436

>  <RMSD>
5.358

$$$$
ligand
 OpenBabel11021811473D
libRbt.so/2013.1/901 2013/11/27
 10  9  0  0  0  0  0  0  0  0999 V2000
   29.0074   15.0363   19.5657 N   0  0  0  0  0  0  0  0  0  0  0  0
   28.7198   14.9206   20.9832 C   0  0  2  0  0  0  0  0  0  0  0  0
   27.2339   14.9219   21.2246 C   0  0  0  0  0  0  0  0  0  0  0  0
   26.8078   14.7909   22.3992 O   0  0  0  0  0  0  0  0  0  0  0  0
   29.3806   16.0710   21.7303 C   0  0  0  0  0  0  0  0  0  0  0  0
   30.7931   15.9748   21.5659 O   0  0  0  0  0  0  0  0  0  0  0  0
   31.3875   17.0636   22.2724 C   0  0  0  0  0  0  0  0  0  0  0  0
   32.9021   16.9798   22.0956 C   0  0  0  0  0  0  0  0  0  0  0  0
   33.5472   18.0753   22.7984 N   0  0  0  0  0  0  0  0  0  0  0  0
   26.5429   15.5192   20.3750 O   0  0  0  0  0  0  0  0  0  0  0  0
  2  1  1  6  0  0  0
  2  5  1  0  0  0  0
  2  3  1  0  0  0  0
  3  4  1  0  0  0  0
  3 10  1  0  0  0  0
  5  6  1  0  0  0  0
  6  7  1  0  0  0  0
  7  8  1  0  0  0  0
  8  9  1  0  0  0  0
M  END
>  <CHROM.1>
-62.56912664,178.03410595,179.90824268,-179.55400412,179.84986253,29.58987559
15.92852940,21.50446304,-2.82984249,0.32446055,1.29919408

>  <Name>
ligand

>  <RI>
0

>  <Rbt.Current_Directory>
/home/itssahil/PROJECTS/Mol_Feturizer/New_Systems/rnas/3DJ0

>  <Rbt.Executable>
rbdock ($Id: //depot/dev/client3/rdock/2013.1/src/exe/rbdock.cxx#4 $)

>  <Rbt.Library>
libRbt.so (2013.1, Build901 2013/11/27)

>  <Rbt.Parameter_File>
/export/apps/rDock/src/rDock_2013.1_src/data/scripts/dock_solv.prm

>  <Rbt.Receptor>
prm/pocket_docking_5.prm

>  <SCORE>
-8.06473

>  <SCORE.INTER>
-5.91578

>  <SCORE.INTER.CONST>
1

>  <SCORE.INTER.POLAR>
0

>  <SCORE.INTER.ROT>
5

>  <SCORE.INTER.SOLV>
17.6365

>  <SCORE.INTER.VDW>
-16.756

>  <SCORE.INTER.norm>
-0.591578

>  <SCORE.INTRA>
-2.14896

>  <SCORE.INTRA.DIHEDRAL>
-3.86033

>  <SCORE.INTRA.DIHEDRAL.0>
6.00299

>  <SCORE.INTRA.POLAR>
0

>  <SCORE.INTRA.POLAR.0>
0

>  <SCORE.INTRA.REPUL>
0

>  <SCORE.INTRA.REPUL.0>
0

>  <SCORE.INTRA.SOLV>
-0.744326

>  <SCORE.INTRA.SOLV.lig_0>
-39.3257

>  <SCORE.INTRA.VDW>
0.153368

>  <SCORE.INTRA.VDW.0>
-0.734044

>  <SCORE.INTRA.norm>
-0.214896

>  <SCORE.RESTR>
0

>  <SCORE.RESTR.CAVITY>
0

>  <SCORE.RESTR.norm>
0

>  <SCORE.SYSTEM>
0

>  <SCORE.SYSTEM.CONST>
0

>  <SCORE.SYSTEM.DIHEDRAL>
0

>  <SCORE.SYSTEM.SOLV>
0

>  <SCORE.SYSTEM.norm>
0

>  <SCORE.heavy>
10

>  <SCORE.norm>
-0.806473

>  <RMSD>
5.359

$$$$
ligand
 OpenBabel11021811473D
libRbt.so/2013.1/901 2013/11/27
 10  9  0  0  0  0  0  0  0  0999 V2000
   26.0857   14.9725   21.0178 N   0  0  0  0  0  0  0  0  0  0  0  0
   27.4194   15.4502   20.7039 C   0  0  2  0  0  0  0  0  0  0  0  0
   27.9072   14.8504   19.4123 C   0  0  0  0  0  0  0  0  0  0  0  0
   27.3672   13.7986   18.9873 O   0  0  0  0  0  0  0  0  0  0  0  0
   28.3655   15.0984   21.8439 C   0  0  0  0  0  0  0  0  0  0  0  0
   29.6343   15.6956   21.5891 O   0  0  0  0  0  0  0  0  0  0  0  0
   30.5143   15.3127   22.6460 C   0  0  0  0  0  0  0  0  0  0  0  0
   31.8597   15.9996   22.4220 C   0  0  0  0  0  0  0  0  0  0  0  0
   31.6908   17.4423   22.4333 N   0  0  0  0  0  0  0  0  0  0  0  0
   28.4450   15.6412   18.6113 O   0  0  0  0  0  0  0  0  0  0  0  0
  2  1  1  1  0  0  0
  2  5  1  0  0  0  0
  2  3  1  0  0  0  0
  3  4  1  0  0  0  0
  3 10  1  0  0  0  0
  5  6  1  0  0  0  0
  6  7  1  0  0  0  0
  7  8  1  0  0  0  0
  8  9  1  0  0  0  0
M  END
>  <CHROM.1>
-173.87858821,-20.23139452,-178.00344885,-177.33641457,60.44048590,28.92829110
15.41415623,20.92837497,2.54767311,-0.34674650,-1.62954891

>  <Name>
ligand

>  <RI>
0

>  <Rbt.Current_Directory>
/home/itssahil/PROJECTS/Mol_Feturizer/New_Systems/rnas/3DJ0

>  <Rbt.Executable>
rbdock ($Id: //depot/dev/client3/rdock/2013.1/src/exe/rbdock.cxx#4 $)

>  <Rbt.Library>
libRbt.so (2013.1, Build901 2013/11/27)

>  <Rbt.Parameter_File>
/export/apps/rDock/src/rDock_2013.1_src/data/scripts/dock_solv.prm

>  <Rbt.Receptor>
prm/pocket_docking_7.prm

>  <SCORE>
-7.8618

>  <SCORE.INTER>
-5.81949

>  <SCORE.INTER.CONST>
1

>  <SCORE.INTER.POLAR>
0

>  <SCORE.INTER.ROT>
5

>  <SCORE.INTER.SOLV>
20.439

>  <SCORE.INTER.VDW>
-17.626

>  <SCORE.INTER.norm>
-0.581949

>  <SCORE.INTRA>
-2.04231

>  <SCORE.INTRA.DIHEDRAL>
-3.45283

>  <SCORE.INTRA.DIHEDRAL.0>
6.00299

>  <SCORE.INTRA.POLAR>
0

>  <SCORE.INTRA.POLAR.0>
0

>  <SCORE.INTRA.REPUL>
0

>  <SCORE.INTRA.REPUL.0>
0

>  <SCORE.INTRA.SOLV>
-0.174

>  <SCORE.INTRA.SOLV.lig_0>
-39.3257

>  <SCORE.INTRA.VDW>
-0.228893

>  <SCORE.INTRA.VDW.0>
-0.734044

>  <SCORE.INTRA.norm>
-0.204231

>  <SCORE.RESTR>
0

>  <SCORE.RESTR.CAVITY>
0

>  <SCORE.RESTR.norm>
0

>  <SCORE.SYSTEM>
0

>  <SCORE.SYSTEM.CONST>
0

>  <SCORE.SYSTEM.DIHEDRAL>
0

>  <SCORE.SYSTEM.SOLV>
0

>  <SCORE.SYSTEM.norm>
0

>  <SCORE.heavy>
10

>  <SCORE.norm>
-0.78618

>  <RMSD>
5.359

$$$$
ligand
 OpenBabel11021811473D
libRbt.so/2013.1/901 2013/11/27
 10  9  0  0  0  0  0  0  0  0999 V2000
   26.0725   15.0186   20.9361 N   0  0  0  0  0  0  0  0  0  0  0  0
   27.4190   15.4655   20.6319 C   0  0  2  0  0  0  0  0  0  0  0  0
   27.9285   14.8007   19.3810 C   0  0  0  0  0  0  0  0  0  0  0  0
   27.3553   13.7623   18.9667 O   0  0  0  0  0  0  0  0  0  0  0  0
   28.3341   15.1556   21.8087 C   0  0  0  0  0  0  0  0  0  0  0  0
   29.6205   15.7121   21.5496 O   0  0  0  0  0  0  0  0  0  0  0  0
   30.4805   15.3369   22.6254 C   0  0  0  0  0  0  0  0  0  0  0  0
   31.8409   15.9943   22.4033 C   0  0  0  0  0  0  0  0  0  0  0  0
   31.7061   17.4403   22.4308 N   0  0  0  0  0  0  0  0  0  0  0  0
   28.5360   15.5381   18.5790 O   0  0  0  0  0  0  0  0  0  0  0  0
  2  1  1  1  0  0  0
  2  5  1  0  0  0  0
  2  3  1  0  0  0  0
  3  4  1  0  0  0  0
  3 10  1  0  0  0  0
  5  6  1  0  0  0  0
  6  7  1  0  0  0  0
  7  8  1  0  0  0  0
  8  9  1  0  0  0  0
M  END
>  <CHROM.1>
-174.54259743,-17.79952854,-176.41907245,-176.72294982,62.55792637,28.92944838
15.40908617,20.89335747,2.52215710,-0.31418053,-1.69402833

>  <Name>
ligand

>  <RI>
0

>  <Rbt.Current_Directory>
/home/itssahil/PROJECTS/Mol_Feturizer/New_Systems/rnas/3DJ0

>  <Rbt.Executable>
rbdock ($Id: //depot/dev/client3/rdock/2013.1/src/exe/rbdock.cxx#4 $)

>  <Rbt.Library>
libRbt.so (2013.1, Build901 2013/11/27)

>  <Rbt.Parameter_File>
/export/apps/rDock/src/rDock_2013.1_src/data/scripts/dock_solv.prm

>  <Rbt.Receptor>
prm/pocket_docking_7.prm

>  <SCORE>
-7.7332

>  <SCORE.INTER>
-5.76109

>  <SCORE.INTER.CONST>
1

>  <SCORE.INTER.POLAR>
0

>  <SCORE.INTER.ROT>
5

>  <SCORE.INTER.SOLV>
20.3141

>  <SCORE.INTER.VDW>
-17.5454

>  <SCORE.INTER.norm>
-0.576109

>  <SCORE.INTRA>
-1.97211

>  <SCORE.INTRA.DIHEDRAL>
-3.34487

>  <SCORE.INTRA.DIHEDRAL.0>
6.00299

>  <SCORE.INTRA.POLAR>
0

>  <SCORE.INTRA.POLAR.0>
0

>  <SCORE.INTRA.REPUL>
0

>  <SCORE.INTRA.REPUL.0>
0

>  <SCORE.INTRA.SOLV>
-0.188118

>  <SCORE.INTRA.SOLV.lig_0>
-39.3257

>  <SCORE.INTRA.VDW>
-0.205619

>  <SCORE.INTRA.VDW.0>
-0.734044

>  <SCORE.INTRA.norm>
-0.197211

>  <SCORE.RESTR>
0

>  <SCORE.RESTR.CAVITY>
0

>  <SCORE.RESTR.norm>
0

>  <SCORE.SYSTEM>
0

>  <SCORE.SYSTEM.CONST>
0

>  <SCORE.SYSTEM.DIHEDRAL>
0

>  <SCORE.SYSTEM.SOLV>
0

>  <SCORE.SYSTEM.norm>
0

>  <SCORE.heavy>
10

>  <SCORE.norm>
-0.77332

>  <RMSD>
5.359

$$$$
ligand
 OpenBabel11021811473D
libRbt.so/2013.1/901 2013/11/27
 10  9  0  0  0  0  0  0  0  0999 V2000
   28.9495   15.1670   19.5150 N   0  0  0  0  0  0  0  0  0  0  0  0
   28.7078   14.9605   20.9307 C   0  0  2  0  0  0  0  0  0  0  0  0
   27.2303   14.9322   21.2178 C   0  0  0  0  0  0  0  0  0  0  0  0
   26.8433   14.8055   22.4063 O   0  0  0  0  0  0  0  0  0  0  0  0
   29.3828   16.0687   21.7274 C   0  0  0  0  0  0  0  0  0  0  0  0
   30.7905   15.9940   21.5167 O   0  0  0  0  0  0  0  0  0  0  0  0
   31.3975   17.0487   22.2631 C   0  0  0  0  0  0  0  0  0  0  0  0
   32.9036   17.0073   22.0135 C   0  0  0  0  0  0  0  0  0  0  0  0
   33.5602   18.0737   22.7495 N   0  0  0  0  0  0  0  0  0  0  0  0
   26.5006   15.5045   20.3835 O   0  0  0  0  0  0  0  0  0  0  0  0
  2  1  1  6  0  0  0
  2  5  1  0  0  0  0
  2  3  1  0  0  0  0
  3  4  1  0  0  0  0
  3 10  1  0  0  0  0
  5  6  1  0  0  0  0
  6  7  1  0  0  0  0
  7  8  1  0  0  0  0
  8  9  1  0  0  0  0
M  END
>  <CHROM.1>
-62.75275298,-177.68317436,179.48374026,-178.31869645,179.59244210,29.58437637
15.94872638,21.47648459,-2.85463787,0.33802352,1.35313559

>  <Name>
ligand

>  <RI>
0

>  <Rbt.Current_Directory>
/home/itssahil/PROJECTS/Mol_Feturizer/New_Systems/rnas/3DJ0

>  <Rbt.Executable>
rbdock ($Id: //depot/dev/client3/rdock/2013.1/src/exe/rbdock.cxx#4 $)

>  <Rbt.Library>
libRbt.so (2013.1, Build901 2013/11/27)

>  <Rbt.Parameter_File>
/export/apps/rDock/src/rDock_2013.1_src/data/scripts/dock_solv.prm

>  <Rbt.Receptor>
prm/pocket_docking_3.prm

>  <SCORE>
-8.02283

>  <SCORE.INTER>
-5.94638

>  <SCORE.INTER.CONST>
1

>  <SCORE.INTER.POLAR>
0

>  <SCORE.INTER.ROT>
5

>  <SCORE.INTER.SOLV>
17.5934

>  <SCORE.INTER.VDW>
-16.7621

>  <SCORE.INTER.norm>
-0.594638

>  <SCORE.INTRA>
-2.07645

>  <SCORE.INTRA.DIHEDRAL>
-3.89493

>  <SCORE.INTRA.DIHEDRAL.0>
6.00299

>  <SCORE.INTRA.POLAR>
0

>  <SCORE.INTRA.POLAR.0>
0

>  <SCORE.INTRA.REPUL>
0

>  <SCORE.INTRA.REPUL.0>
0

>  <SCORE.INTRA.SOLV>
-0.726427

>  <SCORE.INTRA.SOLV.lig_0>
-39.3257

>  <SCORE.INTRA.VDW>
0.234225

>  <SCORE.INTRA.VDW.0>
-0.734044

>  <SCORE.INTRA.norm>
-0.207645

>  <SCORE.RESTR>
0

>  <SCORE.RESTR.CAVITY>
0

>  <SCORE.RESTR.norm>
0

>  <SCORE.SYSTEM>
0

>  <SCORE.SYSTEM.CONST>
0

>  <SCORE.SYSTEM.DIHEDRAL>
0

>  <SCORE.SYSTEM.SOLV>
0

>  <SCORE.SYSTEM.norm>
0

>  <SCORE.heavy>
10

>  <SCORE.norm>
-0.802283

>  <RMSD>
5.360

$$$$
ligand
 OpenBabel11021811473D
libRbt.so/2013.1/901 2013/11/27
 10  9  0  0  0  0  0  0  0  0999 V2000
   28.9533   15.1493   19.5416 N   0  0  0  0  0  0  0  0  0  0  0  0
   28.7126   14.9578   20.9596 C   0  0  2  0  0  0  0  0  0  0  0  0
   27.2353   14.9281   21.2474 C   0  0  0  0  0  0  0  0  0  0  0  0
   26.8490   14.8037   22.4363 O   0  0  0  0  0  0  0  0  0  0  0  0
   29.3843   16.0770   21.7436 C   0  0  0  0  0  0  0  0  0  0  0  0
   30.7910   16.0127   21.5227 O   0  0  0  0  0  0  0  0  0  0  0  0
   31.3980   17.0569   22.2836 C   0  0  0  0  0  0  0  0  0  0  0  0
   32.9083   16.9919   22.0672 C   0  0  0  0  0  0  0  0  0  0  0  0
   33.5626   18.0661   22.7939 N   0  0  0  0  0  0  0  0  0  0  0  0
   26.5044   15.4974   20.4120 O   0  0  0  0  0  0  0  0  0  0  0  0
  2  1  1  6  0  0  0
  2  5  1  0  0  0  0
  2  3  1  0  0  0  0
  3  4  1  0  0  0  0
  3 10  1  0  0  0  0
  5  6  1  0  0  0  0
  6  7  1  0  0  0  0
  7  8  1  0  0  0  0
  8  9  1  0  0  0  0
M  END
>  <CHROM.1>
-62.17313384,-178.19605675,-179.10813716,179.45622015,178.26872621,29.58765029
15.94685790,21.50463124,-2.85049220,0.33625154,1.34683954

>  <Name>
ligand

>  <RI>
0

>  <Rbt.Current_Directory>
/home/itssahil/PROJECTS/Mol_Feturizer/New_Systems/rnas/3DJ0

>  <Rbt.Executable>
rbdock ($Id: //depot/dev/client3/rdock/2013.1/src/exe/rbdock.cxx#4 $)

>  <Rbt.Library>
libRbt.so (2013.1, Build901 2013/11/27)

>  <Rbt.Parameter_File>
/export/apps/rDock/src/rDock_2013.1_src/data/scripts/dock_solv.prm

>  <Rbt.Receptor>
prm/pocket_docking_4.prm

>  <SCORE>
-8.05433

>  <SCORE.INTER>
-5.96753

>  <SCORE.INTER.CONST>
1

>  <SCORE.INTER.POLAR>
0

>  <SCORE.INTER.ROT>
5

>  <SCORE.INTER.SOLV>
17.5804

>  <SCORE.INTER.VDW>
-16.7718

>  <SCORE.INTER.norm>
-0.596753

>  <SCORE.INTRA>
-2.08679

>  <SCORE.INTRA.DIHEDRAL>
-3.89852

>  <SCORE.INTRA.DIHEDRAL.0>
6.00299

>  <SCORE.INTRA.POLAR>
0

>  <SCORE.INTRA.POLAR.0>
0

>  <SCORE.INTRA.REPUL>
0

>  <SCORE.INTRA.REPUL.0>
0

>  <SCORE.INTRA.SOLV>
-0.728974

>  <SCORE.INTRA.SOLV.lig_0>
-39.3257

>  <SCORE.INTRA.VDW>
0.226953

>  <SCORE.INTRA.VDW.0>
-0.734044

>  <SCORE.INTRA.norm>
-0.208679

>  <SCORE.RESTR>
0

>  <SCORE.RESTR.CAVITY>
0

>  <SCORE.RESTR.norm>
0

>  <SCORE.SYSTEM>
0

>  <SCORE.SYSTEM.CONST>
0

>  <SCORE.SYSTEM.DIHEDRAL>
0

>  <SCORE.SYSTEM.SOLV>
0

>  <SCORE.SYSTEM.norm>
0

>  <SCORE.heavy>
10

>  <SCORE.norm>
-0.805433

>  <RMSD>
5.360

$$$$
ligand
 OpenBabel11021811473D
libRbt.so/2013.1/901 2013/11/27
 10  9  0  0  0  0  0  0  0  0999 V2000
   28.9974   15.0350   19.5726 N   0  0  0  0  0  0  0  0  0  0  0  0
   28.7159   14.9240   20.9917 C   0  0  2  0  0  0  0  0  0  0  0  0
   27.2311   14.9258   21.2396 C   0  0  0  0  0  0  0  0  0  0  0  0
   26.8100   14.7940   22.4159 O   0  0  0  0  0  0  0  0  0  0  0  0
   29.3797   16.0771   21.7321 C   0  0  0  0  0  0  0  0  0  0  0  0
   30.7918   15.9786   21.5646 O   0  0  0  0  0  0  0  0  0  0  0  0
   31.3895   17.0648   22.2723 C   0  0  0  0  0  0  0  0  0  0  0  0
   32.9039   16.9760   22.0962 C   0  0  0  0  0  0  0  0  0  0  0  0
   33.5525   18.0677   22.8017 N   0  0  0  0  0  0  0  0  0  0  0  0
   26.5367   15.5243   20.3935 O   0  0  0  0  0  0  0  0  0  0  0  0
  2  1  1  6  0  0  0
  2  5  1  0  0  0  0
  2  3  1  0  0  0  0
  3  4  1  0  0  0  0
  3 10  1  0  0  0  0
  5  6  1  0  0  0  0
  6  7  1  0  0  0  0
  7  8  1  0  0  0  0
  8  9  1  0  0  0  0
M  END
>  <CHROM.1>
-62.71440365,177.78819391,-179.71057283,-179.74034589,179.92284592,29.58851763
15.93000302,21.51154261,-2.83245473,0.32371665,1.29968109

>  <Name>
ligand

>  <RI>
0

>  <Rbt.Current_Directory>
/home/itssahil/PROJECTS/Mol_Feturizer/New_Systems/rnas/3DJ0

>  <Rbt.Executable>
rbdock ($Id: //depot/dev/client3/rdock/2013.1/src/exe/rbdock.cxx#4 $)

>  <Rbt.Library>
libRbt.so (2013.1, Build901 2013/11/27)

>  <Rbt.Parameter_File>
/export/apps/rDock/src/rDock_2013.1_src/data/scripts/dock_solv.prm

>  <Rbt.Receptor>
prm/pocket_docking_7.prm

>  <SCORE>
-8.05815

>  <SCORE.INTER>
-5.90531

>  <SCORE.INTER.CONST>
1

>  <SCORE.INTER.POLAR>
0

>  <SCORE.INTER.ROT>
5

>  <SCORE.INTER.SOLV>
17.6253

>  <SCORE.INTER.VDW>
-16.7453

>  <SCORE.INTER.norm>
-0.590531

>  <SCORE.INTRA>
-2.15284

>  <SCORE.INTRA.DIHEDRAL>
-3.8545

>  <SCORE.INTRA.DIHEDRAL.0>
6.00299

>  <SCORE.INTRA.POLAR>
0

>  <SCORE.INTRA.POLAR.0>
0

>  <SCORE.INTRA.REPUL>
0

>  <SCORE.INTRA.REPUL.0>
0

>  <SCORE.INTRA.SOLV>
-0.748514

>  <SCORE.INTRA.SOLV.lig_0>
-39.3257

>  <SCORE.INTRA.VDW>
0.148669

>  <SCORE.INTRA.VDW.0>
-0.734044

>  <SCORE.INTRA.norm>
-0.215284

>  <SCORE.RESTR>
0

>  <SCORE.RESTR.CAVITY>
0

>  <SCORE.RESTR.norm>
0

>  <SCORE.SYSTEM>
0

>  <SCORE.SYSTEM.CONST>
0

>  <SCORE.SYSTEM.DIHEDRAL>
0

>  <SCORE.SYSTEM.SOLV>
0

>  <SCORE.SYSTEM.norm>
0

>  <SCORE.heavy>
10

>  <SCORE.norm>
-0.805815

>  <RMSD>
5.360

$$$$
ligand
 OpenBabel11021811473D
libRbt.so/2013.1/901 2013/11/27
 10  9  0  0  0  0  0  0  0  0999 V2000
   28.9982   15.0186   19.5661 N   0  0  0  0  0  0  0  0  0  0  0  0
   28.7117   14.9093   20.9844 C   0  0  2  0  0  0  0  0  0  0  0  0
   27.2260   14.9135   21.2270 C   0  0  0  0  0  0  0  0  0  0  0  0
   26.8013   14.8196   22.4056 O   0  0  0  0  0  0  0  0  0  0  0  0
   29.3745   16.0622   21.7260 C   0  0  0  0  0  0  0  0  0  0  0  0
   30.7876   15.9551   21.5730 O   0  0  0  0  0  0  0  0  0  0  0  0
   31.3845   17.0394   22.2842 C   0  0  0  0  0  0  0  0  0  0  0  0
   32.8998   16.9441   22.1198 C   0  0  0  0  0  0  0  0  0  0  0  0
   33.5460   18.0501   22.8047 N   0  0  0  0  0  0  0  0  0  0  0  0
   26.5322   15.4804   20.3590 O   0  0  0  0  0  0  0  0  0  0  0  0
  2  1  1  6  0  0  0
  2  5  1  0  0  0  0
  2  3  1  0  0  0  0
  3  4  1  0  0  0  0
  3 10  1  0  0  0  0
  5  6  1  0  0  0  0
  6  7  1  0  0  0  0
  7  8  1  0  0  0  0
  8  9  1  0  0  0  0
M  END
>  <CHROM.1>
-63.20389655,179.68514663,-179.57600092,-179.54764951,178.68771738,29.58377310
15.91258543,21.50822315,-2.82495619,0.31764805,1.29156357

>  <Name>
ligand

>  <RI>
0

>  <Rbt.Current_Directory>
/home/itssahil/PROJECTS/Mol_Feturizer/New_Systems/rnas/3DJ0

>  <Rbt.Executable>
rbdock ($Id: //depot/dev/client3/rdock/2013.1/src/exe/rbdock.cxx#4 $)

>  <Rbt.Library>
libRbt.so (2013.1, Build901 2013/11/27)

>  <Rbt.Parameter_File>
/export/apps/rDock/src/rDock_2013.1_src/data/scripts/dock_solv.prm

>  <Rbt.Receptor>
prm/pocket_docking_3.prm

>  <SCORE>
-8.03811

>  <SCORE.INTER>
-5.91524

>  <SCORE.INTER.CONST>
1

>  <SCORE.INTER.POLAR>
0

>  <SCORE.INTER.ROT>
5

>  <SCORE.INTER.SOLV>
17.6589

>  <SCORE.INTER.VDW>
-16.7631

>  <SCORE.INTER.norm>
-0.591524

>  <SCORE.INTRA>
-2.12288

>  <SCORE.INTRA.DIHEDRAL>
-3.86251

>  <SCORE.INTRA.DIHEDRAL.0>
6.00299

>  <SCORE.INTRA.POLAR>
0

>  <SCORE.INTRA.POLAR.0>
0

>  <SCORE.INTRA.REPUL>
0

>  <SCORE.INTRA.REPUL.0>
0

>  <SCORE.INTRA.SOLV>
-0.746094

>  <SCORE.INTRA.SOLV.lig_0>
-39.3257

>  <SCORE.INTRA.VDW>
0.181426

>  <SCORE.INTRA.VDW.0>
-0.734044

>  <SCORE.INTRA.norm>
-0.212288

>  <SCORE.RESTR>
0

>  <SCORE.RESTR.CAVITY>
0

>  <SCORE.RESTR.norm>
0

>  <SCORE.SYSTEM>
0

>  <SCORE.SYSTEM.CONST>
0

>  <SCORE.SYSTEM.DIHEDRAL>
0

>  <SCORE.SYSTEM.SOLV>
0

>  <SCORE.SYSTEM.norm>
0

>  <SCORE.heavy>
10

>  <SCORE.norm>
-0.803811

>  <RMSD>
5.361

$$$$
ligand
 OpenBabel11021811473D
libRbt.so/2013.1/901 2013/11/27
 10  9  0  0  0  0  0  0  0  0999 V2000
   26.1609   14.9384   21.0342 N   0  0  0  0  0  0  0  0  0  0  0  0
   27.4821   15.4272   20.6867 C   0  0  2  0  0  0  0  0  0  0  0  0
   27.9393   14.8362   19.3798 C   0  0  0  0  0  0  0  0  0  0  0  0
   27.4246   13.7604   18.9849 O   0  0  0  0  0  0  0  0  0  0  0  0
   28.4610   15.0775   21.7993 C   0  0  0  0  0  0  0  0  0  0  0  0
   29.6993   15.7364   21.5460 O   0  0  0  0  0  0  0  0  0  0  0  0
   30.6044   15.3753   22.5890 C   0  0  0  0  0  0  0  0  0  0  0  0
   31.9329   16.0854   22.3380 C   0  0  0  0  0  0  0  0  0  0  0  0
   31.7506   17.5246   22.4123 N   0  0  0  0  0  0  0  0  0  0  0  0
   28.4113   15.6410   18.5517 O   0  0  0  0  0  0  0  0  0  0  0  0
  2  1  1  1  0  0  0
  2  5  1  0  0  0  0
  2  3  1  0  0  0  0
  3  4  1  0  0  0  0
  3 10  1  0  0  0  0
  5  6  1  0  0  0  0
  6  7  1  0  0  0  0
  7  8  1  0  0  0  0
  8  9  1  0  0  0  0
M  END
>  <CHROM.1>
-171.16723936,-22.39304740,-179.05259976,-179.45885805,63.31221447,28.98499706
15.42816067,20.89370221,2.55852465,-0.37134696,-1.62340236

>  <Name>
ligand

>  <RI>
0

>  <Rbt.Current_Directory>
/home/itssahil/PROJECTS/Mol_Feturizer/New_Systems/rnas/3DJ0

>  <Rbt.Executable>
rbdock ($Id: //depot/dev/client3/rdock/2013.1/src/exe/rbdock.cxx#4 $)

>  <Rbt.Library>
libRbt.so (2013.1, Build901 2013/11/27)

>  <Rbt.Parameter_File>
/export/apps/rDock/src/rDock_2013.1_src/data/scripts/dock_solv.prm

>  <Rbt.Receptor>
prm/pocket_docking_4.prm

>  <SCORE>
-7.84194

>  <SCORE.INTER>
-5.80856

>  <SCORE.INTER.CONST>
1

>  <SCORE.INTER.POLAR>
0

>  <SCORE.INTER.ROT>
5

>  <SCORE.INTER.SOLV>
20.5575

>  <SCORE.INTER.VDW>
-17.6582

>  <SCORE.INTER.norm>
-0.580856

>  <SCORE.INTRA>
-2.03736

>  <SCORE.INTRA.DIHEDRAL>
-3.36094

>  <SCORE.INTRA.DIHEDRAL.0>
6.00299

>  <SCORE.INTRA.POLAR>
0

>  <SCORE.INTRA.POLAR.0>
0

>  <SCORE.INTRA.REPUL>
0

>  <SCORE.INTRA.REPUL.0>
0

>  <SCORE.INTRA.SOLV>
-0.241913

>  <SCORE.INTRA.SOLV.lig_0>
-39.3257

>  <SCORE.INTRA.VDW>
-0.23593

>  <SCORE.INTRA.VDW.0>
-0.734044

>  <SCORE.INTRA.norm>
-0.203736

>  <SCORE.RESTR>
0.00397736

>  <SCORE.RESTR.CAVITY>
0.00397736

>  <SCORE.RESTR.norm>
0.000397736

>  <SCORE.SYSTEM>
0

>  <SCORE.SYSTEM.CONST>
0

>  <SCORE.SYSTEM.DIHEDRAL>
0

>  <SCORE.SYSTEM.SOLV>
0

>  <SCORE.SYSTEM.norm>
0

>  <SCORE.heavy>
10

>  <SCORE.norm>
-0.784194

>  <RMSD>
5.361

$$$$
ligand
 OpenBabel11021811473D
libRbt.so/2013.1/901 2013/11/27
 10  9  0  0  0  0  0  0  0  0999 V2000
   28.9980   15.0454   19.5702 N   0  0  0  0  0  0  0  0  0  0  0  0
   28.7121   14.9239   20.9875 C   0  0  2  0  0  0  0  0  0  0  0  0
   27.2265   14.9254   21.2308 C   0  0  0  0  0  0  0  0  0  0  0  0
   26.8019   14.7995   22.4065 O   0  0  0  0  0  0  0  0  0  0  0  0
   29.3748   16.0706   21.7387 C   0  0  0  0  0  0  0  0  0  0  0  0
   30.7875   15.9688   21.5794 O   0  0  0  0  0  0  0  0  0  0  0  0
   31.3840   17.0513   22.2937 C   0  0  0  0  0  0  0  0  0  0  0  0
   32.9001   16.9473   22.1431 C   0  0  0  0  0  0  0  0  0  0  0  0
   33.5458   18.0561   22.8241 N   0  0  0  0  0  0  0  0  0  0  0  0
   26.5341   15.5185   20.3793 O   0  0  0  0  0  0  0  0  0  0  0  0
  2  1  1  6  0  0  0
  2  5  1  0  0  0  0
  2  3  1  0  0  0  0
  3  4  1  0  0  0  0
  3 10  1  0  0  0  0
  5  6  1  0  0  0  0
  6  7  1  0  0  0  0
  7  8  1  0  0  0  0
  8  9  1  0  0  0  0
M  END
>  <CHROM.1>
-62.94706586,178.54587330,-179.88717637,179.45545579,178.31216040,29.58409164
15.92396720,21.51862605,-2.82789864,0.32033521,1.30384516

>  <Name>
ligand

>  <RI>
0

>  <Rbt.Current_Directory>
/home/itssahil/PROJECTS/Mol_Feturizer/New_Systems/rnas/3DJ0

>  <Rbt.Executable>
rbdock ($Id: //depot/dev/client3/rdock/2013.1/src/exe/rbdock.cxx#4 $)

>  <Rbt.Library>
libRbt.so (2013.1, Build901 2013/11/27)

>  <Rbt.Parameter_File>
/export/apps/rDock/src/rDock_2013.1_src/data/scripts/dock_solv.prm

>  <Rbt.Receptor>
prm/pocket_docking_6.prm

>  <SCORE>
-8.04435

>  <SCORE.INTER>
-5.90777

>  <SCORE.INTER.CONST>
1

>  <SCORE.INTER.POLAR>
0

>  <SCORE.INTER.ROT>
5

>  <SCORE.INTER.SOLV>
17.6246

>  <SCORE.INTER.VDW>
-16.7467

>  <SCORE.INTER.norm>
-0.590777

>  <SCORE.INTRA>
-2.13657

>  <SCORE.INTRA.DIHEDRAL>
-3.84903

>  <SCORE.INTRA.DIHEDRAL.0>
6.00299

>  <SCORE.INTRA.POLAR>
0

>  <SCORE.INTRA.POLAR.0>
0

>  <SCORE.INTRA.REPUL>
0

>  <SCORE.INTRA.REPUL.0>
0

>  <SCORE.INTRA.SOLV>
-0.746775

>  <SCORE.INTRA.SOLV.lig_0>
-39.3257

>  <SCORE.INTRA.VDW>
0.161327

>  <SCORE.INTRA.VDW.0>
-0.734044

>  <SCORE.INTRA.norm>
-0.213657

>  <SCORE.RESTR>
0

>  <SCORE.RESTR.CAVITY>
0

>  <SCORE.RESTR.norm>
0

>  <SCORE.SYSTEM>
0

>  <SCORE.SYSTEM.CONST>
0

>  <SCORE.SYSTEM.DIHEDRAL>
0

>  <SCORE.SYSTEM.SOLV>
0

>  <SCORE.SYSTEM.norm>
0

>  <SCORE.heavy>
10

>  <SCORE.norm>
-0.804435

>  <RMSD>
5.361

$$$$
ligand
 OpenBabel11021811473D
libRbt.so/2013.1/901 2013/11/27
 10  9  0  0  0  0  0  0  0  0999 V2000
   28.9592   15.1723   19.5214 N   0  0  0  0  0  0  0  0  0  0  0  0
   28.7122   14.9659   20.9362 C   0  0  2  0  0  0  0  0  0  0  0  0
   27.2337   14.9348   21.2174 C   0  0  0  0  0  0  0  0  0  0  0  0
   26.8422   14.7906   22.4024 O   0  0  0  0  0  0  0  0  0  0  0  0
   29.3818   16.0758   21.7351 C   0  0  0  0  0  0  0  0  0  0  0  0
   30.7910   16.0005   21.5345 O   0  0  0  0  0  0  0  0  0  0  0  0
   31.3932   17.0542   22.2860 C   0  0  0  0  0  0  0  0  0  0  0  0
   32.9045   16.9893   22.0764 C   0  0  0  0  0  0  0  0  0  0  0  0
   33.5546   18.0695   22.7979 N   0  0  0  0  0  0  0  0  0  0  0  0
   26.5076   15.5203   20.3890 O   0  0  0  0  0  0  0  0  0  0  0  0
  2  1  1  6  0  0  0
  2  5  1  0  0  0  0
  2  3  1  0  0  0  0
  3  4  1  0  0  0  0
  3 10  1  0  0  0  0
  5  6  1  0  0  0  0
  6  7  1  0  0  0  0
  7  8  1  0  0  0  0
  8  9  1  0  0  0  0
M  END
>  <CHROM.1>
-62.98946511,-178.58618209,179.66169630,-179.79133484,178.49357194,29.58575543
15.94987184,21.49353759,-2.84868784,0.33667014,1.35658635

>  <Name>
ligand

>  <RI>
0

>  <Rbt.Current_Directory>
/home/itssahil/PROJECTS/Mol_Feturizer/New_Systems/rnas/3DJ0

>  <Rbt.Executable>
rbdock ($Id: //depot/dev/client3/rdock/2013.1/src/exe/rbdock.cxx#4 $)

>  <Rbt.Library>
libRbt.so (2013.1, Build901 2013/11/27)

>  <Rbt.Parameter_File>
/export/apps/rDock/src/rDock_2013.1_src/data/scripts/dock_solv.prm

>  <Rbt.Receptor>
prm/pocket_docking_8.prm

>  <SCORE>
-8.03829

>  <SCORE.INTER>
-5.9436

>  <SCORE.INTER.CONST>
1

>  <SCORE.INTER.POLAR>
0

>  <SCORE.INTER.ROT>
5

>  <SCORE.INTER.SOLV>
17.5937

>  <SCORE.INTER.VDW>
-16.7603

>  <SCORE.INTER.norm>
-0.59436

>  <SCORE.INTRA>
-2.09469

>  <SCORE.INTRA.DIHEDRAL>
-3.88695

>  <SCORE.INTRA.DIHEDRAL.0>
6.00299

>  <SCORE.INTRA.POLAR>
0

>  <SCORE.INTRA.POLAR.0>
0

>  <SCORE.INTRA.REPUL>
0

>  <SCORE.INTRA.REPUL.0>
0

>  <SCORE.INTRA.SOLV>
-0.73322

>  <SCORE.INTRA.SOLV.lig_0>
-39.3257

>  <SCORE.INTRA.VDW>
0.215396

>  <SCORE.INTRA.VDW.0>
-0.734044

>  <SCORE.INTRA.norm>
-0.209469

>  <SCORE.RESTR>
0

>  <SCORE.RESTR.CAVITY>
0

>  <SCORE.RESTR.norm>
0

>  <SCORE.SYSTEM>
0

>  <SCORE.SYSTEM.CONST>
0

>  <SCORE.SYSTEM.DIHEDRAL>
0

>  <SCORE.SYSTEM.SOLV>
0

>  <SCORE.SYSTEM.norm>
0

>  <SCORE.heavy>
10

>  <SCORE.norm>
-0.803829

>  <RMSD>
5.361

$$$$
ligand
 OpenBabel11021811473D
libRbt.so/2013.1/901 2013/11/27
 10  9  0  0  0  0  0  0  0  0999 V2000
   28.9418   15.1365   19.5481 N   0  0  0  0  0  0  0  0  0  0  0  0
   28.7028   14.9586   20.9682 C   0  0  2  0  0  0  0  0  0  0  0  0
   27.2259   14.9331   21.2583 C   0  0  0  0  0  0  0  0  0  0  0  0
   26.8412   14.8100   22.4479 O   0  0  0  0  0  0  0  0  0  0  0  0
   29.3768   16.0844   21.7407 C   0  0  0  0  0  0  0  0  0  0  0  0
   30.7854   16.0009   21.5394 O   0  0  0  0  0  0  0  0  0  0  0  0
   31.3920   17.0679   22.2683 C   0  0  0  0  0  0  0  0  0  0  0  0
   32.9038   16.9863   22.0684 C   0  0  0  0  0  0  0  0  0  0  0  0
   33.5598   18.0696   22.7798 N   0  0  0  0  0  0  0  0  0  0  0  0
   26.4953   15.5042   20.4240 O   0  0  0  0  0  0  0  0  0  0  0  0
  2  1  1  6  0  0  0
  2  5  1  0  0  0  0
  2  3  1  0  0  0  0
  3  4  1  0  0  0  0
  3 10  1  0  0  0  0
  5  6  1  0  0  0  0
  6  7  1  0  0  0  0
  7  8  1  0  0  0  0
  8  9  1  0  0  0  0
M  END
>  <CHROM.1>
-63.29282573,-178.73340754,179.78671075,179.67709262,179.15645962,29.58024317
15.94787258,21.50846828,-2.85152086,0.33450932,1.34096987

>  <Name>
ligand

>  <RI>
0

>  <Rbt.Current_Directory>
/home/itssahil/PROJECTS/Mol_Feturizer/New_Systems/rnas/3DJ0

>  <Rbt.Executable>
rbdock ($Id: //depot/dev/client3/rdock/2013.1/src/exe/rbdock.cxx#4 $)

>  <Rbt.Library>
libRbt.so (2013.1, Build901 2013/11/27)

>  <Rbt.Parameter_File>
/export/apps/rDock/src/rDock_2013.1_src/data/scripts/dock_solv.prm

>  <Rbt.Receptor>
prm/pocket_docking_3.prm

>  <SCORE>
-8.06441

>  <SCORE.INTER>
-5.96485

>  <SCORE.INTER.CONST>
1

>  <SCORE.INTER.POLAR>
0

>  <SCORE.INTER.ROT>
5

>  <SCORE.INTER.SOLV>
17.5792

>  <SCORE.INTER.VDW>
-16.7696

>  <SCORE.INTER.norm>
-0.596485

>  <SCORE.INTRA>
-2.09956

>  <SCORE.INTRA.DIHEDRAL>
-3.88457

>  <SCORE.INTRA.DIHEDRAL.0>
6.00299

>  <SCORE.INTRA.POLAR>
0

>  <SCORE.INTRA.POLAR.0>
0

>  <SCORE.INTRA.REPUL>
0

>  <SCORE.INTRA.REPUL.0>
0

>  <SCORE.INTRA.SOLV>
-0.737561

>  <SCORE.INTRA.SOLV.lig_0>
-39.3257

>  <SCORE.INTRA.VDW>
0.211508

>  <SCORE.INTRA.VDW.0>
-0.734044

>  <SCORE.INTRA.norm>
-0.209956

>  <SCORE.RESTR>
0

>  <SCORE.RESTR.CAVITY>
0

>  <SCORE.RESTR.norm>
0

>  <SCORE.SYSTEM>
0

>  <SCORE.SYSTEM.CONST>
0

>  <SCORE.SYSTEM.DIHEDRAL>
0

>  <SCORE.SYSTEM.SOLV>
0

>  <SCORE.SYSTEM.norm>
0

>  <SCORE.heavy>
10

>  <SCORE.norm>
-0.806441

>  <RMSD>
5.362

$$$$
ligand
 OpenBabel11021811473D
libRbt.so/2013.1/901 2013/11/27
 10  9  0  0  0  0  0  0  0  0999 V2000
   29.0152   14.9660   19.5751 N   0  0  0  0  0  0  0  0  0  0  0  0
   28.7080   14.8881   20.9911 C   0  0  2  0  0  0  0  0  0  0  0  0
   27.2192   14.9082   21.2125 C   0  0  0  0  0  0  0  0  0  0  0  0
   26.7765   14.8075   22.3840 O   0  0  0  0  0  0  0  0  0  0  0  0
   29.3691   16.0512   21.7181 C   0  0  0  0  0  0  0  0  0  0  0  0
   30.7834   15.9293   21.5896 O   0  0  0  0  0  0  0  0  0  0  0  0
   31.3784   17.0249   22.2848 C   0  0  0  0  0  0  0  0  0  0  0  0
   32.8952   16.9143   22.1454 C   0  0  0  0  0  0  0  0  0  0  0  0
   33.5397   18.0344   22.8087 N   0  0  0  0  0  0  0  0  0  0  0  0
   26.5449   15.4923   20.3406 O   0  0  0  0  0  0  0  0  0  0  0  0
  2  1  1  6  0  0  0
  2  5  1  0  0  0  0
  2  3  1  0  0  0  0
  3  4  1  0  0  0  0
  3 10  1  0  0  0  0
  5  6  1  0  0  0  0
  6  7  1  0  0  0  0
  7  8  1  0  0  0  0
  8  9  1  0  0  0  0
M  END
>  <CHROM.1>
-63.31353119,177.89895464,-179.66944832,-179.51320490,178.39306686,29.58050428
15.89529330,21.50796887,-2.81641235,0.30939171,1.27362356

>  <Name>
ligand

>  <RI>
0

>  <Rbt.Current_Directory>
/home/itssahil/PROJECTS/Mol_Feturizer/New_Systems/rnas/3DJ0

>  <Rbt.Executable>
rbdock ($Id: //depot/dev/client3/rdock/2013.1/src/exe/rbdock.cxx#4 $)

>  <Rbt.Library>
libRbt.so (2013.1, Build901 2013/11/27)

>  <Rbt.Parameter_File>
/export/apps/rDock/src/rDock_2013.1_src/data/scripts/dock_solv.prm

>  <Rbt.Receptor>
prm/pocket_docking_3.prm

>  <SCORE>
-8.02203

>  <SCORE.INTER>
-5.8769

>  <SCORE.INTER.CONST>
1

>  <SCORE.INTER.POLAR>
0

>  <SCORE.INTER.ROT>
5

>  <SCORE.INTER.SOLV>
17.731

>  <SCORE.INTER.VDW>
-16.7616

>  <SCORE.INTER.norm>
-0.58769

>  <SCORE.INTRA>
-2.14513

>  <SCORE.INTRA.DIHEDRAL>
-3.83281

>  <SCORE.INTRA.DIHEDRAL.0>
6.00299

>  <SCORE.INTRA.POLAR>
0

>  <SCORE.INTRA.POLAR.0>
0

>  <SCORE.INTRA.REPUL>
0

>  <SCORE.INTRA.REPUL.0>
0

>  <SCORE.INTRA.SOLV>
-0.75421

>  <SCORE.INTRA.SOLV.lig_0>
-39.3257

>  <SCORE.INTRA.VDW>
0.148379

>  <SCORE.INTRA.VDW.0>
-0.734044

>  <SCORE.INTRA.norm>
-0.214513

>  <SCORE.RESTR>
0

>  <SCORE.RESTR.CAVITY>
0

>  <SCORE.RESTR.norm>
0

>  <SCORE.SYSTEM>
0

>  <SCORE.SYSTEM.CONST>
0

>  <SCORE.SYSTEM.DIHEDRAL>
0

>  <SCORE.SYSTEM.SOLV>
0

>  <SCORE.SYSTEM.norm>
0

>  <SCORE.heavy>
10

>  <SCORE.norm>
-0.802203

>  <RMSD>
5.362

$$$$
ligand
 OpenBabel11021811473D
libRbt.so/2013.1/901 2013/11/27
 10  9  0  0  0  0  0  0  0  0999 V2000
   28.9640   15.1011   19.5241 N   0  0  0  0  0  0  0  0  0  0  0  0
   28.7050   14.9312   20.9417 C   0  0  2  0  0  0  0  0  0  0  0  0
   27.2242   14.9154   21.2120 C   0  0  0  0  0  0  0  0  0  0  0  0
   26.8226   14.7894   22.3957 O   0  0  0  0  0  0  0  0  0  0  0  0
   29.3749   16.0567   21.7181 C   0  0  0  0  0  0  0  0  0  0  0  0
   30.7862   15.9584   21.5442 O   0  0  0  0  0  0  0  0  0  0  0  0
   31.3882   17.0339   22.2643 C   0  0  0  0  0  0  0  0  0  0  0  0
   32.9007   16.9542   22.0690 C   0  0  0  0  0  0  0  0  0  0  0  0
   33.5511   18.0543   22.7596 N   0  0  0  0  0  0  0  0  0  0  0  0
   26.5090   15.4961   20.3708 O   0  0  0  0  0  0  0  0  0  0  0  0
  2  1  1  6  0  0  0
  2  5  1  0  0  0  0
  2  3  1  0  0  0  0
  3  4  1  0  0  0  0
  3 10  1  0  0  0  0
  5  6  1  0  0  0  0
  6  7  1  0  0  0  0
  7  8  1  0  0  0  0
  8  9  1  0  0  0  0
M  END
>  <CHROM.1>
-63.71515547,-179.28656746,179.16532830,-179.12484274,178.54954906,29.58030829
15.92183624,21.48390658,-2.84338061,0.33000929,1.33301641

>  <Name>
ligand

>  <RI>
0

>  <Rbt.Current_Directory>
/home/itssahil/PROJECTS/Mol_Feturizer/New_Systems/rnas/3DJ0

>  <Rbt.Executable>
rbdock ($Id: //depot/dev/client3/rdock/2013.1/src/exe/rbdock.cxx#4 $)

>  <Rbt.Library>
libRbt.so (2013.1, Build901 2013/11/27)

>  <Rbt.Parameter_File>
/export/apps/rDock/src/rDock_2013.1_src/data/scripts/dock_solv.prm

>  <Rbt.Receptor>
prm/pocket_docking_6.prm

>  <SCORE>
-7.99915

>  <SCORE.INTER>
-5.89926

>  <SCORE.INTER.CONST>
1

>  <SCORE.INTER.POLAR>
0

>  <SCORE.INTER.ROT>
5

>  <SCORE.INTER.SOLV>
17.6399

>  <SCORE.INTER.VDW>
-16.7461

>  <SCORE.INTER.norm>
-0.589926

>  <SCORE.INTRA>
-2.09989

>  <SCORE.INTRA.DIHEDRAL>
-3.85607

>  <SCORE.INTRA.DIHEDRAL.0>
6.00299

>  <SCORE.INTRA.POLAR>
0

>  <SCORE.INTRA.POLAR.0>
0

>  <SCORE.INTRA.REPUL>
0

>  <SCORE.INTRA.REPUL.0>
0

>  <SCORE.INTRA.SOLV>
-0.741055

>  <SCORE.INTRA.SOLV.lig_0>
-39.3257

>  <SCORE.INTRA.VDW>
0.198675

>  <SCORE.INTRA.VDW.0>
-0.734044

>  <SCORE.INTRA.norm>
-0.209989

>  <SCORE.RESTR>
0

>  <SCORE.RESTR.CAVITY>
0

>  <SCORE.RESTR.norm>
0

>  <SCORE.SYSTEM>
0

>  <SCORE.SYSTEM.CONST>
0

>  <SCORE.SYSTEM.DIHEDRAL>
0

>  <SCORE.SYSTEM.SOLV>
0

>  <SCORE.SYSTEM.norm>
0

>  <SCORE.heavy>
10

>  <SCORE.norm>
-0.799915

>  <RMSD>
5.362

$$$$
ligand
 OpenBabel11021811473D
libRbt.so/2013.1/901 2013/11/27
 10  9  0  0  0  0  0  0  0  0999 V2000
   28.9996   15.0188   19.5839 N   0  0  0  0  0  0  0  0  0  0  0  0
   28.7019   14.9000   20.9991 C   0  0  2  0  0  0  0  0  0  0  0  0
   27.2146   14.9124   21.2309 C   0  0  0  0  0  0  0  0  0  0  0  0
   26.7808   14.8222   22.4065 O   0  0  0  0  0  0  0  0  0  0  0  0
   29.3670   16.0423   21.7548 C   0  0  0  0  0  0  0  0  0  0  0  0
   30.7785   15.9493   21.5792 O   0  0  0  0  0  0  0  0  0  0  0  0
   31.3763   17.0363   22.2855 C   0  0  0  0  0  0  0  0  0  0  0  0
   32.8891   16.9598   22.0915 C   0  0  0  0  0  0  0  0  0  0  0  0
   33.5379   18.0516   22.7965 N   0  0  0  0  0  0  0  0  0  0  0  0
   26.5301   15.4818   20.3571 O   0  0  0  0  0  0  0  0  0  0  0  0
  2  1  1  6  0  0  0
  2  5  1  0  0  0  0
  2  3  1  0  0  0  0
  3  4  1  0  0  0  0
  3 10  1  0  0  0  0
  5  6  1  0  0  0  0
  6  7  1  0  0  0  0
  7  8  1  0  0  0  0
  8  9  1  0  0  0  0
M  END
>  <CHROM.1>
-61.53811180,-179.77158733,179.46175630,-179.29240806,-179.99585689,29.57513377
15.91091294,21.51158472,-2.82746237,0.31856006,1.28951440

>  <Name>
ligand

>  <RI>
0

>  <Rbt.Current_Directory>
/home/itssahil/PROJECTS/Mol_Feturizer/New_Systems/rnas/3DJ0

>  <Rbt.Executable>
rbdock ($Id: //depot/dev/client3/rdock/2013.1/src/exe/rbdock.cxx#4 $)

>  <Rbt.Library>
libRbt.so (2013.1, Build901 2013/11/27)

>  <Rbt.Parameter_File>
/export/apps/rDock/src/rDock_2013.1_src/data/scripts/dock_solv.prm

>  <Rbt.Receptor>
prm/pocket_docking_6.prm

>  <SCORE>
-8.01074

>  <SCORE.INTER>
-5.89654

>  <SCORE.INTER.CONST>
1

>  <SCORE.INTER.POLAR>
0

>  <SCORE.INTER.ROT>
5

>  <SCORE.INTER.SOLV>
17.635

>  <SCORE.INTER.VDW>
-16.7427

>  <SCORE.INTER.norm>
-0.589654

>  <SCORE.INTRA>
-2.1142

>  <SCORE.INTRA.DIHEDRAL>
-3.90113

>  <SCORE.INTRA.DIHEDRAL.0>
6.00299

>  <SCORE.INTRA.POLAR>
0

>  <SCORE.INTRA.POLAR.0>
0

>  <SCORE.INTRA.REPUL>
0

>  <SCORE.INTRA.REPUL.0>
0

>  <SCORE.INTRA.SOLV>
-0.722734

>  <SCORE.INTRA.SOLV.lig_0>
-39.3257

>  <SCORE.INTRA.VDW>
0.197733

>  <SCORE.INTRA.VDW.0>
-0.734044

>  <SCORE.INTRA.norm>
-0.21142

>  <SCORE.RESTR>
0

>  <SCORE.RESTR.CAVITY>
0

>  <SCORE.RESTR.norm>
0

>  <SCORE.SYSTEM>
0

>  <SCORE.SYSTEM.CONST>
0

>  <SCORE.SYSTEM.DIHEDRAL>
0

>  <SCORE.SYSTEM.SOLV>
0

>  <SCORE.SYSTEM.norm>
0

>  <SCORE.heavy>
10

>  <SCORE.norm>
-0.801074

>  <RMSD>
5.362

$$$$
ligand
 OpenBabel11021811473D
libRbt.so/2013.1/901 2013/11/27
 10  9  0  0  0  0  0  0  0  0999 V2000
   28.9343   15.1745   19.5104 N   0  0  0  0  0  0  0  0  0  0  0  0
   28.7096   14.9518   20.9265 C   0  0  2  0  0  0  0  0  0  0  0  0
   27.2356   14.9035   21.2283 C   0  0  0  0  0  0  0  0  0  0  0  0
   26.8617   14.8103   22.4241 O   0  0  0  0  0  0  0  0  0  0  0  0
   29.3800   16.0601   21.7268 C   0  0  0  0  0  0  0  0  0  0  0  0
   30.7871   15.9987   21.5077 O   0  0  0  0  0  0  0  0  0  0  0  0
   31.3916   17.0398   22.2748 C   0  0  0  0  0  0  0  0  0  0  0  0
   32.9018   16.9816   22.0554 C   0  0  0  0  0  0  0  0  0  0  0  0
   33.5560   18.0366   22.8098 N   0  0  0  0  0  0  0  0  0  0  0  0
   26.4870   15.4317   20.3817 O   0  0  0  0  0  0  0  0  0  0  0  0
  2  1  1  6  0  0  0
  2  5  1  0  0  0  0
  2  3  1  0  0  0  0
  3  4  1  0  0  0  0
  3 10  1  0  0  0  0
  5  6  1  0  0  0  0
  6  7  1  0  0  0  0
  7  8  1  0  0  0  0
  8  9  1  0  0  0  0
M  END
>  <CHROM.1>
-63.11142852,-175.10455377,-179.59484808,179.70811662,179.40615887,29.58228063
15.93124930,21.48840191,-2.84938890,0.33861835,1.35878868

>  <Name>
ligand

>  <RI>
0

>  <Rbt.Current_Directory>
/home/itssahil/PROJECTS/Mol_Feturizer/New_Systems/rnas/3DJ0

>  <Rbt.Executable>
rbdock ($Id: //depot/dev/client3/rdock/2013.1/src/exe/rbdock.cxx#4 $)

>  <Rbt.Library>
libRbt.so (2013.1, Build901 2013/11/27)

>  <Rbt.Parameter_File>
/export/apps/rDock/src/rDock_2013.1_src/data/scripts/dock_solv.prm

>  <Rbt.Receptor>
prm/pocket_docking_3.prm

>  <SCORE>
-8.01174

>  <SCORE.INTER>
-5.97556

>  <SCORE.INTER.CONST>
1

>  <SCORE.INTER.POLAR>
0

>  <SCORE.INTER.ROT>
5

>  <SCORE.INTER.SOLV>
17.6281

>  <SCORE.INTER.VDW>
-16.7931

>  <SCORE.INTER.norm>
-0.597556

>  <SCORE.INTRA>
-2.03618

>  <SCORE.INTRA.DIHEDRAL>
-3.92454

>  <SCORE.INTRA.DIHEDRAL.0>
6.00299

>  <SCORE.INTRA.POLAR>
0

>  <SCORE.INTRA.POLAR.0>
0

>  <SCORE.INTRA.REPUL>
0

>  <SCORE.INTRA.REPUL.0>
0

>  <SCORE.INTRA.SOLV>
-0.723968

>  <SCORE.INTRA.SOLV.lig_0>
-39.3257

>  <SCORE.INTRA.VDW>
0.288077

>  <SCORE.INTRA.VDW.0>
-0.734044

>  <SCORE.INTRA.norm>
-0.203618

>  <SCORE.RESTR>
0

>  <SCORE.RESTR.CAVITY>
0

>  <SCORE.RESTR.norm>
0

>  <SCORE.SYSTEM>
0

>  <SCORE.SYSTEM.CONST>
0

>  <SCORE.SYSTEM.DIHEDRAL>
0

>  <SCORE.SYSTEM.SOLV>
0

>  <SCORE.SYSTEM.norm>
0

>  <SCORE.heavy>
10

>  <SCORE.norm>
-0.801174

>  <RMSD>
5.363

$$$$
ligand
 OpenBabel11021811473D
libRbt.so/2013.1/901 2013/11/27
 10  9  0  0  0  0  0  0  0  0999 V2000
   28.3372   15.4195   19.4399 N   0  0  0  0  0  0  0  0  0  0  0  0
   28.4457   14.9981   20.8241 C   0  0  2  0  0  0  0  0  0  0  0  0
   27.1200   15.1318   21.5246 C   0  0  0  0  0  0  0  0  0  0  0  0
   26.0639   14.9508   20.8687 O   0  0  0  0  0  0  0  0  0  0  0  0
   29.5052   15.8354   21.5275 C   0  0  0  0  0  0  0  0  0  0  0  0
   30.7446   15.6797   20.8409 O   0  0  0  0  0  0  0  0  0  0  0  0
   31.7291   16.4359   21.5455 C   0  0  0  0  0  0  0  0  0  0  0  0
   33.0560   16.3076   20.8004 C   0  0  0  0  0  0  0  0  0  0  0  0
   34.0903   17.0575   21.4917 N   0  0  0  0  0  0  0  0  0  0  0  0
   27.1299   14.9313   22.7557 O   0  0  0  0  0  0  0  0  0  0  0  0
  2  1  1  6  0  0  0
  2  5  1  0  0  0  0
  2  3  1  0  0  0  0
  3  4  1  0  0  0  0
  3 10  1  0  0  0  0
  5  6  1  0  0  0  0
  6  7  1  0  0  0  0
  7  8  1  0  0  0  0
  8  9  1  0  0  0  0
M  END
>  <CHROM.1>
-58.21418033,32.58792793,-178.02884652,-178.56290729,-179.60796668,29.58001908
15.66310484,21.17530846,3.13403821,0.25163450,1.53990848

>  <Name>
ligand

>  <RI>
0

>  <Rbt.Current_Directory>
/home/itssahil/PROJECTS/Mol_Feturizer/New_Systems/rnas/3DJ0

>  <Rbt.Executable>
rbdock ($Id: //depot/dev/client3/rdock/2013.1/src/exe/rbdock.cxx#4 $)

>  <Rbt.Library>
libRbt.so (2013.1, Build901 2013/11/27)

>  <Rbt.Parameter_File>
/export/apps/rDock/src/rDock_2013.1_src/data/scripts/dock_solv.prm

>  <Rbt.Receptor>
prm/pocket_docking_7.prm

>  <SCORE>
-7.28978

>  <SCORE.INTER>
-5.56949

>  <SCORE.INTER.CONST>
1

>  <SCORE.INTER.POLAR>
0

>  <SCORE.INTER.ROT>
5

>  <SCORE.INTER.SOLV>
19.2682

>  <SCORE.INTER.VDW>
-17.0691

>  <SCORE.INTER.norm>
-0.556949

>  <SCORE.INTRA>
-1.72029

>  <SCORE.INTRA.DIHEDRAL>
-3.35662

>  <SCORE.INTRA.DIHEDRAL.0>
6.00299

>  <SCORE.INTRA.POLAR>
0

>  <SCORE.INTRA.POLAR.0>
0

>  <SCORE.INTRA.REPUL>
0

>  <SCORE.INTRA.REPUL.0>
0

>  <SCORE.INTRA.SOLV>
-0.774089

>  <SCORE.INTRA.SOLV.lig_0>
-39.3257

>  <SCORE.INTRA.VDW>
0.345066

>  <SCORE.INTRA.VDW.0>
-0.734044

>  <SCORE.INTRA.norm>
-0.172029

>  <SCORE.RESTR>
0

>  <SCORE.RESTR.CAVITY>
0

>  <SCORE.RESTR.norm>
0

>  <SCORE.SYSTEM>
0

>  <SCORE.SYSTEM.CONST>
0

>  <SCORE.SYSTEM.DIHEDRAL>
0

>  <SCORE.SYSTEM.SOLV>
0

>  <SCORE.SYSTEM.norm>
0

>  <SCORE.heavy>
10

>  <SCORE.norm>
-0.728978

>  <RMSD>
5.363

$$$$
ligand
 OpenBabel11021811473D
libRbt.so/2013.1/901 2013/11/27
 10  9  0  0  0  0  0  0  0  0999 V2000
   28.9492   15.1618   19.5120 N   0  0  0  0  0  0  0  0  0  0  0  0
   28.7014   14.9521   20.9262 C   0  0  2  0  0  0  0  0  0  0  0  0
   27.2227   14.9194   21.2063 C   0  0  0  0  0  0  0  0  0  0  0  0
   26.8303   14.8228   22.3958 O   0  0  0  0  0  0  0  0  0  0  0  0
   29.3697   16.0607   21.7279 C   0  0  0  0  0  0  0  0  0  0  0  0
   30.7800   15.9791   21.5382 O   0  0  0  0  0  0  0  0  0  0  0  0
   31.3811   17.0311   22.2929 C   0  0  0  0  0  0  0  0  0  0  0  0
   32.8928   16.9662   22.0860 C   0  0  0  0  0  0  0  0  0  0  0  0
   33.5410   18.0504   22.8032 N   0  0  0  0  0  0  0  0  0  0  0  0
   26.4928   15.4618   20.3524 O   0  0  0  0  0  0  0  0  0  0  0  0
  2  1  1  6  0  0  0
  2  5  1  0  0  0  0
  2  3  1  0  0  0  0
  3  4  1  0  0  0  0
  3 10  1  0  0  0  0
  5  6  1  0  0  0  0
  6  7  1  0  0  0  0
  7  8  1  0  0  0  0
  8  9  1  0  0  0  0
M  END
>  <CHROM.1>
-63.53146720,-175.93796554,179.69622831,-179.34494478,178.09803384,29.57383557
15.93308759,21.48775346,-2.84125003,0.33192411,1.34820160

>  <Name>
ligand

>  <RI>
0

>  <Rbt.Current_Directory>
/home/itssahil/PROJECTS/Mol_Feturizer/New_Systems/rnas/3DJ0

>  <Rbt.Executable>
rbdock ($Id: //depot/dev/client3/rdock/2013.1/src/exe/rbdock.cxx#4 $)

>  <Rbt.Library>
libRbt.so (2013.1, Build901 2013/11/27)

>  <Rbt.Parameter_File>
/export/apps/rDock/src/rDock_2013.1_src/data/scripts/dock_solv.prm

>  <Rbt.Receptor>
prm/pocket_docking_5.prm

>  <SCORE>
-8.0298

>  <SCORE.INTER>
-5.98677

>  <SCORE.INTER.CONST>
1

>  <SCORE.INTER.POLAR>
0

>  <SCORE.INTER.ROT>
5

>  <SCORE.INTER.SOLV>
17.6181

>  <SCORE.INTER.VDW>
-16.7972

>  <SCORE.INTER.norm>
-0.598677

>  <SCORE.INTRA>
-2.04303

>  <SCORE.INTRA.DIHEDRAL>
-3.8942

>  <SCORE.INTRA.DIHEDRAL.0>
6.00299

>  <SCORE.INTRA.POLAR>
0

>  <SCORE.INTRA.POLAR.0>
0

>  <SCORE.INTRA.REPUL>
0

>  <SCORE.INTRA.REPUL.0>
0

>  <SCORE.INTRA.SOLV>
-0.728039

>  <SCORE.INTRA.SOLV.lig_0>
-39.3257

>  <SCORE.INTRA.VDW>
0.26809

>  <SCORE.INTRA.VDW.0>
-0.734044

>  <SCORE.INTRA.norm>
-0.204303

>  <SCORE.RESTR>
0

>  <SCORE.RESTR.CAVITY>
0

>  <SCORE.RESTR.norm>
0

>  <SCORE.SYSTEM>
0

>  <SCORE.SYSTEM.CONST>
0

>  <SCORE.SYSTEM.DIHEDRAL>
0

>  <SCORE.SYSTEM.SOLV>
0

>  <SCORE.SYSTEM.norm>
0

>  <SCORE.heavy>
10

>  <SCORE.norm>
-0.80298

>  <RMSD>
5.364

$$$$
ligand
 OpenBabel11021811473D
libRbt.so/2013.1/901 2013/11/27
 10  9  0  0  0  0  0  0  0  0999 V2000
   26.1035   14.9858   20.9468 N   0  0  0  0  0  0  0  0  0  0  0  0
   27.4491   15.4297   20.6340 C   0  0  2  0  0  0  0  0  0  0  0  0
   27.9307   14.8010   19.3539 C   0  0  0  0  0  0  0  0  0  0  0  0
   27.4058   13.7267   18.9680 O   0  0  0  0  0  0  0  0  0  0  0  0
   28.3808   15.0737   21.7844 C   0  0  0  0  0  0  0  0  0  0  0  0
   29.6539   15.6687   21.5458 O   0  0  0  0  0  0  0  0  0  0  0  0
   30.5055   15.3245   22.6385 C   0  0  0  0  0  0  0  0  0  0  0  0
   31.8668   15.9777   22.4095 C   0  0  0  0  0  0  0  0  0  0  0  0
   31.7348   17.4242   22.4267 N   0  0  0  0  0  0  0  0  0  0  0  0
   28.4418   15.5777   18.5221 O   0  0  0  0  0  0  0  0  0  0  0  0
  2  1  1  1  0  0  0
  2  5  1  0  0  0  0
  2  3  1  0  0  0  0
  3  4  1  0  0  0  0
  3 10  1  0  0  0  0
  5  6  1  0  0  0  0
  6  7  1  0  0  0  0
  7  8  1  0  0  0  0
  8  9  1  0  0  0  0
M  END
>  <CHROM.1>
-172.37198576,-23.00600241,179.79513945,-178.94915701,63.85804257,28.94650865
15.38595638,20.88464091,2.53134101,-0.34039312,-1.64827311

>  <Name>
ligand

>  <RI>
0

>  <Rbt.Current_Directory>
/home/itssahil/PROJECTS/Mol_Feturizer/New_Systems/rnas/3DJ0

>  <Rbt.Executable>
rbdock ($Id: //depot/dev/client3/rdock/2013.1/src/exe/rbdock.cxx#4 $)

>  <Rbt.Library>
libRbt.so (2013.1, Build901 2013/11/27)

>  <Rbt.Parameter_File>
/export/apps/rDock/src/rDock_2013.1_src/data/scripts/dock_solv.prm

>  <Rbt.Receptor>
prm/pocket_docking_8.prm

>  <SCORE>
-7.90246

>  <SCORE.INTER>
-5.83848

>  <SCORE.INTER.CONST>
1

>  <SCORE.INTER.POLAR>
0

>  <SCORE.INTER.ROT>
5

>  <SCORE.INTER.SOLV>
20.3293

>  <SCORE.INTER.VDW>
-17.6021

>  <SCORE.INTER.norm>
-0.583848

>  <SCORE.INTRA>
-2.06398

>  <SCORE.INTRA.DIHEDRAL>
-3.42875

>  <SCORE.INTRA.DIHEDRAL.0>
6.00299

>  <SCORE.INTRA.POLAR>
0

>  <SCORE.INTRA.POLAR.0>
0

>  <SCORE.INTRA.REPUL>
0

>  <SCORE.INTRA.REPUL.0>
0

>  <SCORE.INTRA.SOLV>
-0.242178

>  <SCORE.INTRA.SOLV.lig_0>
-39.3257

>  <SCORE.INTRA.VDW>
-0.228522

>  <SCORE.INTRA.VDW.0>
-0.734044

>  <SCORE.INTRA.norm>
-0.206398

>  <SCORE.RESTR>
0

>  <SCORE.RESTR.CAVITY>
0

>  <SCORE.RESTR.norm>
0

>  <SCORE.SYSTEM>
0

>  <SCORE.SYSTEM.CONST>
0

>  <SCORE.SYSTEM.DIHEDRAL>
0

>  <SCORE.SYSTEM.SOLV>
0

>  <SCORE.SYSTEM.norm>
0

>  <SCORE.heavy>
10

>  <SCORE.norm>
-0.790246

>  <RMSD>
5.368

$$$$
ligand
 OpenBabel11021811473D
libRbt.so/2013.1/901 2013/11/27
 10  9  0  0  0  0  0  0  0  0999 V2000
   27.5955   15.4194   21.0175 N   0  0  0  0  0  0  0  0  0  0  0  0
   28.6160   15.5511   19.9944 C   0  0  2  0  0  0  0  0  0  0  0  0
   28.5015   14.4402   18.9851 C   0  0  0  0  0  0  0  0  0  0  0  0
   27.3594   14.0499   18.6362 O   0  0  0  0  0  0  0  0  0  0  0  0
   29.9921   15.5373   20.6461 C   0  0  0  0  0  0  0  0  0  0  0  0
   30.1464   16.7248   21.4192 O   0  0  0  0  0  0  0  0  0  0  0  0
   31.4946   16.7662   21.8866 C   0  0  0  0  0  0  0  0  0  0  0  0
   31.6974   18.0734   22.6497 C   0  0  0  0  0  0  0  0  0  0  0  0
   33.0910   18.2149   23.0344 N   0  0  0  0  0  0  0  0  0  0  0  0
   29.4692   14.3047   18.2096 O   0  0  0  0  0  0  0  0  0  0  0  0
  2  1  1  1  0  0  0
  2  5  1  0  0  0  0
  2  3  1  0  0  0  0
  3  4  1  0  0  0  0
  3 10  1  0  0  0  0
  5  6  1  0  0  0  0
  6  7  1  0  0  0  0
  7  8  1  0  0  0  0
  8  9  1  0  0  0  0
M  END
>  <CHROM.1>
-67.74473932,38.29924312,-173.15790089,176.78767874,-174.62050174,29.78042612
15.88449666,20.61333551,2.25970833,-0.18840471,-2.16359934

>  <Name>
ligand

>  <RI>
0

>  <Rbt.Current_Directory>
/home/itssahil/PROJECTS/Mol_Feturizer/New_Systems/rnas/3DJ0

>  <Rbt.Executable>
rbdock ($Id: //depot/dev/client3/rdock/2013.1/src/exe/rbdock.cxx#4 $)

>  <Rbt.Library>
libRbt.so (2013.1, Build901 2013/11/27)

>  <Rbt.Parameter_File>
/export/apps/rDock/src/rDock_2013.1_src/data/scripts/dock_solv.prm

>  <Rbt.Receptor>
prm/pocket_docking_6.prm

>  <SCORE>
-5.27893

>  <SCORE.INTER>
-3.80828

>  <SCORE.INTER.CONST>
1

>  <SCORE.INTER.POLAR>
0

>  <SCORE.INTER.ROT>
5

>  <SCORE.INTER.SOLV>
18.5584

>  <SCORE.INTER.VDW>
-15.6583

>  <SCORE.INTER.norm>
-0.380828

>  <SCORE.INTRA>
-1.47065

>  <SCORE.INTRA.DIHEDRAL>
-2.91335

>  <SCORE.INTRA.DIHEDRAL.0>
6.00299

>  <SCORE.INTRA.POLAR>
0

>  <SCORE.INTRA.POLAR.0>
0

>  <SCORE.INTRA.REPUL>
0

>  <SCORE.INTRA.REPUL.0>
0

>  <SCORE.INTRA.SOLV>
-0.898068

>  <SCORE.INTRA.SOLV.lig_0>
-39.3257

>  <SCORE.INTRA.VDW>
0.435059

>  <SCORE.INTRA.VDW.0>
-0.734044

>  <SCORE.INTRA.norm>
-0.147065

>  <SCORE.RESTR>
0

>  <SCORE.RESTR.CAVITY>
0

>  <SCORE.RESTR.norm>
0

>  <SCORE.SYSTEM>
0

>  <SCORE.SYSTEM.CONST>
0

>  <SCORE.SYSTEM.DIHEDRAL>
0

>  <SCORE.SYSTEM.SOLV>
0

>  <SCORE.SYSTEM.norm>
0

>  <SCORE.heavy>
10

>  <SCORE.norm>
-0.527893

>  <RMSD>
5.371

$$$$
ligand
 OpenBabel11021811473D
libRbt.so/2013.1/901 2013/11/27
 10  9  0  0  0  0  0  0  0  0999 V2000
   26.1671   15.0004   20.8987 N   0  0  0  0  0  0  0  0  0  0  0  0
   27.5151   15.4048   20.5453 C   0  0  2  0  0  0  0  0  0  0  0  0
   27.9511   14.7380   19.2681 C   0  0  0  0  0  0  0  0  0  0  0  0
   27.3918   13.6690   18.9176 O   0  0  0  0  0  0  0  0  0  0  0  0
   28.4651   15.0500   21.6812 C   0  0  0  0  0  0  0  0  0  0  0  0
   29.7493   15.5978   21.3943 O   0  0  0  0  0  0  0  0  0  0  0  0
   30.6143   15.2685   22.4811 C   0  0  0  0  0  0  0  0  0  0  0  0
   31.9513   15.9726   22.2600 C   0  0  0  0  0  0  0  0  0  0  0  0
   31.7659   17.4132   22.2840 N   0  0  0  0  0  0  0  0  0  0  0  0
   28.4606   15.4846   18.4083 O   0  0  0  0  0  0  0  0  0  0  0  0
  2  1  1  1  0  0  0
  2  5  1  0  0  0  0
  2  3  1  0  0  0  0
  3  4  1  0  0  0  0
  3 10  1  0  0  0  0
  5  6  1  0  0  0  0
  6  7  1  0  0  0  0
  7  8  1  0  0  0  0
  8  9  1  0  0  0  0
M  END
>  <CHROM.1>
-172.92005118,-23.01596559,179.16767867,-174.08952228,63.26445349,29.00167116
15.34550875,20.77538262,2.54010273,-0.32928188,-1.66913455

>  <Name>
ligand

>  <RI>
0

>  <Rbt.Current_Directory>
/home/itssahil/PROJECTS/Mol_Feturizer/New_Systems/rnas/3DJ0

>  <Rbt.Executable>
rbdock ($Id: //depot/dev/client3/rdock/2013.1/src/exe/rbdock.cxx#4 $)

>  <Rbt.Library>
libRbt.so (2013.1, Build901 2013/11/27)

>  <Rbt.Parameter_File>
/export/apps/rDock/src/rDock_2013.1_src/data/scripts/dock_solv.prm

>  <Rbt.Receptor>
prm/pocket_docking_3.prm

>  <SCORE>
-7.92705

>  <SCORE.INTER>
-5.93371

>  <SCORE.INTER.CONST>
1

>  <SCORE.INTER.POLAR>
0

>  <SCORE.INTER.ROT>
5

>  <SCORE.INTER.SOLV>
20.2014

>  <SCORE.INTER.VDW>
-17.623

>  <SCORE.INTER.norm>
-0.593371

>  <SCORE.INTRA>
-1.99334

>  <SCORE.INTRA.DIHEDRAL>
-3.30475

>  <SCORE.INTRA.DIHEDRAL.0>
6.00299

>  <SCORE.INTRA.POLAR>
0

>  <SCORE.INTRA.POLAR.0>
0

>  <SCORE.INTRA.REPUL>
0

>  <SCORE.INTRA.REPUL.0>
0

>  <SCORE.INTRA.SOLV>
-0.203003

>  <SCORE.INTRA.SOLV.lig_0>
-39.3257

>  <SCORE.INTRA.VDW>
-0.239462

>  <SCORE.INTRA.VDW.0>
-0.734044

>  <SCORE.INTRA.norm>
-0.199334

>  <SCORE.RESTR>
0

>  <SCORE.RESTR.CAVITY>
0

>  <SCORE.RESTR.norm>
0

>  <SCORE.SYSTEM>
0

>  <SCORE.SYSTEM.CONST>
0

>  <SCORE.SYSTEM.DIHEDRAL>
0

>  <SCORE.SYSTEM.SOLV>
0

>  <SCORE.SYSTEM.norm>
0

>  <SCORE.heavy>
10

>  <SCORE.norm>
-0.792705

>  <RMSD>
5.372

$$$$
ligand
 OpenBabel11021811473D
libRbt.so/2013.1/901 2013/11/27
 10  9  0  0  0  0  0  0  0  0999 V2000
   26.1077   14.9587   20.9237 N   0  0  0  0  0  0  0  0  0  0  0  0
   27.4522   15.4064   20.6115 C   0  0  2  0  0  0  0  0  0  0  0  0
   27.9261   14.7997   19.3179 C   0  0  0  0  0  0  0  0  0  0  0  0
   27.4359   13.7053   18.9431 O   0  0  0  0  0  0  0  0  0  0  0  0
   28.3896   15.0288   21.7504 C   0  0  0  0  0  0  0  0  0  0  0  0
   29.6659   15.6157   21.5089 O   0  0  0  0  0  0  0  0  0  0  0  0
   30.5135   15.2784   22.6069 C   0  0  0  0  0  0  0  0  0  0  0  0
   31.8803   15.9176   22.3713 C   0  0  0  0  0  0  0  0  0  0  0  0
   31.7531   17.3640   22.3277 N   0  0  0  0  0  0  0  0  0  0  0  0
   28.3833   15.5978   18.4753 O   0  0  0  0  0  0  0  0  0  0  0  0
  2  1  1  1  0  0  0
  2  5  1  0  0  0  0
  2  3  1  0  0  0  0
  3  4  1  0  0  0  0
  3 10  1  0  0  0  0
  5  6  1  0  0  0  0
  6  7  1  0  0  0  0
  7  8  1  0  0  0  0
  8  9  1  0  0  0  0
M  END
>  <CHROM.1>
-172.92786679,-25.84515160,178.41696292,-179.20855661,62.04647258,28.94969758
15.35452517,20.84534037,2.54654753,-0.34859001,-1.61475114

>  <Name>
ligand

>  <RI>
0

>  <Rbt.Current_Directory>
/home/itssahil/PROJECTS/Mol_Feturizer/New_Systems/rnas/3DJ0

>  <Rbt.Executable>
rbdock ($Id: //depot/dev/client3/rdock/2013.1/src/exe/rbdock.cxx#4 $)

>  <Rbt.Library>
libRbt.so (2013.1, Build901 2013/11/27)

>  <Rbt.Parameter_File>
/export/apps/rDock/src/rDock_2013.1_src/data/scripts/dock_solv.prm

>  <Rbt.Receptor>
prm/pocket_docking_6.prm

>  <SCORE>
-7.83292

>  <SCORE.INTER>
-5.72602

>  <SCORE.INTER.CONST>
1

>  <SCORE.INTER.POLAR>
0

>  <SCORE.INTER.ROT>
5

>  <SCORE.INTER.SOLV>
20.2794

>  <SCORE.INTER.VDW>
-17.5105

>  <SCORE.INTER.norm>
-0.572602

>  <SCORE.INTRA>
-2.1069

>  <SCORE.INTRA.DIHEDRAL>
-3.54358

>  <SCORE.INTRA.DIHEDRAL.0>
6.00299

>  <SCORE.INTRA.POLAR>
0

>  <SCORE.INTRA.POLAR.0>
0

>  <SCORE.INTRA.REPUL>
0

>  <SCORE.INTRA.REPUL.0>
0

>  <SCORE.INTRA.SOLV>
-0.217449

>  <SCORE.INTRA.SOLV.lig_0>
-39.3257

>  <SCORE.INTRA.VDW>
-0.226384

>  <SCORE.INTRA.VDW.0>
-0.734044

>  <SCORE.INTRA.norm>
-0.21069

>  <SCORE.RESTR>
0

>  <SCORE.RESTR.CAVITY>
0

>  <SCORE.RESTR.norm>
0

>  <SCORE.SYSTEM>
0

>  <SCORE.SYSTEM.CONST>
0

>  <SCORE.SYSTEM.DIHEDRAL>
0

>  <SCORE.SYSTEM.SOLV>
0

>  <SCORE.SYSTEM.norm>
0

>  <SCORE.heavy>
10

>  <SCORE.norm>
-0.783292

>  <RMSD>
5.372

$$$$
ligand
 OpenBabel11021811473D
libRbt.so/2013.1/901 2013/11/27
 10  9  0  0  0  0  0  0  0  0999 V2000
   26.1426   15.0066   20.8781 N   0  0  0  0  0  0  0  0  0  0  0  0
   27.5035   15.3954   20.5584 C   0  0  2  0  0  0  0  0  0  0  0  0
   27.9595   14.7322   19.2862 C   0  0  0  0  0  0  0  0  0  0  0  0
   27.3980   13.6704   18.9181 O   0  0  0  0  0  0  0  0  0  0  0  0
   28.4227   15.0196   21.7126 C   0  0  0  0  0  0  0  0  0  0  0  0
   29.6826   15.6589   21.5238 O   0  0  0  0  0  0  0  0  0  0  0  0
   30.5287   15.2798   22.6091 C   0  0  0  0  0  0  0  0  0  0  0  0
   31.8589   16.0148   22.4593 C   0  0  0  0  0  0  0  0  0  0  0  0
   31.6404   17.4507   22.4836 N   0  0  0  0  0  0  0  0  0  0  0  0
   28.4929   15.4792   18.4415 O   0  0  0  0  0  0  0  0  0  0  0  0
  2  1  1  1  0  0  0
  2  5  1  0  0  0  0
  2  3  1  0  0  0  0
  3  4  1  0  0  0  0
  3 10  1  0  0  0  0
  5  6  1  0  0  0  0
  6  7  1  0  0  0  0
  7  8  1  0  0  0  0
  8  9  1  0  0  0  0
M  END
>  <CHROM.1>
-167.38179199,-23.31487078,-179.38906213,-177.10096231,59.94381814,28.96224017
15.35695749,20.84862683,2.49556626,-0.33695761,-1.67769333

>  <Name>
ligand

>  <RI>
0

>  <Rbt.Current_Directory>
/home/itssahil/PROJECTS/Mol_Feturizer/New_Systems/rnas/3DJ0

>  <Rbt.Executable>
rbdock ($Id: //depot/dev/client3/rdock/2013.1/src/exe/rbdock.cxx#4 $)

>  <Rbt.Library>
libRbt.so (2013.1, Build901 2013/11/27)

>  <Rbt.Parameter_File>
/export/apps/rDock/src/rDock_2013.1_src/data/scripts/dock_solv.prm

>  <Rbt.Receptor>
prm/pocket_docking_6.prm

>  <SCORE>
-7.88228

>  <SCORE.INTER>
-5.95786

>  <SCORE.INTER.CONST>
1

>  <SCORE.INTER.POLAR>
0

>  <SCORE.INTER.ROT>
5

>  <SCORE.INTER.SOLV>
20.3377

>  <SCORE.INTER.VDW>
-17.6845

>  <SCORE.INTER.norm>
-0.595786

>  <SCORE.INTRA>
-1.92443

>  <SCORE.INTRA.DIHEDRAL>
-3.10415

>  <SCORE.INTRA.DIHEDRAL.0>
6.00299

>  <SCORE.INTRA.POLAR>
0

>  <SCORE.INTRA.POLAR.0>
0

>  <SCORE.INTRA.REPUL>
0

>  <SCORE.INTRA.REPUL.0>
0

>  <SCORE.INTRA.SOLV>
-0.203371

>  <SCORE.INTRA.SOLV.lig_0>
-39.3257

>  <SCORE.INTRA.VDW>
-0.270665

>  <SCORE.INTRA.VDW.0>
-0.734044

>  <SCORE.INTRA.norm>
-0.192443

>  <SCORE.RESTR>
0

>  <SCORE.RESTR.CAVITY>
0

>  <SCORE.RESTR.norm>
0

>  <SCORE.SYSTEM>
0

>  <SCORE.SYSTEM.CONST>
0

>  <SCORE.SYSTEM.DIHEDRAL>
0

>  <SCORE.SYSTEM.SOLV>
0

>  <SCORE.SYSTEM.norm>
0

>  <SCORE.heavy>
10

>  <SCORE.norm>
-0.788228

>  <RMSD>
5.372

$$$$
ligand
 OpenBabel11021811473D
libRbt.so/2013.1/901 2013/11/27
 10  9  0  0  0  0  0  0  0  0999 V2000
   26.1566   14.9775   20.8968 N   0  0  0  0  0  0  0  0  0  0  0  0
   27.5007   15.3965   20.5455 C   0  0  2  0  0  0  0  0  0  0  0  0
   27.9447   14.7369   19.2672 C   0  0  0  0  0  0  0  0  0  0  0  0
   27.3791   13.6766   18.9009 O   0  0  0  0  0  0  0  0  0  0  0  0
   28.4533   15.0491   21.6814 C   0  0  0  0  0  0  0  0  0  0  0  0
   29.7152   15.6609   21.4264 O   0  0  0  0  0  0  0  0  0  0  0  0
   30.5992   15.2896   22.4839 C   0  0  0  0  0  0  0  0  0  0  0  0
   31.9441   15.9730   22.2466 C   0  0  0  0  0  0  0  0  0  0  0  0
   31.7916   17.4152   22.3286 N   0  0  0  0  0  0  0  0  0  0  0  0
   28.4709   15.4862   18.4200 O   0  0  0  0  0  0  0  0  0  0  0  0
  2  1  1  1  0  0  0
  2  5  1  0  0  0  0
  2  3  1  0  0  0  0
  3  4  1  0  0  0  0
  3 10  1  0  0  0  0
  5  6  1  0  0  0  0
  6  7  1  0  0  0  0
  7  8  1  0  0  0  0
  8  9  1  0  0  0  0
M  END
>  <CHROM.1>
-170.34615039,-21.66920495,-178.38788011,-178.29286964,64.12769341,28.99389428
15.35265102,20.78147755,2.53713357,-0.32932437,-1.67564360

>  <Name>
ligand

>  <RI>
0

>  <Rbt.Current_Directory>
/home/itssahil/PROJECTS/Mol_Feturizer/New_Systems/rnas/3DJ0

>  <Rbt.Executable>
rbdock ($Id: //depot/dev/client3/rdock/2013.1/src/exe/rbdock.cxx#4 $)

>  <Rbt.Library>
libRbt.so (2013.1, Build901 2013/11/27)

>  <Rbt.Parameter_File>
/export/apps/rDock/src/rDock_2013.1_src/data/scripts/dock_solv.prm

>  <Rbt.Receptor>
prm/pocket_docking_8.prm

>  <SCORE>
-7.88304

>  <SCORE.INTER>
-5.89111

>  <SCORE.INTER.CONST>
1

>  <SCORE.INTER.POLAR>
0

>  <SCORE.INTER.ROT>
5

>  <SCORE.INTER.SOLV>
20.1806

>  <SCORE.INTER.VDW>
-17.5876

>  <SCORE.INTER.norm>
-0.589111

>  <SCORE.INTRA>
-1.99193

>  <SCORE.INTRA.DIHEDRAL>
-3.24909

>  <SCORE.INTRA.DIHEDRAL.0>
6.00299

>  <SCORE.INTRA.POLAR>
0

>  <SCORE.INTRA.POLAR.0>
0

>  <SCORE.INTRA.REPUL>
0

>  <SCORE.INTRA.REPUL.0>
0

>  <SCORE.INTRA.SOLV>
-0.248363

>  <SCORE.INTRA.SOLV.lig_0>
-39.3257

>  <SCORE.INTRA.VDW>
-0.2432

>  <SCORE.INTRA.VDW.0>
-0.734044

>  <SCORE.INTRA.norm>
-0.199193

>  <SCORE.RESTR>
0

>  <SCORE.RESTR.CAVITY>
0

>  <SCORE.RESTR.norm>
0

>  <SCORE.SYSTEM>
0

>  <SCORE.SYSTEM.CONST>
0

>  <SCORE.SYSTEM.DIHEDRAL>
0

>  <SCORE.SYSTEM.SOLV>
0

>  <SCORE.SYSTEM.norm>
0

>  <SCORE.heavy>
10

>  <SCORE.norm>
-0.788304

>  <RMSD>
5.379

$$$$
ligand
 OpenBabel11021811473D
libRbt.so/2013.1/901 2013/11/27
 10  9  0  0  0  0  0  0  0  0999 V2000
   26.0920   14.9811   20.9510 N   0  0  0  0  0  0  0  0  0  0  0  0
   27.4372   15.4156   20.6241 C   0  0  2  0  0  0  0  0  0  0  0  0
   27.9045   14.7763   19.3438 C   0  0  0  0  0  0  0  0  0  0  0  0
   27.3995   13.6815   18.9903 O   0  0  0  0  0  0  0  0  0  0  0  0
   28.3768   15.0614   21.7687 C   0  0  0  0  0  0  0  0  0  0  0  0
   29.6459   15.6624   21.5243 O   0  0  0  0  0  0  0  0  0  0  0  0
   30.5119   15.3005   22.5999 C   0  0  0  0  0  0  0  0  0  0  0  0
   31.8701   15.9575   22.3636 C   0  0  0  0  0  0  0  0  0  0  0  0
   31.7252   17.4024   22.3271 N   0  0  0  0  0  0  0  0  0  0  0  0
   28.3740   15.5508   18.4860 O   0  0  0  0  0  0  0  0  0  0  0  0
  2  1  1  1  0  0  0
  2  5  1  0  0  0  0
  2  3  1  0  0  0  0
  3  4  1  0  0  0  0
  3 10  1  0  0  0  0
  5  6  1  0  0  0  0
  6  7  1  0  0  0  0
  7  8  1  0  0  0  0
  8  9  1  0  0  0  0
M  END
>  <CHROM.1>
-171.61869171,-25.18525173,-179.20428682,-179.05157406,60.48626038,28.93247132
15.36566279,20.85988792,2.54357798,-0.34190270,-1.64393106

>  <Name>
ligand

>  <RI>
0

>  <Rbt.Current_Directory>
/home/itssahil/PROJECTS/Mol_Feturizer/New_Systems/rnas/3DJ0

>  <Rbt.Executable>
rbdock ($Id: //depot/dev/client3/rdock/2013.1/src/exe/rbdock.cxx#4 $)

>  <Rbt.Library>
libRbt.so (2013.1, Build901 2013/11/27)

>  <Rbt.Parameter_File>
/export/apps/rDock/src/rDock_2013.1_src/data/scripts/dock_solv.prm

>  <Rbt.Receptor>
prm/blind_docking_60.prm

>  <SCORE>
-7.90197

>  <SCORE.INTER>
-5.8106

>  <SCORE.INTER.CONST>
1

>  <SCORE.INTER.POLAR>
0

>  <SCORE.INTER.ROT>
5

>  <SCORE.INTER.SOLV>
20.4175

>  <SCORE.INTER.VDW>
-17.6129

>  <SCORE.INTER.norm>
-0.58106

>  <SCORE.INTRA>
-2.09137

>  <SCORE.INTRA.DIHEDRAL>
-3.48209

>  <SCORE.INTRA.DIHEDRAL.0>
6.00299

>  <SCORE.INTRA.POLAR>
0

>  <SCORE.INTRA.POLAR.0>
0

>  <SCORE.INTRA.REPUL>
0

>  <SCORE.INTRA.REPUL.0>
0

>  <SCORE.INTRA.SOLV>
-0.202129

>  <SCORE.INTRA.SOLV.lig_0>
-39.3257

>  <SCORE.INTRA.VDW>
-0.24926

>  <SCORE.INTRA.VDW.0>
-0.734044

>  <SCORE.INTRA.norm>
-0.209137

>  <SCORE.RESTR>
0

>  <SCORE.RESTR.CAVITY>
0

>  <SCORE.RESTR.norm>
0

>  <SCORE.SYSTEM>
0

>  <SCORE.SYSTEM.CONST>
0

>  <SCORE.SYSTEM.DIHEDRAL>
0

>  <SCORE.SYSTEM.SOLV>
0

>  <SCORE.SYSTEM.norm>
0

>  <SCORE.heavy>
10

>  <SCORE.norm>
-0.790197

>  <RMSD>
5.380

$$$$
ligand
 OpenBabel11021811473D
libRbt.so/2013.1/901 2013/11/27
 10  9  0  0  0  0  0  0  0  0999 V2000
   28.4555   14.6982   19.1492 N   0  0  0  0  0  0  0  0  0  0  0  0
   28.4639   14.5933   20.5964 C   0  0  2  0  0  0  0  0  0  0  0  0
   27.0748   14.7703   21.1489 C   0  0  0  0  0  0  0  0  0  0  0  0
   26.9030   14.7185   22.3924 O   0  0  0  0  0  0  0  0  0  0  0  0
   29.4038   15.6419   21.1754 C   0  0  0  0  0  0  0  0  0  0  0  0
   30.7110   15.4284   20.6489 O   0  0  0  0  0  0  0  0  0  0  0  0
   31.5786   16.3991   21.2342 C   0  0  0  0  0  0  0  0  0  0  0  0
   32.9877   16.1720   20.6911 C   0  0  0  0  0  0  0  0  0  0  0  0
   33.9182   17.0946   21.3180 N   0  0  0  0  0  0  0  0  0  0  0  0
   26.2828   15.4210   20.4380 O   0  0  0  0  0  0  0  0  0  0  0  0
  2  1  1  6  0  0  0
  2  5  1  0  0  0  0
  2  3  1  0  0  0  0
  3  4  1  0  0  0  0
  3 10  1  0  0  0  0
  5  6  1  0  0  0  0
  6  7  1  0  0  0  0
  7  8  1  0  0  0  0
  8  9  1  0  0  0  0
M  END
>  <CHROM.1>
-59.00167274,-179.46252343,-178.43278750,179.34916008,-176.90906107,29.53657468
15.49248098,20.89104551,-3.07977983,0.25846851,1.36642784

>  <Name>
ligand

>  <RI>
0

>  <Rbt.Current_Directory>
/home/itssahil/PROJECTS/Mol_Feturizer/New_Systems/rnas/3DJ0

>  <Rbt.Executable>
rbdock ($Id: //depot/dev/client3/rdock/2013.1/src/exe/rbdock.cxx#4 $)

>  <Rbt.Library>
libRbt.so (2013.1, Build901 2013/11/27)

>  <Rbt.Parameter_File>
/export/apps/rDock/src/rDock_2013.1_src/data/scripts/dock_solv.prm

>  <Rbt.Receptor>
prm/pocket_docking_6.prm

>  <SCORE>
-8.21804

>  <SCORE.INTER>
-6.15166

>  <SCORE.INTER.CONST>
1

>  <SCORE.INTER.POLAR>
0

>  <SCORE.INTER.ROT>
5

>  <SCORE.INTER.SOLV>
19.8604

>  <SCORE.INTER.VDW>
-17.6546

>  <SCORE.INTER.norm>
-0.615166

>  <SCORE.INTRA>
-2.06638

>  <SCORE.INTRA.DIHEDRAL>
-3.86177

>  <SCORE.INTRA.DIHEDRAL.0>
6.00299

>  <SCORE.INTRA.POLAR>
0

>  <SCORE.INTRA.POLAR.0>
0

>  <SCORE.INTRA.REPUL>
0

>  <SCORE.INTRA.REPUL.0>
0

>  <SCORE.INTRA.SOLV>
-0.703312

>  <SCORE.INTRA.SOLV.lig_0>
-39.3257

>  <SCORE.INTRA.VDW>
0.216158

>  <SCORE.INTRA.VDW.0>
-0.734044

>  <SCORE.INTRA.norm>
-0.206638

>  <SCORE.RESTR>
0

>  <SCORE.RESTR.CAVITY>
0

>  <SCORE.RESTR.norm>
0

>  <SCORE.SYSTEM>
0

>  <SCORE.SYSTEM.CONST>
0

>  <SCORE.SYSTEM.DIHEDRAL>
0

>  <SCORE.SYSTEM.SOLV>
0

>  <SCORE.SYSTEM.norm>
0

>  <SCORE.heavy>
10

>  <SCORE.norm>
-0.821804

>  <RMSD>
5.380

$$$$
ligand
 OpenBabel11021811473D
libRbt.so/2013.1/901 2013/11/27
 10  9  0  0  0  0  0  0  0  0999 V2000
   28.4249   14.6974   19.1549 N   0  0  0  0  0  0  0  0  0  0  0  0
   28.4265   14.6191   20.6038 C   0  0  2  0  0  0  0  0  0  0  0  0
   27.0379   14.8248   21.1475 C   0  0  0  0  0  0  0  0  0  0  0  0
   26.8633   14.8135   22.3916 O   0  0  0  0  0  0  0  0  0  0  0  0
   29.3782   15.6657   21.1672 C   0  0  0  0  0  0  0  0  0  0  0  0
   30.6855   15.4215   20.6544 O   0  0  0  0  0  0  0  0  0  0  0  0
   31.5658   16.3845   21.2338 C   0  0  0  0  0  0  0  0  0  0  0  0
   32.9659   16.1550   20.6688 C   0  0  0  0  0  0  0  0  0  0  0  0
   33.9119   17.0598   21.2986 N   0  0  0  0  0  0  0  0  0  0  0  0
   26.2527   15.4593   20.4147 O   0  0  0  0  0  0  0  0  0  0  0  0
  2  1  1  6  0  0  0
  2  5  1  0  0  0  0
  2  3  1  0  0  0  0
  3  4  1  0  0  0  0
  3 10  1  0  0  0  0
  5  6  1  0  0  0  0
  6  7  1  0  0  0  0
  7  8  1  0  0  0  0
  8  9  1  0  0  0  0
M  END
>  <CHROM.1>
-59.25312257,-178.65800393,-177.95775864,-178.73389257,-176.31987436,29.50985046
15.50953158,20.88518311,-3.07831073,0.24475033,1.34568845

>  <Name>
ligand

>  <RI>
0

>  <Rbt.Current_Directory>
/home/itssahil/PROJECTS/Mol_Feturizer/New_Systems/rnas/3DJ0

>  <Rbt.Executable>
rbdock ($Id: //depot/dev/client3/rdock/2013.1/src/exe/rbdock.cxx#4 $)

>  <Rbt.Library>
libRbt.so (2013.1, Build901 2013/11/27)

>  <Rbt.Parameter_File>
/export/apps/rDock/src/rDock_2013.1_src/data/scripts/dock_solv.prm

>  <Rbt.Receptor>
prm/pocket_docking_8.prm

>  <SCORE>
-8.24018

>  <SCORE.INTER>
-6.1964

>  <SCORE.INTER.CONST>
1

>  <SCORE.INTER.POLAR>
0

>  <SCORE.INTER.ROT>
5

>  <SCORE.INTER.SOLV>
19.8311

>  <SCORE.INTER.VDW>
-17.6746

>  <SCORE.INTER.norm>
-0.61964

>  <SCORE.INTRA>
-2.04378

>  <SCORE.INTRA.DIHEDRAL>
-3.84363

>  <SCORE.INTRA.DIHEDRAL.0>
6.00299

>  <SCORE.INTRA.POLAR>
0

>  <SCORE.INTRA.POLAR.0>
0

>  <SCORE.INTRA.REPUL>
0

>  <SCORE.INTRA.REPUL.0>
0

>  <SCORE.INTRA.SOLV>
-0.705318

>  <SCORE.INTRA.SOLV.lig_0>
-39.3257

>  <SCORE.INTRA.VDW>
0.230694

>  <SCORE.INTRA.VDW.0>
-0.734044

>  <SCORE.INTRA.norm>
-0.204378

>  <SCORE.RESTR>
0

>  <SCORE.RESTR.CAVITY>
0

>  <SCORE.RESTR.norm>
0

>  <SCORE.SYSTEM>
0

>  <SCORE.SYSTEM.CONST>
0

>  <SCORE.SYSTEM.DIHEDRAL>
0

>  <SCORE.SYSTEM.SOLV>
0

>  <SCORE.SYSTEM.norm>
0

>  <SCORE.heavy>
10

>  <SCORE.norm>
-0.824018

>  <RMSD>
5.382

$$$$
ligand
 OpenBabel11021811473D
libRbt.so/2013.1/901 2013/11/27
 10  9  0  0  0  0  0  0  0  0999 V2000
   28.7520   14.2790   22.3793 N   0  0  0  0  0  0  0  0  0  0  0  0
   28.4015   15.4117   21.5428 C   0  0  2  0  0  0  0  0  0  0  0  0
   27.2747   15.0541   20.6109 C   0  0  0  0  0  0  0  0  0  0  0  0
   27.5138   14.3198   19.6200 O   0  0  0  0  0  0  0  0  0  0  0  0
   29.6246   15.8557   20.7520 C   0  0  0  0  0  0  0  0  0  0  0  0
   30.6939   16.1049   21.6608 O   0  0  0  0  0  0  0  0  0  0  0  0
   31.8490   16.4379   20.8910 C   0  0  0  0  0  0  0  0  0  0  0  0
   32.9898   16.7609   21.8536 C   0  0  0  0  0  0  0  0  0  0  0  0
   32.6215   17.8781   22.7059 N   0  0  0  0  0  0  0  0  0  0  0  0
   26.1289   15.0806   21.1036 O   0  0  0  0  0  0  0  0  0  0  0  0
  2  1  1  6  0  0  0
  2  5  1  0  0  0  0
  2  3  1  0  0  0  0
  3  4  1  0  0  0  0
  3 10  1  0  0  0  0
  5  6  1  0  0  0  0
  6  7  1  0  0  0  0
  7  8  1  0  0  0  0
  8  9  1  0  0  0  0
M  END
>  <CHROM.1>
-54.39354776,-74.54056492,176.45002731,177.82741387,-59.70796790,29.54862700
15.70237941,21.29369674,2.86398091,-0.35590085,-1.76149793

>  <Name>
ligand

>  <RI>
0

>  <Rbt.Current_Directory>
/home/itssahil/PROJECTS/Mol_Feturizer/New_Systems/rnas/3DJ0

>  <Rbt.Executable>
rbdock ($Id: //depot/dev/client3/rdock/2013.1/src/exe/rbdock.cxx#4 $)

>  <Rbt.Library>
libRbt.so (2013.1, Build901 2013/11/27)

>  <Rbt.Parameter_File>
/export/apps/rDock/src/rDock_2013.1_src/data/scripts/dock_solv.prm

>  <Rbt.Receptor>
prm/pocket_docking_7.prm

>  <SCORE>
-6.90479

>  <SCORE.INTER>
-5.573

>  <SCORE.INTER.CONST>
1

>  <SCORE.INTER.POLAR>
0

>  <SCORE.INTER.ROT>
5

>  <SCORE.INTER.SOLV>
18.8849

>  <SCORE.INTER.VDW>
-16.9436

>  <SCORE.INTER.norm>
-0.5573

>  <SCORE.INTRA>
-1.33178

>  <SCORE.INTRA.DIHEDRAL>
-3.4558

>  <SCORE.INTRA.DIHEDRAL.0>
6.00299

>  <SCORE.INTRA.POLAR>
0

>  <SCORE.INTRA.POLAR.0>
0

>  <SCORE.INTRA.REPUL>
0

>  <SCORE.INTRA.REPUL.0>
0

>  <SCORE.INTRA.SOLV>
0.592274

>  <SCORE.INTRA.SOLV.lig_0>
-39.3257

>  <SCORE.INTRA.VDW>
0.0999765

>  <SCORE.INTRA.VDW.0>
-0.734044

>  <SCORE.INTRA.norm>
-0.133178

>  <SCORE.RESTR>
0

>  <SCORE.RESTR.CAVITY>
0

>  <SCORE.RESTR.norm>
0

>  <SCORE.SYSTEM>
0

>  <SCORE.SYSTEM.CONST>
0

>  <SCORE.SYSTEM.DIHEDRAL>
0

>  <SCORE.SYSTEM.SOLV>
0

>  <SCORE.SYSTEM.norm>
0

>  <SCORE.heavy>
10

>  <SCORE.norm>
-0.690479

>  <RMSD>
5.383

$$$$
ligand
 OpenBabel11021811473D
libRbt.so/2013.1/901 2013/11/27
 10  9  0  0  0  0  0  0  0  0999 V2000
   28.7766   14.2898   22.3930 N   0  0  0  0  0  0  0  0  0  0  0  0
   28.4076   15.3976   21.5316 C   0  0  2  0  0  0  0  0  0  0  0  0
   27.2801   15.0040   20.6151 C   0  0  0  0  0  0  0  0  0  0  0  0
   27.5118   14.2059   19.6729 O   0  0  0  0  0  0  0  0  0  0  0  0
   29.6207   15.8373   20.7233 C   0  0  0  0  0  0  0  0  0  0  0  0
   30.6867   16.1376   21.6206 O   0  0  0  0  0  0  0  0  0  0  0  0
   31.8337   16.4668   20.8372 C   0  0  0  0  0  0  0  0  0  0  0  0
   32.9960   16.7526   21.7857 C   0  0  0  0  0  0  0  0  0  0  0  0
   32.6609   17.8590   22.6654 N   0  0  0  0  0  0  0  0  0  0  0  0
   26.1320   15.0816   21.0968 O   0  0  0  0  0  0  0  0  0  0  0  0
  2  1  1  6  0  0  0
  2  5  1  0  0  0  0
  2  3  1  0  0  0  0
  3  4  1  0  0  0  0
  3 10  1  0  0  0  0
  5  6  1  0  0  0  0
  6  7  1  0  0  0  0
  7  8  1  0  0  0  0
  8  9  1  0  0  0  0
M  END
>  <CHROM.1>
-55.11936356,-71.67574534,176.49500688,-178.41295288,-59.71837503,29.55394221
15.68707799,21.27649024,2.86384365,-0.35757046,-1.78899313

>  <Name>
ligand

>  <RI>
0

>  <Rbt.Current_Directory>
/home/itssahil/PROJECTS/Mol_Feturizer/New_Systems/rnas/3DJ0

>  <Rbt.Executable>
rbdock ($Id: //depot/dev/client3/rdock/2013.1/src/exe/rbdock.cxx#4 $)

>  <Rbt.Library>
libRbt.so (2013.1, Build901 2013/11/27)

>  <Rbt.Parameter_File>
/export/apps/rDock/src/rDock_2013.1_src/data/scripts/dock_solv.prm

>  <Rbt.Receptor>
prm/blind_docking_60.prm

>  <SCORE>
-6.90389

>  <SCORE.INTER>
-5.46571

>  <SCORE.INTER.CONST>
1

>  <SCORE.INTER.POLAR>
0

>  <SCORE.INTER.ROT>
5

>  <SCORE.INTER.SOLV>
18.9379

>  <SCORE.INTER.VDW>
-16.8898

>  <SCORE.INTER.norm>
-0.546571

>  <SCORE.INTRA>
-1.43818

>  <SCORE.INTRA.DIHEDRAL>
-3.55353

>  <SCORE.INTRA.DIHEDRAL.0>
6.00299

>  <SCORE.INTRA.POLAR>
0

>  <SCORE.INTRA.POLAR.0>
0

>  <SCORE.INTRA.REPUL>
0

>  <SCORE.INTRA.REPUL.0>
0

>  <SCORE.INTRA.SOLV>
0.558526

>  <SCORE.INTRA.SOLV.lig_0>
-39.3257

>  <SCORE.INTRA.VDW>
0.059327

>  <SCORE.INTRA.VDW.0>
-0.734044

>  <SCORE.INTRA.norm>
-0.143818

>  <SCORE.RESTR>
0

>  <SCORE.RESTR.CAVITY>
0

>  <SCORE.RESTR.norm>
0

>  <SCORE.SYSTEM>
0

>  <SCORE.SYSTEM.CONST>
0

>  <SCORE.SYSTEM.DIHEDRAL>
0

>  <SCORE.SYSTEM.SOLV>
0

>  <SCORE.SYSTEM.norm>
0

>  <SCORE.heavy>
10

>  <SCORE.norm>
-0.690389

>  <RMSD>
5.386

$$$$
ligand
 OpenBabel11021811473D
libRbt.so/2013.1/901 2013/11/27
 10  9  0  0  0  0  0  0  0  0999 V2000
   29.0782   14.5879   19.5398 N   0  0  0  0  0  0  0  0  0  0  0  0
   28.6377   14.7025   20.9176 C   0  0  2  0  0  0  0  0  0  0  0  0
   27.1367   14.7923   20.9886 C   0  0  0  0  0  0  0  0  0  0  0  0
   26.5679   14.6167   22.0950 O   0  0  0  0  0  0  0  0  0  0  0  0
   29.2742   15.9310   21.5531 C   0  0  0  0  0  0  0  0  0  0  0  0
   30.6907   15.7726   21.5417 O   0  0  0  0  0  0  0  0  0  0  0  0
   31.2626   16.9386   22.1343 C   0  0  0  0  0  0  0  0  0  0  0  0
   32.7828   16.7967   22.1010 C   0  0  0  0  0  0  0  0  0  0  0  0
   33.4058   17.9687   22.6911 N   0  0  0  0  0  0  0  0  0  0  0  0
   26.5889   15.4895   20.1111 O   0  0  0  0  0  0  0  0  0  0  0  0
  2  1  1  6  0  0  0
  2  5  1  0  0  0  0
  2  3  1  0  0  0  0
  3  4  1  0  0  0  0
  3 10  1  0  0  0  0
  5  6  1  0  0  0  0
  6  7  1  0  0  0  0
  7  8  1  0  0  0  0
  8  9  1  0  0  0  0
M  END
>  <CHROM.1>
-61.52891091,165.30982133,179.66234613,-178.76979286,179.74497772,29.49981346
15.75448870,21.36835389,-2.76071620,0.26856649,1.14000770

>  <Name>
ligand

>  <RI>
0

>  <Rbt.Current_Directory>
/home/itssahil/PROJECTS/Mol_Feturizer/New_Systems/rnas/3DJ0

>  <Rbt.Executable>
rbdock ($Id: //depot/dev/client3/rdock/2013.1/src/exe/rbdock.cxx#4 $)

>  <Rbt.Library>
libRbt.so (2013.1, Build901 2013/11/27)

>  <Rbt.Parameter_File>
/export/apps/rDock/src/rDock_2013.1_src/data/scripts/dock_solv.prm

>  <Rbt.Receptor>
prm/pocket_docking_2.prm

>  <SCORE>
-7.86372

>  <SCORE.INTER>
-5.66703

>  <SCORE.INTER.CONST>
1

>  <SCORE.INTER.POLAR>
0

>  <SCORE.INTER.ROT>
5

>  <SCORE.INTER.SOLV>
18.4392

>  <SCORE.INTER.VDW>
-16.8578

>  <SCORE.INTER.norm>
-0.566703

>  <SCORE.INTRA>
-2.19669

>  <SCORE.INTRA.DIHEDRAL>
-3.63881

>  <SCORE.INTRA.DIHEDRAL.0>
6.00299

>  <SCORE.INTRA.POLAR>
0

>  <SCORE.INTRA.POLAR.0>
0

>  <SCORE.INTRA.REPUL>
0

>  <SCORE.INTRA.REPUL.0>
0

>  <SCORE.INTRA.SOLV>
-0.773601

>  <SCORE.INTRA.SOLV.lig_0>
-39.3257

>  <SCORE.INTRA.VDW>
0.00951518

>  <SCORE.INTRA.VDW.0>
-0.734044

>  <SCORE.INTRA.norm>
-0.219669

>  <SCORE.RESTR>
0

>  <SCORE.RESTR.CAVITY>
0

>  <SCORE.RESTR.norm>
0

>  <SCORE.SYSTEM>
0

>  <SCORE.SYSTEM.CONST>
0

>  <SCORE.SYSTEM.DIHEDRAL>
0

>  <SCORE.SYSTEM.SOLV>
0

>  <SCORE.SYSTEM.norm>
0

>  <SCORE.heavy>
10

>  <SCORE.norm>
-0.786372

>  <RMSD>
5.386

$$$$
ligand
 OpenBabel11021811473D
libRbt.so/2013.1/901 2013/11/27
 10  9  0  0  0  0  0  0  0  0999 V2000
   28.9948   13.9888   22.2612 N   0  0  0  0  0  0  0  0  0  0  0  0
   28.4459   15.2035   21.6878 C   0  0  2  0  0  0  0  0  0  0  0  0
   27.4449   14.8768   20.6120 C   0  0  0  0  0  0  0  0  0  0  0  0
   26.5234   15.6954   20.3688 O   0  0  0  0  0  0  0  0  0  0  0  0
   29.5759   16.0528   21.1221 C   0  0  0  0  0  0  0  0  0  0  0  0
   30.5868   16.1944   22.1169 O   0  0  0  0  0  0  0  0  0  0  0  0
   31.6704   16.9186   21.5346 C   0  0  0  0  0  0  0  0  0  0  0  0
   32.8238   16.9423   22.5353 C   0  0  0  0  0  0  0  0  0  0  0  0
   33.9395   17.6975   21.9921 N   0  0  0  0  0  0  0  0  0  0  0  0
   27.8364   14.0975   19.7200 O   0  0  0  0  0  0  0  0  0  0  0  0
  2  1  1  6  0  0  0
  2  5  1  0  0  0  0
  2  3  1  0  0  0  0
  3  4  1  0  0  0  0
  3 10  1  0  0  0  0
  5  6  1  0  0  0  0
  6  7  1  0  0  0  0
  7  8  1  0  0  0  0
  8  9  1  0  0  0  0
M  END
>  <CHROM.1>
-50.45142754,152.88286793,176.28756687,-173.71676746,-178.73311371,29.74912092
15.75892469,21.37119870,-2.97246334,-0.45053470,-0.61158338

>  <Name>
ligand

>  <RI>
0

>  <Rbt.Current_Directory>
/home/itssahil/PROJECTS/Mol_Feturizer/New_Systems/rnas/3DJ0

>  <Rbt.Executable>
rbdock ($Id: //depot/dev/client3/rdock/2013.1/src/exe/rbdock.cxx#4 $)

>  <Rbt.Library>
libRbt.so (2013.1, Build901 2013/11/27)

>  <Rbt.Parameter_File>
/export/apps/rDock/src/rDock_2013.1_src/data/scripts/dock_solv.prm

>  <Rbt.Receptor>
prm/pocket_docking_6.prm

>  <SCORE>
-5.1676

>  <SCORE.INTER>
-3.4533

>  <SCORE.INTER.CONST>
1

>  <SCORE.INTER.POLAR>
0

>  <SCORE.INTER.ROT>
5

>  <SCORE.INTER.SOLV>
21.3908

>  <SCORE.INTER.VDW>
-16.3658

>  <SCORE.INTER.norm>
-0.34533

>  <SCORE.INTRA>
-1.7143

>  <SCORE.INTRA.DIHEDRAL>
-2.80968

>  <SCORE.INTRA.DIHEDRAL.0>
6.00299

>  <SCORE.INTRA.POLAR>
0

>  <SCORE.INTRA.POLAR.0>
0

>  <SCORE.INTRA.REPUL>
0

>  <SCORE.INTRA.REPUL.0>
0

>  <SCORE.INTRA.SOLV>
-0.673136

>  <SCORE.INTRA.SOLV.lig_0>
-39.3257

>  <SCORE.INTRA.VDW>
0.0271093

>  <SCORE.INTRA.VDW.0>
-0.734044

>  <SCORE.INTRA.norm>
-0.17143

>  <SCORE.RESTR>
0

>  <SCORE.RESTR.CAVITY>
0

>  <SCORE.RESTR.norm>
0

>  <SCORE.SYSTEM>
0

>  <SCORE.SYSTEM.CONST>
0

>  <SCORE.SYSTEM.DIHEDRAL>
0

>  <SCORE.SYSTEM.SOLV>
0

>  <SCORE.SYSTEM.norm>
0

>  <SCORE.heavy>
10

>  <SCORE.norm>
-0.51676

>  <RMSD>
5.386

$$$$
ligand
 OpenBabel11021811473D
libRbt.so/2013.1/901 2013/11/27
 10  9  0  0  0  0  0  0  0  0999 V2000
   28.4437   14.6108   19.1544 N   0  0  0  0  0  0  0  0  0  0  0  0
   28.4367   14.6001   20.6053 C   0  0  2  0  0  0  0  0  0  0  0  0
   27.0412   14.8080   21.1303 C   0  0  0  0  0  0  0  0  0  0  0  0
   26.8503   14.7994   22.3721 O   0  0  0  0  0  0  0  0  0  0  0  0
   29.3675   15.6872   21.1251 C   0  0  0  0  0  0  0  0  0  0  0  0
   30.6867   15.4276   20.6518 O   0  0  0  0  0  0  0  0  0  0  0  0
   31.5489   16.4235   21.2018 C   0  0  0  0  0  0  0  0  0  0  0  0
   32.9645   16.1683   20.6888 C   0  0  0  0  0  0  0  0  0  0  0  0
   33.8973   17.0826   21.3243 N   0  0  0  0  0  0  0  0  0  0  0  0
   26.2663   15.4417   20.3860 O   0  0  0  0  0  0  0  0  0  0  0  0
  2  1  1  6  0  0  0
  2  5  1  0  0  0  0
  2  3  1  0  0  0  0
  3  4  1  0  0  0  0
  3 10  1  0  0  0  0
  5  6  1  0  0  0  0
  6  7  1  0  0  0  0
  7  8  1  0  0  0  0
  8  9  1  0  0  0  0
M  END
>  <CHROM.1>
-60.27487374,178.57990133,-177.38765186,-179.29813859,-174.61194879,29.50884219
15.50443713,20.87532220,-3.06357732,0.24930487,1.31199094

>  <Name>
ligand

>  <RI>
0

>  <Rbt.Current_Directory>
/home/itssahil/PROJECTS/Mol_Feturizer/New_Systems/rnas/3DJ0

>  <Rbt.Executable>
rbdock ($Id: //depot/dev/client3/rdock/2013.1/src/exe/rbdock.cxx#4 $)

>  <Rbt.Library>
libRbt.so (2013.1, Build901 2013/11/27)

>  <Rbt.Parameter_File>
/export/apps/rDock/src/rDock_2013.1_src/data/scripts/dock_solv.prm

>  <Rbt.Receptor>
prm/pocket_docking_4.prm

>  <SCORE>
-8.2931

>  <SCORE.INTER>
-6.23031

>  <SCORE.INTER.CONST>
1

>  <SCORE.INTER.POLAR>
0

>  <SCORE.INTER.ROT>
5

>  <SCORE.INTER.SOLV>
19.9341

>  <SCORE.INTER.VDW>
-17.7316

>  <SCORE.INTER.norm>
-0.623031

>  <SCORE.INTRA>
-2.06279

>  <SCORE.INTRA.DIHEDRAL>
-3.74584

>  <SCORE.INTRA.DIHEDRAL.0>
6.00299

>  <SCORE.INTRA.POLAR>
0

>  <SCORE.INTRA.POLAR.0>
0

>  <SCORE.INTRA.REPUL>
0

>  <SCORE.INTRA.REPUL.0>
0

>  <SCORE.INTRA.SOLV>
-0.726916

>  <SCORE.INTRA.SOLV.lig_0>
-39.3257

>  <SCORE.INTRA.VDW>
0.173588

>  <SCORE.INTRA.VDW.0>
-0.734044

>  <SCORE.INTRA.norm>
-0.206279

>  <SCORE.RESTR>
0

>  <SCORE.RESTR.CAVITY>
0

>  <SCORE.RESTR.norm>
0

>  <SCORE.SYSTEM>
0

>  <SCORE.SYSTEM.CONST>
0

>  <SCORE.SYSTEM.DIHEDRAL>
0

>  <SCORE.SYSTEM.SOLV>
0

>  <SCORE.SYSTEM.norm>
0

>  <SCORE.heavy>
10

>  <SCORE.norm>
-0.82931

>  <RMSD>
5.387

$$$$
ligand
 OpenBabel11021811473D
libRbt.so/2013.1/901 2013/11/27
 10  9  0  0  0  0  0  0  0  0999 V2000
   28.3945   15.2616   22.7949 N   0  0  0  0  0  0  0  0  0  0  0  0
   28.3804   15.8608   21.4734 C   0  0  2  0  0  0  0  0  0  0  0  0
   27.3692   15.1775   20.5922 C   0  0  0  0  0  0  0  0  0  0  0  0
   26.2206   14.9491   21.0472 O   0  0  0  0  0  0  0  0  0  0  0  0
   29.7704   15.7668   20.8591 C   0  0  0  0  0  0  0  0  0  0  0  0
   30.7090   16.3597   21.7530 O   0  0  0  0  0  0  0  0  0  0  0  0
   31.9985   16.2765   21.1463 C   0  0  0  0  0  0  0  0  0  0  0  0
   33.0299   16.8119   22.1371 C   0  0  0  0  0  0  0  0  0  0  0  0
   32.6631   18.1512   22.5635 N   0  0  0  0  0  0  0  0  0  0  0  0
   27.5363   15.3114   19.3633 O   0  0  0  0  0  0  0  0  0  0  0  0
  2  1  1  1  0  0  0
  2  5  1  0  0  0  0
  2  3  1  0  0  0  0
  3  4  1  0  0  0  0
  3 10  1  0  0  0  0
  5  6  1  0  0  0  0
  6  7  1  0  0  0  0
  7  8  1  0  0  0  0
  8  9  1  0  0  0  0
M  END
>  <CHROM.1>
-54.90547650,46.19841130,-179.16046204,-175.76755433,-54.78703364,29.57152403
15.98047483,21.35062931,2.87191488,-0.32446530,-1.67716225

>  <Name>
ligand

>  <RI>
0

>  <Rbt.Current_Directory>
/home/itssahil/PROJECTS/Mol_Feturizer/New_Systems/rnas/3DJ0

>  <Rbt.Executable>
rbdock ($Id: //depot/dev/client3/rdock/2013.1/src/exe/rbdock.cxx#4 $)

>  <Rbt.Library>
libRbt.so (2013.1, Build901 2013/11/27)

>  <Rbt.Parameter_File>
/export/apps/rDock/src/rDock_2013.1_src/data/scripts/dock_solv.prm

>  <Rbt.Receptor>
prm/pocket_docking_7.prm

>  <SCORE>
-6.39503

>  <SCORE.INTER>
-5.59866

>  <SCORE.INTER.CONST>
1

>  <SCORE.INTER.POLAR>
0

>  <SCORE.INTER.ROT>
5

>  <SCORE.INTER.SOLV>
19.0358

>  <SCORE.INTER.VDW>
-17.011

>  <SCORE.INTER.norm>
-0.559866

>  <SCORE.INTRA>
-0.796372

>  <SCORE.INTRA.DIHEDRAL>
-3.38261

>  <SCORE.INTRA.DIHEDRAL.0>
6.00299

>  <SCORE.INTRA.POLAR>
0

>  <SCORE.INTRA.POLAR.0>
0

>  <SCORE.INTRA.REPUL>
0

>  <SCORE.INTRA.REPUL.0>
0

>  <SCORE.INTRA.SOLV>
0.410476

>  <SCORE.INTRA.SOLV.lig_0>
-39.3257

>  <SCORE.INTRA.VDW>
0.689695

>  <SCORE.INTRA.VDW.0>
-0.734044

>  <SCORE.INTRA.norm>
-0.0796372

>  <SCORE.RESTR>
0

>  <SCORE.RESTR.CAVITY>
0

>  <SCORE.RESTR.norm>
0

>  <SCORE.SYSTEM>
0

>  <SCORE.SYSTEM.CONST>
0

>  <SCORE.SYSTEM.DIHEDRAL>
0

>  <SCORE.SYSTEM.SOLV>
0

>  <SCORE.SYSTEM.norm>
0

>  <SCORE.heavy>
10

>  <SCORE.norm>
-0.639503

>  <RMSD>
5.387

$$$$
ligand
 OpenBabel11021811473D
libRbt.so/2013.1/901 2013/11/27
 10  9  0  0  0  0  0  0  0  0999 V2000
   28.7224   14.4232   22.4808 N   0  0  0  0  0  0  0  0  0  0  0  0
   28.3726   15.4604   21.5282 C   0  0  2  0  0  0  0  0  0  0  0  0
   27.2867   14.9842   20.6008 C   0  0  0  0  0  0  0  0  0  0  0  0
   27.5718   14.1467   19.7088 O   0  0  0  0  0  0  0  0  0  0  0  0
   29.6103   15.8601   20.7365 C   0  0  0  0  0  0  0  0  0  0  0  0
   30.6648   16.1538   21.6493 O   0  0  0  0  0  0  0  0  0  0  0  0
   31.8307   16.4556   20.8830 C   0  0  0  0  0  0  0  0  0  0  0  0
   32.9744   16.7574   21.8490 C   0  0  0  0  0  0  0  0  0  0  0  0
   32.6266   17.8846   22.6966 N   0  0  0  0  0  0  0  0  0  0  0  0
   26.1224   15.0494   21.0438 O   0  0  0  0  0  0  0  0  0  0  0  0
  2  1  1  1  0  0  0
  2  5  1  0  0  0  0
  2  3  1  0  0  0  0
  3  4  1  0  0  0  0
  3 10  1  0  0  0  0
  5  6  1  0  0  0  0
  6  7  1  0  0  0  0
  7  8  1  0  0  0  0
  8  9  1  0  0  0  0
M  END
>  <CHROM.1>
-51.23104176,-73.26339711,176.96424525,-179.37265452,-59.51668610,29.54254333
15.69967584,21.29963813,2.83796141,-0.34714413,-1.83609714

>  <Name>
ligand

>  <RI>
0

>  <Rbt.Current_Directory>
/home/itssahil/PROJECTS/Mol_Feturizer/New_Systems/rnas/3DJ0

>  <Rbt.Executable>
rbdock ($Id: //depot/dev/client3/rdock/2013.1/src/exe/rbdock.cxx#4 $)

>  <Rbt.Library>
libRbt.so (2013.1, Build901 2013/11/27)

>  <Rbt.Parameter_File>
/export/apps/rDock/src/rDock_2013.1_src/data/scripts/dock_solv.prm

>  <Rbt.Receptor>
prm/pocket_docking_2.prm

>  <SCORE>
-6.7967

>  <SCORE.INTER>
-5.53898

>  <SCORE.INTER.CONST>
1

>  <SCORE.INTER.POLAR>
0

>  <SCORE.INTER.ROT>
5

>  <SCORE.INTER.SOLV>
18.8813

>  <SCORE.INTER.VDW>
-16.9198

>  <SCORE.INTER.norm>
-0.553898

>  <SCORE.INTRA>
-1.25771

>  <SCORE.INTRA.DIHEDRAL>
-3.35738

>  <SCORE.INTRA.DIHEDRAL.0>
6.00299

>  <SCORE.INTRA.POLAR>
0

>  <SCORE.INTRA.POLAR.0>
0

>  <SCORE.INTRA.REPUL>
0

>  <SCORE.INTRA.REPUL.0>
0

>  <SCORE.INTRA.SOLV>
0.610654

>  <SCORE.INTRA.SOLV.lig_0>
-39.3257

>  <SCORE.INTRA.VDW>
0.115647

>  <SCORE.INTRA.VDW.0>
-0.734044

>  <SCORE.INTRA.norm>
-0.125771

>  <SCORE.RESTR>
0

>  <SCORE.RESTR.CAVITY>
0

>  <SCORE.RESTR.norm>
0

>  <SCORE.SYSTEM>
0

>  <SCORE.SYSTEM.CONST>
0

>  <SCORE.SYSTEM.DIHEDRAL>
0

>  <SCORE.SYSTEM.SOLV>
0

>  <SCORE.SYSTEM.norm>
0

>  <SCORE.heavy>
10

>  <SCORE.norm>
-0.67967

>  <RMSD>
5.388

$$$$
ligand
 OpenBabel11021811473D
libRbt.so/2013.1/901 2013/11/27
 10  9  0  0  0  0  0  0  0  0999 V2000
   28.4271   14.6849   19.1408 N   0  0  0  0  0  0  0  0  0  0  0  0
   28.4277   14.6173   20.5902 C   0  0  2  0  0  0  0  0  0  0  0  0
   27.0360   14.8101   21.1306 C   0  0  0  0  0  0  0  0  0  0  0  0
   26.8586   14.7978   22.3743 O   0  0  0  0  0  0  0  0  0  0  0  0
   29.3658   15.6795   21.1470 C   0  0  0  0  0  0  0  0  0  0  0  0
   30.6815   15.4331   20.6572 O   0  0  0  0  0  0  0  0  0  0  0  0
   31.5464   16.4186   21.2216 C   0  0  0  0  0  0  0  0  0  0  0  0
   32.9608   16.1686   20.7030 C   0  0  0  0  0  0  0  0  0  0  0  0
   33.8920   17.0898   21.3309 N   0  0  0  0  0  0  0  0  0  0  0  0
   26.2464   15.4366   20.3956 O   0  0  0  0  0  0  0  0  0  0  0  0
  2  1  1  6  0  0  0
  2  5  1  0  0  0  0
  2  3  1  0  0  0  0
  3  4  1  0  0  0  0
  3 10  1  0  0  0  0
  5  6  1  0  0  0  0
  6  7  1  0  0  0  0
  7  8  1  0  0  0  0
  8  9  1  0  0  0  0
M  END
>  <CHROM.1>
-60.30310482,-179.08054165,-178.44530535,-179.88811536,-175.79713395,29.50279945
15.51275244,20.88064043,-3.06869259,0.24957503,1.34007174

>  <Name>
ligand

>  <RI>
0

>  <Rbt.Current_Directory>
/home/itssahil/PROJECTS/Mol_Feturizer/New_Systems/rnas/3DJ0

>  <Rbt.Executable>
rbdock ($Id: //depot/dev/client3/rdock/2013.1/src/exe/rbdock.cxx#4 $)

>  <Rbt.Library>
libRbt.so (2013.1, Build901 2013/11/27)

>  <Rbt.Parameter_File>
/export/apps/rDock/src/rDock_2013.1_src/data/scripts/dock_solv.prm

>  <Rbt.Receptor>
prm/pocket_docking_3.prm

>  <SCORE>
-8.26522

>  <SCORE.INTER>
-6.20359

>  <SCORE.INTER.CONST>
1

>  <SCORE.INTER.POLAR>
0

>  <SCORE.INTER.ROT>
5

>  <SCORE.INTER.SOLV>
19.8436

>  <SCORE.INTER.VDW>
-17.6836

>  <SCORE.INTER.norm>
-0.620359

>  <SCORE.INTRA>
-2.06162

>  <SCORE.INTRA.DIHEDRAL>
-3.84215

>  <SCORE.INTRA.DIHEDRAL.0>
6.00299

>  <SCORE.INTRA.POLAR>
0

>  <SCORE.INTRA.POLAR.0>
0

>  <SCORE.INTRA.REPUL>
0

>  <SCORE.INTRA.REPUL.0>
0

>  <SCORE.INTRA.SOLV>
-0.715757

>  <SCORE.INTRA.SOLV.lig_0>
-39.3257

>  <SCORE.INTRA.VDW>
0.21733

>  <SCORE.INTRA.VDW.0>
-0.734044

>  <SCORE.INTRA.norm>
-0.206162

>  <SCORE.RESTR>
0

>  <SCORE.RESTR.CAVITY>
0

>  <SCORE.RESTR.norm>
0

>  <SCORE.SYSTEM>
0

>  <SCORE.SYSTEM.CONST>
0

>  <SCORE.SYSTEM.DIHEDRAL>
0

>  <SCORE.SYSTEM.SOLV>
0

>  <SCORE.SYSTEM.norm>
0

>  <SCORE.heavy>
10

>  <SCORE.norm>
-0.826522

>  <RMSD>
5.388

$$$$
ligand
 OpenBabel11021811473D
libRbt.so/2013.1/901 2013/11/27
 10  9  0  0  0  0  0  0  0  0999 V2000
   28.4459   14.6127   19.1505 N   0  0  0  0  0  0  0  0  0  0  0  0
   28.4363   14.5958   20.6014 C   0  0  2  0  0  0  0  0  0  0  0  0
   27.0395   14.7983   21.1249 C   0  0  0  0  0  0  0  0  0  0  0  0
   26.8476   14.7910   22.3664 O   0  0  0  0  0  0  0  0  0  0  0  0
   29.3637   15.6829   21.1273 C   0  0  0  0  0  0  0  0  0  0  0  0
   30.6847   15.4274   20.6569 O   0  0  0  0  0  0  0  0  0  0  0  0
   31.5440   16.4215   21.2146 C   0  0  0  0  0  0  0  0  0  0  0  0
   32.9567   16.1860   20.6847 C   0  0  0  0  0  0  0  0  0  0  0  0
   33.8885   17.0959   21.3281 N   0  0  0  0  0  0  0  0  0  0  0  0
   26.2623   15.4271   20.3788 O   0  0  0  0  0  0  0  0  0  0  0  0
  2  1  1  6  0  0  0
  2  5  1  0  0  0  0
  2  3  1  0  0  0  0
  3  4  1  0  0  0  0
  3 10  1  0  0  0  0
  5  6  1  0  0  0  0
  6  7  1  0  0  0  0
  7  8  1  0  0  0  0
  8  9  1  0  0  0  0
M  END
>  <CHROM.1>
-60.35988884,178.94887226,-177.27686693,-178.28459213,-174.49307941,29.50543311
15.50317581,20.87466198,-3.06186425,0.25231608,1.31425701

>  <Name>
ligand

>  <RI>
0

>  <Rbt.Current_Directory>
/home/itssahil/PROJECTS/Mol_Feturizer/New_Systems/rnas/3DJ0

>  <Rbt.Executable>
rbdock ($Id: //depot/dev/client3/rdock/2013.1/src/exe/rbdock.cxx#4 $)

>  <Rbt.Library>
libRbt.so (2013.1, Build901 2013/11/27)

>  <Rbt.Parameter_File>
/export/apps/rDock/src/rDock_2013.1_src/data/scripts/dock_solv.prm

>  <Rbt.Receptor>
prm/pocket_docking_4.prm

>  <SCORE>
-8.27631

>  <SCORE.INTER>
-6.22723

>  <SCORE.INTER.CONST>
1

>  <SCORE.INTER.POLAR>
0

>  <SCORE.INTER.ROT>
5

>  <SCORE.INTER.SOLV>
19.9412

>  <SCORE.INTER.VDW>
-17.7319

>  <SCORE.INTER.norm>
-0.622723

>  <SCORE.INTRA>
-2.04908

>  <SCORE.INTRA.DIHEDRAL>
-3.73088

>  <SCORE.INTRA.DIHEDRAL.0>
6.00299

>  <SCORE.INTRA.POLAR>
0

>  <SCORE.INTRA.POLAR.0>
0

>  <SCORE.INTRA.REPUL>
0

>  <SCORE.INTRA.REPUL.0>
0

>  <SCORE.INTRA.SOLV>
-0.72706

>  <SCORE.INTRA.SOLV.lig_0>
-39.3257

>  <SCORE.INTRA.VDW>
0.179891

>  <SCORE.INTRA.VDW.0>
-0.734044

>  <SCORE.INTRA.norm>
-0.204908

>  <SCORE.RESTR>
0

>  <SCORE.RESTR.CAVITY>
0

>  <SCORE.RESTR.norm>
0

>  <SCORE.SYSTEM>
0

>  <SCORE.SYSTEM.CONST>
0

>  <SCORE.SYSTEM.DIHEDRAL>
0

>  <SCORE.SYSTEM.SOLV>
0

>  <SCORE.SYSTEM.norm>
0

>  <SCORE.heavy>
10

>  <SCORE.norm>
-0.827631

>  <RMSD>
5.389

$$$$
ligand
 OpenBabel11021811473D
libRbt.so/2013.1/901 2013/11/27
 10  9  0  0  0  0  0  0  0  0999 V2000
   29.0006   14.8339   19.4261 N   0  0  0  0  0  0  0  0  0  0  0  0
   28.6234   14.7897   20.8265 C   0  0  2  0  0  0  0  0  0  0  0  0
   27.1258   14.8313   20.9738 C   0  0  0  0  0  0  0  0  0  0  0  0
   26.6182   14.6020   22.0999 O   0  0  0  0  0  0  0  0  0  0  0  0
   29.2623   15.9605   21.5610 C   0  0  0  0  0  0  0  0  0  0  0  0
   30.6798   15.8269   21.4935 O   0  0  0  0  0  0  0  0  0  0  0  0
   31.2537   16.9363   22.1847 C   0  0  0  0  0  0  0  0  0  0  0  0
   32.7740   16.8150   22.1072 C   0  0  0  0  0  0  0  0  0  0  0  0
   33.3985   17.9680   22.7321 N   0  0  0  0  0  0  0  0  0  0  0  0
   26.5151   15.5401   20.1487 O   0  0  0  0  0  0  0  0  0  0  0  0
  2  1  1  6  0  0  0
  2  5  1  0  0  0  0
  2  3  1  0  0  0  0
  3  4  1  0  0  0  0
  3 10  1  0  0  0  0
  5  6  1  0  0  0  0
  6  7  1  0  0  0  0
  7  8  1  0  0  0  0
  8  9  1  0  0  0  0
M  END
>  <CHROM.1>
-62.74548953,169.51369242,179.84152076,-179.36830199,176.66674170,29.48258681
15.80418603,21.35734689,-2.78920243,0.30057559,1.25697705

>  <Name>
ligand

>  <RI>
0

>  <Rbt.Current_Directory>
/home/itssahil/PROJECTS/Mol_Feturizer/New_Systems/rnas/3DJ0

>  <Rbt.Executable>
rbdock ($Id: //depot/dev/client3/rdock/2013.1/src/exe/rbdock.cxx#4 $)

>  <Rbt.Library>
libRbt.so (2013.1, Build901 2013/11/27)

>  <Rbt.Parameter_File>
/export/apps/rDock/src/rDock_2013.1_src/data/scripts/dock_solv.prm

>  <Rbt.Receptor>
prm/pocket_docking_2.prm

>  <SCORE>
-7.90488

>  <SCORE.INTER>
-5.7291

>  <SCORE.INTER.CONST>
1

>  <SCORE.INTER.POLAR>
0

>  <SCORE.INTER.ROT>
5

>  <SCORE.INTER.SOLV>
18.072

>  <SCORE.INTER.VDW>
-16.7767

>  <SCORE.INTER.norm>
-0.57291

>  <SCORE.INTRA>
-2.17578

>  <SCORE.INTRA.DIHEDRAL>
-3.66922

>  <SCORE.INTRA.DIHEDRAL.0>
6.00299

>  <SCORE.INTRA.POLAR>
0

>  <SCORE.INTRA.POLAR.0>
0

>  <SCORE.INTRA.REPUL>
0

>  <SCORE.INTRA.REPUL.0>
0

>  <SCORE.INTRA.SOLV>
-0.77339

>  <SCORE.INTRA.SOLV.lig_0>
-39.3257

>  <SCORE.INTRA.VDW>
0.0455244

>  <SCORE.INTRA.VDW.0>
-0.734044

>  <SCORE.INTRA.norm>
-0.217578

>  <SCORE.RESTR>
0

>  <SCORE.RESTR.CAVITY>
0

>  <SCORE.RESTR.norm>
0

>  <SCORE.SYSTEM>
0

>  <SCORE.SYSTEM.CONST>
0

>  <SCORE.SYSTEM.DIHEDRAL>
0

>  <SCORE.SYSTEM.SOLV>
0

>  <SCORE.SYSTEM.norm>
0

>  <SCORE.heavy>
10

>  <SCORE.norm>
-0.790488

>  <RMSD>
5.390

$$$$
ligand
 OpenBabel11021811473D
libRbt.so/2013.1/901 2013/11/27
 10  9  0  0  0  0  0  0  0  0999 V2000
   28.7579   14.2652   22.3963 N   0  0  0  0  0  0  0  0  0  0  0  0
   28.3784   15.3729   21.5394 C   0  0  2  0  0  0  0  0  0  0  0  0
   27.2653   14.9675   20.6106 C   0  0  0  0  0  0  0  0  0  0  0  0
   27.5176   14.1792   19.6654 O   0  0  0  0  0  0  0  0  0  0  0  0
   29.5910   15.8378   20.7446 C   0  0  0  0  0  0  0  0  0  0  0  0
   30.6588   16.1057   21.6499 O   0  0  0  0  0  0  0  0  0  0  0  0
   31.8124   16.4335   20.8756 C   0  0  0  0  0  0  0  0  0  0  0  0
   32.9644   16.7294   21.8335 C   0  0  0  0  0  0  0  0  0  0  0  0
   32.6352   17.8690   22.6720 N   0  0  0  0  0  0  0  0  0  0  0  0
   26.1119   15.0241   21.0825 O   0  0  0  0  0  0  0  0  0  0  0  0
  2  1  1  6  0  0  0
  2  5  1  0  0  0  0
  2  3  1  0  0  0  0
  3  4  1  0  0  0  0
  3 10  1  0  0  0  0
  5  6  1  0  0  0  0
  6  7  1  0  0  0  0
  7  8  1  0  0  0  0
  8  9  1  0  0  0  0
M  END
>  <CHROM.1>
-53.17444408,-71.63096589,175.36574376,179.75555198,-61.63299322,29.53293962
15.66178397,21.28905127,2.85590826,-0.36045174,-1.79123358

>  <Name>
ligand

>  <RI>
0

>  <Rbt.Current_Directory>
/home/itssahil/PROJECTS/Mol_Feturizer/New_Systems/rnas/3DJ0

>  <Rbt.Executable>
rbdock ($Id: //depot/dev/client3/rdock/2013.1/src/exe/rbdock.cxx#4 $)

>  <Rbt.Library>
libRbt.so (2013.1, Build901 2013/11/27)

>  <Rbt.Parameter_File>
/export/apps/rDock/src/rDock_2013.1_src/data/scripts/dock_solv.prm

>  <Rbt.Receptor>
prm/pocket_docking_5.prm

>  <SCORE>
-6.91559

>  <SCORE.INTER>
-5.54749

>  <SCORE.INTER.CONST>
1

>  <SCORE.INTER.POLAR>
0

>  <SCORE.INTER.ROT>
5

>  <SCORE.INTER.SOLV>
19.0471

>  <SCORE.INTER.VDW>
-16.9807

>  <SCORE.INTER.norm>
-0.554749

>  <SCORE.INTRA>
-1.3681

>  <SCORE.INTRA.DIHEDRAL>
-3.42976

>  <SCORE.INTRA.DIHEDRAL.0>
6.00299

>  <SCORE.INTRA.POLAR>
0

>  <SCORE.INTRA.POLAR.0>
0

>  <SCORE.INTRA.REPUL>
0

>  <SCORE.INTRA.REPUL.0>
0

>  <SCORE.INTRA.SOLV>
0.570802

>  <SCORE.INTRA.SOLV.lig_0>
-39.3257

>  <SCORE.INTRA.VDW>
0.0613775

>  <SCORE.INTRA.VDW.0>
-0.734044

>  <SCORE.INTRA.norm>
-0.13681

>  <SCORE.RESTR>
0

>  <SCORE.RESTR.CAVITY>
0

>  <SCORE.RESTR.norm>
0

>  <SCORE.SYSTEM>
0

>  <SCORE.SYSTEM.CONST>
0

>  <SCORE.SYSTEM.DIHEDRAL>
0

>  <SCORE.SYSTEM.SOLV>
0

>  <SCORE.SYSTEM.norm>
0

>  <SCORE.heavy>
10

>  <SCORE.norm>
-0.691559

>  <RMSD>
5.394

$$$$
ligand
 OpenBabel11021811473D
libRbt.so/2013.1/901 2013/11/27
 10  9  0  0  0  0  0  0  0  0999 V2000
   28.3911   15.2239   22.8287 N   0  0  0  0  0  0  0  0  0  0  0  0
   28.3573   15.8053   21.4997 C   0  0  2  0  0  0  0  0  0  0  0  0
   27.3342   15.1095   20.6423 C   0  0  0  0  0  0  0  0  0  0  0  0
   26.1816   14.9182   21.1041 O   0  0  0  0  0  0  0  0  0  0  0  0
   29.7385   15.7041   20.8667 C   0  0  0  0  0  0  0  0  0  0  0  0
   30.6912   16.2981   21.7450 O   0  0  0  0  0  0  0  0  0  0  0  0
   31.9683   16.2284   21.1111 C   0  0  0  0  0  0  0  0  0  0  0  0
   33.0192   16.7432   22.0923 C   0  0  0  0  0  0  0  0  0  0  0  0
   32.6872   18.0926   22.5155 N   0  0  0  0  0  0  0  0  0  0  0  0
   27.5041   15.1967   19.4096 O   0  0  0  0  0  0  0  0  0  0  0  0
  2  1  1  1  0  0  0
  2  5  1  0  0  0  0
  2  3  1  0  0  0  0
  3  4  1  0  0  0  0
  3 10  1  0  0  0  0
  5  6  1  0  0  0  0
  6  7  1  0  0  0  0
  7  8  1  0  0  0  0
  8  9  1  0  0  0  0
M  END
>  <CHROM.1>
-54.34342346,48.07090552,-178.19382847,-174.84783082,-56.91325054,29.55131681
15.91951615,21.35966957,2.88152837,-0.32040242,-1.69685595

>  <Name>
ligand

>  <RI>
0

>  <Rbt.Current_Directory>
/home/itssahil/PROJECTS/Mol_Feturizer/New_Systems/rnas/3DJ0

>  <Rbt.Executable>
rbdock ($Id: //depot/dev/client3/rdock/2013.1/src/exe/rbdock.cxx#4 $)

>  <Rbt.Library>
libRbt.so (2013.1, Build901 2013/11/27)

>  <Rbt.Parameter_File>
/export/apps/rDock/src/rDock_2013.1_src/data/scripts/dock_solv.prm

>  <Rbt.Receptor>
prm/pocket_docking_6.prm

>  <SCORE>
-6.35204

>  <SCORE.INTER>
-5.5768

>  <SCORE.INTER.CONST>
1

>  <SCORE.INTER.POLAR>
0

>  <SCORE.INTER.ROT>
5

>  <SCORE.INTER.SOLV>
18.9826

>  <SCORE.INTER.VDW>
-16.9787

>  <SCORE.INTER.norm>
-0.55768

>  <SCORE.INTRA>
-0.775246

>  <SCORE.INTRA.DIHEDRAL>
-3.40984

>  <SCORE.INTRA.DIHEDRAL.0>
6.00299

>  <SCORE.INTRA.POLAR>
0

>  <SCORE.INTRA.POLAR.0>
0

>  <SCORE.INTRA.REPUL>
0

>  <SCORE.INTRA.REPUL.0>
0

>  <SCORE.INTRA.SOLV>
0.37887

>  <SCORE.INTRA.SOLV.lig_0>
-39.3257

>  <SCORE.INTRA.VDW>
0.740239

>  <SCORE.INTRA.VDW.0>
-0.734044

>  <SCORE.INTRA.norm>
-0.0775246

>  <SCORE.RESTR>
0

>  <SCORE.RESTR.CAVITY>
0

>  <SCORE.RESTR.norm>
0

>  <SCORE.SYSTEM>
0

>  <SCORE.SYSTEM.CONST>
0

>  <SCORE.SYSTEM.DIHEDRAL>
0

>  <SCORE.SYSTEM.SOLV>
0

>  <SCORE.SYSTEM.norm>
0

>  <SCORE.heavy>
10

>  <SCORE.norm>
-0.635204

>  <RMSD>
5.394

$$$$
ligand
 OpenBabel11021811473D
libRbt.so/2013.1/901 2013/11/27
 10  9  0  0  0  0  0  0  0  0999 V2000
   28.6738   14.3957   22.3994 N   0  0  0  0  0  0  0  0  0  0  0  0
   28.3338   15.4708   21.4860 C   0  0  2  0  0  0  0  0  0  0  0  0
   27.2418   15.0403   20.5434 C   0  0  0  0  0  0  0  0  0  0  0  0
   27.5218   14.2505   19.6074 O   0  0  0  0  0  0  0  0  0  0  0  0
   29.5746   15.8862   20.7075 C   0  0  0  0  0  0  0  0  0  0  0  0
   30.6179   16.1857   21.6314 O   0  0  0  0  0  0  0  0  0  0  0  0
   31.7953   16.4747   20.8777 C   0  0  0  0  0  0  0  0  0  0  0  0
   32.9355   16.7487   21.8560 C   0  0  0  0  0  0  0  0  0  0  0  0
   32.6001   17.8753   22.7094 N   0  0  0  0  0  0  0  0  0  0  0  0
   26.0808   15.0799   20.9978 O   0  0  0  0  0  0  0  0  0  0  0  0
  2  1  1  1  0  0  0
  2  5  1  0  0  0  0
  2  3  1  0  0  0  0
  3  4  1  0  0  0  0
  3 10  1  0  0  0  0
  5  6  1  0  0  0  0
  6  7  1  0  0  0  0
  7  8  1  0  0  0  0
  8  9  1  0  0  0  0
M  END
>  <CHROM.1>
-53.47543619,-74.43182486,175.75061476,-177.99691365,-59.60077631,29.50158408
15.72408638,21.26297869,2.84169583,-0.34780787,-1.79614646

>  <Name>
ligand

>  <RI>
0

>  <Rbt.Current_Directory>
/home/itssahil/PROJECTS/Mol_Feturizer/New_Systems/rnas/3DJ0

>  <Rbt.Executable>
rbdock ($Id: //depot/dev/client3/rdock/2013.1/src/exe/rbdock.cxx#4 $)

>  <Rbt.Library>
libRbt.so (2013.1, Build901 2013/11/27)

>  <Rbt.Parameter_File>
/export/apps/rDock/src/rDock_2013.1_src/data/scripts/dock_solv.prm

>  <Rbt.Receptor>
prm/pocket_docking_2.prm

>  <SCORE>
-6.92208

>  <SCORE.INTER>
-5.63914

>  <SCORE.INTER.CONST>
1

>  <SCORE.INTER.POLAR>
0

>  <SCORE.INTER.ROT>
5

>  <SCORE.INTER.SOLV>
18.7074

>  <SCORE.INTER.VDW>
-16.9286

>  <SCORE.INTER.norm>
-0.563914

>  <SCORE.INTRA>
-1.28294

>  <SCORE.INTRA.DIHEDRAL>
-3.39444

>  <SCORE.INTRA.DIHEDRAL.0>
6.00299

>  <SCORE.INTRA.POLAR>
0

>  <SCORE.INTRA.POLAR.0>
0

>  <SCORE.INTRA.REPUL>
0

>  <SCORE.INTRA.REPUL.0>
0

>  <SCORE.INTRA.SOLV>
0.585448

>  <SCORE.INTRA.SOLV.lig_0>
-39.3257

>  <SCORE.INTRA.VDW>
0.121553

>  <SCORE.INTRA.VDW.0>
-0.734044

>  <SCORE.INTRA.norm>
-0.128294

>  <SCORE.RESTR>
0

>  <SCORE.RESTR.CAVITY>
0

>  <SCORE.RESTR.norm>
0

>  <SCORE.SYSTEM>
0

>  <SCORE.SYSTEM.CONST>
0

>  <SCORE.SYSTEM.DIHEDRAL>
0

>  <SCORE.SYSTEM.SOLV>
0

>  <SCORE.SYSTEM.norm>
0

>  <SCORE.heavy>
10

>  <SCORE.norm>
-0.692208

>  <RMSD>
5.400

$$$$
ligand
 OpenBabel11021811473D
libRbt.so/2013.1/901 2013/11/27
 10  9  0  0  0  0  0  0  0  0999 V2000
   26.1816   14.8299   21.1781 N   0  0  0  0  0  0  0  0  0  0  0  0
   27.3741   15.4794   20.6667 C   0  0  2  0  0  0  0  0  0  0  0  0
   27.7474   14.9186   19.3205 C   0  0  0  0  0  0  0  0  0  0  0  0
   28.5721   15.5436   18.6080 O   0  0  0  0  0  0  0  0  0  0  0  0
   28.5168   15.2928   21.6555 C   0  0  0  0  0  0  0  0  0  0  0  0
   29.6338   16.0622   21.2176 O   0  0  0  0  0  0  0  0  0  0  0  0
   30.6827   15.8853   22.1695 C   0  0  0  0  0  0  0  0  0  0  0  0
   31.8863   16.7082   21.7151 C   0  0  0  0  0  0  0  0  0  0  0  0
   32.9581   16.6039   22.6900 N   0  0  0  0  0  0  0  0  0  0  0  0
   27.6205   13.6846   19.1884 O   0  0  0  0  0  0  0  0  0  0  0  0
  2  1  1  1  0  0  0
  2  5  1  0  0  0  0
  2  3  1  0  0  0  0
  3  4  1  0  0  0  0
  3 10  1  0  0  0  0
  5  6  1  0  0  0  0
  6  7  1  0  0  0  0
  7  8  1  0  0  0  0
  8  9  1  0  0  0  0
M  END
>  <CHROM.1>
-173.38798006,165.15073776,179.19679179,-179.83134398,177.43925633,29.11810834
15.48841234,20.80445952,2.63746607,-0.28329562,-1.73774111

>  <Name>
ligand

>  <RI>
0

>  <Rbt.Current_Directory>
/home/itssahil/PROJECTS/Mol_Feturizer/New_Systems/rnas/3DJ0

>  <Rbt.Executable>
rbdock ($Id: //depot/dev/client3/rdock/2013.1/src/exe/rbdock.cxx#4 $)

>  <Rbt.Library>
libRbt.so (2013.1, Build901 2013/11/27)

>  <Rbt.Parameter_File>
/export/apps/rDock/src/rDock_2013.1_src/data/scripts/dock_solv.prm

>  <Rbt.Receptor>
prm/pocket_docking_3.prm

>  <SCORE>
-6.85374

>  <SCORE.INTER>
-4.42786

>  <SCORE.INTER.CONST>
1

>  <SCORE.INTER.POLAR>
0

>  <SCORE.INTER.ROT>
5

>  <SCORE.INTER.SOLV>
22.3825

>  <SCORE.INTER.VDW>
-17.3461

>  <SCORE.INTER.norm>
-0.442786

>  <SCORE.INTRA>
-2.42588

>  <SCORE.INTRA.DIHEDRAL>
-3.4628

>  <SCORE.INTRA.DIHEDRAL.0>
6.00299

>  <SCORE.INTRA.POLAR>
0

>  <SCORE.INTRA.POLAR.0>
0

>  <SCORE.INTRA.REPUL>
0

>  <SCORE.INTRA.REPUL.0>
0

>  <SCORE.INTRA.SOLV>
-1.214

>  <SCORE.INTRA.SOLV.lig_0>
-39.3257

>  <SCORE.INTRA.VDW>
-0.0874782

>  <SCORE.INTRA.VDW.0>
-0.734044

>  <SCORE.INTRA.norm>
-0.242588

>  <SCORE.RESTR>
0

>  <SCORE.RESTR.CAVITY>
0

>  <SCORE.RESTR.norm>
0

>  <SCORE.SYSTEM>
0

>  <SCORE.SYSTEM.CONST>
0

>  <SCORE.SYSTEM.DIHEDRAL>
0

>  <SCORE.SYSTEM.SOLV>
0

>  <SCORE.SYSTEM.norm>
0

>  <SCORE.heavy>
10

>  <SCORE.norm>
-0.685374

>  <RMSD>
5.403

$$$$
ligand
 OpenBabel11021811473D
libRbt.so/2013.1/901 2013/11/27
 10  9  0  0  0  0  0  0  0  0999 V2000
   28.3062   15.1073   22.6619 N   0  0  0  0  0  0  0  0  0  0  0  0
   28.2452   15.6781   21.3293 C   0  0  2  0  0  0  0  0  0  0  0  0
   27.1835   14.9961   20.5085 C   0  0  0  0  0  0  0  0  0  0  0  0
   27.5108   14.0380   19.7646 O   0  0  0  0  0  0  0  0  0  0  0  0
   29.6048   15.5434   20.6573 C   0  0  0  0  0  0  0  0  0  0  0  0
   30.5654   16.2777   21.4121 O   0  0  0  0  0  0  0  0  0  0  0  0
   31.8418   16.0728   20.8066 C   0  0  0  0  0  0  0  0  0  0  0  0
   32.8674   16.9259   21.5500 C   0  0  0  0  0  0  0  0  0  0  0  0
   32.9137   16.5422   22.9503 N   0  0  0  0  0  0  0  0  0  0  0  0
   26.0191   15.0718   20.9496 O   0  0  0  0  0  0  0  0  0  0  0  0
  2  1  1  1  0  0  0
  2  5  1  0  0  0  0
  2  3  1  0  0  0  0
  3  4  1  0  0  0  0
  3 10  1  0  0  0  0
  5  6  1  0  0  0  0
  6  7  1  0  0  0  0
  7  8  1  0  0  0  0
  8  9  1  0  0  0  0
M  END
>  <CHROM.1>
-61.97372301,-94.34962787,176.72064505,176.37991159,59.68646035,29.47000261
15.60891396,21.24075254,2.87455412,-0.25363022,-1.80920763

>  <Name>
ligand

>  <RI>
0

>  <Rbt.Current_Directory>
/home/itssahil/PROJECTS/Mol_Feturizer/New_Systems/rnas/3DJ0

>  <Rbt.Executable>
rbdock ($Id: //depot/dev/client3/rdock/2013.1/src/exe/rbdock.cxx#4 $)

>  <Rbt.Library>
libRbt.so (2013.1, Build901 2013/11/27)

>  <Rbt.Parameter_File>
/export/apps/rDock/src/rDock_2013.1_src/data/scripts/dock_solv.prm

>  <Rbt.Receptor>
prm/pocket_docking_8.prm

>  <SCORE>
-5.78121

>  <SCORE.INTER>
-5.01779

>  <SCORE.INTER.CONST>
1

>  <SCORE.INTER.POLAR>
0

>  <SCORE.INTER.ROT>
5

>  <SCORE.INTER.SOLV>
20.5688

>  <SCORE.INTER.VDW>
-17.1348

>  <SCORE.INTER.norm>
-0.501779

>  <SCORE.INTRA>
-0.763413

>  <SCORE.INTRA.DIHEDRAL>
-3.15838

>  <SCORE.INTRA.DIHEDRAL.0>
6.00299

>  <SCORE.INTRA.POLAR>
0

>  <SCORE.INTRA.POLAR.0>
0

>  <SCORE.INTRA.REPUL>
0

>  <SCORE.INTRA.REPUL.0>
0

>  <SCORE.INTRA.SOLV>
0.507745

>  <SCORE.INTRA.SOLV.lig_0>
-39.3257

>  <SCORE.INTRA.VDW>
0.561903

>  <SCORE.INTRA.VDW.0>
-0.734044

>  <SCORE.INTRA.norm>
-0.0763413

>  <SCORE.RESTR>
0

>  <SCORE.RESTR.CAVITY>
0

>  <SCORE.RESTR.norm>
0

>  <SCORE.SYSTEM>
0

>  <SCORE.SYSTEM.CONST>
0

>  <SCORE.SYSTEM.DIHEDRAL>
0

>  <SCORE.SYSTEM.SOLV>
0

>  <SCORE.SYSTEM.norm>
0

>  <SCORE.heavy>
10

>  <SCORE.norm>
-0.578121

>  <RMSD>
5.408

$$$$
ligand
 OpenBabel11021811473D
libRbt.so/2013.1/901 2013/11/27
 10  9  0  0  0  0  0  0  0  0999 V2000
   28.3354   15.4370   22.8678 N   0  0  0  0  0  0  0  0  0  0  0  0
   28.3103   15.6343   21.4305 C   0  0  2  0  0  0  0  0  0  0  0  0
   27.1914   14.8440   20.8063 C   0  0  0  0  0  0  0  0  0  0  0  0
   26.1156   14.7065   21.4404 O   0  0  0  0  0  0  0  0  0  0  0  0
   29.6498   15.2180   20.8380 C   0  0  0  0  0  0  0  0  0  0  0  0
   30.6551   16.1180   21.2974 O   0  0  0  0  0  0  0  0  0  0  0  0
   31.9100   15.6606   20.7939 C   0  0  0  0  0  0  0  0  0  0  0  0
   32.9884   16.6547   21.2194 C   0  0  0  0  0  0  0  0  0  0  0  0
   33.0223   16.7636   22.6675 N   0  0  0  0  0  0  0  0  0  0  0  0
   27.1904   14.7890   19.5600 O   0  0  0  0  0  0  0  0  0  0  0  0
  2  1  1  1  0  0  0
  2  5  1  0  0  0  0
  2  3  1  0  0  0  0
  3  4  1  0  0  0  0
  3 10  1  0  0  0  0
  5  6  1  0  0  0  0
  6  7  1  0  0  0  0
  7  8  1  0  0  0  0
  8  9  1  0  0  0  0
M  END
>  <CHROM.1>
-66.70132768,34.98025627,176.60764791,177.18388719,58.73545652,29.49788743
15.57169865,21.27252840,2.96593919,-0.24172852,-1.76795789

>  <Name>
ligand

>  <RI>
0

>  <Rbt.Current_Directory>
/home/itssahil/PROJECTS/Mol_Feturizer/New_Systems/rnas/3DJ0

>  <Rbt.Executable>
rbdock ($Id: //depot/dev/client3/rdock/2013.1/src/exe/rbdock.cxx#4 $)

>  <Rbt.Library>
libRbt.so (2013.1, Build901 2013/11/27)

>  <Rbt.Parameter_File>
/export/apps/rDock/src/rDock_2013.1_src/data/scripts/dock_solv.prm

>  <Rbt.Receptor>
prm/blind_docking_60.prm

>  <SCORE>
-6.61149

>  <SCORE.INTER>
-5.47805

>  <SCORE.INTER.CONST>
1

>  <SCORE.INTER.POLAR>
0

>  <SCORE.INTER.ROT>
5

>  <SCORE.INTER.SOLV>
20.6486

>  <SCORE.INTER.VDW>
-17.4682

>  <SCORE.INTER.norm>
-0.547805

>  <SCORE.INTRA>
-1.13344

>  <SCORE.INTRA.DIHEDRAL>
-3.18633

>  <SCORE.INTRA.DIHEDRAL.0>
6.00299

>  <SCORE.INTRA.POLAR>
0

>  <SCORE.INTRA.POLAR.0>
0

>  <SCORE.INTRA.REPUL>
0

>  <SCORE.INTRA.REPUL.0>
0

>  <SCORE.INTRA.SOLV>
0.284073

>  <SCORE.INTRA.SOLV.lig_0>
-39.3257

>  <SCORE.INTRA.VDW>
0.317683

>  <SCORE.INTRA.VDW.0>
-0.734044

>  <SCORE.INTRA.norm>
-0.113344

>  <SCORE.RESTR>
0

>  <SCORE.RESTR.CAVITY>
0

>  <SCORE.RESTR.norm>
0

>  <SCORE.SYSTEM>
0

>  <SCORE.SYSTEM.CONST>
0

>  <SCORE.SYSTEM.DIHEDRAL>
0

>  <SCORE.SYSTEM.SOLV>
0

>  <SCORE.SYSTEM.norm>
0

>  <SCORE.heavy>
10

>  <SCORE.norm>
-0.661149

>  <RMSD>
5.413

$$$$
ligand
 OpenBabel11021811473D
libRbt.so/2013.1/901 2013/11/27
 10  9  0  0  0  0  0  0  0  0999 V2000
   29.0779   14.7923   19.7513 N   0  0  0  0  0  0  0  0  0  0  0  0
   28.6518   14.9307   21.1315 C   0  0  2  0  0  0  0  0  0  0  0  0
   27.1617   15.1295   21.2089 C   0  0  0  0  0  0  0  0  0  0  0  0
   26.5399   15.4819   20.1756 O   0  0  0  0  0  0  0  0  0  0  0  0
   29.3787   16.1057   21.7712 C   0  0  0  0  0  0  0  0  0  0  0  0
   30.7836   15.8871   21.6705 O   0  0  0  0  0  0  0  0  0  0  0  0
   31.4411   17.0333   22.2104 C   0  0  0  0  0  0  0  0  0  0  0  0
   32.9486   16.8282   22.0775 C   0  0  0  0  0  0  0  0  0  0  0  0
   33.6554   18.0058   22.5503 N   0  0  0  0  0  0  0  0  0  0  0  0
   26.5710   14.4911   22.1032 O   0  0  0  0  0  0  0  0  0  0  0  0
  2  1  1  6  0  0  0
  2  5  1  0  0  0  0
  2  3  1  0  0  0  0
  3  4  1  0  0  0  0
  3 10  1  0  0  0  0
  5  6  1  0  0  0  0
  6  7  1  0  0  0  0
  7  8  1  0  0  0  0
  8  9  1  0  0  0  0
M  END
>  <CHROM.1>
-57.56682405,-17.47249660,176.89901395,-178.61533212,176.92934991,29.57646723
15.85625260,21.46315235,-2.83632219,0.30880473,1.27231405

>  <Name>
ligand

>  <RI>
0

>  <Rbt.Current_Directory>
/home/itssahil/PROJECTS/Mol_Feturizer/New_Systems/rnas/3DJ0

>  <Rbt.Executable>
rbdock ($Id: //depot/dev/client3/rdock/2013.1/src/exe/rbdock.cxx#4 $)

>  <Rbt.Library>
libRbt.so (2013.1, Build901 2013/11/27)

>  <Rbt.Parameter_File>
/export/apps/rDock/src/rDock_2013.1_src/data/scripts/dock_solv.prm

>  <Rbt.Receptor>
prm/pocket_docking_6.prm

>  <SCORE>
-7.86034

>  <SCORE.INTER>
-5.70517

>  <SCORE.INTER.CONST>
1

>  <SCORE.INTER.POLAR>
0

>  <SCORE.INTER.ROT>
5

>  <SCORE.INTER.SOLV>
17.947

>  <SCORE.INTER.VDW>
-16.7191

>  <SCORE.INTER.norm>
-0.570517

>  <SCORE.INTRA>
-2.15518

>  <SCORE.INTRA.DIHEDRAL>
-3.47364

>  <SCORE.INTRA.DIHEDRAL.0>
6.00299

>  <SCORE.INTRA.POLAR>
0

>  <SCORE.INTRA.POLAR.0>
0

>  <SCORE.INTRA.REPUL>
0

>  <SCORE.INTRA.REPUL.0>
0

>  <SCORE.INTRA.SOLV>
-0.657164

>  <SCORE.INTRA.SOLV.lig_0>
-39.3257

>  <SCORE.INTRA.VDW>
-0.0897749

>  <SCORE.INTRA.VDW.0>
-0.734044

>  <SCORE.INTRA.norm>
-0.215518

>  <SCORE.RESTR>
0

>  <SCORE.RESTR.CAVITY>
0

>  <SCORE.RESTR.norm>
0

>  <SCORE.SYSTEM>
0

>  <SCORE.SYSTEM.CONST>
0

>  <SCORE.SYSTEM.DIHEDRAL>
0

>  <SCORE.SYSTEM.SOLV>
0

>  <SCORE.SYSTEM.norm>
0

>  <SCORE.heavy>
10

>  <SCORE.norm>
-0.786034

>  <RMSD>
5.413

$$$$
ligand
 OpenBabel11021811473D
libRbt.so/2013.1/901 2013/11/27
 10  9  0  0  0  0  0  0  0  0999 V2000
   29.0477   15.1294   19.6501 N   0  0  0  0  0  0  0  0  0  0  0  0
   28.6717   15.0427   21.0488 C   0  0  2  0  0  0  0  0  0  0  0  0
   27.1798   15.1676   21.2055 C   0  0  0  0  0  0  0  0  0  0  0  0
   26.4828   15.4450   20.1977 O   0  0  0  0  0  0  0  0  0  0  0  0
   29.3820   16.1372   21.8337 C   0  0  0  0  0  0  0  0  0  0  0  0
   30.7896   15.9697   21.6850 O   0  0  0  0  0  0  0  0  0  0  0  0
   31.4297   17.0441   22.3732 C   0  0  0  0  0  0  0  0  0  0  0  0
   32.9389   16.8990   22.1905 C   0  0  0  0  0  0  0  0  0  0  0  0
   33.6293   17.9847   22.8647 N   0  0  0  0  0  0  0  0  0  0  0  0
   26.6755   14.5367   22.1562 O   0  0  0  0  0  0  0  0  0  0  0  0
  2  1  1  6  0  0  0
  2  5  1  0  0  0  0
  2  3  1  0  0  0  0
  3  4  1  0  0  0  0
  3 10  1  0  0  0  0
  5  6  1  0  0  0  0
  6  7  1  0  0  0  0
  7  8  1  0  0  0  0
  8  9  1  0  0  0  0
M  END
>  <CHROM.1>
-59.20975986,-6.48089778,177.16273587,-178.48537082,179.34540653,29.57860208
15.92164992,21.51895181,-2.84385037,0.33459533,1.40342366

>  <Name>
ligand

>  <RI>
0

>  <Rbt.Current_Directory>
/home/itssahil/PROJECTS/Mol_Feturizer/New_Systems/rnas/3DJ0

>  <Rbt.Executable>
rbdock ($Id: //depot/dev/client3/rdock/2013.1/src/exe/rbdock.cxx#4 $)

>  <Rbt.Library>
libRbt.so (2013.1, Build901 2013/11/27)

>  <Rbt.Parameter_File>
/export/apps/rDock/src/rDock_2013.1_src/data/scripts/dock_solv.prm

>  <Rbt.Receptor>
prm/pocket_docking_4.prm

>  <SCORE>
-7.72936

>  <SCORE.INTER>
-5.70676

>  <SCORE.INTER.CONST>
1

>  <SCORE.INTER.POLAR>
0

>  <SCORE.INTER.ROT>
5

>  <SCORE.INTER.SOLV>
17.5969

>  <SCORE.INTER.VDW>
-16.6035

>  <SCORE.INTER.norm>
-0.570676

>  <SCORE.INTRA>
-2.02259

>  <SCORE.INTRA.DIHEDRAL>
-3.31838

>  <SCORE.INTRA.DIHEDRAL.0>
6.00299

>  <SCORE.INTRA.POLAR>
0

>  <SCORE.INTRA.POLAR.0>
0

>  <SCORE.INTRA.REPUL>
0

>  <SCORE.INTRA.REPUL.0>
0

>  <SCORE.INTRA.SOLV>
-0.694831

>  <SCORE.INTRA.SOLV.lig_0>
-39.3257

>  <SCORE.INTRA.VDW>
-0.0159835

>  <SCORE.INTRA.VDW.0>
-0.734044

>  <SCORE.INTRA.norm>
-0.202259

>  <SCORE.RESTR>
0

>  <SCORE.RESTR.CAVITY>
0

>  <SCORE.RESTR.norm>
0

>  <SCORE.SYSTEM>
0

>  <SCORE.SYSTEM.CONST>
0

>  <SCORE.SYSTEM.DIHEDRAL>
0

>  <SCORE.SYSTEM.SOLV>
0

>  <SCORE.SYSTEM.norm>
0

>  <SCORE.heavy>
10

>  <SCORE.norm>
-0.772936

>  <RMSD>
5.415

$$$$
ligand
 OpenBabel11021811473D
libRbt.so/2013.1/901 2013/11/27
 10  9  0  0  0  0  0  0  0  0999 V2000
   29.0442   15.1264   19.6540 N   0  0  0  0  0  0  0  0  0  0  0  0
   28.6642   15.0383   21.0516 C   0  0  2  0  0  0  0  0  0  0  0  0
   27.1724   15.1696   21.2047 C   0  0  0  0  0  0  0  0  0  0  0  0
   26.4810   15.4678   20.1990 O   0  0  0  0  0  0  0  0  0  0  0  0
   29.3773   16.1280   21.8406 C   0  0  0  0  0  0  0  0  0  0  0  0
   30.7833   15.9827   21.6573 O   0  0  0  0  0  0  0  0  0  0  0  0
   31.4258   17.0347   22.3773 C   0  0  0  0  0  0  0  0  0  0  0  0
   32.9344   16.8945   22.1861 C   0  0  0  0  0  0  0  0  0  0  0  0
   33.6254   17.9780   22.8635 N   0  0  0  0  0  0  0  0  0  0  0  0
   26.6607   14.5260   22.1429 O   0  0  0  0  0  0  0  0  0  0  0  0
  2  1  1  6  0  0  0
  2  5  1  0  0  0  0
  2  3  1  0  0  0  0
  3  4  1  0  0  0  0
  3 10  1  0  0  0  0
  5  6  1  0  0  0  0
  6  7  1  0  0  0  0
  7  8  1  0  0  0  0
  8  9  1  0  0  0  0
M  END
>  <CHROM.1>
-57.20686127,-7.31446563,178.51824455,-179.81606105,177.87573955,29.57272196
15.92103589,21.51562850,-2.84508742,0.33370365,1.40441666

>  <Name>
ligand

>  <RI>
0

>  <Rbt.Current_Directory>
/home/itssahil/PROJECTS/Mol_Feturizer/New_Systems/rnas/3DJ0

>  <Rbt.Executable>
rbdock ($Id: //depot/dev/client3/rdock/2013.1/src/exe/rbdock.cxx#4 $)

>  <Rbt.Library>
libRbt.so (2013.1, Build901 2013/11/27)

>  <Rbt.Parameter_File>
/export/apps/rDock/src/rDock_2013.1_src/data/scripts/dock_solv.prm

>  <Rbt.Receptor>
prm/pocket_docking_3.prm

>  <SCORE>
-7.71618

>  <SCORE.INTER>
-5.70289

>  <SCORE.INTER.CONST>
1

>  <SCORE.INTER.POLAR>
0

>  <SCORE.INTER.ROT>
5

>  <SCORE.INTER.SOLV>
17.5874

>  <SCORE.INTER.VDW>
-16.5977

>  <SCORE.INTER.norm>
-0.570289

>  <SCORE.INTRA>
-2.01329

>  <SCORE.INTRA.DIHEDRAL>
-3.33041

>  <SCORE.INTRA.DIHEDRAL.0>
6.00299

>  <SCORE.INTRA.POLAR>
0

>  <SCORE.INTRA.POLAR.0>
0

>  <SCORE.INTRA.REPUL>
0

>  <SCORE.INTRA.REPUL.0>
0

>  <SCORE.INTRA.SOLV>
-0.677965

>  <SCORE.INTRA.SOLV.lig_0>
-39.3257

>  <SCORE.INTRA.VDW>
-0.00910314

>  <SCORE.INTRA.VDW.0>
-0.734044

>  <SCORE.INTRA.norm>
-0.201329

>  <SCORE.RESTR>
0

>  <SCORE.RESTR.CAVITY>
0

>  <SCORE.RESTR.norm>
0

>  <SCORE.SYSTEM>
0

>  <SCORE.SYSTEM.CONST>
0

>  <SCORE.SYSTEM.DIHEDRAL>
0

>  <SCORE.SYSTEM.SOLV>
0

>  <SCORE.SYSTEM.norm>
0

>  <SCORE.heavy>
10

>  <SCORE.norm>
-0.771618

>  <RMSD>
5.416

$$$$
ligand
 OpenBabel11021811473D
libRbt.so/2013.1/901 2013/11/27
 10  9  0  0  0  0  0  0  0  0999 V2000
   29.0964   14.8215   19.7820 N   0  0  0  0  0  0  0  0  0  0  0  0
   28.6527   14.9594   21.1566 C   0  0  2  0  0  0  0  0  0  0  0  0
   27.1605   15.1490   21.2155 C   0  0  0  0  0  0  0  0  0  0  0  0
   26.5460   15.4724   20.1685 O   0  0  0  0  0  0  0  0  0  0  0  0
   29.3643   16.1401   21.8031 C   0  0  0  0  0  0  0  0  0  0  0  0
   30.7716   15.9291   21.7218 O   0  0  0  0  0  0  0  0  0  0  0  0
   31.4152   17.0768   22.2752 C   0  0  0  0  0  0  0  0  0  0  0  0
   32.9252   16.8886   22.1458 C   0  0  0  0  0  0  0  0  0  0  0  0
   33.6197   18.0422   22.6907 N   0  0  0  0  0  0  0  0  0  0  0  0
   26.5660   14.5273   22.1189 O   0  0  0  0  0  0  0  0  0  0  0  0
  2  1  1  6  0  0  0
  2  5  1  0  0  0  0
  2  3  1  0  0  0  0
  3  4  1  0  0  0  0
  3 10  1  0  0  0  0
  5  6  1  0  0  0  0
  6  7  1  0  0  0  0
  7  8  1  0  0  0  0
  8  9  1  0  0  0  0
M  END
>  <CHROM.1>
-57.65792540,-16.21235307,177.24981294,-177.84570791,179.61599140,29.56733572
15.88806297,21.50533955,-2.81748954,0.30718605,1.26263639

>  <Name>
ligand

>  <RI>
0

>  <Rbt.Current_Directory>
/home/itssahil/PROJECTS/Mol_Feturizer/New_Systems/rnas/3DJ0

>  <Rbt.Executable>
rbdock ($Id: //depot/dev/client3/rdock/2013.1/src/exe/rbdock.cxx#4 $)

>  <Rbt.Library>
libRbt.so (2013.1, Build901 2013/11/27)

>  <Rbt.Parameter_File>
/export/apps/rDock/src/rDock_2013.1_src/data/scripts/dock_solv.prm

>  <Rbt.Receptor>
prm/pocket_docking_5.prm

>  <SCORE>
-7.86681

>  <SCORE.INTER>
-5.71229

>  <SCORE.INTER.CONST>
1

>  <SCORE.INTER.POLAR>
0

>  <SCORE.INTER.ROT>
5

>  <SCORE.INTER.SOLV>
17.8566

>  <SCORE.INTER.VDW>
-16.6937

>  <SCORE.INTER.norm>
-0.571229

>  <SCORE.INTRA>
-2.15452

>  <SCORE.INTRA.DIHEDRAL>
-3.48083

>  <SCORE.INTRA.DIHEDRAL.0>
6.00299

>  <SCORE.INTRA.POLAR>
0

>  <SCORE.INTRA.POLAR.0>
0

>  <SCORE.INTRA.REPUL>
0

>  <SCORE.INTRA.REPUL.0>
0

>  <SCORE.INTRA.SOLV>
-0.662356

>  <SCORE.INTRA.SOLV.lig_0>
-39.3257

>  <SCORE.INTRA.VDW>
-0.0829321

>  <SCORE.INTRA.VDW.0>
-0.734044

>  <SCORE.INTRA.norm>
-0.215452

>  <SCORE.RESTR>
0

>  <SCORE.RESTR.CAVITY>
0

>  <SCORE.RESTR.norm>
0

>  <SCORE.SYSTEM>
0

>  <SCORE.SYSTEM.CONST>
0

>  <SCORE.SYSTEM.DIHEDRAL>
0

>  <SCORE.SYSTEM.SOLV>
0

>  <SCORE.SYSTEM.norm>
0

>  <SCORE.heavy>
10

>  <SCORE.norm>
-0.786681

>  <RMSD>
5.416

$$$$
ligand
 OpenBabel11021811473D
libRbt.so/2013.1/901 2013/11/27
 10  9  0  0  0  0  0  0  0  0999 V2000
   29.1104   14.8664   19.7508 N   0  0  0  0  0  0  0  0  0  0  0  0
   28.6770   14.9608   21.1324 C   0  0  2  0  0  0  0  0  0  0  0  0
   27.1828   15.1263   21.2092 C   0  0  0  0  0  0  0  0  0  0  0  0
   26.5516   15.4474   20.1714 O   0  0  0  0  0  0  0  0  0  0  0  0
   29.3770   16.1341   21.8044 C   0  0  0  0  0  0  0  0  0  0  0  0
   30.7858   15.9278   21.7386 O   0  0  0  0  0  0  0  0  0  0  0  0
   31.4189   17.0670   22.3209 C   0  0  0  0  0  0  0  0  0  0  0  0
   32.9310   16.8680   22.2413 C   0  0  0  0  0  0  0  0  0  0  0  0
   33.6149   17.9973   22.8470 N   0  0  0  0  0  0  0  0  0  0  0  0
   26.6083   14.4890   22.1147 O   0  0  0  0  0  0  0  0  0  0  0  0
  2  1  1  6  0  0  0
  2  5  1  0  0  0  0
  2  3  1  0  0  0  0
  3  4  1  0  0  0  0
  3 10  1  0  0  0  0
  5  6  1  0  0  0  0
  6  7  1  0  0  0  0
  7  8  1  0  0  0  0
  8  9  1  0  0  0  0
M  END
>  <CHROM.1>
-59.27844694,-15.06702709,177.46844459,-179.28764318,-178.95736186,29.58148800
15.87543278,21.53036108,-2.80855862,0.31183204,1.29493827

>  <Name>
ligand

>  <RI>
0

>  <Rbt.Current_Directory>
/home/itssahil/PROJECTS/Mol_Feturizer/New_Systems/rnas/3DJ0

>  <Rbt.Executable>
rbdock ($Id: //depot/dev/client3/rdock/2013.1/src/exe/rbdock.cxx#4 $)

>  <Rbt.Library>
libRbt.so (2013.1, Build901 2013/11/27)

>  <Rbt.Parameter_File>
/export/apps/rDock/src/rDock_2013.1_src/data/scripts/dock_solv.prm

>  <Rbt.Receptor>
prm/pocket_docking_7.prm

>  <SCORE>
-7.81497

>  <SCORE.INTER>
-5.6402

>  <SCORE.INTER.CONST>
1

>  <SCORE.INTER.POLAR>
0

>  <SCORE.INTER.ROT>
5

>  <SCORE.INTER.SOLV>
17.8788

>  <SCORE.INTER.VDW>
-16.6531

>  <SCORE.INTER.norm>
-0.56402

>  <SCORE.INTRA>
-2.17477

>  <SCORE.INTRA.DIHEDRAL>
-3.49862

>  <SCORE.INTRA.DIHEDRAL.0>
6.00299

>  <SCORE.INTRA.POLAR>
0

>  <SCORE.INTRA.POLAR.0>
0

>  <SCORE.INTRA.REPUL>
0

>  <SCORE.INTRA.REPUL.0>
0

>  <SCORE.INTRA.SOLV>
-0.682729

>  <SCORE.INTRA.SOLV.lig_0>
-39.3257

>  <SCORE.INTRA.VDW>
-0.0840974

>  <SCORE.INTRA.VDW.0>
-0.734044

>  <SCORE.INTRA.norm>
-0.217477

>  <SCORE.RESTR>
0

>  <SCORE.RESTR.CAVITY>
0

>  <SCORE.RESTR.norm>
0

>  <SCORE.SYSTEM>
0

>  <SCORE.SYSTEM.CONST>
0

>  <SCORE.SYSTEM.DIHEDRAL>
0

>  <SCORE.SYSTEM.SOLV>
0

>  <SCORE.SYSTEM.norm>
0

>  <SCORE.heavy>
10

>  <SCORE.norm>
-0.781497

>  <RMSD>
5.417

$$$$
ligand
 OpenBabel11021811473D
libRbt.so/2013.1/901 2013/11/27
 10  9  0  0  0  0  0  0  0  0999 V2000
   29.1180   14.7764   19.8069 N   0  0  0  0  0  0  0  0  0  0  0  0
   28.6625   14.9418   21.1746 C   0  0  2  0  0  0  0  0  0  0  0  0
   27.1697   15.1315   21.2170 C   0  0  0  0  0  0  0  0  0  0  0  0
   26.5694   15.4734   20.1676 O   0  0  0  0  0  0  0  0  0  0  0  0
   29.3680   16.1358   21.8032 C   0  0  0  0  0  0  0  0  0  0  0  0
   30.7762   15.9266   21.7332 O   0  0  0  0  0  0  0  0  0  0  0  0
   31.4134   17.0668   22.3091 C   0  0  0  0  0  0  0  0  0  0  0  0
   32.9249   16.8672   22.2200 C   0  0  0  0  0  0  0  0  0  0  0  0
   33.6128   17.9869   22.8387 N   0  0  0  0  0  0  0  0  0  0  0  0
   26.5630   14.4949   22.1016 O   0  0  0  0  0  0  0  0  0  0  0  0
  2  1  1  6  0  0  0
  2  5  1  0  0  0  0
  2  3  1  0  0  0  0
  3  4  1  0  0  0  0
  3 10  1  0  0  0  0
  5  6  1  0  0  0  0
  6  7  1  0  0  0  0
  7  8  1  0  0  0  0
  8  9  1  0  0  0  0
M  END
>  <CHROM.1>
-57.42315961,-18.37327520,179.11958452,-179.07172808,-178.01840245,29.57341567
15.86790030,21.53367519,-2.79772453,0.29558362,1.24416518

>  <Name>
ligand

>  <RI>
0

>  <Rbt.Current_Directory>
/home/itssahil/PROJECTS/Mol_Feturizer/New_Systems/rnas/3DJ0

>  <Rbt.Executable>
rbdock ($Id: //depot/dev/client3/rdock/2013.1/src/exe/rbdock.cxx#4 $)

>  <Rbt.Library>
libRbt.so (2013.1, Build901 2013/11/27)

>  <Rbt.Parameter_File>
/export/apps/rDock/src/rDock_2013.1_src/data/scripts/dock_solv.prm

>  <Rbt.Receptor>
prm/pocket_docking_7.prm

>  <SCORE>
-7.8623

>  <SCORE.INTER>
-5.6577

>  <SCORE.INTER.CONST>
1

>  <SCORE.INTER.POLAR>
0

>  <SCORE.INTER.ROT>
5

>  <SCORE.INTER.SOLV>
18.0114

>  <SCORE.INTER.VDW>
-16.7089

>  <SCORE.INTER.norm>
-0.56577

>  <SCORE.INTRA>
-2.2046

>  <SCORE.INTRA.DIHEDRAL>
-3.55914

>  <SCORE.INTRA.DIHEDRAL.0>
6.00299

>  <SCORE.INTRA.POLAR>
0

>  <SCORE.INTRA.POLAR.0>
0

>  <SCORE.INTRA.REPUL>
0

>  <SCORE.INTRA.REPUL.0>
0

>  <SCORE.INTRA.SOLV>
-0.665161

>  <SCORE.INTRA.SOLV.lig_0>
-39.3257

>  <SCORE.INTRA.VDW>
-0.0924468

>  <SCORE.INTRA.VDW.0>
-0.734044

>  <SCORE.INTRA.norm>
-0.22046

>  <SCORE.RESTR>
0

>  <SCORE.RESTR.CAVITY>
0

>  <SCORE.RESTR.norm>
0

>  <SCORE.SYSTEM>
0

>  <SCORE.SYSTEM.CONST>
0

>  <SCORE.SYSTEM.DIHEDRAL>
0

>  <SCORE.SYSTEM.SOLV>
0

>  <SCORE.SYSTEM.norm>
0

>  <SCORE.heavy>
10

>  <SCORE.norm>
-0.78623

>  <RMSD>
5.419

$$$$
ligand
 OpenBabel11021811473D
libRbt.so/2013.1/901 2013/11/27
 10  9  0  0  0  0  0  0  0  0999 V2000
   29.1022   14.8143   19.7781 N   0  0  0  0  0  0  0  0  0  0  0  0
   28.6534   14.9549   21.1508 C   0  0  2  0  0  0  0  0  0  0  0  0
   27.1606   15.1413   21.2042 C   0  0  0  0  0  0  0  0  0  0  0  0
   26.5507   15.4732   20.1572 O   0  0  0  0  0  0  0  0  0  0  0  0
   29.3603   16.1388   21.7966 C   0  0  0  0  0  0  0  0  0  0  0  0
   30.7679   15.9241   21.7330 O   0  0  0  0  0  0  0  0  0  0  0  0
   31.4067   17.0559   22.3237 C   0  0  0  0  0  0  0  0  0  0  0  0
   32.9176   16.8462   22.2501 C   0  0  0  0  0  0  0  0  0  0  0  0
   33.6071   17.9715   22.8570 N   0  0  0  0  0  0  0  0  0  0  0  0
   26.5629   14.5104   22.0990 O   0  0  0  0  0  0  0  0  0  0  0  0
  2  1  1  6  0  0  0
  2  5  1  0  0  0  0
  2  3  1  0  0  0  0
  3  4  1  0  0  0  0
  3 10  1  0  0  0  0
  5  6  1  0  0  0  0
  6  7  1  0  0  0  0
  7  8  1  0  0  0  0
  8  9  1  0  0  0  0
M  END
>  <CHROM.1>
-58.25817394,-16.89260753,179.05304649,-179.44158767,-179.31381082,29.56455689
15.87074764,21.53159284,-2.79928775,0.29602671,1.26413183

>  <Name>
ligand

>  <RI>
0

>  <Rbt.Current_Directory>
/home/itssahil/PROJECTS/Mol_Feturizer/New_Systems/rnas/3DJ0

>  <Rbt.Executable>
rbdock ($Id: //depot/dev/client3/rdock/2013.1/src/exe/rbdock.cxx#4 $)

>  <Rbt.Library>
libRbt.so (2013.1, Build901 2013/11/27)

>  <Rbt.Parameter_File>
/export/apps/rDock/src/rDock_2013.1_src/data/scripts/dock_solv.prm

>  <Rbt.Receptor>
prm/pocket_docking_2.prm

>  <SCORE>
-7.87682

>  <SCORE.INTER>
-5.67164

>  <SCORE.INTER.CONST>
1

>  <SCORE.INTER.POLAR>
0

>  <SCORE.INTER.ROT>
5

>  <SCORE.INTER.SOLV>
17.9534

>  <SCORE.INTER.VDW>
-16.6989

>  <SCORE.INTER.norm>
-0.567164

>  <SCORE.INTRA>
-2.20518

>  <SCORE.INTRA.DIHEDRAL>
-3.5571

>  <SCORE.INTRA.DIHEDRAL.0>
6.00299

>  <SCORE.INTRA.POLAR>
0

>  <SCORE.INTRA.POLAR.0>
0

>  <SCORE.INTRA.REPUL>
0

>  <SCORE.INTRA.REPUL.0>
0

>  <SCORE.INTRA.SOLV>
-0.676373

>  <SCORE.INTRA.SOLV.lig_0>
-39.3257

>  <SCORE.INTRA.VDW>
-0.0884498

>  <SCORE.INTRA.VDW.0>
-0.734044

>  <SCORE.INTRA.norm>
-0.220518

>  <SCORE.RESTR>
0

>  <SCORE.RESTR.CAVITY>
0

>  <SCORE.RESTR.norm>
0

>  <SCORE.SYSTEM>
0

>  <SCORE.SYSTEM.CONST>
0

>  <SCORE.SYSTEM.DIHEDRAL>
0

>  <SCORE.SYSTEM.SOLV>
0

>  <SCORE.SYSTEM.norm>
0

>  <SCORE.heavy>
10

>  <SCORE.norm>
-0.787682

>  <RMSD>
5.421

$$$$
ligand
 OpenBabel11021811473D
libRbt.so/2013.1/901 2013/11/27
 10  9  0  0  0  0  0  0  0  0999 V2000
   29.0897   14.7386   19.8027 N   0  0  0  0  0  0  0  0  0  0  0  0
   28.6365   14.9427   21.1659 C   0  0  2  0  0  0  0  0  0  0  0  0
   27.1450   15.1426   21.2045 C   0  0  0  0  0  0  0  0  0  0  0  0
   26.5473   15.4721   20.1497 O   0  0  0  0  0  0  0  0  0  0  0  0
   29.3498   16.1485   21.7623 C   0  0  0  0  0  0  0  0  0  0  0  0
   30.7563   15.9235   21.7084 O   0  0  0  0  0  0  0  0  0  0  0  0
   31.4012   17.0751   22.2520 C   0  0  0  0  0  0  0  0  0  0  0  0
   32.9113   16.8714   22.1506 C   0  0  0  0  0  0  0  0  0  0  0  0
   33.6073   18.0357   22.6703 N   0  0  0  0  0  0  0  0  0  0  0  0
   26.5337   14.5235   22.0985 O   0  0  0  0  0  0  0  0  0  0  0  0
  2  1  1  6  0  0  0
  2  5  1  0  0  0  0
  2  3  1  0  0  0  0
  3  4  1  0  0  0  0
  3 10  1  0  0  0  0
  5  6  1  0  0  0  0
  6  7  1  0  0  0  0
  7  8  1  0  0  0  0
  8  9  1  0  0  0  0
M  END
>  <CHROM.1>
-57.97479690,-19.00817562,179.06346246,-177.81255750,178.87144147,29.55336259
15.87519160,21.49361962,-2.80504841,0.29424504,1.21974339

>  <Name>
ligand

>  <RI>
0

>  <Rbt.Current_Directory>
/home/itssahil/PROJECTS/Mol_Feturizer/New_Systems/rnas/3DJ0

>  <Rbt.Executable>
rbdock ($Id: //depot/dev/client3/rdock/2013.1/src/exe/rbdock.cxx#4 $)

>  <Rbt.Library>
libRbt.so (2013.1, Build901 2013/11/27)

>  <Rbt.Parameter_File>
/export/apps/rDock/src/rDock_2013.1_src/data/scripts/dock_solv.prm

>  <Rbt.Receptor>
prm/pocket_docking_8.prm

>  <SCORE>
-7.84335

>  <SCORE.INTER>
-5.62325

>  <SCORE.INTER.CONST>
1

>  <SCORE.INTER.POLAR>
0

>  <SCORE.INTER.ROT>
5

>  <SCORE.INTER.SOLV>
18.0021

>  <SCORE.INTER.VDW>
-16.6829

>  <SCORE.INTER.norm>
-0.562325

>  <SCORE.INTRA>
-2.2201

>  <SCORE.INTRA.DIHEDRAL>
-3.57199

>  <SCORE.INTRA.DIHEDRAL.0>
6.00299

>  <SCORE.INTRA.POLAR>
0

>  <SCORE.INTRA.POLAR.0>
0

>  <SCORE.INTRA.REPUL>
0

>  <SCORE.INTRA.REPUL.0>
0

>  <SCORE.INTRA.SOLV>
-0.67007

>  <SCORE.INTRA.SOLV.lig_0>
-39.3257

>  <SCORE.INTRA.VDW>
-0.0990667

>  <SCORE.INTRA.VDW.0>
-0.734044

>  <SCORE.INTRA.norm>
-0.22201

>  <SCORE.RESTR>
0

>  <SCORE.RESTR.CAVITY>
0

>  <SCORE.RESTR.norm>
0

>  <SCORE.SYSTEM>
0

>  <SCORE.SYSTEM.CONST>
0

>  <SCORE.SYSTEM.DIHEDRAL>
0

>  <SCORE.SYSTEM.SOLV>
0

>  <SCORE.SYSTEM.norm>
0

>  <SCORE.heavy>
10

>  <SCORE.norm>
-0.784335

>  <RMSD>
5.421

$$$$
ligand
 OpenBabel11021811473D
libRbt.so/2013.1/901 2013/11/27
 10  9  0  0  0  0  0  0  0  0999 V2000
   29.1038   14.8049   19.7704 N   0  0  0  0  0  0  0  0  0  0  0  0
   28.6570   14.9574   21.1425 C   0  0  2  0  0  0  0  0  0  0  0  0
   27.1638   15.1407   21.1965 C   0  0  0  0  0  0  0  0  0  0  0  0
   26.5522   15.4676   20.1489 O   0  0  0  0  0  0  0  0  0  0  0  0
   29.3620   16.1491   21.7759 C   0  0  0  0  0  0  0  0  0  0  0  0
   30.7685   15.9197   21.7468 O   0  0  0  0  0  0  0  0  0  0  0  0
   31.4071   17.0681   22.3044 C   0  0  0  0  0  0  0  0  0  0  0  0
   32.9153   16.8285   22.2977 C   0  0  0  0  0  0  0  0  0  0  0  0
   33.6059   17.9831   22.8454 N   0  0  0  0  0  0  0  0  0  0  0  0
   26.5683   14.5115   22.0941 O   0  0  0  0  0  0  0  0  0  0  0  0
  2  1  1  6  0  0  0
  2  5  1  0  0  0  0
  2  3  1  0  0  0  0
  3  4  1  0  0  0  0
  3 10  1  0  0  0  0
  5  6  1  0  0  0  0
  6  7  1  0  0  0  0
  7  8  1  0  0  0  0
  8  9  1  0  0  0  0
M  END
>  <CHROM.1>
-59.91040621,-17.24093967,178.10546147,179.22365657,179.37594625,29.56602530
15.87063012,21.52908999,-2.79574967,0.29521003,1.26197308

>  <Name>
ligand

>  <RI>
0

>  <Rbt.Current_Directory>
/home/itssahil/PROJECTS/Mol_Feturizer/New_Systems/rnas/3DJ0

>  <Rbt.Executable>
rbdock ($Id: //depot/dev/client3/rdock/2013.1/src/exe/rbdock.cxx#4 $)

>  <Rbt.Library>
libRbt.so (2013.1, Build901 2013/11/27)

>  <Rbt.Parameter_File>
/export/apps/rDock/src/rDock_2013.1_src/data/scripts/dock_solv.prm

>  <Rbt.Receptor>
prm/pocket_docking_2.prm

>  <SCORE>
-7.84656

>  <SCORE.INTER>
-5.62223

>  <SCORE.INTER.CONST>
1

>  <SCORE.INTER.POLAR>
0

>  <SCORE.INTER.ROT>
5

>  <SCORE.INTER.SOLV>
17.9703

>  <SCORE.INTER.VDW>
-16.6716

>  <SCORE.INTER.norm>
-0.562223

>  <SCORE.INTRA>
-2.22433

>  <SCORE.INTRA.DIHEDRAL>
-3.56192

>  <SCORE.INTRA.DIHEDRAL.0>
6.00299

>  <SCORE.INTRA.POLAR>
0

>  <SCORE.INTRA.POLAR.0>
0

>  <SCORE.INTRA.REPUL>
0

>  <SCORE.INTRA.REPUL.0>
0

>  <SCORE.INTRA.SOLV>
-0.68941

>  <SCORE.INTRA.SOLV.lig_0>
-39.3257

>  <SCORE.INTRA.VDW>
-0.0986692

>  <SCORE.INTRA.VDW.0>
-0.734044

>  <SCORE.INTRA.norm>
-0.222433

>  <SCORE.RESTR>
0

>  <SCORE.RESTR.CAVITY>
0

>  <SCORE.RESTR.norm>
0

>  <SCORE.SYSTEM>
0

>  <SCORE.SYSTEM.CONST>
0

>  <SCORE.SYSTEM.DIHEDRAL>
0

>  <SCORE.SYSTEM.SOLV>
0

>  <SCORE.SYSTEM.norm>
0

>  <SCORE.heavy>
10

>  <SCORE.norm>
-0.784656

>  <RMSD>
5.422

$$$$
ligand
 OpenBabel11021811473D
libRbt.so/2013.1/901 2013/11/27
 10  9  0  0  0  0  0  0  0  0999 V2000
   29.0885   14.7971   19.7853 N   0  0  0  0  0  0  0  0  0  0  0  0
   28.6424   14.9484   21.1577 C   0  0  2  0  0  0  0  0  0  0  0  0
   27.1493   15.1324   21.2127 C   0  0  0  0  0  0  0  0  0  0  0  0
   26.5385   15.4696   20.1679 O   0  0  0  0  0  0  0  0  0  0  0  0
   29.3482   16.1391   21.7920 C   0  0  0  0  0  0  0  0  0  0  0  0
   30.7558   15.9213   21.7378 O   0  0  0  0  0  0  0  0  0  0  0  0
   31.3945   17.0694   22.2960 C   0  0  0  0  0  0  0  0  0  0  0  0
   32.9057   16.8725   22.1978 C   0  0  0  0  0  0  0  0  0  0  0  0
   33.5953   18.0437   22.7105 N   0  0  0  0  0  0  0  0  0  0  0  0
   26.5528   14.4953   22.1040 O   0  0  0  0  0  0  0  0  0  0  0  0
  2  1  1  6  0  0  0
  2  5  1  0  0  0  0
  2  3  1  0  0  0  0
  3  4  1  0  0  0  0
  3 10  1  0  0  0  0
  5  6  1  0  0  0  0
  6  7  1  0  0  0  0
  7  8  1  0  0  0  0
  8  9  1  0  0  0  0
M  END
>  <CHROM.1>
-58.76263470,-17.72172131,178.05674885,-177.94732718,177.86012490,29.55274958
15.87621907,21.51348497,-2.80987030,0.30637812,1.25793692

>  <Name>
ligand

>  <RI>
0

>  <Rbt.Current_Directory>
/home/itssahil/PROJECTS/Mol_Feturizer/New_Systems/rnas/3DJ0

>  <Rbt.Executable>
rbdock ($Id: //depot/dev/client3/rdock/2013.1/src/exe/rbdock.cxx#4 $)

>  <Rbt.Library>
libRbt.so (2013.1, Build901 2013/11/27)

>  <Rbt.Parameter_File>
/export/apps/rDock/src/rDock_2013.1_src/data/scripts/dock_solv.prm

>  <Rbt.Receptor>
prm/pocket_docking_4.prm

>  <SCORE>
-7.87157

>  <SCORE.INTER>
-5.67168

>  <SCORE.INTER.CONST>
1

>  <SCORE.INTER.POLAR>
0

>  <SCORE.INTER.ROT>
5

>  <SCORE.INTER.SOLV>
17.9144

>  <SCORE.INTER.VDW>
-16.6859

>  <SCORE.INTER.norm>
-0.567168

>  <SCORE.INTRA>
-2.19989

>  <SCORE.INTRA.DIHEDRAL>
-3.5311

>  <SCORE.INTRA.DIHEDRAL.0>
6.00299

>  <SCORE.INTRA.POLAR>
0

>  <SCORE.INTRA.POLAR.0>
0

>  <SCORE.INTRA.REPUL>
0

>  <SCORE.INTRA.REPUL.0>
0

>  <SCORE.INTRA.SOLV>
-0.675627

>  <SCORE.INTRA.SOLV.lig_0>
-39.3257

>  <SCORE.INTRA.VDW>
-0.0965235

>  <SCORE.INTRA.VDW.0>
-0.734044

>  <SCORE.INTRA.norm>
-0.219989

>  <SCORE.RESTR>
0

>  <SCORE.RESTR.CAVITY>
0

>  <SCORE.RESTR.norm>
0

>  <SCORE.SYSTEM>
0

>  <SCORE.SYSTEM.CONST>
0

>  <SCORE.SYSTEM.DIHEDRAL>
0

>  <SCORE.SYSTEM.SOLV>
0

>  <SCORE.SYSTEM.norm>
0

>  <SCORE.heavy>
10

>  <SCORE.norm>
-0.787157

>  <RMSD>
5.422

$$$$
ligand
 OpenBabel11021811473D
libRbt.so/2013.1/901 2013/11/27
 10  9  0  0  0  0  0  0  0  0999 V2000
   26.6030   14.7193   20.9673 N   0  0  0  0  0  0  0  0  0  0  0  0
   27.6488   15.3327   20.1702 C   0  0  2  0  0  0  0  0  0  0  0  0
   27.7558   14.6600   18.8278 C   0  0  0  0  0  0  0  0  0  0  0  0
   28.6004   15.0839   17.9999 O   0  0  0  0  0  0  0  0  0  0  0  0
   28.9732   15.2438   20.9162 C   0  0  0  0  0  0  0  0  0  0  0  0
   28.8597   15.9631   22.1415 O   0  0  0  0  0  0  0  0  0  0  0  0
   30.1466   15.9742   22.7591 C   0  0  0  0  0  0  0  0  0  0  0  0
   31.0120   17.0104   22.0452 C   0  0  0  0  0  0  0  0  0  0  0  0
   32.3323   17.0584   22.6490 N   0  0  0  0  0  0  0  0  0  0  0  0
   27.3812   13.4710   18.7810 O   0  0  0  0  0  0  0  0  0  0  0  0
  2  1  1  1  0  0  0
  2  5  1  0  0  0  0
  2  3  1  0  0  0  0
  3  4  1  0  0  0  0
  3 10  1  0  0  0  0
  5  6  1  0  0  0  0
  6  7  1  0  0  0  0
  7  8  1  0  0  0  0
  8  9  1  0  0  0  0
M  END
>  <CHROM.1>
-61.66148614,178.79449712,-174.50322713,77.22788232,179.71832128,28.92160988
15.43278074,20.69801795,2.35441047,-0.39878165,-1.78823191

>  <Name>
ligand

>  <RI>
0

>  <Rbt.Current_Directory>
/home/itssahil/PROJECTS/Mol_Feturizer/New_Systems/rnas/3DJ0

>  <Rbt.Executable>
rbdock ($Id: //depot/dev/client3/rdock/2013.1/src/exe/rbdock.cxx#4 $)

>  <Rbt.Library>
libRbt.so (2013.1, Build901 2013/11/27)

>  <Rbt.Parameter_File>
/export/apps/rDock/src/rDock_2013.1_src/data/scripts/dock_solv.prm

>  <Rbt.Receptor>
prm/pocket_docking_7.prm

>  <SCORE>
-5.32024

>  <SCORE.INTER>
-5.5885

>  <SCORE.INTER.CONST>
1

>  <SCORE.INTER.POLAR>
0

>  <SCORE.INTER.ROT>
5

>  <SCORE.INTER.SOLV>
19.4358

>  <SCORE.INTER.VDW>
-17.1376

>  <SCORE.INTER.norm>
-0.55885

>  <SCORE.INTRA>
0.268258

>  <SCORE.INTRA.DIHEDRAL>
-2.3688

>  <SCORE.INTRA.DIHEDRAL.0>
6.00299

>  <SCORE.INTRA.POLAR>
0

>  <SCORE.INTRA.POLAR.0>
0

>  <SCORE.INTRA.REPUL>
0

>  <SCORE.INTRA.REPUL.0>
0

>  <SCORE.INTRA.SOLV>
-0.321919

>  <SCORE.INTRA.SOLV.lig_0>
-39.3257

>  <SCORE.INTRA.VDW>
1.61362

>  <SCORE.INTRA.VDW.0>
-0.734044

>  <SCORE.INTRA.norm>
0.0268258

>  <SCORE.RESTR>
0

>  <SCORE.RESTR.CAVITY>
0

>  <SCORE.RESTR.norm>
0

>  <SCORE.SYSTEM>
0

>  <SCORE.SYSTEM.CONST>
0

>  <SCORE.SYSTEM.DIHEDRAL>
0

>  <SCORE.SYSTEM.SOLV>
0

>  <SCORE.SYSTEM.norm>
0

>  <SCORE.heavy>
10

>  <SCORE.norm>
-0.532024

>  <RMSD>
5.423

$$$$
ligand
 OpenBabel11021811473D
libRbt.so/2013.1/901 2013/11/27
 10  9  0  0  0  0  0  0  0  0999 V2000
   29.0981   14.8032   19.7864 N   0  0  0  0  0  0  0  0  0  0  0  0
   28.6468   14.9530   21.1573 C   0  0  2  0  0  0  0  0  0  0  0  0
   27.1541   15.1410   21.2066 C   0  0  0  0  0  0  0  0  0  0  0  0
   26.5482   15.4802   20.1596 O   0  0  0  0  0  0  0  0  0  0  0  0
   29.3534   16.1404   21.7970 C   0  0  0  0  0  0  0  0  0  0  0  0
   30.7588   15.9034   21.7784 O   0  0  0  0  0  0  0  0  0  0  0  0
   31.3990   17.0451   22.3481 C   0  0  0  0  0  0  0  0  0  0  0  0
   32.9095   16.8292   22.2842 C   0  0  0  0  0  0  0  0  0  0  0  0
   33.6007   17.9698   22.8599 N   0  0  0  0  0  0  0  0  0  0  0  0
   26.5523   14.5053   22.0954 O   0  0  0  0  0  0  0  0  0  0  0  0
  2  1  1  6  0  0  0
  2  5  1  0  0  0  0
  2  3  1  0  0  0  0
  3  4  1  0  0  0  0
  3 10  1  0  0  0  0
  5  6  1  0  0  0  0
  6  7  1  0  0  0  0
  7  8  1  0  0  0  0
  8  9  1  0  0  0  0
M  END
>  <CHROM.1>
-60.20438022,-17.61986332,178.39544520,-177.78459251,-179.80422800,29.55769826
15.86467406,21.54413053,-2.79627673,0.29338874,1.26320749

>  <Name>
ligand

>  <RI>
0

>  <Rbt.Current_Directory>
/home/itssahil/PROJECTS/Mol_Feturizer/New_Systems/rnas/3DJ0

>  <Rbt.Executable>
rbdock ($Id: //depot/dev/client3/rdock/2013.1/src/exe/rbdock.cxx#4 $)

>  <Rbt.Library>
libRbt.so (2013.1, Build901 2013/11/27)

>  <Rbt.Parameter_File>
/export/apps/rDock/src/rDock_2013.1_src/data/scripts/dock_solv.prm

>  <Rbt.Receptor>
prm/pocket_docking_2.prm

>  <SCORE>
-7.84973

>  <SCORE.INTER>
-5.62315

>  <SCORE.INTER.CONST>
1

>  <SCORE.INTER.POLAR>
0

>  <SCORE.INTER.ROT>
5

>  <SCORE.INTER.SOLV>
17.9856

>  <SCORE.INTER.VDW>
-16.6773

>  <SCORE.INTER.norm>
-0.562315

>  <SCORE.INTRA>
-2.22658

>  <SCORE.INTRA.DIHEDRAL>
-3.55497

>  <SCORE.INTRA.DIHEDRAL.0>
6.00299

>  <SCORE.INTRA.POLAR>
0

>  <SCORE.INTRA.POLAR.0>
0

>  <SCORE.INTRA.REPUL>
0

>  <SCORE.INTRA.REPUL.0>
0

>  <SCORE.INTRA.SOLV>
-0.693437

>  <SCORE.INTRA.SOLV.lig_0>
-39.3257

>  <SCORE.INTRA.VDW>
-0.102373

>  <SCORE.INTRA.VDW.0>
-0.734044

>  <SCORE.INTRA.norm>
-0.222658

>  <SCORE.RESTR>
0

>  <SCORE.RESTR.CAVITY>
0

>  <SCORE.RESTR.norm>
0

>  <SCORE.SYSTEM>
0

>  <SCORE.SYSTEM.CONST>
0

>  <SCORE.SYSTEM.DIHEDRAL>
0

>  <SCORE.SYSTEM.SOLV>
0

>  <SCORE.SYSTEM.norm>
0

>  <SCORE.heavy>
10

>  <SCORE.norm>
-0.784973

>  <RMSD>
5.424

$$$$
ligand
 OpenBabel11021811473D
libRbt.so/2013.1/901 2013/11/27
 10  9  0  0  0  0  0  0  0  0999 V2000
   26.1148   14.7588   21.2559 N   0  0  0  0  0  0  0  0  0  0  0  0
   27.2580   15.4962   20.7512 C   0  0  2  0  0  0  0  0  0  0  0  0
   27.6709   14.9750   19.4007 C   0  0  0  0  0  0  0  0  0  0  0  0
   28.5356   15.6059   18.7429 O   0  0  0  0  0  0  0  0  0  0  0  0
   28.4108   15.3832   21.7395 C   0  0  0  0  0  0  0  0  0  0  0  0
   29.4512   16.2697   21.3354 O   0  0  0  0  0  0  0  0  0  0  0  0
   30.5323   16.1180   22.2551 C   0  0  0  0  0  0  0  0  0  0  0  0
   31.6584   17.0581   21.8304 C   0  0  0  0  0  0  0  0  0  0  0  0
   32.7833   16.9315   22.7407 N   0  0  0  0  0  0  0  0  0  0  0  0
   27.5229   13.7497   19.2192 O   0  0  0  0  0  0  0  0  0  0  0  0
  2  1  1  1  0  0  0
  2  5  1  0  0  0  0
  2  3  1  0  0  0  0
  3  4  1  0  0  0  0
  3 10  1  0  0  0  0
  5  6  1  0  0  0  0
  6  7  1  0  0  0  0
  7  8  1  0  0  0  0
  8  9  1  0  0  0  0
M  END
>  <CHROM.1>
-171.34602686,171.13281989,-178.42924626,179.73462523,-179.82734097,28.99492808
15.62264147,20.89102019,2.62400439,-0.34218330,-1.75235254

>  <Name>
ligand

>  <RI>
0

>  <Rbt.Current_Directory>
/home/itssahil/PROJECTS/Mol_Feturizer/New_Systems/rnas/3DJ0

>  <Rbt.Executable>
rbdock ($Id: //depot/dev/client3/rdock/2013.1/src/exe/rbdock.cxx#4 $)

>  <Rbt.Library>
libRbt.so (2013.1, Build901 2013/11/27)

>  <Rbt.Parameter_File>
/export/apps/rDock/src/rDock_2013.1_src/data/scripts/dock_solv.prm

>  <Rbt.Receptor>
prm/pocket_docking_3.prm

>  <SCORE>
-6.81924

>  <SCORE.INTER>
-4.44306

>  <SCORE.INTER.CONST>
1

>  <SCORE.INTER.POLAR>
0

>  <SCORE.INTER.ROT>
5

>  <SCORE.INTER.SOLV>
21.8529

>  <SCORE.INTER.VDW>
-17.1797

>  <SCORE.INTER.norm>
-0.444306

>  <SCORE.INTRA>
-2.37618

>  <SCORE.INTRA.DIHEDRAL>
-3.48571

>  <SCORE.INTRA.DIHEDRAL.0>
6.00299

>  <SCORE.INTRA.POLAR>
0

>  <SCORE.INTRA.POLAR.0>
0

>  <SCORE.INTRA.REPUL>
0

>  <SCORE.INTRA.REPUL.0>
0

>  <SCORE.INTRA.SOLV>
-1.19351

>  <SCORE.INTRA.SOLV.lig_0>
-39.3257

>  <SCORE.INTRA.VDW>
-0.0365689

>  <SCORE.INTRA.VDW.0>
-0.734044

>  <SCORE.INTRA.norm>
-0.237618

>  <SCORE.RESTR>
0

>  <SCORE.RESTR.CAVITY>
0

>  <SCORE.RESTR.norm>
0

>  <SCORE.SYSTEM>
0

>  <SCORE.SYSTEM.CONST>
0

>  <SCORE.SYSTEM.DIHEDRAL>
0

>  <SCORE.SYSTEM.SOLV>
0

>  <SCORE.SYSTEM.norm>
0

>  <SCORE.heavy>
10

>  <SCORE.norm>
-0.681924

>  <RMSD>
5.424

$$$$
ligand
 OpenBabel11021811473D
libRbt.so/2013.1/901 2013/11/27
 10  9  0  0  0  0  0  0  0  0999 V2000
   29.0666   14.5447   19.8732 N   0  0  0  0  0  0  0  0  0  0  0  0
   28.6192   14.9216   21.2010 C   0  0  2  0  0  0  0  0  0  0  0  0
   27.1299   15.1405   21.2166 C   0  0  0  0  0  0  0  0  0  0  0  0
   26.5528   15.4761   20.1523 O   0  0  0  0  0  0  0  0  0  0  0  0
   29.3466   16.1845   21.6418 C   0  0  0  0  0  0  0  0  0  0  0  0
   30.7442   15.9116   21.7051 O   0  0  0  0  0  0  0  0  0  0  0  0
   31.3997   17.1024   22.1411 C   0  0  0  0  0  0  0  0  0  0  0  0
   32.9044   16.8424   22.1583 C   0  0  0  0  0  0  0  0  0  0  0  0
   33.6105   18.0310   22.6039 N   0  0  0  0  0  0  0  0  0  0  0  0
   26.4972   14.5306   22.1019 O   0  0  0  0  0  0  0  0  0  0  0  0
  2  1  1  6  0  0  0
  2  5  1  0  0  0  0
  2  3  1  0  0  0  0
  3  4  1  0  0  0  0
  3 10  1  0  0  0  0
  5  6  1  0  0  0  0
  6  7  1  0  0  0  0
  7  8  1  0  0  0  0
  8  9  1  0  0  0  0
M  END
>  <CHROM.1>
-62.01731813,-26.14427596,-179.05243677,-177.69341242,-179.72661542,29.54258495
15.85702505,21.47680959,-2.78255655,0.26109418,1.10665358

>  <Name>
ligand

>  <RI>
0

>  <Rbt.Current_Directory>
/home/itssahil/PROJECTS/Mol_Feturizer/New_Systems/rnas/3DJ0

>  <Rbt.Executable>
rbdock ($Id: //depot/dev/client3/rdock/2013.1/src/exe/rbdock.cxx#4 $)

>  <Rbt.Library>
libRbt.so (2013.1, Build901 2013/11/27)

>  <Rbt.Parameter_File>
/export/apps/rDock/src/rDock_2013.1_src/data/scripts/dock_solv.prm

>  <Rbt.Receptor>
prm/pocket_docking_3.prm

>  <SCORE>
-7.82439

>  <SCORE.INTER>
-5.45579

>  <SCORE.INTER.CONST>
1

>  <SCORE.INTER.POLAR>
0

>  <SCORE.INTER.ROT>
5

>  <SCORE.INTER.SOLV>
18.478

>  <SCORE.INTER.VDW>
-16.7299

>  <SCORE.INTER.norm>
-0.545579

>  <SCORE.INTRA>
-2.3686

>  <SCORE.INTRA.DIHEDRAL>
-3.71906

>  <SCORE.INTRA.DIHEDRAL.0>
6.00299

>  <SCORE.INTRA.POLAR>
0

>  <SCORE.INTRA.POLAR.0>
0

>  <SCORE.INTRA.REPUL>
0

>  <SCORE.INTRA.REPUL.0>
0

>  <SCORE.INTRA.SOLV>
-0.71301

>  <SCORE.INTRA.SOLV.lig_0>
-39.3257

>  <SCORE.INTRA.VDW>
-0.152564

>  <SCORE.INTRA.VDW.0>
-0.734044

>  <SCORE.INTRA.norm>
-0.23686

>  <SCORE.RESTR>
0

>  <SCORE.RESTR.CAVITY>
0

>  <SCORE.RESTR.norm>
0

>  <SCORE.SYSTEM>
0

>  <SCORE.SYSTEM.CONST>
0

>  <SCORE.SYSTEM.DIHEDRAL>
0

>  <SCORE.SYSTEM.SOLV>
0

>  <SCORE.SYSTEM.norm>
0

>  <SCORE.heavy>
10

>  <SCORE.norm>
-0.782439

>  <RMSD>
5.428

$$$$
ligand
 OpenBabel11021811473D
libRbt.so/2013.1/901 2013/11/27
 10  9  0  0  0  0  0  0  0  0999 V2000
   29.0670   14.5422   19.8934 N   0  0  0  0  0  0  0  0  0  0  0  0
   28.6158   14.9306   21.2167 C   0  0  2  0  0  0  0  0  0  0  0  0
   27.1258   15.1448   21.2272 C   0  0  0  0  0  0  0  0  0  0  0  0
   26.5532   15.4929   20.1645 O   0  0  0  0  0  0  0  0  0  0  0  0
   29.3383   16.2001   21.6464 C   0  0  0  0  0  0  0  0  0  0  0  0
   30.7367   15.9327   21.7139 O   0  0  0  0  0  0  0  0  0  0  0  0
   31.3897   17.1360   22.1181 C   0  0  0  0  0  0  0  0  0  0  0  0
   32.8923   16.8694   22.1771 C   0  0  0  0  0  0  0  0  0  0  0  0
   33.5960   18.0717   22.5885 N   0  0  0  0  0  0  0  0  0  0  0  0
   26.4904   14.5212   22.1010 O   0  0  0  0  0  0  0  0  0  0  0  0
  2  1  1  6  0  0  0
  2  5  1  0  0  0  0
  2  3  1  0  0  0  0
  3  4  1  0  0  0  0
  3 10  1  0  0  0  0
  5  6  1  0  0  0  0
  6  7  1  0  0  0  0
  7  8  1  0  0  0  0
  8  9  1  0  0  0  0
M  END
>  <CHROM.1>
-61.96726588,-27.48744580,-179.99032838,-179.26634382,-179.88739578,29.53602461
15.87252105,21.48191961,-2.77886211,0.26204537,1.09217607

>  <Name>
ligand

>  <RI>
0

>  <Rbt.Current_Directory>
/home/itssahil/PROJECTS/Mol_Feturizer/New_Systems/rnas/3DJ0

>  <Rbt.Executable>
rbdock ($Id: //depot/dev/client3/rdock/2013.1/src/exe/rbdock.cxx#4 $)

>  <Rbt.Library>
libRbt.so (2013.1, Build901 2013/11/27)

>  <Rbt.Parameter_File>
/export/apps/rDock/src/rDock_2013.1_src/data/scripts/dock_solv.prm

>  <Rbt.Receptor>
prm/pocket_docking_3.prm

>  <SCORE>
-7.79832

>  <SCORE.INTER>
-5.4

>  <SCORE.INTER.CONST>
1

>  <SCORE.INTER.POLAR>
0

>  <SCORE.INTER.ROT>
5

>  <SCORE.INTER.SOLV>
18.484

>  <SCORE.INTER.VDW>
-16.6947

>  <SCORE.INTER.norm>
-0.54

>  <SCORE.INTRA>
-2.39832

>  <SCORE.INTRA.DIHEDRAL>
-3.77273

>  <SCORE.INTRA.DIHEDRAL.0>
6.00299

>  <SCORE.INTRA.POLAR>
0

>  <SCORE.INTRA.POLAR.0>
0

>  <SCORE.INTRA.REPUL>
0

>  <SCORE.INTRA.REPUL.0>
0

>  <SCORE.INTRA.SOLV>
-0.706422

>  <SCORE.INTRA.SOLV.lig_0>
-39.3257

>  <SCORE.INTRA.VDW>
-0.158745

>  <SCORE.INTRA.VDW.0>
-0.734044

>  <SCORE.INTRA.norm>
-0.239832

>  <SCORE.RESTR>
0

>  <SCORE.RESTR.CAVITY>
0

>  <SCORE.RESTR.norm>
0

>  <SCORE.SYSTEM>
0

>  <SCORE.SYSTEM.CONST>
0

>  <SCORE.SYSTEM.DIHEDRAL>
0

>  <SCORE.SYSTEM.SOLV>
0

>  <SCORE.SYSTEM.norm>
0

>  <SCORE.heavy>
10

>  <SCORE.norm>
-0.779832

>  <RMSD>
5.430

$$$$
ligand
 OpenBabel11021811473D
libRbt.so/2013.1/901 2013/11/27
 10  9  0  0  0  0  0  0  0  0999 V2000
   26.3164   14.9505   21.1123 N   0  0  0  0  0  0  0  0  0  0  0  0
   27.5128   15.5568   20.5588 C   0  0  2  0  0  0  0  0  0  0  0  0
   27.9650   14.8126   19.3309 C   0  0  0  0  0  0  0  0  0  0  0  0
   27.4247   13.7132   19.0519 O   0  0  0  0  0  0  0  0  0  0  0  0
   28.6124   15.5621   21.6120 C   0  0  0  0  0  0  0  0  0  0  0  0
   29.7647   16.2028   21.0703 O   0  0  0  0  0  0  0  0  0  0  0  0
   30.7990   16.1383   22.0520 C   0  0  0  0  0  0  0  0  0  0  0  0
   32.0544   16.7833   21.4687 C   0  0  0  0  0  0  0  0  0  0  0  0
   33.1190   16.7850   22.4570 N   0  0  0  0  0  0  0  0  0  0  0  0
   28.4657   15.5077   18.4242 O   0  0  0  0  0  0  0  0  0  0  0  0
  2  1  1  1  0  0  0
  2  5  1  0  0  0  0
  2  3  1  0  0  0  0
  3  4  1  0  0  0  0
  3 10  1  0  0  0  0
  5  6  1  0  0  0  0
  6  7  1  0  0  0  0
  7  8  1  0  0  0  0
  8  9  1  0  0  0  0
M  END
>  <CHROM.1>
-177.95393102,-10.00109332,-177.29141153,178.27714247,177.79954787,29.19698106
15.58809730,20.67506858,2.63764087,-0.28066909,-1.79300677

>  <Name>
ligand

>  <RI>
0

>  <Rbt.Current_Directory>
/home/itssahil/PROJECTS/Mol_Feturizer/New_Systems/rnas/3DJ0

>  <Rbt.Executable>
rbdock ($Id: //depot/dev/client3/rdock/2013.1/src/exe/rbdock.cxx#4 $)

>  <Rbt.Library>
libRbt.so (2013.1, Build901 2013/11/27)

>  <Rbt.Parameter_File>
/export/apps/rDock/src/rDock_2013.1_src/data/scripts/dock_solv.prm

>  <Rbt.Receptor>
prm/pocket_docking_5.prm

>  <SCORE>
-7.02765

>  <SCORE.INTER>
-4.63508

>  <SCORE.INTER.CONST>
1

>  <SCORE.INTER.POLAR>
0

>  <SCORE.INTER.ROT>
5

>  <SCORE.INTER.SOLV>
21.8371

>  <SCORE.INTER.VDW>
-17.3024

>  <SCORE.INTER.norm>
-0.463508

>  <SCORE.INTRA>
-2.39257

>  <SCORE.INTRA.DIHEDRAL>
-3.35253

>  <SCORE.INTRA.DIHEDRAL.0>
6.00299

>  <SCORE.INTRA.POLAR>
0

>  <SCORE.INTRA.POLAR.0>
0

>  <SCORE.INTRA.REPUL>
0

>  <SCORE.INTRA.REPUL.0>
0

>  <SCORE.INTRA.SOLV>
-1.25975

>  <SCORE.INTRA.SOLV.lig_0>
-39.3257

>  <SCORE.INTRA.VDW>
-0.0864302

>  <SCORE.INTRA.VDW.0>
-0.734044

>  <SCORE.INTRA.norm>
-0.239257

>  <SCORE.RESTR>
0

>  <SCORE.RESTR.CAVITY>
0

>  <SCORE.RESTR.norm>
0

>  <SCORE.SYSTEM>
0

>  <SCORE.SYSTEM.CONST>
0

>  <SCORE.SYSTEM.DIHEDRAL>
0

>  <SCORE.SYSTEM.SOLV>
0

>  <SCORE.SYSTEM.norm>
0

>  <SCORE.heavy>
10

>  <SCORE.norm>
-0.702765

>  <RMSD>
5.431

$$$$
ligand
 OpenBabel11021811473D
libRbt.so/2013.1/901 2013/11/27
 10  9  0  0  0  0  0  0  0  0999 V2000
   26.1010   14.8172   21.2038 N   0  0  0  0  0  0  0  0  0  0  0  0
   27.2618   15.5172   20.6862 C   0  0  2  0  0  0  0  0  0  0  0  0
   27.6802   14.9417   19.3596 C   0  0  0  0  0  0  0  0  0  0  0  0
   28.5672   15.5307   18.6929 O   0  0  0  0  0  0  0  0  0  0  0  0
   28.4020   15.4205   21.6908 C   0  0  0  0  0  0  0  0  0  0  0  0
   29.4679   16.2623   21.2586 O   0  0  0  0  0  0  0  0  0  0  0  0
   30.5171   16.1629   22.2215 C   0  0  0  0  0  0  0  0  0  0  0  0
   31.6626   17.0701   21.7776 C   0  0  0  0  0  0  0  0  0  0  0  0
   32.7499   17.0064   22.7387 N   0  0  0  0  0  0  0  0  0  0  0  0
   27.5070   13.7145   19.2174 O   0  0  0  0  0  0  0  0  0  0  0  0
  2  1  1  1  0  0  0
  2  5  1  0  0  0  0
  2  3  1  0  0  0  0
  3  4  1  0  0  0  0
  3 10  1  0  0  0  0
  5  6  1  0  0  0  0
  6  7  1  0  0  0  0
  7  8  1  0  0  0  0
  8  9  1  0  0  0  0
M  END
>  <CHROM.1>
-172.04837111,171.49460765,179.49199281,-179.50841207,179.54715627,28.99320344
15.63058749,20.84876983,2.60769706,-0.33273265,-1.79041523

>  <Name>
ligand

>  <RI>
0

>  <Rbt.Current_Directory>
/home/itssahil/PROJECTS/Mol_Feturizer/New_Systems/rnas/3DJ0

>  <Rbt.Executable>
rbdock ($Id: //depot/dev/client3/rdock/2013.1/src/exe/rbdock.cxx#4 $)

>  <Rbt.Library>
libRbt.so (2013.1, Build901 2013/11/27)

>  <Rbt.Parameter_File>
/export/apps/rDock/src/rDock_2013.1_src/data/scripts/dock_solv.prm

>  <Rbt.Receptor>
prm/pocket_docking_3.prm

>  <SCORE>
-6.82163

>  <SCORE.INTER>
-4.43872

>  <SCORE.INTER.CONST>
1

>  <SCORE.INTER.POLAR>
0

>  <SCORE.INTER.ROT>
5

>  <SCORE.INTER.SOLV>
21.5896

>  <SCORE.INTER.VDW>
-17.089

>  <SCORE.INTER.norm>
-0.443872

>  <SCORE.INTRA>
-2.38291

>  <SCORE.INTRA.DIHEDRAL>
-3.54295

>  <SCORE.INTRA.DIHEDRAL.0>
6.00299

>  <SCORE.INTRA.POLAR>
0

>  <SCORE.INTRA.POLAR.0>
0

>  <SCORE.INTRA.REPUL>
0

>  <SCORE.INTRA.REPUL.0>
0

>  <SCORE.INTRA.SOLV>
-1.19034

>  <SCORE.INTRA.SOLV.lig_0>
-39.3257

>  <SCORE.INTRA.VDW>
-0.0162608

>  <SCORE.INTRA.VDW.0>
-0.734044

>  <SCORE.INTRA.norm>
-0.238291

>  <SCORE.RESTR>
0

>  <SCORE.RESTR.CAVITY>
0

>  <SCORE.RESTR.norm>
0

>  <SCORE.SYSTEM>
0

>  <SCORE.SYSTEM.CONST>
0

>  <SCORE.SYSTEM.DIHEDRAL>
0

>  <SCORE.SYSTEM.SOLV>
0

>  <SCORE.SYSTEM.norm>
0

>  <SCORE.heavy>
10

>  <SCORE.norm>
-0.682163

>  <RMSD>
5.432

$$$$
ligand
 OpenBabel11021811473D
libRbt.so/2013.1/901 2013/11/27
 10  9  0  0  0  0  0  0  0  0999 V2000
   29.0609   14.4108   19.9785 N   0  0  0  0  0  0  0  0  0  0  0  0
   28.5947   14.8934   21.2650 C   0  0  2  0  0  0  0  0  0  0  0  0
   27.1079   15.1277   21.2364 C   0  0  0  0  0  0  0  0  0  0  0  0
   26.5663   15.4708   20.1559 O   0  0  0  0  0  0  0  0  0  0  0  0
   29.3286   16.1792   21.6206 C   0  0  0  0  0  0  0  0  0  0  0  0
   30.7220   15.8987   21.7268 O   0  0  0  0  0  0  0  0  0  0  0  0
   31.3840   17.1143   22.0760 C   0  0  0  0  0  0  0  0  0  0  0  0
   32.8819   16.8334   22.1733 C   0  0  0  0  0  0  0  0  0  0  0  0
   33.5956   18.0500   22.5209 N   0  0  0  0  0  0  0  0  0  0  0  0
   26.4428   14.5231   22.1013 O   0  0  0  0  0  0  0  0  0  0  0  0
  2  1  1  6  0  0  0
  2  5  1  0  0  0  0
  2  3  1  0  0  0  0
  3  4  1  0  0  0  0
  3 10  1  0  0  0  0
  5  6  1  0  0  0  0
  6  7  1  0  0  0  0
  7  8  1  0  0  0  0
  8  9  1  0  0  0  0
M  END
>  <CHROM.1>
-61.86531817,-30.70561104,-179.30965437,-179.17985009,179.69955573,29.52390114
15.83906707,21.48234314,-2.76555588,0.23412292,1.00609059

>  <Name>
ligand

>  <RI>
0

>  <Rbt.Current_Directory>
/home/itssahil/PROJECTS/Mol_Feturizer/New_Systems/rnas/3DJ0

>  <Rbt.Executable>
rbdock ($Id: //depot/dev/client3/rdock/2013.1/src/exe/rbdock.cxx#4 $)

>  <Rbt.Library>
libRbt.so (2013.1, Build901 2013/11/27)

>  <Rbt.Parameter_File>
/export/apps/rDock/src/rDock_2013.1_src/data/scripts/dock_solv.prm

>  <Rbt.Receptor>
prm/pocket_docking_5.prm

>  <SCORE>
-7.82975

>  <SCORE.INTER>
-5.39386

>  <SCORE.INTER.CONST>
1

>  <SCORE.INTER.POLAR>
0

>  <SCORE.INTER.ROT>
5

>  <SCORE.INTER.SOLV>
18.8754

>  <SCORE.INTER.VDW>
-16.821

>  <SCORE.INTER.norm>
-0.539386

>  <SCORE.INTRA>
-2.43589

>  <SCORE.INTRA.DIHEDRAL>
-3.82591

>  <SCORE.INTRA.DIHEDRAL.0>
6.00299

>  <SCORE.INTRA.POLAR>
0

>  <SCORE.INTRA.POLAR.0>
0

>  <SCORE.INTRA.REPUL>
0

>  <SCORE.INTRA.REPUL.0>
0

>  <SCORE.INTRA.SOLV>
-0.704118

>  <SCORE.INTRA.SOLV.lig_0>
-39.3257

>  <SCORE.INTRA.VDW>
-0.17088

>  <SCORE.INTRA.VDW.0>
-0.734044

>  <SCORE.INTRA.norm>
-0.243589

>  <SCORE.RESTR>
0

>  <SCORE.RESTR.CAVITY>
0

>  <SCORE.RESTR.norm>
0

>  <SCORE.SYSTEM>
0

>  <SCORE.SYSTEM.CONST>
0

>  <SCORE.SYSTEM.DIHEDRAL>
0

>  <SCORE.SYSTEM.SOLV>
0

>  <SCORE.SYSTEM.norm>
0

>  <SCORE.heavy>
10

>  <SCORE.norm>
-0.782975

>  <RMSD>
5.434

$$$$
ligand
 OpenBabel11021811473D
libRbt.so/2013.1/901 2013/11/27
 10  9  0  0  0  0  0  0  0  0999 V2000
   26.3195   14.9144   21.0988 N   0  0  0  0  0  0  0  0  0  0  0  0
   27.5536   15.4808   20.5872 C   0  0  2  0  0  0  0  0  0  0  0  0
   27.9765   14.7778   19.3251 C   0  0  0  0  0  0  0  0  0  0  0  0
   27.4195   13.6951   19.0153 O   0  0  0  0  0  0  0  0  0  0  0  0
   28.6406   15.3691   21.6475 C   0  0  0  0  0  0  0  0  0  0  0  0
   29.8271   15.9876   21.1562 O   0  0  0  0  0  0  0  0  0  0  0  0
   30.7984   15.9551   22.2019 C   0  0  0  0  0  0  0  0  0  0  0  0
   32.0736   16.6233   21.6925 C   0  0  0  0  0  0  0  0  0  0  0  0
   33.0558   16.7016   22.7598 N   0  0  0  0  0  0  0  0  0  0  0  0
   28.4692   15.5007   18.4358 O   0  0  0  0  0  0  0  0  0  0  0  0
  2  1  1  1  0  0  0
  2  5  1  0  0  0  0
  2  3  1  0  0  0  0
  3  4  1  0  0  0  0
  3 10  1  0  0  0  0
  5  6  1  0  0  0  0
  6  7  1  0  0  0  0
  7  8  1  0  0  0  0
  8  9  1  0  0  0  0
M  END
>  <CHROM.1>
-177.17965292,-13.13698864,175.90113096,-179.63586251,175.73379532,29.20715688
15.48764468,20.75179170,2.60634737,-0.27964066,-1.74161193

>  <Name>
ligand

>  <RI>
0

>  <Rbt.Current_Directory>
/home/itssahil/PROJECTS/Mol_Feturizer/New_Systems/rnas/3DJ0

>  <Rbt.Executable>
rbdock ($Id: //depot/dev/client3/rdock/2013.1/src/exe/rbdock.cxx#4 $)

>  <Rbt.Library>
libRbt.so (2013.1, Build901 2013/11/27)

>  <Rbt.Parameter_File>
/export/apps/rDock/src/rDock_2013.1_src/data/scripts/dock_solv.prm

>  <Rbt.Receptor>
prm/pocket_docking_6.prm

>  <SCORE>
-7.14771

>  <SCORE.INTER>
-4.76637

>  <SCORE.INTER.CONST>
1

>  <SCORE.INTER.POLAR>
0

>  <SCORE.INTER.ROT>
5

>  <SCORE.INTER.SOLV>
22.2484

>  <SCORE.INTER.VDW>
-17.527

>  <SCORE.INTER.norm>
-0.476637

>  <SCORE.INTRA>
-2.38134

>  <SCORE.INTRA.DIHEDRAL>
-3.3175

>  <SCORE.INTRA.DIHEDRAL.0>
6.00299

>  <SCORE.INTRA.POLAR>
0

>  <SCORE.INTRA.POLAR.0>
0

>  <SCORE.INTRA.REPUL>
0

>  <SCORE.INTRA.REPUL.0>
0

>  <SCORE.INTRA.SOLV>
-1.2753

>  <SCORE.INTRA.SOLV.lig_0>
-39.3257

>  <SCORE.INTRA.VDW>
-0.0849363

>  <SCORE.INTRA.VDW.0>
-0.734044

>  <SCORE.INTRA.norm>
-0.238134

>  <SCORE.RESTR>
0

>  <SCORE.RESTR.CAVITY>
0

>  <SCORE.RESTR.norm>
0

>  <SCORE.SYSTEM>
0

>  <SCORE.SYSTEM.CONST>
0

>  <SCORE.SYSTEM.DIHEDRAL>
0

>  <SCORE.SYSTEM.SOLV>
0

>  <SCORE.SYSTEM.norm>
0

>  <SCORE.heavy>
10

>  <SCORE.norm>
-0.714771

>  <RMSD>
5.436

$$$$
ligand
 OpenBabel11021811473D
libRbt.so/2013.1/901 2013/11/27
 10  9  0  0  0  0  0  0  0  0999 V2000
   26.3142   14.9166   21.1025 N   0  0  0  0  0  0  0  0  0  0  0  0
   27.5408   15.4991   20.5909 C   0  0  2  0  0  0  0  0  0  0  0  0
   27.9658   14.8102   19.3217 C   0  0  0  0  0  0  0  0  0  0  0  0
   27.4183   13.7245   19.0055 O   0  0  0  0  0  0  0  0  0  0  0  0
   28.6329   15.3897   21.6463 C   0  0  0  0  0  0  0  0  0  0  0  0
   29.8026   16.0483   21.1672 O   0  0  0  0  0  0  0  0  0  0  0  0
   30.7975   15.9627   22.1873 C   0  0  0  0  0  0  0  0  0  0  0  0
   32.0319   16.7299   21.7186 C   0  0  0  0  0  0  0  0  0  0  0  0
   33.0450   16.7279   22.7596 N   0  0  0  0  0  0  0  0  0  0  0  0
   28.4479   15.5449   18.4363 O   0  0  0  0  0  0  0  0  0  0  0  0
  2  1  1  1  0  0  0
  2  5  1  0  0  0  0
  2  3  1  0  0  0  0
  3  4  1  0  0  0  0
  3 10  1  0  0  0  0
  5  6  1  0  0  0  0
  6  7  1  0  0  0  0
  7  8  1  0  0  0  0
  8  9  1  0  0  0  0
M  END
>  <CHROM.1>
-175.96157317,-13.14964430,178.47434174,-176.97079860,176.97886301,29.19337072
15.52300079,20.75334599,2.60732292,-0.29165010,-1.72986146

>  <Name>
ligand

>  <RI>
0

>  <Rbt.Current_Directory>
/home/itssahil/PROJECTS/Mol_Feturizer/New_Systems/rnas/3DJ0

>  <Rbt.Executable>
rbdock ($Id: //depot/dev/client3/rdock/2013.1/src/exe/rbdock.cxx#4 $)

>  <Rbt.Library>
libRbt.so (2013.1, Build901 2013/11/27)

>  <Rbt.Parameter_File>
/export/apps/rDock/src/rDock_2013.1_src/data/scripts/dock_solv.prm

>  <Rbt.Receptor>
prm/pocket_docking_7.prm

>  <SCORE>
-7.14742

>  <SCORE.INTER>
-4.73222

>  <SCORE.INTER.CONST>
1

>  <SCORE.INTER.POLAR>
0

>  <SCORE.INTER.ROT>
5

>  <SCORE.INTER.SOLV>
22.1948

>  <SCORE.INTER.VDW>
-17.4864

>  <SCORE.INTER.norm>
-0.473222

>  <SCORE.INTRA>
-2.41615

>  <SCORE.INTRA.DIHEDRAL>
-3.3477

>  <SCORE.INTRA.DIHEDRAL.0>
6.00299

>  <SCORE.INTRA.POLAR>
0

>  <SCORE.INTRA.POLAR.0>
0

>  <SCORE.INTRA.REPUL>
0

>  <SCORE.INTRA.REPUL.0>
0

>  <SCORE.INTRA.SOLV>
-1.28038

>  <SCORE.INTRA.SOLV.lig_0>
-39.3257

>  <SCORE.INTRA.VDW>
-0.102112

>  <SCORE.INTRA.VDW.0>
-0.734044

>  <SCORE.INTRA.norm>
-0.241615

>  <SCORE.RESTR>
0.000956125

>  <SCORE.RESTR.CAVITY>
0.000956125

>  <SCORE.RESTR.norm>
9.56125e-05

>  <SCORE.SYSTEM>
0

>  <SCORE.SYSTEM.CONST>
0

>  <SCORE.SYSTEM.DIHEDRAL>
0

>  <SCORE.SYSTEM.SOLV>
0

>  <SCORE.SYSTEM.norm>
0

>  <SCORE.heavy>
10

>  <SCORE.norm>
-0.714742

>  <RMSD>
5.437

$$$$
ligand
 OpenBabel11021811473D
libRbt.so/2013.1/901 2013/11/27
 10  9  0  0  0  0  0  0  0  0999 V2000
   26.3445   14.9261   21.0767 N   0  0  0  0  0  0  0  0  0  0  0  0
   27.5946   15.4582   20.5673 C   0  0  2  0  0  0  0  0  0  0  0  0
   27.9997   14.7442   19.3055 C   0  0  0  0  0  0  0  0  0  0  0  0
   27.4488   13.6516   19.0205 O   0  0  0  0  0  0  0  0  0  0  0  0
   28.6765   15.3159   21.6292 C   0  0  0  0  0  0  0  0  0  0  0  0
   29.8558   15.9752   21.1750 O   0  0  0  0  0  0  0  0  0  0  0  0
   30.8318   15.8823   22.2125 C   0  0  0  0  0  0  0  0  0  0  0  0
   32.1049   16.5789   21.7367 C   0  0  0  0  0  0  0  0  0  0  0  0
   33.0760   16.6336   22.8156 N   0  0  0  0  0  0  0  0  0  0  0  0
   28.4661   15.4613   18.3976 O   0  0  0  0  0  0  0  0  0  0  0  0
  2  1  1  1  0  0  0
  2  5  1  0  0  0  0
  2  3  1  0  0  0  0
  3  4  1  0  0  0  0
  3 10  1  0  0  0  0
  5  6  1  0  0  0  0
  6  7  1  0  0  0  0
  7  8  1  0  0  0  0
  8  9  1  0  0  0  0
M  END
>  <CHROM.1>
-173.55638187,-15.79943054,177.29849572,179.71190336,173.90298754,29.23323698
15.44991354,20.75347175,2.59518517,-0.27138467,-1.74036359

>  <Name>
ligand

>  <RI>
0

>  <Rbt.Current_Directory>
/home/itssahil/PROJECTS/Mol_Feturizer/New_Systems/rnas/3DJ0

>  <Rbt.Executable>
rbdock ($Id: //depot/dev/client3/rdock/2013.1/src/exe/rbdock.cxx#4 $)

>  <Rbt.Library>
libRbt.so (2013.1, Build901 2013/11/27)

>  <Rbt.Parameter_File>
/export/apps/rDock/src/rDock_2013.1_src/data/scripts/dock_solv.prm

>  <Rbt.Receptor>
prm/pocket_docking_5.prm

>  <SCORE>
-7.20683

>  <SCORE.INTER>
-4.80483

>  <SCORE.INTER.CONST>
1

>  <SCORE.INTER.POLAR>
0

>  <SCORE.INTER.ROT>
5

>  <SCORE.INTER.SOLV>
22.4949

>  <SCORE.INTER.VDW>
-17.6348

>  <SCORE.INTER.norm>
-0.480483

>  <SCORE.INTRA>
-2.40199

>  <SCORE.INTRA.DIHEDRAL>
-3.22601

>  <SCORE.INTRA.DIHEDRAL.0>
6.00299

>  <SCORE.INTRA.POLAR>
0

>  <SCORE.INTRA.POLAR.0>
0

>  <SCORE.INTRA.REPUL>
0

>  <SCORE.INTRA.REPUL.0>
0

>  <SCORE.INTRA.SOLV>
-1.2975

>  <SCORE.INTRA.SOLV.lig_0>
-39.3257

>  <SCORE.INTRA.VDW>
-0.14024

>  <SCORE.INTRA.VDW.0>
-0.734044

>  <SCORE.INTRA.norm>
-0.240199

>  <SCORE.RESTR>
0

>  <SCORE.RESTR.CAVITY>
0

>  <SCORE.RESTR.norm>
0

>  <SCORE.SYSTEM>
0

>  <SCORE.SYSTEM.CONST>
0

>  <SCORE.SYSTEM.DIHEDRAL>
0

>  <SCORE.SYSTEM.SOLV>
0

>  <SCORE.SYSTEM.norm>
0

>  <SCORE.heavy>
10

>  <SCORE.norm>
-0.720683

>  <RMSD>
5.438

$$$$
ligand
 OpenBabel11021811473D
libRbt.so/2013.1/901 2013/11/27
 10  9  0  0  0  0  0  0  0  0999 V2000
   28.9961   14.5920   19.8209 N   0  0  0  0  0  0  0  0  0  0  0  0
   28.5662   14.9187   21.1677 C   0  0  2  0  0  0  0  0  0  0  0  0
   27.0778   15.1400   21.2103 C   0  0  0  0  0  0  0  0  0  0  0  0
   26.4835   15.4867   20.1591 O   0  0  0  0  0  0  0  0  0  0  0  0
   29.3023   16.1622   21.6474 C   0  0  0  0  0  0  0  0  0  0  0  0
   30.7021   15.8937   21.6545 O   0  0  0  0  0  0  0  0  0  0  0  0
   31.3679   17.0721   22.1082 C   0  0  0  0  0  0  0  0  0  0  0  0
   32.8724   16.8112   22.0861 C   0  0  0  0  0  0  0  0  0  0  0  0
   33.5907   18.0002   22.5110 N   0  0  0  0  0  0  0  0  0  0  0  0
   26.4589   14.5227   22.1002 O   0  0  0  0  0  0  0  0  0  0  0  0
  2  1  1  6  0  0  0
  2  5  1  0  0  0  0
  2  3  1  0  0  0  0
  3  4  1  0  0  0  0
  3 10  1  0  0  0  0
  5  6  1  0  0  0  0
  6  7  1  0  0  0  0
  7  8  1  0  0  0  0
  8  9  1  0  0  0  0
M  END
>  <CHROM.1>
-60.75036351,-24.47951619,-179.93944741,-178.53436630,178.61230104,29.49717728
15.84847838,21.44439466,-2.80595680,0.27312605,1.14736904

>  <Name>
ligand

>  <RI>
0

>  <Rbt.Current_Directory>
/home/itssahil/PROJECTS/Mol_Feturizer/New_Systems/rnas/3DJ0

>  <Rbt.Executable>
rbdock ($Id: //depot/dev/client3/rdock/2013.1/src/exe/rbdock.cxx#4 $)

>  <Rbt.Library>
libRbt.so (2013.1, Build901 2013/11/27)

>  <Rbt.Parameter_File>
/export/apps/rDock/src/rDock_2013.1_src/data/scripts/dock_solv.prm

>  <Rbt.Receptor>
prm/pocket_docking_8.prm

>  <SCORE>
-7.83236

>  <SCORE.INTER>
-5.48775

>  <SCORE.INTER.CONST>
1

>  <SCORE.INTER.POLAR>
0

>  <SCORE.INTER.ROT>
5

>  <SCORE.INTER.SOLV>
18.2718

>  <SCORE.INTER.VDW>
-16.6824

>  <SCORE.INTER.norm>
-0.548775

>  <SCORE.INTRA>
-2.3446

>  <SCORE.INTRA.DIHEDRAL>
-3.71207

>  <SCORE.INTRA.DIHEDRAL.0>
6.00299

>  <SCORE.INTRA.POLAR>
0

>  <SCORE.INTRA.POLAR.0>
0

>  <SCORE.INTRA.REPUL>
0

>  <SCORE.INTRA.REPUL.0>
0

>  <SCORE.INTRA.SOLV>
-0.697133

>  <SCORE.INTRA.SOLV.lig_0>
-39.3257

>  <SCORE.INTRA.VDW>
-0.140003

>  <SCORE.INTRA.VDW.0>
-0.734044

>  <SCORE.INTRA.norm>
-0.23446

>  <SCORE.RESTR>
0

>  <SCORE.RESTR.CAVITY>
0

>  <SCORE.RESTR.norm>
0

>  <SCORE.SYSTEM>
0

>  <SCORE.SYSTEM.CONST>
0

>  <SCORE.SYSTEM.DIHEDRAL>
0

>  <SCORE.SYSTEM.SOLV>
0

>  <SCORE.SYSTEM.norm>
0

>  <SCORE.heavy>
10

>  <SCORE.norm>
-0.783236

>  <RMSD>
5.438

$$$$
ligand
 OpenBabel11021811473D
libRbt.so/2013.1/901 2013/11/27
 10  9  0  0  0  0  0  0  0  0999 V2000
   29.0229   14.5230   19.8996 N   0  0  0  0  0  0  0  0  0  0  0  0
   28.5615   14.8921   21.2248 C   0  0  2  0  0  0  0  0  0  0  0  0
   27.0750   15.1295   21.2217 C   0  0  0  0  0  0  0  0  0  0  0  0
   26.5168   15.4808   20.1524 O   0  0  0  0  0  0  0  0  0  0  0  0
   29.2981   16.1414   21.6885 C   0  0  0  0  0  0  0  0  0  0  0  0
   30.6963   15.8659   21.7189 O   0  0  0  0  0  0  0  0  0  0  0  0
   31.3661   17.0630   22.1138 C   0  0  0  0  0  0  0  0  0  0  0  0
   32.8682   16.7880   22.1325 C   0  0  0  0  0  0  0  0  0  0  0  0
   33.5897   17.9875   22.5206 N   0  0  0  0  0  0  0  0  0  0  0  0
   26.4226   14.5203   22.0932 O   0  0  0  0  0  0  0  0  0  0  0  0
  2  1  1  6  0  0  0
  2  5  1  0  0  0  0
  2  3  1  0  0  0  0
  3  4  1  0  0  0  0
  3 10  1  0  0  0  0
  5  6  1  0  0  0  0
  6  7  1  0  0  0  0
  7  8  1  0  0  0  0
  8  9  1  0  0  0  0
M  END
>  <CHROM.1>
-59.79832249,-26.03680020,178.14166603,-179.24430315,179.56521636,29.49703342
15.82803968,21.47385811,-2.79370580,0.25791715,1.10456433

>  <Name>
ligand

>  <RI>
0

>  <Rbt.Current_Directory>
/home/itssahil/PROJECTS/Mol_Feturizer/New_Systems/rnas/3DJ0

>  <Rbt.Executable>
rbdock ($Id: //depot/dev/client3/rdock/2013.1/src/exe/rbdock.cxx#4 $)

>  <Rbt.Library>
libRbt.so (2013.1, Build901 2013/11/27)

>  <Rbt.Parameter_File>
/export/apps/rDock/src/rDock_2013.1_src/data/scripts/dock_solv.prm

>  <Rbt.Receptor>
prm/pocket_docking_4.prm

>  <SCORE>
-7.84582

>  <SCORE.INTER>
-5.4934

>  <SCORE.INTER.CONST>
1

>  <SCORE.INTER.POLAR>
0

>  <SCORE.INTER.ROT>
5

>  <SCORE.INTER.SOLV>
18.5047

>  <SCORE.INTER.VDW>
-16.7638

>  <SCORE.INTER.norm>
-0.54934

>  <SCORE.INTRA>
-2.35242

>  <SCORE.INTRA.DIHEDRAL>
-3.74046

>  <SCORE.INTRA.DIHEDRAL.0>
6.00299

>  <SCORE.INTRA.POLAR>
0

>  <SCORE.INTRA.POLAR.0>
0

>  <SCORE.INTRA.REPUL>
0

>  <SCORE.INTRA.REPUL.0>
0

>  <SCORE.INTRA.SOLV>
-0.675656

>  <SCORE.INTRA.SOLV.lig_0>
-39.3257

>  <SCORE.INTRA.VDW>
-0.144356

>  <SCORE.INTRA.VDW.0>
-0.734044

>  <SCORE.INTRA.norm>
-0.235242

>  <SCORE.RESTR>
0

>  <SCORE.RESTR.CAVITY>
0

>  <SCORE.RESTR.norm>
0

>  <SCORE.SYSTEM>
0

>  <SCORE.SYSTEM.CONST>
0

>  <SCORE.SYSTEM.DIHEDRAL>
0

>  <SCORE.SYSTEM.SOLV>
0

>  <SCORE.SYSTEM.norm>
0

>  <SCORE.heavy>
10

>  <SCORE.norm>
-0.784582

>  <RMSD>
5.439

$$$$
ligand
 OpenBabel11021811473D
libRbt.so/2013.1/901 2013/11/27
 10  9  0  0  0  0  0  0  0  0999 V2000
   26.2468   14.9071   21.1829 N   0  0  0  0  0  0  0  0  0  0  0  0
   27.3915   15.5307   20.5456 C   0  0  2  0  0  0  0  0  0  0  0  0
   27.6668   14.8939   19.2097 C   0  0  0  0  0  0  0  0  0  0  0  0
   28.5010   15.4315   18.4392 O   0  0  0  0  0  0  0  0  0  0  0  0
   28.6073   15.4071   21.4539 C   0  0  0  0  0  0  0  0  0  0  0  0
   29.6990   16.1032   20.8577 O   0  0  0  0  0  0  0  0  0  0  0  0
   30.8277   15.9601   21.7198 C   0  0  0  0  0  0  0  0  0  0  0  0
   32.0174   16.6661   21.0731 C   0  0  0  0  0  0  0  0  0  0  0  0
   33.1598   16.6408   21.9700 N   0  0  0  0  0  0  0  0  0  0  0  0
   27.4497   13.6678   19.1337 O   0  0  0  0  0  0  0  0  0  0  0  0
  2  1  1  1  0  0  0
  2  5  1  0  0  0  0
  2  3  1  0  0  0  0
  3  4  1  0  0  0  0
  3 10  1  0  0  0  0
  5  6  1  0  0  0  0
  6  7  1  0  0  0  0
  7  8  1  0  0  0  0
  8  9  1  0  0  0  0
M  END
>  <CHROM.1>
-176.03697607,170.05375997,-179.38172614,178.32940603,175.25974294,29.15437750
15.50645274,20.52338688,2.73671880,-0.27521587,-1.78399021

>  <Name>
ligand

>  <RI>
0

>  <Rbt.Current_Directory>
/home/itssahil/PROJECTS/Mol_Feturizer/New_Systems/rnas/3DJ0

>  <Rbt.Executable>
rbdock ($Id: //depot/dev/client3/rdock/2013.1/src/exe/rbdock.cxx#4 $)

>  <Rbt.Library>
libRbt.so (2013.1, Build901 2013/11/27)

>  <Rbt.Parameter_File>
/export/apps/rDock/src/rDock_2013.1_src/data/scripts/dock_solv.prm

>  <Rbt.Receptor>
prm/pocket_docking_3.prm

>  <SCORE>
-7.03015

>  <SCORE.INTER>
-4.67454

>  <SCORE.INTER.CONST>
1

>  <SCORE.INTER.POLAR>
0

>  <SCORE.INTER.ROT>
5

>  <SCORE.INTER.SOLV>
21.6574

>  <SCORE.INTER.VDW>
-17.2688

>  <SCORE.INTER.norm>
-0.467454

>  <SCORE.INTRA>
-2.35561

>  <SCORE.INTRA.DIHEDRAL>
-3.58968

>  <SCORE.INTRA.DIHEDRAL.0>
6.00299

>  <SCORE.INTRA.POLAR>
0

>  <SCORE.INTRA.POLAR.0>
0

>  <SCORE.INTRA.REPUL>
0

>  <SCORE.INTRA.REPUL.0>
0

>  <SCORE.INTRA.SOLV>
-1.16092

>  <SCORE.INTRA.SOLV.lig_0>
-39.3257

>  <SCORE.INTRA.VDW>
0.0196957

>  <SCORE.INTRA.VDW.0>
-0.734044

>  <SCORE.INTRA.norm>
-0.235561

>  <SCORE.RESTR>
0

>  <SCORE.RESTR.CAVITY>
0

>  <SCORE.RESTR.norm>
0

>  <SCORE.SYSTEM>
0

>  <SCORE.SYSTEM.CONST>
0

>  <SCORE.SYSTEM.DIHEDRAL>
0

>  <SCORE.SYSTEM.SOLV>
0

>  <SCORE.SYSTEM.norm>
0

>  <SCORE.heavy>
10

>  <SCORE.norm>
-0.703015

>  <RMSD>
5.441

$$$$
ligand
 OpenBabel11021811473D
libRbt.so/2013.1/901 2013/11/27
 10  9  0  0  0  0  0  0  0  0999 V2000
   26.3002   14.8212   21.1857 N   0  0  0  0  0  0  0  0  0  0  0  0
   27.4372   15.4603   20.5498 C   0  0  2  0  0  0  0  0  0  0  0  0
   27.6946   14.8577   19.1945 C   0  0  0  0  0  0  0  0  0  0  0  0
   28.4923   15.4340   18.4135 O   0  0  0  0  0  0  0  0  0  0  0  0
   28.6645   15.3127   21.4387 C   0  0  0  0  0  0  0  0  0  0  0  0
   29.7481   16.0262   20.8484 O   0  0  0  0  0  0  0  0  0  0  0  0
   30.8717   15.9088   21.7210 C   0  0  0  0  0  0  0  0  0  0  0  0
   32.0401   16.6742   21.1036 C   0  0  0  0  0  0  0  0  0  0  0  0
   33.1722   16.6745   22.0137 N   0  0  0  0  0  0  0  0  0  0  0  0
   27.5103   13.6276   19.0996 O   0  0  0  0  0  0  0  0  0  0  0  0
  2  1  1  1  0  0  0
  2  5  1  0  0  0  0
  2  3  1  0  0  0  0
  3  4  1  0  0  0  0
  3 10  1  0  0  0  0
  5  6  1  0  0  0  0
  6  7  1  0  0  0  0
  7  8  1  0  0  0  0
  8  9  1  0  0  0  0
M  END
>  <CHROM.1>
-175.87894675,168.17163242,178.14068725,-179.76389050,175.25101554,29.19068790
15.46564325,20.52084436,2.73445040,-0.29786896,-1.74955312

>  <Name>
ligand

>  <RI>
0

>  <Rbt.Current_Directory>
/home/itssahil/PROJECTS/Mol_Feturizer/New_Systems/rnas/3DJ0

>  <Rbt.Executable>
rbdock ($Id: //depot/dev/client3/rdock/2013.1/src/exe/rbdock.cxx#4 $)

>  <Rbt.Library>
libRbt.so (2013.1, Build901 2013/11/27)

>  <Rbt.Parameter_File>
/export/apps/rDock/src/rDock_2013.1_src/data/scripts/dock_solv.prm

>  <Rbt.Receptor>
prm/pocket_docking_7.prm

>  <SCORE>
-6.95306

>  <SCORE.INTER>
-4.57971

>  <SCORE.INTER.CONST>
1

>  <SCORE.INTER.POLAR>
0

>  <SCORE.INTER.ROT>
5

>  <SCORE.INTER.SOLV>
21.7078

>  <SCORE.INTER.VDW>
-17.2224

>  <SCORE.INTER.norm>
-0.457971

>  <SCORE.INTRA>
-2.37335

>  <SCORE.INTRA.DIHEDRAL>
-3.54639

>  <SCORE.INTRA.DIHEDRAL.0>
6.00299

>  <SCORE.INTRA.POLAR>
0

>  <SCORE.INTRA.POLAR.0>
0

>  <SCORE.INTRA.REPUL>
0

>  <SCORE.INTRA.REPUL.0>
0

>  <SCORE.INTRA.SOLV>
-1.18243

>  <SCORE.INTRA.SOLV.lig_0>
-39.3257

>  <SCORE.INTRA.VDW>
-0.00894433

>  <SCORE.INTRA.VDW.0>
-0.734044

>  <SCORE.INTRA.norm>
-0.237335

>  <SCORE.RESTR>
0

>  <SCORE.RESTR.CAVITY>
0

>  <SCORE.RESTR.norm>
0

>  <SCORE.SYSTEM>
0

>  <SCORE.SYSTEM.CONST>
0

>  <SCORE.SYSTEM.DIHEDRAL>
0

>  <SCORE.SYSTEM.SOLV>
0

>  <SCORE.SYSTEM.norm>
0

>  <SCORE.heavy>
10

>  <SCORE.norm>
-0.695306

>  <RMSD>
5.441

$$$$
ligand
 OpenBabel11021811473D
libRbt.so/2013.1/901 2013/11/27
 10  9  0  0  0  0  0  0  0  0999 V2000
   29.0036   13.9801   21.9929 N   0  0  0  0  0  0  0  0  0  0  0  0
   28.3679   15.2734   21.8226 C   0  0  2  0  0  0  0  0  0  0  0  0
   27.2713   15.1939   20.7945 C   0  0  0  0  0  0  0  0  0  0  0  0
   27.5614   14.8562   19.6196 O   0  0  0  0  0  0  0  0  0  0  0  0
   29.4121   16.3009   21.4076 C   0  0  0  0  0  0  0  0  0  0  0  0
   30.5432   16.1793   22.2663 O   0  0  0  0  0  0  0  0  0  0  0  0
   31.5357   17.0981   21.8095 C   0  0  0  0  0  0  0  0  0  0  0  0
   32.8131   16.8621   22.6124 C   0  0  0  0  0  0  0  0  0  0  0  0
   33.8196   17.8440   22.2476 N   0  0  0  0  0  0  0  0  0  0  0  0
   26.1227   14.9877   21.2355 O   0  0  0  0  0  0  0  0  0  0  0  0
  2  1  1  6  0  0  0
  2  5  1  0  0  0  0
  2  3  1  0  0  0  0
  3  4  1  0  0  0  0
  3 10  1  0  0  0  0
  5  6  1  0  0  0  0
  6  7  1  0  0  0  0
  7  8  1  0  0  0  0
  8  9  1  0  0  0  0
M  END
>  <CHROM.1>
-47.61149587,-60.61417564,176.72561907,-173.28525223,-175.77786769,29.60565965
15.84506884,21.56230132,-3.07517950,-0.45218926,-0.86859062

>  <Name>
ligand

>  <RI>
0

>  <Rbt.Current_Directory>
/home/itssahil/PROJECTS/Mol_Feturizer/New_Systems/rnas/3DJ0

>  <Rbt.Executable>
rbdock ($Id: //depot/dev/client3/rdock/2013.1/src/exe/rbdock.cxx#4 $)

>  <Rbt.Library>
libRbt.so (2013.1, Build901 2013/11/27)

>  <Rbt.Parameter_File>
/export/apps/rDock/src/rDock_2013.1_src/data/scripts/dock_solv.prm

>  <Rbt.Receptor>
prm/pocket_docking_8.prm

>  <SCORE>
-6.63806

>  <SCORE.INTER>
-4.86787

>  <SCORE.INTER.CONST>
1

>  <SCORE.INTER.POLAR>
0

>  <SCORE.INTER.ROT>
5

>  <SCORE.INTER.SOLV>
20.7362

>  <SCORE.INTER.VDW>
-17.0907

>  <SCORE.INTER.norm>
-0.486787

>  <SCORE.INTRA>
-1.77019

>  <SCORE.INTRA.DIHEDRAL>
-3.01989

>  <SCORE.INTRA.DIHEDRAL.0>
6.00299

>  <SCORE.INTRA.POLAR>
0

>  <SCORE.INTRA.POLAR.0>
0

>  <SCORE.INTRA.REPUL>
0

>  <SCORE.INTRA.REPUL.0>
0

>  <SCORE.INTRA.SOLV>
-0.493359

>  <SCORE.INTRA.SOLV.lig_0>
-39.3257

>  <SCORE.INTRA.VDW>
-0.013561

>  <SCORE.INTRA.VDW.0>
-0.734044

>  <SCORE.INTRA.norm>
-0.177019

>  <SCORE.RESTR>
0

>  <SCORE.RESTR.CAVITY>
0

>  <SCORE.RESTR.norm>
0

>  <SCORE.SYSTEM>
0

>  <SCORE.SYSTEM.CONST>
0

>  <SCORE.SYSTEM.DIHEDRAL>
0

>  <SCORE.SYSTEM.SOLV>
0

>  <SCORE.SYSTEM.norm>
0

>  <SCORE.heavy>
10

>  <SCORE.norm>
-0.663806

>  <RMSD>
5.441

$$$$
ligand
 OpenBabel11021811473D
libRbt.so/2013.1/901 2013/11/27
 10  9  0  0  0  0  0  0  0  0999 V2000
   29.0132   14.3614   19.9731 N   0  0  0  0  0  0  0  0  0  0  0  0
   28.5548   14.8697   21.2525 C   0  0  2  0  0  0  0  0  0  0  0  0
   27.0705   15.1186   21.2231 C   0  0  0  0  0  0  0  0  0  0  0  0
   26.5317   15.4604   20.1409 O   0  0  0  0  0  0  0  0  0  0  0  0
   29.3024   16.1538   21.5853 C   0  0  0  0  0  0  0  0  0  0  0  0
   30.6941   15.8624   21.6858 O   0  0  0  0  0  0  0  0  0  0  0  0
   31.3676   17.0739   22.0270 C   0  0  0  0  0  0  0  0  0  0  0  0
   32.8615   16.7772   22.1373 C   0  0  0  0  0  0  0  0  0  0  0  0
   33.5850   17.9860   22.4912 N   0  0  0  0  0  0  0  0  0  0  0  0
   26.3998   14.5258   22.0921 O   0  0  0  0  0  0  0  0  0  0  0  0
  2  1  1  6  0  0  0
  2  5  1  0  0  0  0
  2  3  1  0  0  0  0
  3  4  1  0  0  0  0
  3 10  1  0  0  0  0
  5  6  1  0  0  0  0
  6  7  1  0  0  0  0
  7  8  1  0  0  0  0
  8  9  1  0  0  0  0
M  END
>  <CHROM.1>
-61.54592140,-31.30551097,-178.73332275,-179.95710555,-179.69573780,29.49343329
15.80835140,21.45767034,-2.76917542,0.22272120,0.98840784

>  <Name>
ligand

>  <RI>
0

>  <Rbt.Current_Directory>
/home/itssahil/PROJECTS/Mol_Feturizer/New_Systems/rnas/3DJ0

>  <Rbt.Executable>
rbdock ($Id: //depot/dev/client3/rdock/2013.1/src/exe/rbdock.cxx#4 $)

>  <Rbt.Library>
libRbt.so (2013.1, Build901 2013/11/27)

>  <Rbt.Parameter_File>
/export/apps/rDock/src/rDock_2013.1_src/data/scripts/dock_solv.prm

>  <Rbt.Receptor>
prm/pocket_docking_4.prm

>  <SCORE>
-7.85627

>  <SCORE.INTER>
-5.4153

>  <SCORE.INTER.CONST>
1

>  <SCORE.INTER.POLAR>
0

>  <SCORE.INTER.ROT>
5

>  <SCORE.INTER.SOLV>
18.993

>  <SCORE.INTER.VDW>
-16.8745

>  <SCORE.INTER.norm>
-0.54153

>  <SCORE.INTRA>
-2.44097

>  <SCORE.INTRA.DIHEDRAL>
-3.8369

>  <SCORE.INTRA.DIHEDRAL.0>
6.00299

>  <SCORE.INTRA.POLAR>
0

>  <SCORE.INTRA.POLAR.0>
0

>  <SCORE.INTRA.REPUL>
0

>  <SCORE.INTRA.REPUL.0>
0

>  <SCORE.INTRA.SOLV>
-0.702324

>  <SCORE.INTRA.SOLV.lig_0>
-39.3257

>  <SCORE.INTRA.VDW>
-0.171361

>  <SCORE.INTRA.VDW.0>
-0.734044

>  <SCORE.INTRA.norm>
-0.244097

>  <SCORE.RESTR>
0

>  <SCORE.RESTR.CAVITY>
0

>  <SCORE.RESTR.norm>
0

>  <SCORE.SYSTEM>
0

>  <SCORE.SYSTEM.CONST>
0

>  <SCORE.SYSTEM.DIHEDRAL>
0

>  <SCORE.SYSTEM.SOLV>
0

>  <SCORE.SYSTEM.norm>
0

>  <SCORE.heavy>
10

>  <SCORE.norm>
-0.785627

>  <RMSD>
5.443

$$$$
ligand
 OpenBabel11021811473D
libRbt.so/2013.1/901 2013/11/27
 10  9  0  0  0  0  0  0  0  0999 V2000
   29.0494   14.4358   19.9866 N   0  0  0  0  0  0  0  0  0  0  0  0
   28.5658   14.8958   21.2750 C   0  0  2  0  0  0  0  0  0  0  0  0
   27.0788   15.1261   21.2319 C   0  0  0  0  0  0  0  0  0  0  0  0
   26.5472   15.4701   20.1467 O   0  0  0  0  0  0  0  0  0  0  0  0
   29.2912   16.1778   21.6606 C   0  0  0  0  0  0  0  0  0  0  0  0
   30.6836   15.8988   21.7838 O   0  0  0  0  0  0  0  0  0  0  0  0
   31.3383   17.1120   22.1540 C   0  0  0  0  0  0  0  0  0  0  0  0
   32.8352   16.8329   22.2698 C   0  0  0  0  0  0  0  0  0  0  0  0
   33.5384   18.0410   22.6647 N   0  0  0  0  0  0  0  0  0  0  0  0
   26.4066   14.5179   22.0888 O   0  0  0  0  0  0  0  0  0  0  0  0
  2  1  1  6  0  0  0
  2  5  1  0  0  0  0
  2  3  1  0  0  0  0
  3  4  1  0  0  0  0
  3 10  1  0  0  0  0
  5  6  1  0  0  0  0
  6  7  1  0  0  0  0
  7  8  1  0  0  0  0
  8  9  1  0  0  0  0
M  END
>  <CHROM.1>
-62.05566339,-29.87683590,-179.60999985,-179.17922433,-179.18868745,29.48897408
15.83964895,21.52239791,-2.75340435,0.23153975,1.02569466

>  <Name>
ligand

>  <RI>
0

>  <Rbt.Current_Directory>
/home/itssahil/PROJECTS/Mol_Feturizer/New_Systems/rnas/3DJ0

>  <Rbt.Executable>
rbdock ($Id: //depot/dev/client3/rdock/2013.1/src/exe/rbdock.cxx#4 $)

>  <Rbt.Library>
libRbt.so (2013.1, Build901 2013/11/27)

>  <Rbt.Parameter_File>
/export/apps/rDock/src/rDock_2013.1_src/data/scripts/dock_solv.prm

>  <Rbt.Receptor>
prm/pocket_docking_6.prm

>  <SCORE>
-7.76025

>  <SCORE.INTER>
-5.33399

>  <SCORE.INTER.CONST>
1

>  <SCORE.INTER.POLAR>
0

>  <SCORE.INTER.ROT>
5

>  <SCORE.INTER.SOLV>
18.7943

>  <SCORE.INTER.VDW>
-16.7541

>  <SCORE.INTER.norm>
-0.533399

>  <SCORE.INTRA>
-2.42626

>  <SCORE.INTRA.DIHEDRAL>
-3.80921

>  <SCORE.INTRA.DIHEDRAL.0>
6.00299

>  <SCORE.INTRA.POLAR>
0

>  <SCORE.INTRA.POLAR.0>
0

>  <SCORE.INTRA.REPUL>
0

>  <SCORE.INTRA.REPUL.0>
0

>  <SCORE.INTRA.SOLV>
-0.705934

>  <SCORE.INTRA.SOLV.lig_0>
-39.3257

>  <SCORE.INTRA.VDW>
-0.168683

>  <SCORE.INTRA.VDW.0>
-0.734044

>  <SCORE.INTRA.norm>
-0.242626

>  <SCORE.RESTR>
0

>  <SCORE.RESTR.CAVITY>
0

>  <SCORE.RESTR.norm>
0

>  <SCORE.SYSTEM>
0

>  <SCORE.SYSTEM.CONST>
0

>  <SCORE.SYSTEM.DIHEDRAL>
0

>  <SCORE.SYSTEM.SOLV>
0

>  <SCORE.SYSTEM.norm>
0

>  <SCORE.heavy>
10

>  <SCORE.norm>
-0.776025

>  <RMSD>
5.446

$$$$
ligand
 OpenBabel11021811473D
libRbt.so/2013.1/901 2013/11/27
 10  9  0  0  0  0  0  0  0  0999 V2000
   26.2997   14.8739   21.0642 N   0  0  0  0  0  0  0  0  0  0  0  0
   27.5412   15.4337   20.5635 C   0  0  2  0  0  0  0  0  0  0  0  0
   27.9665   14.7347   19.3000 C   0  0  0  0  0  0  0  0  0  0  0  0
   27.4083   13.6543   18.9844 O   0  0  0  0  0  0  0  0  0  0  0  0
   28.6207   15.3076   21.6299 C   0  0  0  0  0  0  0  0  0  0  0  0
   29.8009   15.9602   21.1684 O   0  0  0  0  0  0  0  0  0  0  0  0
   30.7749   15.8826   22.2092 C   0  0  0  0  0  0  0  0  0  0  0  0
   32.0407   16.5932   21.7350 C   0  0  0  0  0  0  0  0  0  0  0  0
   33.0225   16.6295   22.8050 N   0  0  0  0  0  0  0  0  0  0  0  0
   28.4634   15.4600   18.4151 O   0  0  0  0  0  0  0  0  0  0  0  0
  2  1  1  1  0  0  0
  2  5  1  0  0  0  0
  2  3  1  0  0  0  0
  3  4  1  0  0  0  0
  3 10  1  0  0  0  0
  5  6  1  0  0  0  0
  6  7  1  0  0  0  0
  7  8  1  0  0  0  0
  8  9  1  0  0  0  0
M  END
>  <CHROM.1>
-175.19422449,-13.52412817,177.32052524,-179.32879548,175.52301112,29.18776731
15.44046636,20.74716748,2.59527647,-0.27865568,-1.73690842

>  <Name>
ligand

>  <RI>
0

>  <Rbt.Current_Directory>
/home/itssahil/PROJECTS/Mol_Feturizer/New_Systems/rnas/3DJ0

>  <Rbt.Executable>
rbdock ($Id: //depot/dev/client3/rdock/2013.1/src/exe/rbdock.cxx#4 $)

>  <Rbt.Library>
libRbt.so (2013.1, Build901 2013/11/27)

>  <Rbt.Parameter_File>
/export/apps/rDock/src/rDock_2013.1_src/data/scripts/dock_solv.prm

>  <Rbt.Receptor>
prm/pocket_docking_8.prm

>  <SCORE>
-7.23245

>  <SCORE.INTER>
-4.82276

>  <SCORE.INTER.CONST>
1

>  <SCORE.INTER.POLAR>
0

>  <SCORE.INTER.ROT>
5

>  <SCORE.INTER.SOLV>
22.4649

>  <SCORE.INTER.VDW>
-17.6368

>  <SCORE.INTER.norm>
-0.482276

>  <SCORE.INTRA>
-2.40969

>  <SCORE.INTRA.DIHEDRAL>
-3.30858

>  <SCORE.INTRA.DIHEDRAL.0>
6.00299

>  <SCORE.INTRA.POLAR>
0

>  <SCORE.INTRA.POLAR.0>
0

>  <SCORE.INTRA.REPUL>
0

>  <SCORE.INTRA.REPUL.0>
0

>  <SCORE.INTRA.SOLV>
-1.28579

>  <SCORE.INTRA.SOLV.lig_0>
-39.3257

>  <SCORE.INTRA.VDW>
-0.112502

>  <SCORE.INTRA.VDW.0>
-0.734044

>  <SCORE.INTRA.norm>
-0.240969

>  <SCORE.RESTR>
0

>  <SCORE.RESTR.CAVITY>
0

>  <SCORE.RESTR.norm>
0

>  <SCORE.SYSTEM>
0

>  <SCORE.SYSTEM.CONST>
0

>  <SCORE.SYSTEM.DIHEDRAL>
0

>  <SCORE.SYSTEM.SOLV>
0

>  <SCORE.SYSTEM.norm>
0

>  <SCORE.heavy>
10

>  <SCORE.norm>
-0.723245

>  <RMSD>
5.447

$$$$
ligand
 OpenBabel11021811473D
libRbt.so/2013.1/901 2013/11/27
 10  9  0  0  0  0  0  0  0  0999 V2000
   26.2872   14.8918   21.0384 N   0  0  0  0  0  0  0  0  0  0  0  0
   27.5264   15.4557   20.5365 C   0  0  2  0  0  0  0  0  0  0  0  0
   27.9656   14.7421   19.2860 C   0  0  0  0  0  0  0  0  0  0  0  0
   27.4181   13.6529   18.9824 O   0  0  0  0  0  0  0  0  0  0  0  0
   28.6008   15.3555   21.6108 C   0  0  0  0  0  0  0  0  0  0  0  0
   29.7852   15.9916   21.1371 O   0  0  0  0  0  0  0  0  0  0  0  0
   30.7600   15.9241   22.1777 C   0  0  0  0  0  0  0  0  0  0  0  0
   32.0307   16.6166   21.6898 C   0  0  0  0  0  0  0  0  0  0  0  0
   33.0176   16.6553   22.7549 N   0  0  0  0  0  0  0  0  0  0  0  0
   28.4626   15.4586   18.3939 O   0  0  0  0  0  0  0  0  0  0  0  0
  2  1  1  1  0  0  0
  2  5  1  0  0  0  0
  2  3  1  0  0  0  0
  3  4  1  0  0  0  0
  3 10  1  0  0  0  0
  5  6  1  0  0  0  0
  6  7  1  0  0  0  0
  7  8  1  0  0  0  0
  8  9  1  0  0  0  0
M  END
>  <CHROM.1>
-176.20650338,-13.43400456,178.05885287,-179.36185512,175.91375276,29.17954186
15.46151398,20.72072463,2.59579565,-0.27499634,-1.75226376

>  <Name>
ligand

>  <RI>
0

>  <Rbt.Current_Directory>
/home/itssahil/PROJECTS/Mol_Feturizer/New_Systems/rnas/3DJ0

>  <Rbt.Executable>
rbdock ($Id: //depot/dev/client3/rdock/2013.1/src/exe/rbdock.cxx#4 $)

>  <Rbt.Library>
libRbt.so (2013.1, Build901 2013/11/27)

>  <Rbt.Parameter_File>
/export/apps/rDock/src/rDock_2013.1_src/data/scripts/dock_solv.prm

>  <Rbt.Receptor>
prm/blind_docking_60.prm

>  <SCORE>
-7.26333

>  <SCORE.INTER>
-4.8388

>  <SCORE.INTER.CONST>
1

>  <SCORE.INTER.POLAR>
0

>  <SCORE.INTER.ROT>
5

>  <SCORE.INTER.SOLV>
22.2749

>  <SCORE.INTER.VDW>
-17.5842

>  <SCORE.INTER.norm>
-0.48388

>  <SCORE.INTRA>
-2.42453

>  <SCORE.INTRA.DIHEDRAL>
-3.36809

>  <SCORE.INTRA.DIHEDRAL.0>
6.00299

>  <SCORE.INTRA.POLAR>
0

>  <SCORE.INTRA.POLAR.0>
0

>  <SCORE.INTRA.REPUL>
0

>  <SCORE.INTRA.REPUL.0>
0

>  <SCORE.INTRA.SOLV>
-1.27945

>  <SCORE.INTRA.SOLV.lig_0>
-39.3257

>  <SCORE.INTRA.VDW>
-0.100764

>  <SCORE.INTRA.VDW.0>
-0.734044

>  <SCORE.INTRA.norm>
-0.242453

>  <SCORE.RESTR>
0

>  <SCORE.RESTR.CAVITY>
0

>  <SCORE.RESTR.norm>
0

>  <SCORE.SYSTEM>
0

>  <SCORE.SYSTEM.CONST>
0

>  <SCORE.SYSTEM.DIHEDRAL>
0

>  <SCORE.SYSTEM.SOLV>
0

>  <SCORE.SYSTEM.norm>
0

>  <SCORE.heavy>
10

>  <SCORE.norm>
-0.726333

>  <RMSD>
5.448

$$$$
ligand
 OpenBabel11021811473D
libRbt.so/2013.1/901 2013/11/27
 10  9  0  0  0  0  0  0  0  0999 V2000
   28.2671   16.8330   19.8586 N   0  0  0  0  0  0  0  0  0  0  0  0
   28.6926   15.4480   19.9357 C   0  0  2  0  0  0  0  0  0  0  0  0
   27.5044   14.5357   20.0839 C   0  0  0  0  0  0  0  0  0  0  0  0
   26.5281   14.9153   20.7775 O   0  0  0  0  0  0  0  0  0  0  0  0
   29.6453   15.2749   21.1108 C   0  0  0  0  0  0  0  0  0  0  0  0
   30.7861   16.1039   20.9036 O   0  0  0  0  0  0  0  0  0  0  0  0
   31.6010   16.0211   22.0727 C   0  0  0  0  0  0  0  0  0  0  0  0
   32.8397   16.8876   21.8559 C   0  0  0  0  0  0  0  0  0  0  0  0
   33.6138   16.9661   23.0826 N   0  0  0  0  0  0  0  0  0  0  0  0
   27.3312   13.7105   19.1646 O   0  0  0  0  0  0  0  0  0  0  0  0
  2  1  1  1  0  0  0
  2  5  1  0  0  0  0
  2  3  1  0  0  0  0
  3  4  1  0  0  0  0
  3 10  1  0  0  0  0
  5  6  1  0  0  0  0
  6  7  1  0  0  0  0
  7  8  1  0  0  0  0
  8  9  1  0  0  0  0
M  END
>  <CHROM.1>
-60.78739962,-36.54358918,174.61410054,179.09601146,172.89668111,29.64251771
15.64755905,20.87190968,2.86594760,0.44583841,3.02145213

>  <Name>
ligand

>  <RI>
0

>  <Rbt.Current_Directory>
/home/itssahil/PROJECTS/Mol_Feturizer/New_Systems/rnas/3DJ0

>  <Rbt.Executable>
rbdock ($Id: //depot/dev/client3/rdock/2013.1/src/exe/rbdock.cxx#4 $)

>  <Rbt.Library>
libRbt.so (2013.1, Build901 2013/11/27)

>  <Rbt.Parameter_File>
/export/apps/rDock/src/rDock_2013.1_src/data/scripts/dock_solv.prm

>  <Rbt.Receptor>
prm/pocket_docking_6.prm

>  <SCORE>
-5.21375

>  <SCORE.INTER>
-2.9072

>  <SCORE.INTER.CONST>
1

>  <SCORE.INTER.POLAR>
0

>  <SCORE.INTER.ROT>
5

>  <SCORE.INTER.SOLV>
22.3055

>  <SCORE.INTER.VDW>
-16.3066

>  <SCORE.INTER.norm>
-0.29072

>  <SCORE.INTRA>
-2.30655

>  <SCORE.INTRA.DIHEDRAL>
-3.58757

>  <SCORE.INTRA.DIHEDRAL.0>
6.00299

>  <SCORE.INTRA.POLAR>
0

>  <SCORE.INTRA.POLAR.0>
0

>  <SCORE.INTRA.REPUL>
0

>  <SCORE.INTRA.REPUL.0>
0

>  <SCORE.INTRA.SOLV>
-0.651849

>  <SCORE.INTRA.SOLV.lig_0>
-39.3257

>  <SCORE.INTRA.VDW>
-0.186838

>  <SCORE.INTRA.VDW.0>
-0.734044

>  <SCORE.INTRA.norm>
-0.230655

>  <SCORE.RESTR>
0

>  <SCORE.RESTR.CAVITY>
0

>  <SCORE.RESTR.norm>
0

>  <SCORE.SYSTEM>
0

>  <SCORE.SYSTEM.CONST>
0

>  <SCORE.SYSTEM.DIHEDRAL>
0

>  <SCORE.SYSTEM.SOLV>
0

>  <SCORE.SYSTEM.norm>
0

>  <SCORE.heavy>
10

>  <SCORE.norm>
-0.521375

>  <RMSD>
5.449

$$$$
ligand
 OpenBabel11021811473D
libRbt.so/2013.1/901 2013/11/27
 10  9  0  0  0  0  0  0  0  0999 V2000
   26.9305   14.6156   21.1088 N   0  0  0  0  0  0  0  0  0  0  0  0
   27.4209   15.1933   19.8714 C   0  0  2  0  0  0  0  0  0  0  0  0
   28.0609   14.1374   19.0103 C   0  0  0  0  0  0  0  0  0  0  0  0
   27.3280   13.2953   18.4339 O   0  0  0  0  0  0  0  0  0  0  0  0
   28.4199   16.2978   20.1884 C   0  0  0  0  0  0  0  0  0  0  0  0
   29.4414   15.7664   21.0284 O   0  0  0  0  0  0  0  0  0  0  0  0
   30.3366   16.8309   21.3497 C   0  0  0  0  0  0  0  0  0  0  0  0
   31.4275   16.2799   22.2655 C   0  0  0  0  0  0  0  0  0  0  0  0
   32.3826   17.3257   22.5881 N   0  0  0  0  0  0  0  0  0  0  0  0
   29.1744   14.4265   18.5281 O   0  0  0  0  0  0  0  0  0  0  0  0
  2  1  1  1  0  0  0
  2  5  1  0  0  0  0
  2  3  1  0  0  0  0
  3  4  1  0  0  0  0
  3 10  1  0  0  0  0
  5  6  1  0  0  0  0
  6  7  1  0  0  0  0
  7  8  1  0  0  0  0
  8  9  1  0  0  0  0
M  END
>  <CHROM.1>
54.66630937,72.69790811,-177.94201685,179.26360690,178.46517777,29.09277912
15.38942568,20.40533921,2.33733788,-0.18229629,-2.13234968

>  <Name>
ligand

>  <RI>
0

>  <Rbt.Current_Directory>
/home/itssahil/PROJECTS/Mol_Feturizer/New_Systems/rnas/3DJ0

>  <Rbt.Executable>
rbdock ($Id: //depot/dev/client3/rdock/2013.1/src/exe/rbdock.cxx#4 $)

>  <Rbt.Library>
libRbt.so (2013.1, Build901 2013/11/27)

>  <Rbt.Parameter_File>
/export/apps/rDock/src/rDock_2013.1_src/data/scripts/dock_solv.prm

>  <Rbt.Receptor>
prm/pocket_docking_3.prm

>  <SCORE>
-6.65124

>  <SCORE.INTER>
-5.94021

>  <SCORE.INTER.CONST>
1

>  <SCORE.INTER.POLAR>
0

>  <SCORE.INTER.ROT>
5

>  <SCORE.INTER.SOLV>
18.6695

>  <SCORE.INTER.VDW>
-17.1166

>  <SCORE.INTER.norm>
-0.594021

>  <SCORE.INTRA>
-0.711028

>  <SCORE.INTRA.DIHEDRAL>
-3.85865

>  <SCORE.INTRA.DIHEDRAL.0>
6.00299

>  <SCORE.INTRA.POLAR>
0

>  <SCORE.INTRA.POLAR.0>
0

>  <SCORE.INTRA.REPUL>
0

>  <SCORE.INTRA.REPUL.0>
0

>  <SCORE.INTRA.SOLV>
-0.347353

>  <SCORE.INTRA.SOLV.lig_0>
-39.3257

>  <SCORE.INTRA.VDW>
1.39197

>  <SCORE.INTRA.VDW.0>
-0.734044

>  <SCORE.INTRA.norm>
-0.0711028

>  <SCORE.RESTR>
0

>  <SCORE.RESTR.CAVITY>
0

>  <SCORE.RESTR.norm>
0

>  <SCORE.SYSTEM>
0

>  <SCORE.SYSTEM.CONST>
0

>  <SCORE.SYSTEM.DIHEDRAL>
0

>  <SCORE.SYSTEM.SOLV>
0

>  <SCORE.SYSTEM.norm>
0

>  <SCORE.heavy>
10

>  <SCORE.norm>
-0.665124

>  <RMSD>
5.450

$$$$
ligand
 OpenBabel11021811473D
libRbt.so/2013.1/901 2013/11/27
 10  9  0  0  0  0  0  0  0  0999 V2000
   26.2004   14.9127   21.0333 N   0  0  0  0  0  0  0  0  0  0  0  0
   27.4061   15.5420   20.5274 C   0  0  2  0  0  0  0  0  0  0  0  0
   27.9346   14.7925   19.3338 C   0  0  0  0  0  0  0  0  0  0  0  0
   27.4276   13.6814   19.0391 O   0  0  0  0  0  0  0  0  0  0  0  0
   28.4540   15.5907   21.6310 C   0  0  0  0  0  0  0  0  0  0  0  0
   29.5925   16.3026   21.1527 O   0  0  0  0  0  0  0  0  0  0  0  0
   30.5610   16.3270   22.2011 C   0  0  0  0  0  0  0  0  0  0  0  0
   31.8164   17.0216   21.6778 C   0  0  0  0  0  0  0  0  0  0  0  0
   32.8183   17.0969   22.7268 N   0  0  0  0  0  0  0  0  0  0  0  0
   28.4716   15.4862   18.4469 O   0  0  0  0  0  0  0  0  0  0  0  0
  2  1  1  1  0  0  0
  2  5  1  0  0  0  0
  2  3  1  0  0  0  0
  3  4  1  0  0  0  0
  3 10  1  0  0  0  0
  5  6  1  0  0  0  0
  6  7  1  0  0  0  0
  7  8  1  0  0  0  0
  8  9  1  0  0  0  0
M  END
>  <CHROM.1>
-175.54010169,-9.33653008,-179.65838078,177.00312005,178.61291650,29.06422453
15.66107309,20.73797554,2.56584437,-0.31710665,-1.82940455

>  <Name>
ligand

>  <RI>
0

>  <Rbt.Current_Directory>
/home/itssahil/PROJECTS/Mol_Feturizer/New_Systems/rnas/3DJ0

>  <Rbt.Executable>
rbdock ($Id: //depot/dev/client3/rdock/2013.1/src/exe/rbdock.cxx#4 $)

>  <Rbt.Library>
libRbt.so (2013.1, Build901 2013/11/27)

>  <Rbt.Parameter_File>
/export/apps/rDock/src/rDock_2013.1_src/data/scripts/dock_solv.prm

>  <Rbt.Receptor>
prm/pocket_docking_5.prm

>  <SCORE>
-7.19761

>  <SCORE.INTER>
-4.81703

>  <SCORE.INTER.CONST>
1

>  <SCORE.INTER.POLAR>
0

>  <SCORE.INTER.ROT>
5

>  <SCORE.INTER.SOLV>
21.335

>  <SCORE.INTER.VDW>
-17.2564

>  <SCORE.INTER.norm>
-0.481703

>  <SCORE.INTRA>
-2.38058

>  <SCORE.INTRA.DIHEDRAL>
-3.29904

>  <SCORE.INTRA.DIHEDRAL.0>
6.00299

>  <SCORE.INTRA.POLAR>
0

>  <SCORE.INTRA.POLAR.0>
0

>  <SCORE.INTRA.REPUL>
0

>  <SCORE.INTRA.REPUL.0>
0

>  <SCORE.INTRA.SOLV>
-1.27515

>  <SCORE.INTRA.SOLV.lig_0>
-39.3257

>  <SCORE.INTRA.VDW>
-0.0934838

>  <SCORE.INTRA.VDW.0>
-0.734044

>  <SCORE.INTRA.norm>
-0.238058

>  <SCORE.RESTR>
0

>  <SCORE.RESTR.CAVITY>
0

>  <SCORE.RESTR.norm>
0

>  <SCORE.SYSTEM>
0

>  <SCORE.SYSTEM.CONST>
0

>  <SCORE.SYSTEM.DIHEDRAL>
0

>  <SCORE.SYSTEM.SOLV>
0

>  <SCORE.SYSTEM.norm>
0

>  <SCORE.heavy>
10

>  <SCORE.norm>
-0.719761

>  <RMSD>
5.456

$$$$
ligand
 OpenBabel11021811473D
libRbt.so/2013.1/901 2013/11/27
 10  9  0  0  0  0  0  0  0  0999 V2000
   27.2580   14.6846   21.1941 N   0  0  0  0  0  0  0  0  0  0  0  0
   27.5576   15.4445   19.9948 C   0  0  2  0  0  0  0  0  0  0  0  0
   28.0338   14.5335   18.8951 C   0  0  0  0  0  0  0  0  0  0  0  0
   27.4101   13.4650   18.6767 O   0  0  0  0  0  0  0  0  0  0  0  0
   28.6145   16.4941   20.3103 C   0  0  0  0  0  0  0  0  0  0  0  0
   29.7801   15.8389   20.8038 O   0  0  0  0  0  0  0  0  0  0  0  0
   30.7388   16.8452   21.1294 C   0  0  0  0  0  0  0  0  0  0  0  0
   32.0185   16.1550   21.5964 C   0  0  0  0  0  0  0  0  0  0  0  0
   33.0218   17.1468   21.9427 N   0  0  0  0  0  0  0  0  0  0  0  0
   28.6773   15.0774   17.9752 O   0  0  0  0  0  0  0  0  0  0  0  0
  2  1  1  1  0  0  0
  2  5  1  0  0  0  0
  2  3  1  0  0  0  0
  3  4  1  0  0  0  0
  3 10  1  0  0  0  0
  5  6  1  0  0  0  0
  6  7  1  0  0  0  0
  7  8  1  0  0  0  0
  8  9  1  0  0  0  0
M  END
>  <CHROM.1>
58.57064252,45.39472865,-178.28126116,-177.30978528,-179.81945643,29.30373355
15.54469384,20.21760822,2.53905501,-0.29919259,-1.91185895

>  <Name>
ligand

>  <RI>
0

>  <Rbt.Current_Directory>
/home/itssahil/PROJECTS/Mol_Feturizer/New_Systems/rnas/3DJ0

>  <Rbt.Executable>
rbdock ($Id: //depot/dev/client3/rdock/2013.1/src/exe/rbdock.cxx#4 $)

>  <Rbt.Library>
libRbt.so (2013.1, Build901 2013/11/27)

>  <Rbt.Parameter_File>
/export/apps/rDock/src/rDock_2013.1_src/data/scripts/dock_solv.prm

>  <Rbt.Receptor>
prm/pocket_docking_4.prm

>  <SCORE>
-7.15434

>  <SCORE.INTER>
-5.73366

>  <SCORE.INTER.CONST>
1

>  <SCORE.INTER.POLAR>
0

>  <SCORE.INTER.ROT>
5

>  <SCORE.INTER.SOLV>
19.0898

>  <SCORE.INTER.VDW>
-17.1191

>  <SCORE.INTER.norm>
-0.573366

>  <SCORE.INTRA>
-1.42069

>  <SCORE.INTRA.DIHEDRAL>
-3.59947

>  <SCORE.INTRA.DIHEDRAL.0>
6.00299

>  <SCORE.INTRA.POLAR>
0

>  <SCORE.INTRA.POLAR.0>
0

>  <SCORE.INTRA.REPUL>
0

>  <SCORE.INTRA.REPUL.0>
0

>  <SCORE.INTRA.SOLV>
-0.386563

>  <SCORE.INTRA.SOLV.lig_0>
-39.3257

>  <SCORE.INTRA.VDW>
0.572332

>  <SCORE.INTRA.VDW.0>
-0.734044

>  <SCORE.INTRA.norm>
-0.142069

>  <SCORE.RESTR>
0

>  <SCORE.RESTR.CAVITY>
0

>  <SCORE.RESTR.norm>
0

>  <SCORE.SYSTEM>
0

>  <SCORE.SYSTEM.CONST>
0

>  <SCORE.SYSTEM.DIHEDRAL>
0

>  <SCORE.SYSTEM.SOLV>
0

>  <SCORE.SYSTEM.norm>
0

>  <SCORE.heavy>
10

>  <SCORE.norm>
-0.715434

>  <RMSD>
5.458

$$$$
ligand
 OpenBabel11021811473D
libRbt.so/2013.1/901 2013/11/27
 10  9  0  0  0  0  0  0  0  0999 V2000
   27.2409   14.4658   21.1568 N   0  0  0  0  0  0  0  0  0  0  0  0
   27.5019   15.2887   19.9906 C   0  0  2  0  0  0  0  0  0  0  0  0
   28.0188   14.4484   18.8536 C   0  0  0  0  0  0  0  0  0  0  0  0
   27.4422   13.3647   18.5863 O   0  0  0  0  0  0  0  0  0  0  0  0
   28.5083   16.3733   20.3502 C   0  0  0  0  0  0  0  0  0  0  0  0
   29.7071   15.7538   20.8093 O   0  0  0  0  0  0  0  0  0  0  0  0
   30.6205   16.7900   21.1696 C   0  0  0  0  0  0  0  0  0  0  0  0
   31.9314   16.1418   21.6097 C   0  0  0  0  0  0  0  0  0  0  0  0
   32.8933   17.1649   21.9811 N   0  0  0  0  0  0  0  0  0  0  0  0
   28.6396   15.0596   17.9608 O   0  0  0  0  0  0  0  0  0  0  0  0
  2  1  1  1  0  0  0
  2  5  1  0  0  0  0
  2  3  1  0  0  0  0
  3  4  1  0  0  0  0
  3 10  1  0  0  0  0
  5  6  1  0  0  0  0
  6  7  1  0  0  0  0
  7  8  1  0  0  0  0
  8  9  1  0  0  0  0
M  END
>  <CHROM.1>
58.86426068,45.72674043,-178.62863870,-177.70562970,179.78345449,29.24417079
15.46245074,20.21165477,2.52747423,-0.34346980,-1.87692198

>  <Name>
ligand

>  <RI>
0

>  <Rbt.Current_Directory>
/home/itssahil/PROJECTS/Mol_Feturizer/New_Systems/rnas/3DJ0

>  <Rbt.Executable>
rbdock ($Id: //depot/dev/client3/rdock/2013.1/src/exe/rbdock.cxx#4 $)

>  <Rbt.Library>
libRbt.so (2013.1, Build901 2013/11/27)

>  <Rbt.Parameter_File>
/export/apps/rDock/src/rDock_2013.1_src/data/scripts/dock_solv.prm

>  <Rbt.Receptor>
prm/pocket_docking_5.prm

>  <SCORE>
-7.30048

>  <SCORE.INTER>
-5.87748

>  <SCORE.INTER.CONST>
1

>  <SCORE.INTER.POLAR>
0

>  <SCORE.INTER.ROT>
5

>  <SCORE.INTER.SOLV>
19.0082

>  <SCORE.INTER.VDW>
-17.1877

>  <SCORE.INTER.norm>
-0.587748

>  <SCORE.INTRA>
-1.42301

>  <SCORE.INTRA.DIHEDRAL>
-3.62374

>  <SCORE.INTRA.DIHEDRAL.0>
6.00299

>  <SCORE.INTRA.POLAR>
0

>  <SCORE.INTRA.POLAR.0>
0

>  <SCORE.INTRA.REPUL>
0

>  <SCORE.INTRA.REPUL.0>
0

>  <SCORE.INTRA.SOLV>
-0.388266

>  <SCORE.INTRA.SOLV.lig_0>
-39.3257

>  <SCORE.INTRA.VDW>
0.582992

>  <SCORE.INTRA.VDW.0>
-0.734044

>  <SCORE.INTRA.norm>
-0.142301

>  <SCORE.RESTR>
0

>  <SCORE.RESTR.CAVITY>
0

>  <SCORE.RESTR.norm>
0

>  <SCORE.SYSTEM>
0

>  <SCORE.SYSTEM.CONST>
0

>  <SCORE.SYSTEM.DIHEDRAL>
0

>  <SCORE.SYSTEM.SOLV>
0

>  <SCORE.SYSTEM.norm>
0

>  <SCORE.heavy>
10

>  <SCORE.norm>
-0.730048

>  <RMSD>
5.477

$$$$
ligand
 OpenBabel11021811473D
libRbt.so/2013.1/901 2013/11/27
 10  9  0  0  0  0  0  0  0  0999 V2000
   26.3314   14.9615   20.9922 N   0  0  0  0  0  0  0  0  0  0  0  0
   27.4996   15.4814   20.3063 C   0  0  2  0  0  0  0  0  0  0  0  0
   27.7299   14.7412   19.0159 C   0  0  0  0  0  0  0  0  0  0  0  0
   28.6239   15.1474   18.2322 O   0  0  0  0  0  0  0  0  0  0  0  0
   28.7164   15.3594   21.2134 C   0  0  0  0  0  0  0  0  0  0  0  0
   29.8094   16.0481   20.6112 O   0  0  0  0  0  0  0  0  0  0  0  0
   30.9458   15.8845   21.4595 C   0  0  0  0  0  0  0  0  0  0  0  0
   32.1140   16.6568   20.8502 C   0  0  0  0  0  0  0  0  0  0  0  0
   33.2623   16.6061   21.7383 N   0  0  0  0  0  0  0  0  0  0  0  0
   27.3942   13.5398   19.0077 O   0  0  0  0  0  0  0  0  0  0  0  0
  2  1  1  1  0  0  0
  2  5  1  0  0  0  0
  2  3  1  0  0  0  0
  3  4  1  0  0  0  0
  3 10  1  0  0  0  0
  5  6  1  0  0  0  0
  6  7  1  0  0  0  0
  7  8  1  0  0  0  0
  8  9  1  0  0  0  0
M  END
>  <CHROM.1>
-171.53508582,173.20338881,-178.26645625,-178.13545631,175.41182967,29.23928769
15.42537506,20.30846207,2.72431282,-0.25766460,-1.85915709

>  <Name>
ligand

>  <RI>
0

>  <Rbt.Current_Directory>
/home/itssahil/PROJECTS/Mol_Feturizer/New_Systems/rnas/3DJ0

>  <Rbt.Executable>
rbdock ($Id: //depot/dev/client3/rdock/2013.1/src/exe/rbdock.cxx#4 $)

>  <Rbt.Library>
libRbt.so (2013.1, Build901 2013/11/27)

>  <Rbt.Parameter_File>
/export/apps/rDock/src/rDock_2013.1_src/data/scripts/dock_solv.prm

>  <Rbt.Receptor>
prm/pocket_docking_6.prm

>  <SCORE>
-6.96603

>  <SCORE.INTER>
-4.66117

>  <SCORE.INTER.CONST>
1

>  <SCORE.INTER.POLAR>
0

>  <SCORE.INTER.ROT>
5

>  <SCORE.INTER.SOLV>
21.5121

>  <SCORE.INTER.VDW>
-17.2115

>  <SCORE.INTER.norm>
-0.466117

>  <SCORE.INTRA>
-2.30486

>  <SCORE.INTRA.DIHEDRAL>
-3.43591

>  <SCORE.INTRA.DIHEDRAL.0>
6.00299

>  <SCORE.INTRA.POLAR>
0

>  <SCORE.INTRA.POLAR.0>
0

>  <SCORE.INTRA.REPUL>
0

>  <SCORE.INTRA.REPUL.0>
0

>  <SCORE.INTRA.SOLV>
-1.18007

>  <SCORE.INTRA.SOLV.lig_0>
-39.3257

>  <SCORE.INTRA.VDW>
0.00312854

>  <SCORE.INTRA.VDW.0>
-0.734044

>  <SCORE.INTRA.norm>
-0.230486

>  <SCORE.RESTR>
0

>  <SCORE.RESTR.CAVITY>
0

>  <SCORE.RESTR.norm>
0

>  <SCORE.SYSTEM>
0

>  <SCORE.SYSTEM.CONST>
0

>  <SCORE.SYSTEM.DIHEDRAL>
0

>  <SCORE.SYSTEM.SOLV>
0

>  <SCORE.SYSTEM.norm>
0

>  <SCORE.heavy>
10

>  <SCORE.norm>
-0.696603

>  <RMSD>
5.477

$$$$
ligand
 OpenBabel11021811473D
libRbt.so/2013.1/901 2013/11/27
 10  9  0  0  0  0  0  0  0  0999 V2000
   28.5291   14.4140   22.4161 N   0  0  0  0  0  0  0  0  0  0  0  0
   28.1873   15.5683   21.6060 C   0  0  2  0  0  0  0  0  0  0  0  0
   27.1491   15.2061   20.5780 C   0  0  0  0  0  0  0  0  0  0  0  0
   27.5118   14.6243   19.5252 O   0  0  0  0  0  0  0  0  0  0  0  0
   29.4423   16.1020   20.9287 C   0  0  0  0  0  0  0  0  0  0  0  0
   30.4412   16.3237   21.9211 O   0  0  0  0  0  0  0  0  0  0  0  0
   31.6302   16.7457   21.2533 C   0  0  0  0  0  0  0  0  0  0  0  0
   32.7175   16.9646   22.3031 C   0  0  0  0  0  0  0  0  0  0  0  0
   33.9460   17.4036   21.6641 N   0  0  0  0  0  0  0  0  0  0  0  0
   25.9874   15.0518   21.0055 O   0  0  0  0  0  0  0  0  0  0  0  0
  2  1  1  6  0  0  0
  2  5  1  0  0  0  0
  2  3  1  0  0  0  0
  3  4  1  0  0  0  0
  3 10  1  0  0  0  0
  5  6  1  0  0  0  0
  6  7  1  0  0  0  0
  7  8  1  0  0  0  0
  8  9  1  0  0  0  0
M  END
>  <CHROM.1>
-52.98213344,-80.20591970,176.56689682,-179.06119907,-179.67430636,29.51544632
15.82590906,21.30244356,3.02054149,-0.36939488,-1.42477815

>  <Name>
ligand

>  <RI>
0

>  <Rbt.Current_Directory>
/home/itssahil/PROJECTS/Mol_Feturizer/New_Systems/rnas/3DJ0

>  <Rbt.Executable>
rbdock ($Id: //depot/dev/client3/rdock/2013.1/src/exe/rbdock.cxx#4 $)

>  <Rbt.Library>
libRbt.so (2013.1, Build901 2013/11/27)

>  <Rbt.Parameter_File>
/export/apps/rDock/src/rDock_2013.1_src/data/scripts/dock_solv.prm

>  <Rbt.Receptor>
prm/pocket_docking_2.prm

>  <SCORE>
-6.42328

>  <SCORE.INTER>
-4.79413

>  <SCORE.INTER.CONST>
1

>  <SCORE.INTER.POLAR>
0

>  <SCORE.INTER.ROT>
5

>  <SCORE.INTER.SOLV>
20.9038

>  <SCORE.INTER.VDW>
-17.0974

>  <SCORE.INTER.norm>
-0.479413

>  <SCORE.INTRA>
-1.62915

>  <SCORE.INTRA.DIHEDRAL>
-3.29749

>  <SCORE.INTRA.DIHEDRAL.0>
6.00299

>  <SCORE.INTRA.POLAR>
0

>  <SCORE.INTRA.POLAR.0>
0

>  <SCORE.INTRA.REPUL>
0

>  <SCORE.INTRA.REPUL.0>
0

>  <SCORE.INTRA.SOLV>
-0.517657

>  <SCORE.INTRA.SOLV.lig_0>
-39.3257

>  <SCORE.INTRA.VDW>
0.278421

>  <SCORE.INTRA.VDW.0>
-0.734044

>  <SCORE.INTRA.norm>
-0.162915

>  <SCORE.RESTR>
0

>  <SCORE.RESTR.CAVITY>
0

>  <SCORE.RESTR.norm>
0

>  <SCORE.SYSTEM>
0

>  <SCORE.SYSTEM.CONST>
0

>  <SCORE.SYSTEM.DIHEDRAL>
0

>  <SCORE.SYSTEM.SOLV>
0

>  <SCORE.SYSTEM.norm>
0

>  <SCORE.heavy>
10

>  <SCORE.norm>
-0.642328

>  <RMSD>
5.483

$$$$
ligand
 OpenBabel11021811473D
libRbt.so/2013.1/901 2013/11/27
 10  9  0  0  0  0  0  0  0  0999 V2000
   28.4383   14.3858   22.2371 N   0  0  0  0  0  0  0  0  0  0  0  0
   28.2553   15.4958   21.3206 C   0  0  2  0  0  0  0  0  0  0  0  0
   27.2796   15.1309   20.2339 C   0  0  0  0  0  0  0  0  0  0  0  0
   27.5723   14.2026   19.4395 O   0  0  0  0  0  0  0  0  0  0  0  0
   29.5993   15.8841   20.7197 C   0  0  0  0  0  0  0  0  0  0  0  0
   30.4870   16.2464   21.7745 O   0  0  0  0  0  0  0  0  0  0  0  0
   31.7556   16.5433   21.1913 C   0  0  0  0  0  0  0  0  0  0  0  0
   32.7079   16.9694   22.3066 C   0  0  0  0  0  0  0  0  0  0  0  0
   34.0124   17.2888   21.7533 N   0  0  0  0  0  0  0  0  0  0  0  0
   26.0832   15.4022   20.4601 O   0  0  0  0  0  0  0  0  0  0  0  0
  2  1  1  1  0  0  0
  2  5  1  0  0  0  0
  2  3  1  0  0  0  0
  3  4  1  0  0  0  0
  3 10  1  0  0  0  0
  5  6  1  0  0  0  0
  6  7  1  0  0  0  0
  7  8  1  0  0  0  0
  8  9  1  0  0  0  0
M  END
>  <CHROM.1>
-59.06041541,-63.44907855,177.25865489,178.51602678,-179.67812309,29.57999873
15.74173086,21.12449659,2.92422869,-0.34936457,-1.53392856

>  <Name>
ligand

>  <RI>
0

>  <Rbt.Current_Directory>
/home/itssahil/PROJECTS/Mol_Feturizer/New_Systems/rnas/3DJ0

>  <Rbt.Executable>
rbdock ($Id: //depot/dev/client3/rdock/2013.1/src/exe/rbdock.cxx#4 $)

>  <Rbt.Library>
libRbt.so (2013.1, Build901 2013/11/27)

>  <Rbt.Parameter_File>
/export/apps/rDock/src/rDock_2013.1_src/data/scripts/dock_solv.prm

>  <Rbt.Receptor>
prm/pocket_docking_3.prm

>  <SCORE>
-6.44757

>  <SCORE.INTER>
-4.17719

>  <SCORE.INTER.CONST>
1

>  <SCORE.INTER.POLAR>
0

>  <SCORE.INTER.ROT>
5

>  <SCORE.INTER.SOLV>
20.6252

>  <SCORE.INTER.VDW>
-16.5932

>  <SCORE.INTER.norm>
-0.417719

>  <SCORE.INTRA>
-2.27038

>  <SCORE.INTRA.DIHEDRAL>
-3.8096

>  <SCORE.INTRA.DIHEDRAL.0>
6.00299

>  <SCORE.INTRA.POLAR>
0

>  <SCORE.INTRA.POLAR.0>
0

>  <SCORE.INTRA.REPUL>
0

>  <SCORE.INTRA.REPUL.0>
0

>  <SCORE.INTRA.SOLV>
-0.619612

>  <SCORE.INTRA.SOLV.lig_0>
-39.3257

>  <SCORE.INTRA.VDW>
-0.0557761

>  <SCORE.INTRA.VDW.0>
-0.734044

>  <SCORE.INTRA.norm>
-0.227038

>  <SCORE.RESTR>
0

>  <SCORE.RESTR.CAVITY>
0

>  <SCORE.RESTR.norm>
0

>  <SCORE.SYSTEM>
0

>  <SCORE.SYSTEM.CONST>
0

>  <SCORE.SYSTEM.DIHEDRAL>
0

>  <SCORE.SYSTEM.SOLV>
0

>  <SCORE.SYSTEM.norm>
0

>  <SCORE.heavy>
10

>  <SCORE.norm>
-0.644757

>  <RMSD>
5.492

$$$$
ligand
 OpenBabel11021811473D
libRbt.so/2013.1/901 2013/11/27
 10  9  0  0  0  0  0  0  0  0999 V2000
   28.6605   16.0154   19.3479 N   0  0  0  0  0  0  0  0  0  0  0  0
   27.6542   14.9707   19.3862 C   0  0  2  0  0  0  0  0  0  0  0  0
   27.3824   14.5481   20.8052 C   0  0  0  0  0  0  0  0  0  0  0  0
   28.3533   14.3309   21.5724 O   0  0  0  0  0  0  0  0  0  0  0  0
   28.1253   13.7824   18.5588 C   0  0  0  0  0  0  0  0  0  0  0  0
   27.0718   12.8248   18.4887 O   0  0  0  0  0  0  0  0  0  0  0  0
   27.5461   11.7127   17.7296 C   0  0  0  0  0  0  0  0  0  0  0  0
   26.5522   10.5643   17.8898 C   0  0  0  0  0  0  0  0  0  0  0  0
   27.0943    9.3507   17.3039 N   0  0  0  0  0  0  0  0  0  0  0  0
   26.2819   14.8968   21.2778 O   0  0  0  0  0  0  0  0  0  0  0  0
  2  1  1  1  0  0  0
  2  5  1  0  0  0  0
  2  3  1  0  0  0  0
  3  4  1  0  0  0  0
  3 10  1  0  0  0  0
  5  6  1  0  0  0  0
  6  7  1  0  0  0  0
  7  8  1  0  0  0  0
  8  9  1  0  0  0  0
M  END
>  <CHROM.1>
-173.93312704,-46.26579666,-178.98117544,168.25926362,-171.32466002,27.46172740
13.30889459,19.27396470,-1.34079305,-1.00632201,-2.36992564

>  <Name>
ligand

>  <RI>
0

>  <Rbt.Current_Directory>
/home/itssahil/PROJECTS/Mol_Feturizer/New_Systems/rnas/3DJ0

>  <Rbt.Executable>
rbdock ($Id: //depot/dev/client3/rdock/2013.1/src/exe/rbdock.cxx#4 $)

>  <Rbt.Library>
libRbt.so (2013.1, Build901 2013/11/27)

>  <Rbt.Parameter_File>
/export/apps/rDock/src/rDock_2013.1_src/data/scripts/dock_solv.prm

>  <Rbt.Receptor>
prm/blind_docking_40.prm

>  <SCORE>
-7.93577

>  <SCORE.INTER>
-5.63144

>  <SCORE.INTER.CONST>
1

>  <SCORE.INTER.POLAR>
0

>  <SCORE.INTER.ROT>
5

>  <SCORE.INTER.SOLV>
20.5148

>  <SCORE.INTER.VDW>
-17.5259

>  <SCORE.INTER.norm>
-0.563144

>  <SCORE.INTRA>
-2.30433

>  <SCORE.INTRA.DIHEDRAL>
-2.90891

>  <SCORE.INTRA.DIHEDRAL.0>
6.00299

>  <SCORE.INTRA.POLAR>
0

>  <SCORE.INTRA.POLAR.0>
0

>  <SCORE.INTRA.REPUL>
0

>  <SCORE.INTRA.REPUL.0>
0

>  <SCORE.INTRA.SOLV>
-1.28735

>  <SCORE.INTRA.SOLV.lig_0>
-39.3257

>  <SCORE.INTRA.VDW>
-0.206196

>  <SCORE.INTRA.VDW.0>
-0.734044

>  <SCORE.INTRA.norm>
-0.230433

>  <SCORE.RESTR>
0

>  <SCORE.RESTR.CAVITY>
0

>  <SCORE.RESTR.norm>
0

>  <SCORE.SYSTEM>
0

>  <SCORE.SYSTEM.CONST>
0

>  <SCORE.SYSTEM.DIHEDRAL>
0

>  <SCORE.SYSTEM.SOLV>
0

>  <SCORE.SYSTEM.norm>
0

>  <SCORE.heavy>
10

>  <SCORE.norm>
-0.793577

>  <RMSD>
5.629

$$$$
ligand
 OpenBabel11021811473D
libRbt.so/2013.1/901 2013/11/27
 10  9  0  0  0  0  0  0  0  0999 V2000
   28.6976   15.9975   19.3927 N   0  0  0  0  0  0  0  0  0  0  0  0
   27.6632   14.9800   19.3892 C   0  0  2  0  0  0  0  0  0  0  0  0
   27.3213   14.5667   20.7958 C   0  0  0  0  0  0  0  0  0  0  0  0
   28.2532   14.3269   21.6035 O   0  0  0  0  0  0  0  0  0  0  0  0
   28.1363   13.7786   18.5824 C   0  0  0  0  0  0  0  0  0  0  0  0
   27.0669   12.8413   18.4836 O   0  0  0  0  0  0  0  0  0  0  0  0
   27.5419   11.7174   17.7427 C   0  0  0  0  0  0  0  0  0  0  0  0
   26.5167   10.5925   17.8684 C   0  0  0  0  0  0  0  0  0  0  0  0
   27.0511    9.3657   17.3033 N   0  0  0  0  0  0  0  0  0  0  0  0
   26.2106   14.9431   21.2212 O   0  0  0  0  0  0  0  0  0  0  0  0
  2  1  1  1  0  0  0
  2  5  1  0  0  0  0
  2  3  1  0  0  0  0
  3  4  1  0  0  0  0
  3 10  1  0  0  0  0
  5  6  1  0  0  0  0
  6  7  1  0  0  0  0
  7  8  1  0  0  0  0
  8  9  1  0  0  0  0
M  END
>  <CHROM.1>
-174.69339404,-46.13803467,-179.08654827,168.65400694,-171.31413401,27.43408296
13.32051535,19.27576943,-1.36033688,-0.95870411,-2.39066708

>  <Name>
ligand

>  <RI>
0

>  <Rbt.Current_Directory>
/home/itssahil/PROJECTS/Mol_Feturizer/New_Systems/rnas/3DJ0

>  <Rbt.Executable>
rbdock ($Id: //depot/dev/client3/rdock/2013.1/src/exe/rbdock.cxx#4 $)

>  <Rbt.Library>
libRbt.so (2013.1, Build901 2013/11/27)

>  <Rbt.Parameter_File>
/export/apps/rDock/src/rDock_2013.1_src/data/scripts/dock_solv.prm

>  <Rbt.Receptor>
prm/pocket_docking_6.prm

>  <SCORE>
-7.83283

>  <SCORE.INTER>
-5.50097

>  <SCORE.INTER.CONST>
1

>  <SCORE.INTER.POLAR>
0

>  <SCORE.INTER.ROT>
5

>  <SCORE.INTER.SOLV>
20.323

>  <SCORE.INTER.VDW>
-17.375

>  <SCORE.INTER.norm>
-0.550097

>  <SCORE.INTRA>
-2.33187

>  <SCORE.INTRA.DIHEDRAL>
-2.98252

>  <SCORE.INTRA.DIHEDRAL.0>
6.00299

>  <SCORE.INTRA.POLAR>
0

>  <SCORE.INTRA.POLAR.0>
0

>  <SCORE.INTRA.REPUL>
0

>  <SCORE.INTRA.REPUL.0>
0

>  <SCORE.INTRA.SOLV>
-1.28386

>  <SCORE.INTRA.SOLV.lig_0>
-39.3257

>  <SCORE.INTRA.VDW>
-0.198674

>  <SCORE.INTRA.VDW.0>
-0.734044

>  <SCORE.INTRA.norm>
-0.233187

>  <SCORE.RESTR>
0

>  <SCORE.RESTR.CAVITY>
0

>  <SCORE.RESTR.norm>
0

>  <SCORE.SYSTEM>
0

>  <SCORE.SYSTEM.CONST>
0

>  <SCORE.SYSTEM.DIHEDRAL>
0

>  <SCORE.SYSTEM.SOLV>
0

>  <SCORE.SYSTEM.norm>
0

>  <SCORE.heavy>
10

>  <SCORE.norm>
-0.783283

>  <RMSD>
5.644

$$$$
ligand
 OpenBabel11021811473D
libRbt.so/2013.1/901 2013/11/27
 10  9  0  0  0  0  0  0  0  0999 V2000
   28.7079   15.9888   19.4180 N   0  0  0  0  0  0  0  0  0  0  0  0
   27.6578   14.9881   19.3831 C   0  0  2  0  0  0  0  0  0  0  0  0
   27.2841   14.5628   20.7780 C   0  0  0  0  0  0  0  0  0  0  0  0
   28.1960   14.3689   21.6202 O   0  0  0  0  0  0  0  0  0  0  0  0
   28.1265   13.7893   18.5697 C   0  0  0  0  0  0  0  0  0  0  0  0
   27.0531   12.8575   18.4640 O   0  0  0  0  0  0  0  0  0  0  0  0
   27.5302   11.7266   17.7353 C   0  0  0  0  0  0  0  0  0  0  0  0
   26.5040   10.6034   17.8675 C   0  0  0  0  0  0  0  0  0  0  0  0
   27.0334    9.3753   17.3004 N   0  0  0  0  0  0  0  0  0  0  0  0
   26.1423   14.8879   21.1609 O   0  0  0  0  0  0  0  0  0  0  0  0
  2  1  1  1  0  0  0
  2  5  1  0  0  0  0
  2  3  1  0  0  0  0
  3  4  1  0  0  0  0
  3 10  1  0  0  0  0
  5  6  1  0  0  0  0
  6  7  1  0  0  0  0
  7  8  1  0  0  0  0
  8  9  1  0  0  0  0
M  END
>  <CHROM.1>
-175.91049155,-42.28677053,-178.17862169,168.08222655,-172.03762913,27.41070721
13.32430906,19.26672755,-1.36812221,-0.93229320,-2.39975125

>  <Name>
ligand

>  <RI>
0

>  <Rbt.Current_Directory>
/home/itssahil/PROJECTS/Mol_Feturizer/New_Systems/rnas/3DJ0

>  <Rbt.Executable>
rbdock ($Id: //depot/dev/client3/rdock/2013.1/src/exe/rbdock.cxx#4 $)

>  <Rbt.Library>
libRbt.so (2013.1, Build901 2013/11/27)

>  <Rbt.Parameter_File>
/export/apps/rDock/src/rDock_2013.1_src/data/scripts/dock_solv.prm

>  <Rbt.Receptor>
prm/pocket_docking_7.prm

>  <SCORE>
-7.83578

>  <SCORE.INTER>
-5.5122

>  <SCORE.INTER.CONST>
1

>  <SCORE.INTER.POLAR>
0

>  <SCORE.INTER.ROT>
5

>  <SCORE.INTER.SOLV>
20.2333

>  <SCORE.INTER.VDW>
-17.3526

>  <SCORE.INTER.norm>
-0.55122

>  <SCORE.INTRA>
-2.32357

>  <SCORE.INTRA.DIHEDRAL>
-2.97999

>  <SCORE.INTRA.DIHEDRAL.0>
6.00299

>  <SCORE.INTRA.POLAR>
0

>  <SCORE.INTRA.POLAR.0>
0

>  <SCORE.INTRA.REPUL>
0

>  <SCORE.INTRA.REPUL.0>
0

>  <SCORE.INTRA.SOLV>
-1.28179

>  <SCORE.INTRA.SOLV.lig_0>
-39.3257

>  <SCORE.INTRA.VDW>
-0.192684

>  <SCORE.INTRA.VDW.0>
-0.734044

>  <SCORE.INTRA.norm>
-0.232357

>  <SCORE.RESTR>
0

>  <SCORE.RESTR.CAVITY>
0

>  <SCORE.RESTR.norm>
0

>  <SCORE.SYSTEM>
0

>  <SCORE.SYSTEM.CONST>
0

>  <SCORE.SYSTEM.DIHEDRAL>
0

>  <SCORE.SYSTEM.SOLV>
0

>  <SCORE.SYSTEM.norm>
0

>  <SCORE.heavy>
10

>  <SCORE.norm>
-0.783578

>  <RMSD>
5.666

$$$$
ligand
 OpenBabel11021811473D
libRbt.so/2013.1/901 2013/11/27
 10  9  0  0  0  0  0  0  0  0999 V2000
   28.7128   15.9794   19.3660 N   0  0  0  0  0  0  0  0  0  0  0  0
   27.6627   14.9785   19.3341 C   0  0  2  0  0  0  0  0  0  0  0  0
   27.2690   14.5783   20.7308 C   0  0  0  0  0  0  0  0  0  0  0  0
   28.1705   14.3417   21.5733 O   0  0  0  0  0  0  0  0  0  0  0  0
   28.1422   13.7653   18.5489 C   0  0  0  0  0  0  0  0  0  0  0  0
   27.0735   12.8269   18.4548 O   0  0  0  0  0  0  0  0  0  0  0  0
   27.5518   11.6958   17.7272 C   0  0  0  0  0  0  0  0  0  0  0  0
   26.5276   10.5710   17.8620 C   0  0  0  0  0  0  0  0  0  0  0  0
   27.0598    9.3422   17.2992 N   0  0  0  0  0  0  0  0  0  0  0  0
   26.1455   14.9625   21.1131 O   0  0  0  0  0  0  0  0  0  0  0  0
  2  1  1  1  0  0  0
  2  5  1  0  0  0  0
  2  3  1  0  0  0  0
  3  4  1  0  0  0  0
  3 10  1  0  0  0  0
  5  6  1  0  0  0  0
  6  7  1  0  0  0  0
  7  8  1  0  0  0  0
  8  9  1  0  0  0  0
M  END
>  <CHROM.1>
-176.42100852,-45.39769621,-179.44142193,168.53887429,-171.89141820,27.41854385
13.31408486,19.23799690,-1.38391934,-0.92701624,-2.42471086

>  <Name>
ligand

>  <RI>
0

>  <Rbt.Current_Directory>
/home/itssahil/PROJECTS/Mol_Feturizer/New_Systems/rnas/3DJ0

>  <Rbt.Executable>
rbdock ($Id: //depot/dev/client3/rdock/2013.1/src/exe/rbdock.cxx#4 $)

>  <Rbt.Library>
libRbt.so (2013.1, Build901 2013/11/27)

>  <Rbt.Parameter_File>
/export/apps/rDock/src/rDock_2013.1_src/data/scripts/dock_solv.prm

>  <Rbt.Receptor>
prm/pocket_docking_7.prm

>  <SCORE>
-7.85159

>  <SCORE.INTER>
-5.50107

>  <SCORE.INTER.CONST>
1

>  <SCORE.INTER.POLAR>
0

>  <SCORE.INTER.ROT>
5

>  <SCORE.INTER.SOLV>
20.2721

>  <SCORE.INTER.VDW>
-17.3581

>  <SCORE.INTER.norm>
-0.550107

>  <SCORE.INTRA>
-2.35052

>  <SCORE.INTRA.DIHEDRAL>
-3.06282

>  <SCORE.INTRA.DIHEDRAL.0>
6.00299

>  <SCORE.INTRA.POLAR>
0

>  <SCORE.INTRA.POLAR.0>
0

>  <SCORE.INTRA.REPUL>
0

>  <SCORE.INTRA.REPUL.0>
0

>  <SCORE.INTRA.SOLV>
-1.27677

>  <SCORE.INTRA.SOLV.lig_0>
-39.3257

>  <SCORE.INTRA.VDW>
-0.180728

>  <SCORE.INTRA.VDW.0>
-0.734044

>  <SCORE.INTRA.norm>
-0.235052

>  <SCORE.RESTR>
0

>  <SCORE.RESTR.CAVITY>
0

>  <SCORE.RESTR.norm>
0

>  <SCORE.SYSTEM>
0

>  <SCORE.SYSTEM.CONST>
0

>  <SCORE.SYSTEM.DIHEDRAL>
0

>  <SCORE.SYSTEM.SOLV>
0

>  <SCORE.SYSTEM.norm>
0

>  <SCORE.heavy>
10

>  <SCORE.norm>
-0.785159

>  <RMSD>
5.681

$$$$
ligand
 OpenBabel11021811473D
libRbt.so/2013.1/901 2013/11/27
 10  9  0  0  0  0  0  0  0  0999 V2000
   27.6097    8.3044   29.0762 N   0  0  0  0  0  0  0  0  0  0  0  0
   28.7722    9.1103   28.7529 C   0  0  2  0  0  0  0  0  0  0  0  0
   28.4006   10.5665   28.6664 C   0  0  0  0  0  0  0  0  0  0  0  0
   27.2802   10.8818   28.1934 O   0  0  0  0  0  0  0  0  0  0  0  0
   29.3683    8.6348   27.4349 C   0  0  0  0  0  0  0  0  0  0  0  0
   28.3886    8.7774   26.4095 O   0  0  0  0  0  0  0  0  0  0  0  0
   28.9714    8.3270   25.1867 C   0  0  0  0  0  0  0  0  0  0  0  0
   27.8990    8.3694   24.1003 C   0  0  0  0  0  0  0  0  0  0  0  0
   26.8074    7.4742   24.4423 N   0  0  0  0  0  0  0  0  0  0  0  0
   28.9692   11.3246   29.4777 O   0  0  0  0  0  0  0  0  0  0  0  0
  2  1  1  6  0  0  0
  2  5  1  0  0  0  0
  2  3  1  0  0  0  0
  3  4  1  0  0  0  0
  3 10  1  0  0  0  0
  5  6  1  0  0  0  0
  6  7  1  0  0  0  0
  7  8  1  0  0  0  0
  8  9  1  0  0  0  0
M  END
>  <CHROM.1>
60.30077848,-36.05465236,179.94903301,175.57204679,-61.77824772,28.24079864
9.21540312,27.18767704,-1.21371889,1.23118490,-2.41503168

>  <Name>
ligand

>  <RI>
0

>  <Rbt.Current_Directory>
/home/itssahil/PROJECTS/Mol_Feturizer/New_Systems/rnas/3DJ0

>  <Rbt.Executable>
rbdock ($Id: //depot/dev/client3/rdock/2013.1/src/exe/rbdock.cxx#4 $)

>  <Rbt.Library>
libRbt.so (2013.1, Build901 2013/11/27)

>  <Rbt.Parameter_File>
/export/apps/rDock/src/rDock_2013.1_src/data/scripts/dock_solv.prm

>  <Rbt.Receptor>
prm/blind_docking_60.prm

>  <SCORE>
-5.04909

>  <SCORE.INTER>
-3.25923

>  <SCORE.INTER.CONST>
1

>  <SCORE.INTER.POLAR>
0

>  <SCORE.INTER.ROT>
5

>  <SCORE.INTER.SOLV>
8.02861

>  <SCORE.INTER.VDW>
-11.7824

>  <SCORE.INTER.norm>
-0.325923

>  <SCORE.INTRA>
-1.78986

>  <SCORE.INTRA.DIHEDRAL>
-3.80971

>  <SCORE.INTRA.DIHEDRAL.0>
6.00299

>  <SCORE.INTRA.POLAR>
0

>  <SCORE.INTRA.POLAR.0>
0

>  <SCORE.INTRA.REPUL>
0

>  <SCORE.INTRA.REPUL.0>
0

>  <SCORE.INTRA.SOLV>
0.861328

>  <SCORE.INTRA.SOLV.lig_0>
-39.3257

>  <SCORE.INTRA.VDW>
-0.315666

>  <SCORE.INTRA.VDW.0>
-0.734044

>  <SCORE.INTRA.norm>
-0.178986

>  <SCORE.RESTR>
0

>  <SCORE.RESTR.CAVITY>
0

>  <SCORE.RESTR.norm>
0

>  <SCORE.SYSTEM>
0

>  <SCORE.SYSTEM.CONST>
0

>  <SCORE.SYSTEM.DIHEDRAL>
0

>  <SCORE.SYSTEM.SOLV>
0

>  <SCORE.SYSTEM.norm>
0

>  <SCORE.heavy>
10

>  <SCORE.norm>
-0.504909

>  <RMSD>
9.798

$$$$
ligand
 OpenBabel11021811473D
libRbt.so/2013.1/901 2013/11/27
 10  9  0  0  0  0  0  0  0  0999 V2000
   29.8161    8.6913   28.2628 N   0  0  0  0  0  0  0  0  0  0  0  0
   29.1152    9.7393   27.5447 C   0  0  2  0  0  0  0  0  0  0  0  0
   29.2998   11.0667   28.2303 C   0  0  0  0  0  0  0  0  0  0  0  0
   29.0543   11.1566   29.4591 O   0  0  0  0  0  0  0  0  0  0  0  0
   27.6361    9.3895   27.4533 C   0  0  0  0  0  0  0  0  0  0  0  0
   27.5050    8.0961   26.8690 O   0  0  0  0  0  0  0  0  0  0  0  0
   26.1206    7.7485   26.8904 C   0  0  0  0  0  0  0  0  0  0  0  0
   25.9757    6.3243   26.3584 C   0  0  0  0  0  0  0  0  0  0  0  0
   24.5831    5.9138   26.4061 N   0  0  0  0  0  0  0  0  0  0  0  0
   30.1166   11.8465   27.7003 O   0  0  0  0  0  0  0  0  0  0  0  0
  2  1  1  1  0  0  0
  2  5  1  0  0  0  0
  2  3  1  0  0  0  0
  3  4  1  0  0  0  0
  3 10  1  0  0  0  0
  5  6  1  0  0  0  0
  6  7  1  0  0  0  0
  7  8  1  0  0  0  0
  8  9  1  0  0  0  0
M  END
>  <CHROM.1>
-54.72310186,-51.58277003,175.54879688,-176.03625725,178.06446495,27.94428383
9.03429383,27.53252985,-0.87458827,0.06270714,-2.80510245

>  <Name>
ligand

>  <RI>
0

>  <Rbt.Current_Directory>
/home/itssahil/PROJECTS/Mol_Feturizer/New_Systems/rnas/3DJ0

>  <Rbt.Executable>
rbdock ($Id: //depot/dev/client3/rdock/2013.1/src/exe/rbdock.cxx#4 $)

>  <Rbt.Library>
libRbt.so (2013.1, Build901 2013/11/27)

>  <Rbt.Parameter_File>
/export/apps/rDock/src/rDock_2013.1_src/data/scripts/dock_solv.prm

>  <Rbt.Receptor>
prm/blind_docking_60.prm

>  <SCORE>
-1.93152

>  <SCORE.INTER>
0.319907

>  <SCORE.INTER.CONST>
1

>  <SCORE.INTER.POLAR>
0

>  <SCORE.INTER.ROT>
5

>  <SCORE.INTER.SOLV>
10.5117

>  <SCORE.INTER.VDW>
-10.224

>  <SCORE.INTER.norm>
0.0319907

>  <SCORE.INTRA>
-2.25143

>  <SCORE.INTRA.DIHEDRAL>
-3.68933

>  <SCORE.INTRA.DIHEDRAL.0>
6.00299

>  <SCORE.INTRA.POLAR>
0

>  <SCORE.INTRA.POLAR.0>
0

>  <SCORE.INTRA.REPUL>
0

>  <SCORE.INTRA.REPUL.0>
0

>  <SCORE.INTRA.SOLV>
-0.577484

>  <SCORE.INTRA.SOLV.lig_0>
-39.3257

>  <SCORE.INTRA.VDW>
-0.118027

>  <SCORE.INTRA.VDW.0>
-0.734044

>  <SCORE.INTRA.norm>
-0.225143

>  <SCORE.RESTR>
0

>  <SCORE.RESTR.CAVITY>
0

>  <SCORE.RESTR.norm>
0

>  <SCORE.SYSTEM>
0

>  <SCORE.SYSTEM.CONST>
0

>  <SCORE.SYSTEM.DIHEDRAL>
0

>  <SCORE.SYSTEM.SOLV>
0

>  <SCORE.SYSTEM.norm>
0

>  <SCORE.heavy>
10

>  <SCORE.norm>
-0.193152

>  <RMSD>
9.933

$$$$
ligand
 OpenBabel11021811473D
libRbt.so/2013.1/901 2013/11/27
 10  9  0  0  0  0  0  0  0  0999 V2000
   24.1085   24.3465   20.6103 N   0  0  0  0  0  0  0  0  0  0  0  0
   24.4319   23.4807   19.4918 C   0  0  2  0  0  0  0  0  0  0  0  0
   25.3965   22.4054   19.9152 C   0  0  0  0  0  0  0  0  0  0  0  0
   25.7809   21.5634   19.0657 O   0  0  0  0  0  0  0  0  0  0  0  0
   25.0249   24.3118   18.3621 C   0  0  0  0  0  0  0  0  0  0  0  0
   25.1781   23.4826   17.2130 O   0  0  0  0  0  0  0  0  0  0  0  0
   25.7853   24.2691   16.1881 C   0  0  0  0  0  0  0  0  0  0  0  0
   25.9865   23.3836   14.9602 C   0  0  0  0  0  0  0  0  0  0  0  0
   26.6893   24.1204   13.9242 N   0  0  0  0  0  0  0  0  0  0  0  0
   26.1197   22.6751   20.8952 O   0  0  0  0  0  0  0  0  0  0  0  0
  2  1  1  1  0  0  0
  2  5  1  0  0  0  0
  2  3  1  0  0  0  0
  3  4  1  0  0  0  0
  3 10  1  0  0  0  0
  5  6  1  0  0  0  0
  6  7  1  0  0  0  0
  7  8  1  0  0  0  0
  8  9  1  0  0  0  0
M  END
>  <CHROM.1>
-172.64859613,179.83091711,-177.65257841,178.66317362,-175.97768938,25.46763899
23.37596850,18.08071104,1.89648828,-0.97654870,2.00306445

>  <Name>
ligand

>  <RI>
0

>  <Rbt.Current_Directory>
/home/itssahil/PROJECTS/Mol_Feturizer/New_Systems/rnas/3DJ0

>  <Rbt.Executable>
rbdock ($Id: //depot/dev/client3/rdock/2013.1/src/exe/rbdock.cxx#4 $)

>  <Rbt.Library>
libRbt.so (2013.1, Build901 2013/11/27)

>  <Rbt.Parameter_File>
/export/apps/rDock/src/rDock_2013.1_src/data/scripts/dock_solv.prm

>  <Rbt.Receptor>
prm/blind_docking_80.prm

>  <SCORE>
-2.20297

>  <SCORE.INTER>
0.000512945

>  <SCORE.INTER.CONST>
1

>  <SCORE.INTER.POLAR>
0

>  <SCORE.INTER.ROT>
5

>  <SCORE.INTER.SOLV>
13.5514

>  <SCORE.INTER.VDW>
-11.4501

>  <SCORE.INTER.norm>
5.12945e-05

>  <SCORE.INTRA>
-2.20349

>  <SCORE.INTRA.DIHEDRAL>
-3.61343

>  <SCORE.INTRA.DIHEDRAL.0>
6.00299

>  <SCORE.INTRA.POLAR>
0

>  <SCORE.INTRA.POLAR.0>
0

>  <SCORE.INTRA.REPUL>
0

>  <SCORE.INTRA.REPUL.0>
0

>  <SCORE.INTRA.SOLV>
-1.1249

>  <SCORE.INTRA.SOLV.lig_0>
-39.3257

>  <SCORE.INTRA.VDW>
0.16568

>  <SCORE.INTRA.VDW.0>
-0.734044

>  <SCORE.INTRA.norm>
-0.220349

>  <SCORE.RESTR>
0

>  <SCORE.RESTR.CAVITY>
0

>  <SCORE.RESTR.norm>
0

>  <SCORE.SYSTEM>
0

>  <SCORE.SYSTEM.CONST>
0

>  <SCORE.SYSTEM.DIHEDRAL>
0

>  <SCORE.SYSTEM.SOLV>
0

>  <SCORE.SYSTEM.norm>
0

>  <SCORE.heavy>
10

>  <SCORE.norm>
-0.220297

>  <RMSD>
10.492

$$$$
ligand
 OpenBabel11021811473D
libRbt.so/2013.1/901 2013/11/27
 10  9  0  0  0  0  0  0  0  0999 V2000
   27.5484   27.8099   22.4422 N   0  0  0  0  0  0  0  0  0  0  0  0
   27.6636   26.6096   21.6351 C   0  0  2  0  0  0  0  0  0  0  0  0
   28.2219   26.9361   20.2758 C   0  0  0  0  0  0  0  0  0  0  0  0
   27.6599   27.8210   19.5833 O   0  0  0  0  0  0  0  0  0  0  0  0
   26.2959   25.9534   21.5041 C   0  0  0  0  0  0  0  0  0  0  0  0
   26.4597   24.6606   20.9266 O   0  0  0  0  0  0  0  0  0  0  0  0
   25.1636   24.0775   20.7929 C   0  0  0  0  0  0  0  0  0  0  0  0
   25.3312   22.6496   20.2779 C   0  0  0  0  0  0  0  0  0  0  0  0
   25.9424   22.6636   18.9602 N   0  0  0  0  0  0  0  0  0  0  0  0
   29.4343   26.6932   20.1103 O   0  0  0  0  0  0  0  0  0  0  0  0
  2  1  1  1  0  0  0
  2  5  1  0  0  0  0
  2  3  1  0  0  0  0
  3  4  1  0  0  0  0
  3 10  1  0  0  0  0
  5  6  1  0  0  0  0
  6  7  1  0  0  0  0
  7  8  1  0  0  0  0
  8  9  1  0  0  0  0
M  END
>  <CHROM.1>
-169.42476566,-53.91067921,-178.98447914,-175.60444410,-62.72436194,26.99468892
25.60399005,20.62831529,0.77460291,0.75242952,0.78902609

>  <Name>
ligand

>  <RI>
0

>  <Rbt.Current_Directory>
/home/itssahil/PROJECTS/Mol_Feturizer/New_Systems/rnas/3DJ0

>  <Rbt.Executable>
rbdock ($Id: //depot/dev/client3/rdock/2013.1/src/exe/rbdock.cxx#4 $)

>  <Rbt.Library>
libRbt.so (2013.1, Build901 2013/11/27)

>  <Rbt.Parameter_File>
/export/apps/rDock/src/rDock_2013.1_src/data/scripts/dock_solv.prm

>  <Rbt.Receptor>
prm/blind_docking_100.prm

>  <SCORE>
-3.63039

>  <SCORE.INTER>
-1.52467

>  <SCORE.INTER.CONST>
1

>  <SCORE.INTER.POLAR>
0

>  <SCORE.INTER.ROT>
5

>  <SCORE.INTER.SOLV>
10.3115

>  <SCORE.INTER.VDW>
-11.3869

>  <SCORE.INTER.norm>
-0.152467

>  <SCORE.INTRA>
-2.10572

>  <SCORE.INTRA.DIHEDRAL>
-3.44089

>  <SCORE.INTRA.DIHEDRAL.0>
6.00299

>  <SCORE.INTRA.POLAR>
0

>  <SCORE.INTRA.POLAR.0>
0

>  <SCORE.INTRA.REPUL>
0

>  <SCORE.INTRA.REPUL.0>
0

>  <SCORE.INTRA.SOLV>
-0.245063

>  <SCORE.INTRA.SOLV.lig_0>
-39.3257

>  <SCORE.INTRA.VDW>
-0.262742

>  <SCORE.INTRA.VDW.0>
-0.734044

>  <SCORE.INTRA.norm>
-0.210572

>  <SCORE.RESTR>
0

>  <SCORE.RESTR.CAVITY>
0

>  <SCORE.RESTR.norm>
0

>  <SCORE.SYSTEM>
0

>  <SCORE.SYSTEM.CONST>
0

>  <SCORE.SYSTEM.DIHEDRAL>
0

>  <SCORE.SYSTEM.SOLV>
0

>  <SCORE.SYSTEM.norm>
0

>  <SCORE.heavy>
10

>  <SCORE.norm>
-0.363039

>  <RMSD>
10.625

$$$$
ligand
 OpenBabel11021811473D
libRbt.so/2013.1/901 2013/11/27
 10  9  0  0  0  0  0  0  0  0999 V2000
   25.2510   21.8501   20.8806 N   0  0  0  0  0  0  0  0  0  0  0  0
   24.7520   22.6351   19.7668 C   0  0  2  0  0  0  0  0  0  0  0  0
   25.6240   22.4487   18.5540 C   0  0  0  0  0  0  0  0  0  0  0  0
   25.2329   22.8984   17.4480 O   0  0  0  0  0  0  0  0  0  0  0  0
   24.7013   24.1041   20.1642 C   0  0  0  0  0  0  0  0  0  0  0  0
   25.9978   24.5080   20.5974 O   0  0  0  0  0  0  0  0  0  0  0  0
   25.9328   25.8957   20.9259 C   0  0  0  0  0  0  0  0  0  0  0  0
   27.3183   26.3450   21.3848 C   0  0  0  0  0  0  0  0  0  0  0  0
   27.3048   27.7640   21.6949 N   0  0  0  0  0  0  0  0  0  0  0  0
   26.8444   22.3131   18.7741 O   0  0  0  0  0  0  0  0  0  0  0  0
  2  1  1  1  0  0  0
  2  5  1  0  0  0  0
  2  3  1  0  0  0  0
  3  4  1  0  0  0  0
  3 10  1  0  0  0  0
  5  6  1  0  0  0  0
  6  7  1  0  0  0  0
  7  8  1  0  0  0  0
  8  9  1  0  0  0  0
M  END
>  <CHROM.1>
55.92266493,169.77246918,178.31397850,-179.68933822,178.45501680,25.91101571
24.06313242,19.98640486,2.11934981,-1.02478906,-2.12615698

>  <Name>
ligand

>  <RI>
0

>  <Rbt.Current_Directory>
/home/itssahil/PROJECTS/Mol_Feturizer/New_Systems/rnas/3DJ0

>  <Rbt.Executable>
rbdock ($Id: //depot/dev/client3/rdock/2013.1/src/exe/rbdock.cxx#4 $)

>  <Rbt.Library>
libRbt.so (2013.1, Build901 2013/11/27)

>  <Rbt.Parameter_File>
/export/apps/rDock/src/rDock_2013.1_src/data/scripts/dock_solv.prm

>  <Rbt.Receptor>
prm/blind_docking_80.prm

>  <SCORE>
-3.11116

>  <SCORE.INTER>
-1.06638

>  <SCORE.INTER.CONST>
1

>  <SCORE.INTER.POLAR>
0

>  <SCORE.INTER.ROT>
5

>  <SCORE.INTER.SOLV>
14.165

>  <SCORE.INTER.VDW>
-12.3659

>  <SCORE.INTER.norm>
-0.106638

>  <SCORE.INTRA>
-2.04478

>  <SCORE.INTRA.DIHEDRAL>
-3.663

>  <SCORE.INTRA.DIHEDRAL.0>
6.00299

>  <SCORE.INTRA.POLAR>
0

>  <SCORE.INTRA.POLAR.0>
0

>  <SCORE.INTRA.REPUL>
0

>  <SCORE.INTRA.REPUL.0>
0

>  <SCORE.INTRA.SOLV>
-0.214486

>  <SCORE.INTRA.SOLV.lig_0>
-39.3257

>  <SCORE.INTRA.VDW>
-0.10604

>  <SCORE.INTRA.VDW.0>
-0.734044

>  <SCORE.INTRA.norm>
-0.204478

>  <SCORE.RESTR>
0

>  <SCORE.RESTR.CAVITY>
0

>  <SCORE.RESTR.norm>
0

>  <SCORE.SYSTEM>
0

>  <SCORE.SYSTEM.CONST>
0

>  <SCORE.SYSTEM.DIHEDRAL>
0

>  <SCORE.SYSTEM.SOLV>
0

>  <SCORE.SYSTEM.norm>
0

>  <SCORE.heavy>
10

>  <SCORE.norm>
-0.311116

>  <RMSD>
10.649

$$$$
ligand
 OpenBabel11021811473D
libRbt.so/2013.1/901 2013/11/27
 10  9  0  0  0  0  0  0  0  0999 V2000
   25.2719   21.8634   20.7495 N   0  0  0  0  0  0  0  0  0  0  0  0
   24.7632   22.7266   19.7000 C   0  0  2  0  0  0  0  0  0  0  0  0
   25.6304   22.6371   18.4728 C   0  0  0  0  0  0  0  0  0  0  0  0
   26.7609   22.0967   18.5644 O   0  0  0  0  0  0  0  0  0  0  0  0
   24.7059   24.1613   20.2067 C   0  0  0  0  0  0  0  0  0  0  0  0
   26.0182   24.5670   20.5875 O   0  0  0  0  0  0  0  0  0  0  0  0
   25.9444   25.9258   21.0185 C   0  0  0  0  0  0  0  0  0  0  0  0
   27.3535   26.3915   21.3788 C   0  0  0  0  0  0  0  0  0  0  0  0
   27.3309   27.7895   21.7727 N   0  0  0  0  0  0  0  0  0  0  0  0
   25.0314   22.6452   17.3786 O   0  0  0  0  0  0  0  0  0  0  0  0
  2  1  1  1  0  0  0
  2  5  1  0  0  0  0
  2  3  1  0  0  0  0
  3  4  1  0  0  0  0
  3 10  1  0  0  0  0
  5  6  1  0  0  0  0
  6  7  1  0  0  0  0
  7  8  1  0  0  0  0
  8  9  1  0  0  0  0
M  END
>  <CHROM.1>
59.41948349,-13.87771817,178.22122967,-177.84120497,177.73021955,25.89281039
24.05962124,19.94834114,2.04644600,-0.94514606,-2.18339879

>  <Name>
ligand

>  <RI>
0

>  <Rbt.Current_Directory>
/home/itssahil/PROJECTS/Mol_Feturizer/New_Systems/rnas/3DJ0

>  <Rbt.Executable>
rbdock ($Id: //depot/dev/client3/rdock/2013.1/src/exe/rbdock.cxx#4 $)

>  <Rbt.Library>
libRbt.so (2013.1, Build901 2013/11/27)

>  <Rbt.Parameter_File>
/export/apps/rDock/src/rDock_2013.1_src/data/scripts/dock_solv.prm

>  <Rbt.Receptor>
prm/blind_docking_80.prm

>  <SCORE>
-3.09322

>  <SCORE.INTER>
-1.04394

>  <SCORE.INTER.CONST>
1

>  <SCORE.INTER.POLAR>
0

>  <SCORE.INTER.ROT>
5

>  <SCORE.INTER.SOLV>
14.0541

>  <SCORE.INTER.VDW>
-12.314

>  <SCORE.INTER.norm>
-0.104394

>  <SCORE.INTRA>
-2.04928

>  <SCORE.INTRA.DIHEDRAL>
-3.45595

>  <SCORE.INTRA.DIHEDRAL.0>
6.00299

>  <SCORE.INTRA.POLAR>
0

>  <SCORE.INTRA.POLAR.0>
0

>  <SCORE.INTRA.REPUL>
0

>  <SCORE.INTRA.REPUL.0>
0

>  <SCORE.INTRA.SOLV>
-0.353848

>  <SCORE.INTRA.SOLV.lig_0>
-39.3257

>  <SCORE.INTRA.VDW>
-0.144383

>  <SCORE.INTRA.VDW.0>
-0.734044

>  <SCORE.INTRA.norm>
-0.204928

>  <SCORE.RESTR>
0

>  <SCORE.RESTR.CAVITY>
0

>  <SCORE.RESTR.norm>
0

>  <SCORE.SYSTEM>
0

>  <SCORE.SYSTEM.CONST>
0

>  <SCORE.SYSTEM.DIHEDRAL>
0

>  <SCORE.SYSTEM.SOLV>
0

>  <SCORE.SYSTEM.norm>
0

>  <SCORE.heavy>
10

>  <SCORE.norm>
-0.309322

>  <RMSD>
10.693

$$$$
ligand
 OpenBabel11021811473D
libRbt.so/2013.1/901 2013/11/27
 10  9  0  0  0  0  0  0  0  0999 V2000
   25.5908   22.0587   20.7860 N   0  0  0  0  0  0  0  0  0  0  0  0
   24.8994   22.9705   19.8938 C   0  0  2  0  0  0  0  0  0  0  0  0
   25.5814   23.0192   18.5527 C   0  0  0  0  0  0  0  0  0  0  0  0
   26.8298   22.8890   18.4994 O   0  0  0  0  0  0  0  0  0  0  0  0
   24.8578   24.3580   20.5195 C   0  0  0  0  0  0  0  0  0  0  0  0
   26.1915   24.8437   20.6497 O   0  0  0  0  0  0  0  0  0  0  0  0
   26.1312   26.1044   21.3166 C   0  0  0  0  0  0  0  0  0  0  0  0
   27.5366   26.7013   21.3415 C   0  0  0  0  0  0  0  0  0  0  0  0
   27.9327   27.0998   20.0019 N   0  0  0  0  0  0  0  0  0  0  0  0
   24.8802   22.7008   17.5713 O   0  0  0  0  0  0  0  0  0  0  0  0
  2  1  1  1  0  0  0
  2  5  1  0  0  0  0
  2  3  1  0  0  0  0
  3  4  1  0  0  0  0
  3 10  1  0  0  0  0
  5  6  1  0  0  0  0
  6  7  1  0  0  0  0
  7  8  1  0  0  0  0
  8  9  1  0  0  0  0
M  END
>  <CHROM.1>
63.71060875,-33.43265321,-176.28040151,-174.51712025,69.81925672,26.05104489
24.25964077,19.88144199,2.22396374,-0.90041737,-2.10894498

>  <Name>
ligand

>  <RI>
0

>  <Rbt.Current_Directory>
/home/itssahil/PROJECTS/Mol_Feturizer/New_Systems/rnas/3DJ0

>  <Rbt.Executable>
rbdock ($Id: //depot/dev/client3/rdock/2013.1/src/exe/rbdock.cxx#4 $)

>  <Rbt.Library>
libRbt.so (2013.1, Build901 2013/11/27)

>  <Rbt.Parameter_File>
/export/apps/rDock/src/rDock_2013.1_src/data/scripts/dock_solv.prm

>  <Rbt.Receptor>
prm/blind_docking_100.prm

>  <SCORE>
-1.84323

>  <SCORE.INTER>
-0.274829

>  <SCORE.INTER.CONST>
1

>  <SCORE.INTER.POLAR>
0

>  <SCORE.INTER.ROT>
5

>  <SCORE.INTER.SOLV>
14.3704

>  <SCORE.INTER.VDW>
-11.9067

>  <SCORE.INTER.norm>
-0.0274829

>  <SCORE.INTRA>
-1.5684

>  <SCORE.INTRA.DIHEDRAL>
-3.26033

>  <SCORE.INTRA.DIHEDRAL.0>
6.00299

>  <SCORE.INTRA.POLAR>
0

>  <SCORE.INTRA.POLAR.0>
0

>  <SCORE.INTRA.REPUL>
0

>  <SCORE.INTRA.REPUL.0>
0

>  <SCORE.INTRA.SOLV>
0.748201

>  <SCORE.INTRA.SOLV.lig_0>
-39.3257

>  <SCORE.INTRA.VDW>
-0.312337

>  <SCORE.INTRA.VDW.0>
-0.734044

>  <SCORE.INTRA.norm>
-0.15684

>  <SCORE.RESTR>
0

>  <SCORE.RESTR.CAVITY>
0

>  <SCORE.RESTR.norm>
0

>  <SCORE.SYSTEM>
0

>  <SCORE.SYSTEM.CONST>
0

>  <SCORE.SYSTEM.DIHEDRAL>
0

>  <SCORE.SYSTEM.SOLV>
0

>  <SCORE.SYSTEM.norm>
0

>  <SCORE.heavy>
10

>  <SCORE.norm>
-0.184323

>  <RMSD>
10.709

$$$$
ligand
 OpenBabel11021811473D
libRbt.so/2013.1/901 2013/11/27
 10  9  0  0  0  0  0  0  0  0999 V2000
   25.4553   22.2542   19.5412 N   0  0  0  0  0  0  0  0  0  0  0  0
   25.7529   23.6664   19.3906 C   0  0  2  0  0  0  0  0  0  0  0  0
   25.1814   24.4541   20.5391 C   0  0  0  0  0  0  0  0  0  0  0  0
   23.9763   24.2864   20.8525 O   0  0  0  0  0  0  0  0  0  0  0  0
   25.1855   24.1661   18.0690 C   0  0  0  0  0  0  0  0  0  0  0  0
   25.8459   23.4917   17.0009 O   0  0  0  0  0  0  0  0  0  0  0  0
   25.3349   24.0151   15.7752 C   0  0  0  0  0  0  0  0  0  0  0  0
   26.1337   23.4072   14.6243 C   0  0  0  0  0  0  0  0  0  0  0  0
   25.7418   24.0203   13.3671 N   0  0  0  0  0  0  0  0  0  0  0  0
   25.9997   24.8399   21.3979 O   0  0  0  0  0  0  0  0  0  0  0  0
  2  1  1  1  0  0  0
  2  5  1  0  0  0  0
  2  3  1  0  0  0  0
  3  4  1  0  0  0  0
  3 10  1  0  0  0  0
  5  6  1  0  0  0  0
  6  7  1  0  0  0  0
  7  8  1  0  0  0  0
  8  9  1  0  0  0  0
M  END
>  <CHROM.1>
-63.72859030,-50.27677228,-177.73653452,174.24736047,-173.94687781,25.45294460
23.87174939,18.09910092,-1.94716864,1.29864631,-1.27812726

>  <Name>
ligand

>  <RI>
0

>  <Rbt.Current_Directory>
/home/itssahil/PROJECTS/Mol_Feturizer/New_Systems/rnas/3DJ0

>  <Rbt.Executable>
rbdock ($Id: //depot/dev/client3/rdock/2013.1/src/exe/rbdock.cxx#4 $)

>  <Rbt.Library>
libRbt.so (2013.1, Build901 2013/11/27)

>  <Rbt.Parameter_File>
/export/apps/rDock/src/rDock_2013.1_src/data/scripts/dock_solv.prm

>  <Rbt.Receptor>
prm/blind_docking_100.prm

>  <SCORE>
-0.701089

>  <SCORE.INTER>
1.61863

>  <SCORE.INTER.CONST>
1

>  <SCORE.INTER.POLAR>
0

>  <SCORE.INTER.ROT>
5

>  <SCORE.INTER.SOLV>
14.9467

>  <SCORE.INTER.VDW>
-10.8365

>  <SCORE.INTER.norm>
0.161863

>  <SCORE.INTRA>
-2.31972

>  <SCORE.INTRA.DIHEDRAL>
-3.61359

>  <SCORE.INTRA.DIHEDRAL.0>
6.00299

>  <SCORE.INTRA.POLAR>
0

>  <SCORE.INTRA.POLAR.0>
0

>  <SCORE.INTRA.REPUL>
0

>  <SCORE.INTRA.REPUL.0>
0

>  <SCORE.INTRA.SOLV>
-0.706208

>  <SCORE.INTRA.SOLV.lig_0>
-39.3257

>  <SCORE.INTRA.VDW>
-0.159824

>  <SCORE.INTRA.VDW.0>
-0.734044

>  <SCORE.INTRA.norm>
-0.231972

>  <SCORE.RESTR>
0

>  <SCORE.RESTR.CAVITY>
0

>  <SCORE.RESTR.norm>
0

>  <SCORE.SYSTEM>
0

>  <SCORE.SYSTEM.CONST>
0

>  <SCORE.SYSTEM.DIHEDRAL>
0

>  <SCORE.SYSTEM.SOLV>
0

>  <SCORE.SYSTEM.norm>
0

>  <SCORE.heavy>
10

>  <SCORE.norm>
-0.0701089

>  <RMSD>
10.722

$$$$
ligand
 OpenBabel11021811473D
libRbt.so/2013.1/901 2013/11/27
 10  9  0  0  0  0  0  0  0  0999 V2000
   27.4170   26.8586   19.9263 N   0  0  0  0  0  0  0  0  0  0  0  0
   26.5270   26.7783   21.0696 C   0  0  2  0  0  0  0  0  0  0  0  0
   27.1465   27.4403   22.2713 C   0  0  0  0  0  0  0  0  0  0  0  0
   28.3862   27.3408   22.4497 O   0  0  0  0  0  0  0  0  0  0  0  0
   26.2160   25.3181   21.3685 C   0  0  0  0  0  0  0  0  0  0  0  0
   25.5306   24.7563   20.2522 O   0  0  0  0  0  0  0  0  0  0  0  0
   25.2748   23.3830   20.5462 C   0  0  0  0  0  0  0  0  0  0  0  0
   24.5832   22.7549   19.3382 C   0  0  0  0  0  0  0  0  0  0  0  0
   25.4546   22.8158   18.1776 N   0  0  0  0  0  0  0  0  0  0  0  0
   26.5275   28.4186   22.7359 O   0  0  0  0  0  0  0  0  0  0  0  0
  2  1  1  6  0  0  0
  2  5  1  0  0  0  0
  2  3  1  0  0  0  0
  3  4  1  0  0  0  0
  3 10  1  0  0  0  0
  5  6  1  0  0  0  0
  6  7  1  0  0  0  0
  7  8  1  0  0  0  0
  8  9  1  0  0  0  0
M  END
>  <CHROM.1>
-62.82116535,-36.32172505,178.86483080,-178.06312181,61.90063939,26.31975676
25.61678488,20.84307521,-1.02397141,-0.77046513,-2.16883311

>  <Name>
ligand

>  <RI>
0

>  <Rbt.Current_Directory>
/home/itssahil/PROJECTS/Mol_Feturizer/New_Systems/rnas/3DJ0

>  <Rbt.Executable>
rbdock ($Id: //depot/dev/client3/rdock/2013.1/src/exe/rbdock.cxx#4 $)

>  <Rbt.Library>
libRbt.so (2013.1, Build901 2013/11/27)

>  <Rbt.Parameter_File>
/export/apps/rDock/src/rDock_2013.1_src/data/scripts/dock_solv.prm

>  <Rbt.Receptor>
prm/blind_docking_80.prm

>  <SCORE>
-2.7963

>  <SCORE.INTER>
-0.824315

>  <SCORE.INTER.CONST>
1

>  <SCORE.INTER.POLAR>
0

>  <SCORE.INTER.ROT>
5

>  <SCORE.INTER.SOLV>
8.98779

>  <SCORE.INTER.VDW>
-10.4788

>  <SCORE.INTER.norm>
-0.0824315

>  <SCORE.INTRA>
-1.97198

>  <SCORE.INTRA.DIHEDRAL>
-3.85637

>  <SCORE.INTRA.DIHEDRAL.0>
6.00299

>  <SCORE.INTRA.POLAR>
0

>  <SCORE.INTRA.POLAR.0>
0

>  <SCORE.INTRA.REPUL>
0

>  <SCORE.INTRA.REPUL.0>
0

>  <SCORE.INTRA.SOLV>
0.407079

>  <SCORE.INTRA.SOLV.lig_0>
-39.3257

>  <SCORE.INTRA.VDW>
-0.247334

>  <SCORE.INTRA.VDW.0>
-0.734044

>  <SCORE.INTRA.norm>
-0.197198

>  <SCORE.RESTR>
0

>  <SCORE.RESTR.CAVITY>
0

>  <SCORE.RESTR.norm>
0

>  <SCORE.SYSTEM>
0

>  <SCORE.SYSTEM.CONST>
0

>  <SCORE.SYSTEM.DIHEDRAL>
0

>  <SCORE.SYSTEM.SOLV>
0

>  <SCORE.SYSTEM.norm>
0

>  <SCORE.heavy>
10

>  <SCORE.norm>
-0.27963

>  <RMSD>
10.814

$$$$
ligand
 OpenBabel11021811473D
libRbt.so/2013.1/901 2013/11/27
 10  9  0  0  0  0  0  0  0  0999 V2000
   27.7877   27.5413   22.7730 N   0  0  0  0  0  0  0  0  0  0  0  0
   27.7146   26.6016   21.6698 C   0  0  2  0  0  0  0  0  0  0  0  0
   28.1425   27.2583   20.3846 C   0  0  0  0  0  0  0  0  0  0  0  0
   27.7356   28.4192   20.1292 O   0  0  0  0  0  0  0  0  0  0  0  0
   26.2923   26.0720   21.5482 C   0  0  0  0  0  0  0  0  0  0  0  0
   26.2423   25.1301   20.4796 O   0  0  0  0  0  0  0  0  0  0  0  0
   24.9050   24.6377   20.3972 C   0  0  0  0  0  0  0  0  0  0  0  0
   24.8249   23.6618   19.2253 C   0  0  0  0  0  0  0  0  0  0  0  0
   25.7636   22.5706   19.4203 N   0  0  0  0  0  0  0  0  0  0  0  0
   29.2162   26.8536   19.8953 O   0  0  0  0  0  0  0  0  0  0  0  0
  2  1  1  1  0  0  0
  2  5  1  0  0  0  0
  2  3  1  0  0  0  0
  3  4  1  0  0  0  0
  3 10  1  0  0  0  0
  5  6  1  0  0  0  0
  6  7  1  0  0  0  0
  7  8  1  0  0  0  0
  8  9  1  0  0  0  0
M  END
>  <CHROM.1>
-178.79379263,-43.04702321,179.30801904,178.10995659,58.81755289,26.88326293
25.89812870,20.56860728,0.72554283,0.70000070,0.94430588

>  <Name>
ligand

>  <RI>
0

>  <Rbt.Current_Directory>
/home/itssahil/PROJECTS/Mol_Feturizer/New_Systems/rnas/3DJ0

>  <Rbt.Executable>
rbdock ($Id: //depot/dev/client3/rdock/2013.1/src/exe/rbdock.cxx#4 $)

>  <Rbt.Library>
libRbt.so (2013.1, Build901 2013/11/27)

>  <Rbt.Parameter_File>
/export/apps/rDock/src/rDock_2013.1_src/data/scripts/dock_solv.prm

>  <Rbt.Receptor>
prm/blind_docking_80.prm

>  <SCORE>
-2.91823

>  <SCORE.INTER>
-0.678809

>  <SCORE.INTER.CONST>
1

>  <SCORE.INTER.POLAR>
0

>  <SCORE.INTER.ROT>
5

>  <SCORE.INTER.SOLV>
10.2989

>  <SCORE.INTER.VDW>
-10.8189

>  <SCORE.INTER.norm>
-0.0678809

>  <SCORE.INTRA>
-2.23942

>  <SCORE.INTRA.DIHEDRAL>
-3.94674

>  <SCORE.INTRA.DIHEDRAL.0>
6.00299

>  <SCORE.INTRA.POLAR>
0

>  <SCORE.INTRA.POLAR.0>
0

>  <SCORE.INTRA.REPUL>
0

>  <SCORE.INTRA.REPUL.0>
0

>  <SCORE.INTRA.SOLV>
-0.14942

>  <SCORE.INTRA.SOLV.lig_0>
-39.3257

>  <SCORE.INTRA.VDW>
-0.191342

>  <SCORE.INTRA.VDW.0>
-0.734044

>  <SCORE.INTRA.norm>
-0.223942

>  <SCORE.RESTR>
0

>  <SCORE.RESTR.CAVITY>
0

>  <SCORE.RESTR.norm>
0

>  <SCORE.SYSTEM>
0

>  <SCORE.SYSTEM.CONST>
0

>  <SCORE.SYSTEM.DIHEDRAL>
0

>  <SCORE.SYSTEM.SOLV>
0

>  <SCORE.SYSTEM.norm>
0

>  <SCORE.heavy>
10

>  <SCORE.norm>
-0.291823

>  <RMSD>
10.895

$$$$
ligand
 OpenBabel11021811473D
libRbt.so/2013.1/901 2013/11/27
 10  9  0  0  0  0  0  0  0  0999 V2000
   26.8695   28.6953   22.4080 N   0  0  0  0  0  0  0  0  0  0  0  0
   27.1982   27.2857   22.3052 C   0  0  2  0  0  0  0  0  0  0  0  0
   28.5843   27.1039   21.7470 C   0  0  0  0  0  0  0  0  0  0  0  0
   28.7898   27.3554   20.5334 O   0  0  0  0  0  0  0  0  0  0  0  0
   26.1733   26.5893   21.4203 C   0  0  0  0  0  0  0  0  0  0  0  0
   26.4134   25.1847   21.4569 O   0  0  0  0  0  0  0  0  0  0  0  0
   25.4681   24.5601   20.5885 C   0  0  0  0  0  0  0  0  0  0  0  0
   25.7464   23.0586   20.5777 C   0  0  0  0  0  0  0  0  0  0  0  0
   24.8914   22.4002   19.6054 N   0  0  0  0  0  0  0  0  0  0  0  0
   29.5197   27.1917   22.5677 O   0  0  0  0  0  0  0  0  0  0  0  0
  2  1  1  6  0  0  0
  2  5  1  0  0  0  0
  2  3  1  0  0  0  0
  3  4  1  0  0  0  0
  3 10  1  0  0  0  0
  5  6  1  0  0  0  0
  6  7  1  0  0  0  0
  7  8  1  0  0  0  0
  8  9  1  0  0  0  0
M  END
>  <CHROM.1>
-173.14784049,-71.50678903,-178.21707731,177.95223796,-174.42565537,27.00514243
25.95114793,21.31937586,1.00494019,0.06037066,0.41839455

>  <Name>
ligand

>  <RI>
0

>  <Rbt.Current_Directory>
/home/itssahil/PROJECTS/Mol_Feturizer/New_Systems/rnas/3DJ0

>  <Rbt.Executable>
rbdock ($Id: //depot/dev/client3/rdock/2013.1/src/exe/rbdock.cxx#4 $)

>  <Rbt.Library>
libRbt.so (2013.1, Build901 2013/11/27)

>  <Rbt.Parameter_File>
/export/apps/rDock/src/rDock_2013.1_src/data/scripts/dock_solv.prm

>  <Rbt.Receptor>
prm/blind_docking_100.prm

>  <SCORE>
-2.83277

>  <SCORE.INTER>
-0.559259

>  <SCORE.INTER.CONST>
1

>  <SCORE.INTER.POLAR>
0

>  <SCORE.INTER.ROT>
5

>  <SCORE.INTER.SOLV>
14.7404

>  <SCORE.INTER.VDW>
-12.2196

>  <SCORE.INTER.norm>
-0.0559259

>  <SCORE.INTRA>
-2.27351

>  <SCORE.INTRA.DIHEDRAL>
-3.39367

>  <SCORE.INTRA.DIHEDRAL.0>
6.00299

>  <SCORE.INTRA.POLAR>
0

>  <SCORE.INTRA.POLAR.0>
0

>  <SCORE.INTRA.REPUL>
0

>  <SCORE.INTRA.REPUL.0>
0

>  <SCORE.INTRA.SOLV>
-1.22365

>  <SCORE.INTRA.SOLV.lig_0>
-39.3257

>  <SCORE.INTRA.VDW>
0.0351474

>  <SCORE.INTRA.VDW.0>
-0.734044

>  <SCORE.INTRA.norm>
-0.227351

>  <SCORE.RESTR>
0

>  <SCORE.RESTR.CAVITY>
0

>  <SCORE.RESTR.norm>
0

>  <SCORE.SYSTEM>
0

>  <SCORE.SYSTEM.CONST>
0

>  <SCORE.SYSTEM.DIHEDRAL>
0

>  <SCORE.SYSTEM.SOLV>
0

>  <SCORE.SYSTEM.norm>
0

>  <SCORE.heavy>
10

>  <SCORE.norm>
-0.283277

>  <RMSD>
10.901

$$$$
ligand
 OpenBabel11021811473D
libRbt.so/2013.1/901 2013/11/27
 10  9  0  0  0  0  0  0  0  0999 V2000
   26.0821   23.9354   18.5863 N   0  0  0  0  0  0  0  0  0  0  0  0
   26.1014   23.3624   19.9192 C   0  0  2  0  0  0  0  0  0  0  0  0
   25.1074   22.2371   20.0271 C   0  0  0  0  0  0  0  0  0  0  0  0
   25.0932   21.5351   21.0689 O   0  0  0  0  0  0  0  0  0  0  0  0
   25.7897   24.4467   20.9418 C   0  0  0  0  0  0  0  0  0  0  0  0
   26.8164   25.4342   20.8920 O   0  0  0  0  0  0  0  0  0  0  0  0
   26.5800   26.3599   21.9527 C   0  0  0  0  0  0  0  0  0  0  0  0
   27.6938   27.4046   21.9343 C   0  0  0  0  0  0  0  0  0  0  0  0
   27.6690   28.1374   20.6803 N   0  0  0  0  0  0  0  0  0  0  0  0
   24.0713   22.3558   19.3426 O   0  0  0  0  0  0  0  0  0  0  0  0
  2  1  1  6  0  0  0
  2  5  1  0  0  0  0
  2  3  1  0  0  0  0
  3  4  1  0  0  0  0
  3 10  1  0  0  0  0
  5  6  1  0  0  0  0
  6  7  1  0  0  0  0
  7  8  1  0  0  0  0
  8  9  1  0  0  0  0
M  END
>  <CHROM.1>
-63.12769588,172.45175179,-173.87659821,178.55745068,61.97144634,26.07538336
24.48650823,20.53851447,-2.99587791,1.12482463,1.68395200

>  <Name>
ligand

>  <RI>
0

>  <Rbt.Current_Directory>
/home/itssahil/PROJECTS/Mol_Feturizer/New_Systems/rnas/3DJ0

>  <Rbt.Executable>
rbdock ($Id: //depot/dev/client3/rdock/2013.1/src/exe/rbdock.cxx#4 $)

>  <Rbt.Library>
libRbt.so (2013.1, Build901 2013/11/27)

>  <Rbt.Parameter_File>
/export/apps/rDock/src/rDock_2013.1_src/data/scripts/dock_solv.prm

>  <Rbt.Receptor>
prm/blind_docking_80.prm

>  <SCORE>
-3.73809

>  <SCORE.INTER>
-2.13655

>  <SCORE.INTER.CONST>
1

>  <SCORE.INTER.POLAR>
0

>  <SCORE.INTER.ROT>
5

>  <SCORE.INTER.SOLV>
10.3971

>  <SCORE.INTER.VDW>
-11.8234

>  <SCORE.INTER.norm>
-0.213655

>  <SCORE.INTRA>
-1.60153

>  <SCORE.INTRA.DIHEDRAL>
-3.55184

>  <SCORE.INTRA.DIHEDRAL.0>
6.00299

>  <SCORE.INTRA.POLAR>
0

>  <SCORE.INTRA.POLAR.0>
0

>  <SCORE.INTRA.REPUL>
0

>  <SCORE.INTRA.REPUL.0>
0

>  <SCORE.INTRA.SOLV>
0.292543

>  <SCORE.INTRA.SOLV.lig_0>
-39.3257

>  <SCORE.INTRA.VDW>
0.0281143

>  <SCORE.INTRA.VDW.0>
-0.734044

>  <SCORE.INTRA.norm>
-0.160153

>  <SCORE.RESTR>
0

>  <SCORE.RESTR.CAVITY>
0

>  <SCORE.RESTR.norm>
0

>  <SCORE.SYSTEM>
0

>  <SCORE.SYSTEM.CONST>
0

>  <SCORE.SYSTEM.DIHEDRAL>
0

>  <SCORE.SYSTEM.SOLV>
0

>  <SCORE.SYSTEM.norm>
0

>  <SCORE.heavy>
10

>  <SCORE.norm>
-0.373809

>  <RMSD>
10.915

$$$$
ligand
 OpenBabel11021811473D
libRbt.so/2013.1/901 2013/11/27
 10  9  0  0  0  0  0  0  0  0999 V2000
   26.1439   23.8907   18.6028 N   0  0  0  0  0  0  0  0  0  0  0  0
   26.0975   23.3530   19.9497 C   0  0  2  0  0  0  0  0  0  0  0  0
   25.0862   22.2419   20.0425 C   0  0  0  0  0  0  0  0  0  0  0  0
   25.0153   21.5700   21.1017 O   0  0  0  0  0  0  0  0  0  0  0  0
   25.7542   24.4673   20.9290 C   0  0  0  0  0  0  0  0  0  0  0  0
   26.7899   25.4460   20.8930 O   0  0  0  0  0  0  0  0  0  0  0  0
   26.5170   26.4043   21.9152 C   0  0  0  0  0  0  0  0  0  0  0  0
   27.6496   27.4287   21.9265 C   0  0  0  0  0  0  0  0  0  0  0  0
   27.6830   28.1487   20.6653 N   0  0  0  0  0  0  0  0  0  0  0  0
   24.0844   22.3521   19.3074 O   0  0  0  0  0  0  0  0  0  0  0  0
  2  1  1  6  0  0  0
  2  5  1  0  0  0  0
  2  3  1  0  0  0  0
  3  4  1  0  0  0  0
  3 10  1  0  0  0  0
  5  6  1  0  0  0  0
  6  7  1  0  0  0  0
  7  8  1  0  0  0  0
  8  9  1  0  0  0  0
M  END
>  <CHROM.1>
-62.76542421,172.62359184,-174.03327596,177.71718679,63.27638374,26.05646521
24.49629850,20.53699345,-2.89355193,1.11687885,1.56535593

>  <Name>
ligand

>  <RI>
0

>  <Rbt.Current_Directory>
/home/itssahil/PROJECTS/Mol_Feturizer/New_Systems/rnas/3DJ0

>  <Rbt.Executable>
rbdock ($Id: //depot/dev/client3/rdock/2013.1/src/exe/rbdock.cxx#4 $)

>  <Rbt.Library>
libRbt.so (2013.1, Build901 2013/11/27)

>  <Rbt.Parameter_File>
/export/apps/rDock/src/rDock_2013.1_src/data/scripts/dock_solv.prm

>  <Rbt.Receptor>
prm/blind_docking_100.prm

>  <SCORE>
-3.75861

>  <SCORE.INTER>
-2.15936

>  <SCORE.INTER.CONST>
1

>  <SCORE.INTER.POLAR>
0

>  <SCORE.INTER.ROT>
5

>  <SCORE.INTER.SOLV>
10.4236

>  <SCORE.INTER.VDW>
-11.8474

>  <SCORE.INTER.norm>
-0.215936

>  <SCORE.INTRA>
-1.59925

>  <SCORE.INTRA.DIHEDRAL>
-3.53029

>  <SCORE.INTRA.DIHEDRAL.0>
6.00299

>  <SCORE.INTRA.POLAR>
0

>  <SCORE.INTRA.POLAR.0>
0

>  <SCORE.INTRA.REPUL>
0

>  <SCORE.INTRA.REPUL.0>
0

>  <SCORE.INTRA.SOLV>
0.276482

>  <SCORE.INTRA.SOLV.lig_0>
-39.3257

>  <SCORE.INTRA.VDW>
0.0276524

>  <SCORE.INTRA.VDW.0>
-0.734044

>  <SCORE.INTRA.norm>
-0.159925

>  <SCORE.RESTR>
0

>  <SCORE.RESTR.CAVITY>
0

>  <SCORE.RESTR.norm>
0

>  <SCORE.SYSTEM>
0

>  <SCORE.SYSTEM.CONST>
0

>  <SCORE.SYSTEM.DIHEDRAL>
0

>  <SCORE.SYSTEM.SOLV>
0

>  <SCORE.SYSTEM.norm>
0

>  <SCORE.heavy>
10

>  <SCORE.norm>
-0.375861

>  <RMSD>
10.931

$$$$
ligand
 OpenBabel11021811473D
libRbt.so/2013.1/901 2013/11/27
 10  9  0  0  0  0  0  0  0  0999 V2000
   26.1074   23.4445   17.6324 N   0  0  0  0  0  0  0  0  0  0  0  0
   26.2996   23.5413   19.0674 C   0  0  2  0  0  0  0  0  0  0  0  0
   25.3351   22.6420   19.7934 C   0  0  0  0  0  0  0  0  0  0  0  0
   25.5095   22.4249   21.0185 O   0  0  0  0  0  0  0  0  0  0  0  0
   26.1126   24.9869   19.5076 C   0  0  0  0  0  0  0  0  0  0  0  0
   26.5190   25.1092   20.8683 O   0  0  0  0  0  0  0  0  0  0  0  0
   26.4867   26.4953   21.2081 C   0  0  0  0  0  0  0  0  0  0  0  0
   27.0154   26.6522   22.6321 C   0  0  0  0  0  0  0  0  0  0  0  0
   27.0872   28.0595   22.9849 N   0  0  0  0  0  0  0  0  0  0  0  0
   24.1909   22.5591   19.3035 O   0  0  0  0  0  0  0  0  0  0  0  0
  2  1  1  6  0  0  0
  2  5  1  0  0  0  0
  2  3  1  0  0  0  0
  3  4  1  0  0  0  0
  3 10  1  0  0  0  0
  5  6  1  0  0  0  0
  6  7  1  0  0  0  0
  7  8  1  0  0  0  0
  8  9  1  0  0  0  0
M  END
>  <CHROM.1>
-170.45207343,167.90459911,173.18644665,-176.00202964,176.03355377,26.04257431
24.56175430,20.41502935,-2.29473916,1.12204534,1.31377819

>  <Name>
ligand

>  <RI>
0

>  <Rbt.Current_Directory>
/home/itssahil/PROJECTS/Mol_Feturizer/New_Systems/rnas/3DJ0

>  <Rbt.Executable>
rbdock ($Id: //depot/dev/client3/rdock/2013.1/src/exe/rbdock.cxx#4 $)

>  <Rbt.Library>
libRbt.so (2013.1, Build901 2013/11/27)

>  <Rbt.Parameter_File>
/export/apps/rDock/src/rDock_2013.1_src/data/scripts/dock_solv.prm

>  <Rbt.Receptor>
prm/blind_docking_80.prm

>  <SCORE>
-2.13674

>  <SCORE.INTER>
0.0618287

>  <SCORE.INTER.CONST>
1

>  <SCORE.INTER.POLAR>
0

>  <SCORE.INTER.ROT>
5

>  <SCORE.INTER.SOLV>
9.76556

>  <SCORE.INTER.VDW>
-10.1473

>  <SCORE.INTER.norm>
0.00618287

>  <SCORE.INTRA>
-2.19857

>  <SCORE.INTRA.DIHEDRAL>
-3.0145

>  <SCORE.INTRA.DIHEDRAL.0>
6.00299

>  <SCORE.INTRA.POLAR>
0

>  <SCORE.INTRA.POLAR.0>
0

>  <SCORE.INTRA.REPUL>
0

>  <SCORE.INTRA.REPUL.0>
0

>  <SCORE.INTRA.SOLV>
-1.22571

>  <SCORE.INTRA.SOLV.lig_0>
-39.3257

>  <SCORE.INTRA.VDW>
-0.0784681

>  <SCORE.INTRA.VDW.0>
-0.734044

>  <SCORE.INTRA.norm>
-0.219857

>  <SCORE.RESTR>
0

>  <SCORE.RESTR.CAVITY>
0

>  <SCORE.RESTR.norm>
0

>  <SCORE.SYSTEM>
0

>  <SCORE.SYSTEM.CONST>
0

>  <SCORE.SYSTEM.DIHEDRAL>
0

>  <SCORE.SYSTEM.SOLV>
0

>  <SCORE.SYSTEM.norm>
0

>  <SCORE.heavy>
10

>  <SCORE.norm>
-0.213674

>  <RMSD>
10.940

$$$$
ligand
 OpenBabel11021811473D
libRbt.so/2013.1/901 2013/11/27
 10  9  0  0  0  0  0  0  0  0999 V2000
   27.7854   27.7908   22.7956 N   0  0  0  0  0  0  0  0  0  0  0  0
   27.8080   26.7448   21.7903 C   0  0  2  0  0  0  0  0  0  0  0  0
   28.2865   27.2881   20.4704 C   0  0  0  0  0  0  0  0  0  0  0  0
   28.7652   26.4940   19.6227 O   0  0  0  0  0  0  0  0  0  0  0  0
   26.4138   26.1499   21.6460 C   0  0  0  0  0  0  0  0  0  0  0  0
   26.4709   25.0627   20.7261 O   0  0  0  0  0  0  0  0  0  0  0  0
   25.1566   24.5164   20.6176 C   0  0  0  0  0  0  0  0  0  0  0  0
   25.2107   23.3225   19.6669 C   0  0  0  0  0  0  0  0  0  0  0  0
   25.6885   23.7457   18.3621 N   0  0  0  0  0  0  0  0  0  0  0  0
   27.7604   28.3553   20.0958 O   0  0  0  0  0  0  0  0  0  0  0  0
  2  1  1  1  0  0  0
  2  5  1  0  0  0  0
  2  3  1  0  0  0  0
  3  4  1  0  0  0  0
  3 10  1  0  0  0  0
  5  6  1  0  0  0  0
  6  7  1  0  0  0  0
  7  8  1  0  0  0  0
  8  9  1  0  0  0  0
M  END
>  <CHROM.1>
-175.93886435,157.88247551,179.50898696,-178.29778682,-59.41322947,26.94909915
25.96046140,20.55393315,0.69127028,0.80691087,1.13159837

>  <Name>
ligand

>  <RI>
0

>  <Rbt.Current_Directory>
/home/itssahil/PROJECTS/Mol_Feturizer/New_Systems/rnas/3DJ0

>  <Rbt.Executable>
rbdock ($Id: //depot/dev/client3/rdock/2013.1/src/exe/rbdock.cxx#4 $)

>  <Rbt.Library>
libRbt.so (2013.1, Build901 2013/11/27)

>  <Rbt.Parameter_File>
/export/apps/rDock/src/rDock_2013.1_src/data/scripts/dock_solv.prm

>  <Rbt.Receptor>
prm/blind_docking_80.prm

>  <SCORE>
-2.64342

>  <SCORE.INTER>
-0.677797

>  <SCORE.INTER.CONST>
1

>  <SCORE.INTER.POLAR>
0

>  <SCORE.INTER.ROT>
5

>  <SCORE.INTER.SOLV>
8.36342

>  <SCORE.INTER.VDW>
-10.173

>  <SCORE.INTER.norm>
-0.0677797

>  <SCORE.INTRA>
-1.96562

>  <SCORE.INTRA.DIHEDRAL>
-3.42265

>  <SCORE.INTRA.DIHEDRAL.0>
6.00299

>  <SCORE.INTRA.POLAR>
0

>  <SCORE.INTRA.POLAR.0>
0

>  <SCORE.INTRA.REPUL>
0

>  <SCORE.INTRA.REPUL.0>
0

>  <SCORE.INTRA.SOLV>
-0.116694

>  <SCORE.INTRA.SOLV.lig_0>
-39.3257

>  <SCORE.INTRA.VDW>
-0.195947

>  <SCORE.INTRA.VDW.0>
-0.734044

>  <SCORE.INTRA.norm>
-0.196562

>  <SCORE.RESTR>
0

>  <SCORE.RESTR.CAVITY>
0

>  <SCORE.RESTR.norm>
0

>  <SCORE.SYSTEM>
0

>  <SCORE.SYSTEM.CONST>
0

>  <SCORE.SYSTEM.DIHEDRAL>
0

>  <SCORE.SYSTEM.SOLV>
0

>  <SCORE.SYSTEM.norm>
0

>  <SCORE.heavy>
10

>  <SCORE.norm>
-0.264342

>  <RMSD>
10.950

$$$$
ligand
 OpenBabel11021811473D
libRbt.so/2013.1/901 2013/11/27
 10  9  0  0  0  0  0  0  0  0999 V2000
   27.7810   27.7180   22.7009 N   0  0  0  0  0  0  0  0  0  0  0  0
   27.7147   26.7298   21.6404 C   0  0  2  0  0  0  0  0  0  0  0  0
   28.1902   27.3167   20.3383 C   0  0  0  0  0  0  0  0  0  0  0  0
   28.5222   26.5422   19.4065 O   0  0  0  0  0  0  0  0  0  0  0  0
   26.2842   26.2261   21.5053 C   0  0  0  0  0  0  0  0  0  0  0  0
   26.2530   25.1868   20.5304 O   0  0  0  0  0  0  0  0  0  0  0  0
   24.9024   24.7388   20.4165 C   0  0  0  0  0  0  0  0  0  0  0  0
   24.8396   23.6800   19.3178 C   0  0  0  0  0  0  0  0  0  0  0  0
   25.7233   22.5734   19.6410 N   0  0  0  0  0  0  0  0  0  0  0  0
   27.7837   28.4666   20.0765 O   0  0  0  0  0  0  0  0  0  0  0  0
  2  1  1  1  0  0  0
  2  5  1  0  0  0  0
  2  3  1  0  0  0  0
  3  4  1  0  0  0  0
  3 10  1  0  0  0  0
  5  6  1  0  0  0  0
  6  7  1  0  0  0  0
  7  8  1  0  0  0  0
  8  9  1  0  0  0  0
M  END
>  <CHROM.1>
-175.72889294,162.12442917,-179.62713067,176.80885228,58.79977416,26.81288858
25.93602467,20.52844138,0.68297201,0.80201603,1.00905982

>  <Name>
ligand

>  <RI>
0

>  <Rbt.Current_Directory>
/home/itssahil/PROJECTS/Mol_Feturizer/New_Systems/rnas/3DJ0

>  <Rbt.Executable>
rbdock ($Id: //depot/dev/client3/rdock/2013.1/src/exe/rbdock.cxx#4 $)

>  <Rbt.Library>
libRbt.so (2013.1, Build901 2013/11/27)

>  <Rbt.Parameter_File>
/export/apps/rDock/src/rDock_2013.1_src/data/scripts/dock_solv.prm

>  <Rbt.Receptor>
prm/blind_docking_80.prm

>  <SCORE>
-2.31887

>  <SCORE.INTER>
-0.408324

>  <SCORE.INTER.CONST>
1

>  <SCORE.INTER.POLAR>
0

>  <SCORE.INTER.ROT>
5

>  <SCORE.INTER.SOLV>
9.61134

>  <SCORE.INTER.VDW>
-10.4093

>  <SCORE.INTER.norm>
-0.0408324

>  <SCORE.INTRA>
-1.91055

>  <SCORE.INTRA.DIHEDRAL>
-3.46402

>  <SCORE.INTRA.DIHEDRAL.0>
6.00299

>  <SCORE.INTRA.POLAR>
0

>  <SCORE.INTRA.POLAR.0>
0

>  <SCORE.INTRA.REPUL>
0

>  <SCORE.INTRA.REPUL.0>
0

>  <SCORE.INTRA.SOLV>
-0.0985113

>  <SCORE.INTRA.SOLV.lig_0>
-39.3257

>  <SCORE.INTRA.VDW>
-0.129282

>  <SCORE.INTRA.VDW.0>
-0.734044

>  <SCORE.INTRA.norm>
-0.191055

>  <SCORE.RESTR>
0

>  <SCORE.RESTR.CAVITY>
0

>  <SCORE.RESTR.norm>
0

>  <SCORE.SYSTEM>
0

>  <SCORE.SYSTEM.CONST>
0

>  <SCORE.SYSTEM.DIHEDRAL>
0

>  <SCORE.SYSTEM.SOLV>
0

>  <SCORE.SYSTEM.norm>
0

>  <SCORE.heavy>
10

>  <SCORE.norm>
-0.231887

>  <RMSD>
10.978

$$$$
ligand
 OpenBabel11021811473D
libRbt.so/2013.1/901 2013/11/27
 10  9  0  0  0  0  0  0  0  0999 V2000
   26.2969   23.8225   18.7163 N   0  0  0  0  0  0  0  0  0  0  0  0
   26.0366   23.3889   20.0763 C   0  0  2  0  0  0  0  0  0  0  0  0
   24.9259   22.3732   20.1056 C   0  0  0  0  0  0  0  0  0  0  0  0
   24.0523   22.4001   19.2031 O   0  0  0  0  0  0  0  0  0  0  0  0
   25.6764   24.5951   20.9329 C   0  0  0  0  0  0  0  0  0  0  0  0
   26.7985   25.4724   20.9864 O   0  0  0  0  0  0  0  0  0  0  0  0
   26.4961   26.5073   21.9218 C   0  0  0  0  0  0  0  0  0  0  0  0
   27.7103   27.4275   22.0278 C   0  0  0  0  0  0  0  0  0  0  0  0
   27.4692   28.4583   23.0225 N   0  0  0  0  0  0  0  0  0  0  0  0
   25.1796   21.3031   20.6943 O   0  0  0  0  0  0  0  0  0  0  0  0
  2  1  1  6  0  0  0
  2  5  1  0  0  0  0
  2  3  1  0  0  0  0
  3  4  1  0  0  0  0
  3 10  1  0  0  0  0
  5  6  1  0  0  0  0
  6  7  1  0  0  0  0
  7  8  1  0  0  0  0
  8  9  1  0  0  0  0
M  END
>  <CHROM.1>
-63.56201325,-27.57977864,-173.02801881,177.96822273,-177.11781544,26.04252254
24.53582448,20.75869175,-2.51823139,1.09221830,1.33478353

>  <Name>
ligand

>  <RI>
0

>  <Rbt.Current_Directory>
/home/itssahil/PROJECTS/Mol_Feturizer/New_Systems/rnas/3DJ0

>  <Rbt.Executable>
rbdock ($Id: //depot/dev/client3/rdock/2013.1/src/exe/rbdock.cxx#4 $)

>  <Rbt.Library>
libRbt.so (2013.1, Build901 2013/11/27)

>  <Rbt.Parameter_File>
/export/apps/rDock/src/rDock_2013.1_src/data/scripts/dock_solv.prm

>  <Rbt.Receptor>
prm/blind_docking_100.prm

>  <SCORE>
-3.96972

>  <SCORE.INTER>
-1.70348

>  <SCORE.INTER.CONST>
1

>  <SCORE.INTER.POLAR>
0

>  <SCORE.INTER.ROT>
5

>  <SCORE.INTER.SOLV>
11.1529

>  <SCORE.INTER.VDW>
-11.7866

>  <SCORE.INTER.norm>
-0.170348

>  <SCORE.INTRA>
-2.26623

>  <SCORE.INTRA.DIHEDRAL>
-3.45753

>  <SCORE.INTRA.DIHEDRAL.0>
6.00299

>  <SCORE.INTRA.POLAR>
0

>  <SCORE.INTRA.POLAR.0>
0

>  <SCORE.INTRA.REPUL>
0

>  <SCORE.INTRA.REPUL.0>
0

>  <SCORE.INTRA.SOLV>
-0.751812

>  <SCORE.INTRA.SOLV.lig_0>
-39.3257

>  <SCORE.INTRA.VDW>
-0.161559

>  <SCORE.INTRA.VDW.0>
-0.734044

>  <SCORE.INTRA.norm>
-0.226623

>  <SCORE.RESTR>
0

>  <SCORE.RESTR.CAVITY>
0

>  <SCORE.RESTR.norm>
0

>  <SCORE.SYSTEM>
0

>  <SCORE.SYSTEM.CONST>
0

>  <SCORE.SYSTEM.DIHEDRAL>
0

>  <SCORE.SYSTEM.SOLV>
0

>  <SCORE.SYSTEM.norm>
0

>  <SCORE.heavy>
10

>  <SCORE.norm>
-0.396972

>  <RMSD>
11.036

$$$$
ligand
 OpenBabel11021811473D
libRbt.so/2013.1/901 2013/11/27
 10  9  0  0  0  0  0  0  0  0999 V2000
   26.2925   23.8407   18.6302 N   0  0  0  0  0  0  0  0  0  0  0  0
   26.0045   23.3689   19.9718 C   0  0  2  0  0  0  0  0  0  0  0  0
   24.8703   22.3794   19.9538 C   0  0  0  0  0  0  0  0  0  0  0  0
   24.0063   22.4601   19.0453 O   0  0  0  0  0  0  0  0  0  0  0  0
   25.6614   24.5545   20.8635 C   0  0  0  0  0  0  0  0  0  0  0  0
   26.8003   25.4068   20.9533 O   0  0  0  0  0  0  0  0  0  0  0  0
   26.4893   26.4510   21.8757 C   0  0  0  0  0  0  0  0  0  0  0  0
   27.7074   27.3645   21.9942 C   0  0  0  0  0  0  0  0  0  0  0  0
   27.4579   28.4027   22.9790 N   0  0  0  0  0  0  0  0  0  0  0  0
   25.0933   21.2826   20.5048 O   0  0  0  0  0  0  0  0  0  0  0  0
  2  1  1  6  0  0  0
  2  5  1  0  0  0  0
  2  3  1  0  0  0  0
  3  4  1  0  0  0  0
  3 10  1  0  0  0  0
  5  6  1  0  0  0  0
  6  7  1  0  0  0  0
  7  8  1  0  0  0  0
  8  9  1  0  0  0  0
M  END
>  <CHROM.1>
-63.22077788,-27.87303736,-175.49615658,179.37774546,-176.99090370,26.01615963
24.51248018,20.66620099,-2.49037678,1.07086151,1.32275061

>  <Name>
ligand

>  <RI>
0

>  <Rbt.Current_Directory>
/home/itssahil/PROJECTS/Mol_Feturizer/New_Systems/rnas/3DJ0

>  <Rbt.Executable>
rbdock ($Id: //depot/dev/client3/rdock/2013.1/src/exe/rbdock.cxx#4 $)

>  <Rbt.Library>
libRbt.so (2013.1, Build901 2013/11/27)

>  <Rbt.Parameter_File>
/export/apps/rDock/src/rDock_2013.1_src/data/scripts/dock_solv.prm

>  <Rbt.Receptor>
prm/blind_docking_80.prm

>  <SCORE>
-3.90099

>  <SCORE.INTER>
-1.55704

>  <SCORE.INTER.CONST>
1

>  <SCORE.INTER.POLAR>
0

>  <SCORE.INTER.ROT>
5

>  <SCORE.INTER.SOLV>
10.9865

>  <SCORE.INTER.VDW>
-11.6335

>  <SCORE.INTER.norm>
-0.155704

>  <SCORE.INTRA>
-2.34395

>  <SCORE.INTRA.DIHEDRAL>
-3.62408

>  <SCORE.INTRA.DIHEDRAL.0>
6.00299

>  <SCORE.INTRA.POLAR>
0

>  <SCORE.INTRA.POLAR.0>
0

>  <SCORE.INTRA.REPUL>
0

>  <SCORE.INTRA.REPUL.0>
0

>  <SCORE.INTRA.SOLV>
-0.738444

>  <SCORE.INTRA.SOLV.lig_0>
-39.3257

>  <SCORE.INTRA.VDW>
-0.162686

>  <SCORE.INTRA.VDW.0>
-0.734044

>  <SCORE.INTRA.norm>
-0.234395

>  <SCORE.RESTR>
0

>  <SCORE.RESTR.CAVITY>
0

>  <SCORE.RESTR.norm>
0

>  <SCORE.SYSTEM>
0

>  <SCORE.SYSTEM.CONST>
0

>  <SCORE.SYSTEM.DIHEDRAL>
0

>  <SCORE.SYSTEM.SOLV>
0

>  <SCORE.SYSTEM.norm>
0

>  <SCORE.heavy>
10

>  <SCORE.norm>
-0.390099

>  <RMSD>
11.039

$$$$
ligand
 OpenBabel11021811473D
libRbt.so/2013.1/901 2013/11/27
 10  9  0  0  0  0  0  0  0  0999 V2000
   26.1263   24.7444   18.0262 N   0  0  0  0  0  0  0  0  0  0  0  0
   25.2266   23.6595   17.6810 C   0  0  2  0  0  0  0  0  0  0  0  0
   25.2466   22.5952   18.7453 C   0  0  0  0  0  0  0  0  0  0  0  0
   26.3435   22.2795   19.2703 O   0  0  0  0  0  0  0  0  0  0  0  0
   25.6320   23.0733   16.3355 C   0  0  0  0  0  0  0  0  0  0  0  0
   25.5733   24.1012   15.3499 O   0  0  0  0  0  0  0  0  0  0  0  0
   25.9894   23.5352   14.1072 C   0  0  0  0  0  0  0  0  0  0  0  0
   25.9653   24.6348   13.0477 C   0  0  0  0  0  0  0  0  0  0  0  0
   26.3256   24.0862   11.7518 N   0  0  0  0  0  0  0  0  0  0  0  0
   24.1846   22.4378   19.3806 O   0  0  0  0  0  0  0  0  0  0  0  0
  2  1  1  1  0  0  0
  2  5  1  0  0  0  0
  2  3  1  0  0  0  0
  3  4  1  0  0  0  0
  3 10  1  0  0  0  0
  5  6  1  0  0  0  0
  6  7  1  0  0  0  0
  7  8  1  0  0  0  0
  8  9  1  0  0  0  0
M  END
>  <CHROM.1>
-59.23533202,-40.38422585,178.56263270,-178.59741514,-177.45955320,25.65501328
23.49627772,16.41114021,-1.88986853,-1.16502252,-1.63916123

>  <Name>
ligand

>  <RI>
0

>  <Rbt.Current_Directory>
/home/itssahil/PROJECTS/Mol_Feturizer/New_Systems/rnas/3DJ0

>  <Rbt.Executable>
rbdock ($Id: //depot/dev/client3/rdock/2013.1/src/exe/rbdock.cxx#4 $)

>  <Rbt.Library>
libRbt.so (2013.1, Build901 2013/11/27)

>  <Rbt.Parameter_File>
/export/apps/rDock/src/rDock_2013.1_src/data/scripts/dock_solv.prm

>  <Rbt.Receptor>
prm/blind_docking_100.prm

>  <SCORE>
-2.40758

>  <SCORE.INTER>
0.0388389

>  <SCORE.INTER.CONST>
1

>  <SCORE.INTER.POLAR>
0

>  <SCORE.INTER.ROT>
5

>  <SCORE.INTER.SOLV>
10.8215

>  <SCORE.INTER.VDW>
-10.5146

>  <SCORE.INTER.norm>
0.00388389

>  <SCORE.INTRA>
-2.44642

>  <SCORE.INTRA.DIHEDRAL>
-3.91423

>  <SCORE.INTRA.DIHEDRAL.0>
6.00299

>  <SCORE.INTRA.POLAR>
0

>  <SCORE.INTRA.POLAR.0>
0

>  <SCORE.INTRA.REPUL>
0

>  <SCORE.INTRA.REPUL.0>
0

>  <SCORE.INTRA.SOLV>
-0.653008

>  <SCORE.INTRA.SOLV.lig_0>
-39.3257

>  <SCORE.INTRA.VDW>
-0.162804

>  <SCORE.INTRA.VDW.0>
-0.734044

>  <SCORE.INTRA.norm>
-0.244642

>  <SCORE.RESTR>
0

>  <SCORE.RESTR.CAVITY>
0

>  <SCORE.RESTR.norm>
0

>  <SCORE.SYSTEM>
0

>  <SCORE.SYSTEM.CONST>
0

>  <SCORE.SYSTEM.DIHEDRAL>
0

>  <SCORE.SYSTEM.SOLV>
0

>  <SCORE.SYSTEM.norm>
0

>  <SCORE.heavy>
10

>  <SCORE.norm>
-0.240758

>  <RMSD>
11.109

$$$$
ligand
 OpenBabel11021811473D
libRbt.so/2013.1/901 2013/11/27
 10  9  0  0  0  0  0  0  0  0999 V2000
   28.0601   14.7732   12.6983 N   0  0  0  0  0  0  0  0  0  0  0  0
   28.0202   14.4305   11.2888 C   0  0  2  0  0  0  0  0  0  0  0  0
   28.9022   15.3553   10.4932 C   0  0  0  0  0  0  0  0  0  0  0  0
   29.3932   14.9471    9.4112 O   0  0  0  0  0  0  0  0  0  0  0  0
   26.5838   14.5055   10.7892 C   0  0  0  0  0  0  0  0  0  0  0  0
   25.7341   13.8608   11.7348 O   0  0  0  0  0  0  0  0  0  0  0  0
   24.3903   13.9932   11.2717 C   0  0  0  0  0  0  0  0  0  0  0  0
   23.4606   13.3803   12.3167 C   0  0  0  0  0  0  0  0  0  0  0  0
   22.0761   13.5424   11.9084 N   0  0  0  0  0  0  0  0  0  0  0  0
   28.7146   16.5758   10.6701 O   0  0  0  0  0  0  0  0  0  0  0  0
  2  1  1  1  0  0  0
  2  5  1  0  0  0  0
  2  3  1  0  0  0  0
  3  4  1  0  0  0  0
  3 10  1  0  0  0  0
  5  6  1  0  0  0  0
  6  7  1  0  0  0  0
  7  8  1  0  0  0  0
  8  9  1  0  0  0  0
M  END
>  <CHROM.1>
-45.23611542,153.36500148,177.63441856,-176.65256144,177.72105066,26.56503735
14.55580938,11.23625795,-0.26963574,0.28743810,1.68046229

>  <Name>
ligand

>  <RI>
0

>  <Rbt.Current_Directory>
/home/itssahil/PROJECTS/Mol_Feturizer/New_Systems/rnas/3DJ0

>  <Rbt.Executable>
rbdock ($Id: //depot/dev/client3/rdock/2013.1/src/exe/rbdock.cxx#4 $)

>  <Rbt.Library>
libRbt.so (2013.1, Build901 2013/11/27)

>  <Rbt.Parameter_File>
/export/apps/rDock/src/rDock_2013.1_src/data/scripts/dock_solv.prm

>  <Rbt.Receptor>
prm/blind_docking_100.prm

>  <SCORE>
-4.74627

>  <SCORE.INTER>
-3.23354

>  <SCORE.INTER.CONST>
1

>  <SCORE.INTER.POLAR>
0

>  <SCORE.INTER.ROT>
5

>  <SCORE.INTER.SOLV>
14.6719

>  <SCORE.INTER.VDW>
-13.9797

>  <SCORE.INTER.norm>
-0.323354

>  <SCORE.INTRA>
-1.51273

>  <SCORE.INTRA.DIHEDRAL>
-2.55481

>  <SCORE.INTRA.DIHEDRAL.0>
6.00299

>  <SCORE.INTRA.POLAR>
0

>  <SCORE.INTRA.POLAR.0>
0

>  <SCORE.INTRA.REPUL>
0

>  <SCORE.INTRA.REPUL.0>
0

>  <SCORE.INTRA.SOLV>
-0.619225

>  <SCORE.INTRA.SOLV.lig_0>
-39.3257

>  <SCORE.INTRA.VDW>
0.0742831

>  <SCORE.INTRA.VDW.0>
-0.734044

>  <SCORE.INTRA.norm>
-0.151273

>  <SCORE.RESTR>
0

>  <SCORE.RESTR.CAVITY>
0

>  <SCORE.RESTR.norm>
0

>  <SCORE.SYSTEM>
0

>  <SCORE.SYSTEM.CONST>
0

>  <SCORE.SYSTEM.DIHEDRAL>
0

>  <SCORE.SYSTEM.SOLV>
0

>  <SCORE.SYSTEM.norm>
0

>  <SCORE.heavy>
10

>  <SCORE.norm>
-0.474627

>  <RMSD>
11.323

$$$$
ligand
 OpenBabel11021811473D
libRbt.so/2013.1/901 2013/11/27
 10  9  0  0  0  0  0  0  0  0999 V2000
   27.0951   13.8171    9.6113 N   0  0  0  0  0  0  0  0  0  0  0  0
   26.9695   14.8110   10.6610 C   0  0  2  0  0  0  0  0  0  0  0  0
   28.3175   15.1376   11.2460 C   0  0  0  0  0  0  0  0  0  0  0  0
   28.9826   14.2218   11.7912 O   0  0  0  0  0  0  0  0  0  0  0  0
   26.0326   14.2907   11.7426 C   0  0  0  0  0  0  0  0  0  0  0  0
   24.7334   14.1197   11.1820 O   0  0  0  0  0  0  0  0  0  0  0  0
   23.8597   13.7020   12.2307 C   0  0  0  0  0  0  0  0  0  0  0  0
   22.4568   13.5393   11.6497 C   0  0  0  0  0  0  0  0  0  0  0  0
   21.5343   13.1111   12.6869 N   0  0  0  0  0  0  0  0  0  0  0  0
   28.9028   16.1229   10.7533 O   0  0  0  0  0  0  0  0  0  0  0  0
  2  1  1  6  0  0  0
  2  5  1  0  0  0  0
  2  3  1  0  0  0  0
  3  4  1  0  0  0  0
  3 10  1  0  0  0  0
  5  6  1  0  0  0  0
  6  7  1  0  0  0  0
  7  8  1  0  0  0  0
  8  9  1  0  0  0  0
M  END
>  <CHROM.1>
-63.72001901,-60.59632138,-176.89921285,178.97663596,179.88292878,25.93212420
14.29988639,11.35649632,0.17812599,-0.26883955,-1.59691463

>  <Name>
ligand

>  <RI>
0

>  <Rbt.Current_Directory>
/home/itssahil/PROJECTS/Mol_Feturizer/New_Systems/rnas/3DJ0

>  <Rbt.Executable>
rbdock ($Id: //depot/dev/client3/rdock/2013.1/src/exe/rbdock.cxx#4 $)

>  <Rbt.Library>
libRbt.so (2013.1, Build901 2013/11/27)

>  <Rbt.Parameter_File>
/export/apps/rDock/src/rDock_2013.1_src/data/scripts/dock_solv.prm

>  <Rbt.Receptor>
prm/blind_docking_40.prm

>  <SCORE>
-5.47934

>  <SCORE.INTER>
-3.14382

>  <SCORE.INTER.CONST>
1

>  <SCORE.INTER.POLAR>
0

>  <SCORE.INTER.ROT>
5

>  <SCORE.INTER.SOLV>
8.91839

>  <SCORE.INTER.VDW>
-12.002

>  <SCORE.INTER.norm>
-0.314382

>  <SCORE.INTRA>
-2.33553

>  <SCORE.INTRA.DIHEDRAL>
-3.80225

>  <SCORE.INTRA.DIHEDRAL.0>
6.00299

>  <SCORE.INTRA.POLAR>
0

>  <SCORE.INTRA.POLAR.0>
0

>  <SCORE.INTRA.REPUL>
0

>  <SCORE.INTRA.REPUL.0>
0

>  <SCORE.INTRA.SOLV>
-0.700727

>  <SCORE.INTRA.SOLV.lig_0>
-39.3257

>  <SCORE.INTRA.VDW>
-0.0840367

>  <SCORE.INTRA.VDW.0>
-0.734044

>  <SCORE.INTRA.norm>
-0.233553

>  <SCORE.RESTR>
0

>  <SCORE.RESTR.CAVITY>
0

>  <SCORE.RESTR.norm>
0

>  <SCORE.SYSTEM>
0

>  <SCORE.SYSTEM.CONST>
0

>  <SCORE.SYSTEM.DIHEDRAL>
0

>  <SCORE.SYSTEM.SOLV>
0

>  <SCORE.SYSTEM.norm>
0

>  <SCORE.heavy>
10

>  <SCORE.norm>
-0.547934

>  <RMSD>
11.482

$$$$
ligand
 OpenBabel11021811473D
libRbt.so/2013.1/901 2013/11/27
 10  9  0  0  0  0  0  0  0  0999 V2000
   27.0817   13.8001    9.6207 N   0  0  0  0  0  0  0  0  0  0  0  0
   26.9572   14.8057   10.6593 C   0  0  2  0  0  0  0  0  0  0  0  0
   28.3036   15.1254   11.2519 C   0  0  0  0  0  0  0  0  0  0  0  0
   28.9732   14.2007   11.7763 O   0  0  0  0  0  0  0  0  0  0  0  0
   26.0070   14.3051   11.7385 C   0  0  0  0  0  0  0  0  0  0  0  0
   24.7097   14.1444   11.1702 O   0  0  0  0  0  0  0  0  0  0  0  0
   23.8279   13.7272   12.2123 C   0  0  0  0  0  0  0  0  0  0  0  0
   22.4301   13.5619   11.6200 C   0  0  0  0  0  0  0  0  0  0  0  0
   21.4988   13.1379   12.6510 N   0  0  0  0  0  0  0  0  0  0  0  0
   28.8841   16.1245   10.7818 O   0  0  0  0  0  0  0  0  0  0  0  0
  2  1  1  6  0  0  0
  2  5  1  0  0  0  0
  2  3  1  0  0  0  0
  3  4  1  0  0  0  0
  3 10  1  0  0  0  0
  5  6  1  0  0  0  0
  6  7  1  0  0  0  0
  7  8  1  0  0  0  0
  8  9  1  0  0  0  0
M  END
>  <CHROM.1>
-63.88931778,-58.49988868,-177.70145248,179.54258366,-179.95260853,25.91107528
14.30587802,11.34939968,0.16393580,-0.26707678,-1.62787823

>  <Name>
ligand

>  <RI>
0

>  <Rbt.Current_Directory>
/home/itssahil/PROJECTS/Mol_Feturizer/New_Systems/rnas/3DJ0

>  <Rbt.Executable>
rbdock ($Id: //depot/dev/client3/rdock/2013.1/src/exe/rbdock.cxx#4 $)

>  <Rbt.Library>
libRbt.so (2013.1, Build901 2013/11/27)

>  <Rbt.Parameter_File>
/export/apps/rDock/src/rDock_2013.1_src/data/scripts/dock_solv.prm

>  <Rbt.Receptor>
prm/blind_docking_40.prm

>  <SCORE>
-5.52157

>  <SCORE.INTER>
-3.14079

>  <SCORE.INTER.CONST>
1

>  <SCORE.INTER.POLAR>
0

>  <SCORE.INTER.ROT>
5

>  <SCORE.INTER.SOLV>
8.92944

>  <SCORE.INTER.VDW>
-12.0037

>  <SCORE.INTER.norm>
-0.314079

>  <SCORE.INTRA>
-2.38078

>  <SCORE.INTRA.DIHEDRAL>
-3.84859

>  <SCORE.INTRA.DIHEDRAL.0>
6.00299

>  <SCORE.INTRA.POLAR>
0

>  <SCORE.INTRA.POLAR.0>
0

>  <SCORE.INTRA.REPUL>
0

>  <SCORE.INTRA.REPUL.0>
0

>  <SCORE.INTRA.SOLV>
-0.701556

>  <SCORE.INTRA.SOLV.lig_0>
-39.3257

>  <SCORE.INTRA.VDW>
-0.105711

>  <SCORE.INTRA.VDW.0>
-0.734044

>  <SCORE.INTRA.norm>
-0.238078

>  <SCORE.RESTR>
0

>  <SCORE.RESTR.CAVITY>
0

>  <SCORE.RESTR.norm>
0

>  <SCORE.SYSTEM>
0

>  <SCORE.SYSTEM.CONST>
0

>  <SCORE.SYSTEM.DIHEDRAL>
0

>  <SCORE.SYSTEM.SOLV>
0

>  <SCORE.SYSTEM.norm>
0

>  <SCORE.heavy>
10

>  <SCORE.norm>
-0.552157

>  <RMSD>
11.496

$$$$
ligand
 OpenBabel11021811473D
libRbt.so/2013.1/901 2013/11/27
 10  9  0  0  0  0  0  0  0  0999 V2000
   28.6617   15.3812    9.8701 N   0  0  0  0  0  0  0  0  0  0  0  0
   27.5510   15.1242   10.7678 C   0  0  2  0  0  0  0  0  0  0  0  0
   27.9938   14.2755   11.9297 C   0  0  0  0  0  0  0  0  0  0  0  0
   29.1126   13.7065   11.8766 O   0  0  0  0  0  0  0  0  0  0  0  0
   26.4298   14.4344   10.0028 C   0  0  0  0  0  0  0  0  0  0  0  0
   25.3589   14.1620   10.9032 O   0  0  0  0  0  0  0  0  0  0  0  0
   24.3265   13.5088   10.1647 C   0  0  0  0  0  0  0  0  0  0  0  0
   23.2207   13.1079   11.1387 C   0  0  0  0  0  0  0  0  0  0  0  0
   22.6432   14.2915   11.7518 N   0  0  0  0  0  0  0  0  0  0  0  0
   27.4918   14.5590   13.0359 O   0  0  0  0  0  0  0  0  0  0  0  0
  2  1  1  6  0  0  0
  2  5  1  0  0  0  0
  2  3  1  0  0  0  0
  3  4  1  0  0  0  0
  3 10  1  0  0  0  0
  5  6  1  0  0  0  0
  6  7  1  0  0  0  0
  7  8  1  0  0  0  0
  8  9  1  0  0  0  0
M  END
>  <CHROM.1>
178.72881710,-12.81390686,-179.62517482,175.42366265,62.53645172,26.30107539
14.24409381,11.17398933,-0.02687593,-0.16880731,-1.37115913

>  <Name>
ligand

>  <RI>
0

>  <Rbt.Current_Directory>
/home/itssahil/PROJECTS/Mol_Feturizer/New_Systems/rnas/3DJ0

>  <Rbt.Executable>
rbdock ($Id: //depot/dev/client3/rdock/2013.1/src/exe/rbdock.cxx#4 $)

>  <Rbt.Library>
libRbt.so (2013.1, Build901 2013/11/27)

>  <Rbt.Parameter_File>
/export/apps/rDock/src/rDock_2013.1_src/data/scripts/dock_solv.prm

>  <Rbt.Receptor>
prm/blind_docking_40.prm

>  <SCORE>
-3.84198

>  <SCORE.INTER>
-1.98366

>  <SCORE.INTER.CONST>
1

>  <SCORE.INTER.POLAR>
0

>  <SCORE.INTER.ROT>
5

>  <SCORE.INTER.SOLV>
13.9884

>  <SCORE.INTER.VDW>
-12.9186

>  <SCORE.INTER.norm>
-0.198366

>  <SCORE.INTRA>
-1.85945

>  <SCORE.INTRA.DIHEDRAL>
-3.36046

>  <SCORE.INTRA.DIHEDRAL.0>
6.00299

>  <SCORE.INTRA.POLAR>
0

>  <SCORE.INTRA.POLAR.0>
0

>  <SCORE.INTRA.REPUL>
0

>  <SCORE.INTRA.REPUL.0>
0

>  <SCORE.INTRA.SOLV>
-0.187328

>  <SCORE.INTRA.SOLV.lig_0>
-39.3257

>  <SCORE.INTRA.VDW>
-0.0855523

>  <SCORE.INTRA.VDW.0>
-0.734044

>  <SCORE.INTRA.norm>
-0.185945

>  <SCORE.RESTR>
0.00112986

>  <SCORE.RESTR.CAVITY>
0.00112986

>  <SCORE.RESTR.norm>
0.000112986

>  <SCORE.SYSTEM>
0

>  <SCORE.SYSTEM.CONST>
0

>  <SCORE.SYSTEM.DIHEDRAL>
0

>  <SCORE.SYSTEM.SOLV>
0

>  <SCORE.SYSTEM.norm>
0

>  <SCORE.heavy>
10

>  <SCORE.norm>
-0.384198

>  <RMSD>
11.512

$$$$
ligand
 OpenBabel11021811473D
libRbt.so/2013.1/901 2013/11/27
 10  9  0  0  0  0  0  0  0  0999 V2000
   27.3465   14.2272    9.1340 N   0  0  0  0  0  0  0  0  0  0  0  0
   26.8838   14.6427   10.4450 C   0  0  2  0  0  0  0  0  0  0  0  0
   27.9785   14.4891   11.4669 C   0  0  0  0  0  0  0  0  0  0  0  0
   29.1652   14.7243   11.1279 O   0  0  0  0  0  0  0  0  0  0  0  0
   25.6685   13.8148   10.8397 C   0  0  0  0  0  0  0  0  0  0  0  0
   25.0987   14.3698   12.0225 O   0  0  0  0  0  0  0  0  0  0  0  0
   23.9053   13.6421   12.3121 C   0  0  0  0  0  0  0  0  0  0  0  0
   22.7914   14.1698   11.4105 C   0  0  0  0  0  0  0  0  0  0  0  0
   21.5244   13.5595   11.7744 N   0  0  0  0  0  0  0  0  0  0  0  0
   27.6349   14.6175   12.6592 O   0  0  0  0  0  0  0  0  0  0  0  0
  2  1  1  6  0  0  0
  2  5  1  0  0  0  0
  2  3  1  0  0  0  0
  3  4  1  0  0  0  0
  3 10  1  0  0  0  0
  5  6  1  0  0  0  0
  6  7  1  0  0  0  0
  7  8  1  0  0  0  0
  8  9  1  0  0  0  0
M  END
>  <CHROM.1>
-170.90174048,36.03397401,175.57305132,-79.86076456,-173.73534206,25.83887375
14.23517074,11.34988817,0.12435460,-0.14530040,-1.63270357

>  <Name>
ligand

>  <RI>
0

>  <Rbt.Current_Directory>
/home/itssahil/PROJECTS/Mol_Feturizer/New_Systems/rnas/3DJ0

>  <Rbt.Executable>
rbdock ($Id: //depot/dev/client3/rdock/2013.1/src/exe/rbdock.cxx#4 $)

>  <Rbt.Library>
libRbt.so (2013.1, Build901 2013/11/27)

>  <Rbt.Parameter_File>
/export/apps/rDock/src/rDock_2013.1_src/data/scripts/dock_solv.prm

>  <Rbt.Receptor>
prm/blind_docking_40.prm

>  <SCORE>
-1.9887

>  <SCORE.INTER>
-2.75645

>  <SCORE.INTER.CONST>
1

>  <SCORE.INTER.POLAR>
0

>  <SCORE.INTER.ROT>
5

>  <SCORE.INTER.SOLV>
10.0997

>  <SCORE.INTER.VDW>
-12.1375

>  <SCORE.INTER.norm>
-0.275645

>  <SCORE.INTRA>
0.767756

>  <SCORE.INTRA.DIHEDRAL>
-1.14509

>  <SCORE.INTRA.DIHEDRAL.0>
6.00299

>  <SCORE.INTRA.POLAR>
0

>  <SCORE.INTRA.POLAR.0>
0

>  <SCORE.INTRA.REPUL>
0

>  <SCORE.INTRA.REPUL.0>
0

>  <SCORE.INTRA.SOLV>
-0.888881

>  <SCORE.INTRA.SOLV.lig_0>
-39.3257

>  <SCORE.INTRA.VDW>
1.78474

>  <SCORE.INTRA.VDW.0>
-0.734044

>  <SCORE.INTRA.norm>
0.0767756

>  <SCORE.RESTR>
0

>  <SCORE.RESTR.CAVITY>
0

>  <SCORE.RESTR.norm>
0

>  <SCORE.SYSTEM>
0

>  <SCORE.SYSTEM.CONST>
0

>  <SCORE.SYSTEM.DIHEDRAL>
0

>  <SCORE.SYSTEM.SOLV>
0

>  <SCORE.SYSTEM.norm>
0

>  <SCORE.heavy>
10

>  <SCORE.norm>
-0.19887

>  <RMSD>
11.543

$$$$
ligand
 OpenBabel11021811473D
libRbt.so/2013.1/901 2013/11/27
 10  9  0  0  0  0  0  0  0  0999 V2000
   27.3147   14.0240    9.3070 N   0  0  0  0  0  0  0  0  0  0  0  0
   27.1386   14.9688   10.3941 C   0  0  2  0  0  0  0  0  0  0  0  0
   28.4683   15.3416   10.9933 C   0  0  0  0  0  0  0  0  0  0  0  0
   28.6179   16.4922   11.4750 O   0  0  0  0  0  0  0  0  0  0  0  0
   26.2304   14.3595   11.4534 C   0  0  0  0  0  0  0  0  0  0  0  0
   24.9192   14.2228   10.9113 O   0  0  0  0  0  0  0  0  0  0  0  0
   24.0712   13.7259   11.9465 C   0  0  0  0  0  0  0  0  0  0  0  0
   22.6608   13.5762   11.3803 C   0  0  0  0  0  0  0  0  0  0  0  0
   21.7724   13.0325   12.3928 N   0  0  0  0  0  0  0  0  0  0  0  0
   29.1614   14.3948   11.4167 O   0  0  0  0  0  0  0  0  0  0  0  0
  2  1  1  6  0  0  0
  2  5  1  0  0  0  0
  2  3  1  0  0  0  0
  3  4  1  0  0  0  0
  3 10  1  0  0  0  0
  5  6  1  0  0  0  0
  6  7  1  0  0  0  0
  7  8  1  0  0  0  0
  8  9  1  0  0  0  0
M  END
>  <CHROM.1>
-67.39238181,148.55995722,-176.57771744,179.91443164,178.25277470,26.07403665
14.42928095,11.17787894,-0.01713281,-0.33388251,-2.06685623

>  <Name>
ligand

>  <RI>
0

>  <Rbt.Current_Directory>
/home/itssahil/PROJECTS/Mol_Feturizer/New_Systems/rnas/3DJ0

>  <Rbt.Executable>
rbdock ($Id: //depot/dev/client3/rdock/2013.1/src/exe/rbdock.cxx#4 $)

>  <Rbt.Library>
libRbt.so (2013.1, Build901 2013/11/27)

>  <Rbt.Parameter_File>
/export/apps/rDock/src/rDock_2013.1_src/data/scripts/dock_solv.prm

>  <Rbt.Receptor>
prm/blind_docking_60.prm

>  <SCORE>
-5.37249

>  <SCORE.INTER>
-3.37616

>  <SCORE.INTER.CONST>
1

>  <SCORE.INTER.POLAR>
0

>  <SCORE.INTER.ROT>
5

>  <SCORE.INTER.SOLV>
9.41771

>  <SCORE.INTER.VDW>
-12.3233

>  <SCORE.INTER.norm>
-0.337616

>  <SCORE.INTRA>
-1.99633

>  <SCORE.INTRA.DIHEDRAL>
-3.07205

>  <SCORE.INTRA.DIHEDRAL.0>
6.00299

>  <SCORE.INTRA.POLAR>
0

>  <SCORE.INTRA.POLAR.0>
0

>  <SCORE.INTRA.REPUL>
0

>  <SCORE.INTRA.REPUL.0>
0

>  <SCORE.INTRA.SOLV>
-0.911038

>  <SCORE.INTRA.SOLV.lig_0>
-39.3257

>  <SCORE.INTRA.VDW>
-0.00478619

>  <SCORE.INTRA.VDW.0>
-0.734044

>  <SCORE.INTRA.norm>
-0.199633

>  <SCORE.RESTR>
0

>  <SCORE.RESTR.CAVITY>
0

>  <SCORE.RESTR.norm>
0

>  <SCORE.SYSTEM>
0

>  <SCORE.SYSTEM.CONST>
0

>  <SCORE.SYSTEM.DIHEDRAL>
0

>  <SCORE.SYSTEM.SOLV>
0

>  <SCORE.SYSTEM.norm>
0

>  <SCORE.heavy>
10

>  <SCORE.norm>
-0.537249

>  <RMSD>
11.543

$$$$
ligand
 OpenBabel11021811473D
libRbt.so/2013.1/901 2013/11/27
 10  9  0  0  0  0  0  0  0  0999 V2000
   27.1760   13.9784    9.3835 N   0  0  0  0  0  0  0  0  0  0  0  0
   27.0233   14.9341   10.4646 C   0  0  2  0  0  0  0  0  0  0  0  0
   28.3665   15.3236   11.0217 C   0  0  0  0  0  0  0  0  0  0  0  0
   29.1413   14.4223   11.4288 O   0  0  0  0  0  0  0  0  0  0  0  0
   26.1502   14.3300   11.5560 C   0  0  0  0  0  0  0  0  0  0  0  0
   24.8194   14.2022   11.0618 O   0  0  0  0  0  0  0  0  0  0  0  0
   24.0060   13.7116   12.1273 C   0  0  0  0  0  0  0  0  0  0  0  0
   22.5777   13.5585   11.6087 C   0  0  0  0  0  0  0  0  0  0  0  0
   21.7314   12.9855   12.6409 N   0  0  0  0  0  0  0  0  0  0  0  0
   28.8315   16.4085   10.6184 O   0  0  0  0  0  0  0  0  0  0  0  0
  2  1  1  6  0  0  0
  2  5  1  0  0  0  0
  2  3  1  0  0  0  0
  3  4  1  0  0  0  0
  3 10  1  0  0  0  0
  5  6  1  0  0  0  0
  6  7  1  0  0  0  0
  7  8  1  0  0  0  0
  8  9  1  0  0  0  0
M  END
>  <CHROM.1>
-68.54436465,-55.24442277,-176.51624001,-179.53653897,176.64156011,26.02512776
14.40100969,11.19111922,0.18016674,-0.32603720,-1.67516477

>  <Name>
ligand

>  <RI>
0

>  <Rbt.Current_Directory>
/home/itssahil/PROJECTS/Mol_Feturizer/New_Systems/rnas/3DJ0

>  <Rbt.Executable>
rbdock ($Id: //depot/dev/client3/rdock/2013.1/src/exe/rbdock.cxx#4 $)

>  <Rbt.Library>
libRbt.so (2013.1, Build901 2013/11/27)

>  <Rbt.Parameter_File>
/export/apps/rDock/src/rDock_2013.1_src/data/scripts/dock_solv.prm

>  <Rbt.Receptor>
prm/blind_docking_60.prm

>  <SCORE>
-5.58279

>  <SCORE.INTER>
-3.2569

>  <SCORE.INTER.CONST>
1

>  <SCORE.INTER.POLAR>
0

>  <SCORE.INTER.ROT>
5

>  <SCORE.INTER.SOLV>
9.17472

>  <SCORE.INTER.VDW>
-12.1628

>  <SCORE.INTER.norm>
-0.32569

>  <SCORE.INTRA>
-2.32589

>  <SCORE.INTRA.DIHEDRAL>
-3.60205

>  <SCORE.INTRA.DIHEDRAL.0>
6.00299

>  <SCORE.INTRA.POLAR>
0

>  <SCORE.INTRA.POLAR.0>
0

>  <SCORE.INTRA.REPUL>
0

>  <SCORE.INTRA.REPUL.0>
0

>  <SCORE.INTRA.SOLV>
-0.762507

>  <SCORE.INTRA.SOLV.lig_0>
-39.3257

>  <SCORE.INTRA.VDW>
-0.143611

>  <SCORE.INTRA.VDW.0>
-0.734044

>  <SCORE.INTRA.norm>
-0.232589

>  <SCORE.RESTR>
0

>  <SCORE.RESTR.CAVITY>
0

>  <SCORE.RESTR.norm>
0

>  <SCORE.SYSTEM>
0

>  <SCORE.SYSTEM.CONST>
0

>  <SCORE.SYSTEM.DIHEDRAL>
0

>  <SCORE.SYSTEM.SOLV>
0

>  <SCORE.SYSTEM.norm>
0

>  <SCORE.heavy>
10

>  <SCORE.norm>
-0.558279

>  <RMSD>
11.572

$$$$
ligand
 OpenBabel11021811473D
libRbt.so/2013.1/901 2013/11/27
 10  9  0  0  0  0  0  0  0  0999 V2000
   25.9789   22.9205   19.0331 N   0  0  0  0  0  0  0  0  0  0  0  0
   24.8851   23.8169   19.3580 C   0  0  2  0  0  0  0  0  0  0  0  0
   24.7055   24.8481   18.2761 C   0  0  0  0  0  0  0  0  0  0  0  0
   25.0683   24.5718   17.1054 O   0  0  0  0  0  0  0  0  0  0  0  0
   25.1624   24.4917   20.6945 C   0  0  0  0  0  0  0  0  0  0  0  0
   26.3611   25.2550   20.5840 O   0  0  0  0  0  0  0  0  0  0  0  0
   26.5414   25.9600   21.8121 C   0  0  0  0  0  0  0  0  0  0  0  0
   27.8290   26.7751   21.7123 C   0  0  0  0  0  0  0  0  0  0  0  0
   27.7140   27.7606   20.6513 N   0  0  0  0  0  0  0  0  0  0  0  0
   23.8024   25.6875   18.4658 O   0  0  0  0  0  0  0  0  0  0  0  0
  2  1  1  6  0  0  0
  2  5  1  0  0  0  0
  2  3  1  0  0  0  0
  3  4  1  0  0  0  0
  3 10  1  0  0  0  0
  5  6  1  0  0  0  0
  6  7  1  0  0  0  0
  7  8  1  0  0  0  0
  8  9  1  0  0  0  0
M  END
>  <CHROM.1>
61.36191759,26.46847010,175.48209193,179.58161910,62.55530065,25.78875633
25.21940309,19.73939499,-2.93160269,-0.97597216,-0.38869331

>  <Name>
ligand

>  <RI>
0

>  <Rbt.Current_Directory>
/home/itssahil/PROJECTS/Mol_Feturizer/New_Systems/rnas/3DJ0

>  <Rbt.Executable>
rbdock ($Id: //depot/dev/client3/rdock/2013.1/src/exe/rbdock.cxx#4 $)

>  <Rbt.Library>
libRbt.so (2013.1, Build901 2013/11/27)

>  <Rbt.Parameter_File>
/export/apps/rDock/src/rDock_2013.1_src/data/scripts/dock_solv.prm

>  <Rbt.Receptor>
prm/blind_docking_60.prm

>  <SCORE>
-2.27032

>  <SCORE.INTER>
-1.11984

>  <SCORE.INTER.CONST>
1

>  <SCORE.INTER.POLAR>
0

>  <SCORE.INTER.ROT>
5

>  <SCORE.INTER.SOLV>
8.92478

>  <SCORE.INTER.VDW>
-10.6548

>  <SCORE.INTER.norm>
-0.111984

>  <SCORE.INTRA>
-1.15047

>  <SCORE.INTRA.DIHEDRAL>
-3.1667

>  <SCORE.INTRA.DIHEDRAL.0>
6.00299

>  <SCORE.INTRA.POLAR>
0

>  <SCORE.INTRA.POLAR.0>
0

>  <SCORE.INTRA.REPUL>
0

>  <SCORE.INTRA.REPUL.0>
0

>  <SCORE.INTRA.SOLV>
0.658309

>  <SCORE.INTRA.SOLV.lig_0>
-39.3257

>  <SCORE.INTRA.VDW>
0.103723

>  <SCORE.INTRA.VDW.0>
-0.734044

>  <SCORE.INTRA.norm>
-0.115047

>  <SCORE.RESTR>
0

>  <SCORE.RESTR.CAVITY>
0

>  <SCORE.RESTR.norm>
0

>  <SCORE.SYSTEM>
0

>  <SCORE.SYSTEM.CONST>
0

>  <SCORE.SYSTEM.DIHEDRAL>
0

>  <SCORE.SYSTEM.SOLV>
0

>  <SCORE.SYSTEM.norm>
0

>  <SCORE.heavy>
10

>  <SCORE.norm>
-0.227032

>  <RMSD>
11.576

$$$$
ligand
 OpenBabel11021811473D
libRbt.so/2013.1/901 2013/11/27
 10  9  0  0  0  0  0  0  0  0999 V2000
   27.6432   14.3475   12.3419 N   0  0  0  0  0  0  0  0  0  0  0  0
   27.6359   14.3327   10.8910 C   0  0  2  0  0  0  0  0  0  0  0  0
   28.5514   15.3957   10.3452 C   0  0  0  0  0  0  0  0  0  0  0  0
   28.5852   16.5181   10.9087 O   0  0  0  0  0  0  0  0  0  0  0  0
   26.2145   14.5465   10.3888 C   0  0  0  0  0  0  0  0  0  0  0  0
   25.3539   13.6101   11.0324 O   0  0  0  0  0  0  0  0  0  0  0  0
   24.0179   13.8905   10.6151 C   0  0  0  0  0  0  0  0  0  0  0  0
   23.0710   12.9828   11.3972 C   0  0  0  0  0  0  0  0  0  0  0  0
   23.1426   13.2910   12.8149 N   0  0  0  0  0  0  0  0  0  0  0  0
   29.5451   14.9879    9.7107 O   0  0  0  0  0  0  0  0  0  0  0  0
  2  1  1  1  0  0  0
  2  5  1  0  0  0  0
  2  3  1  0  0  0  0
  3  4  1  0  0  0  0
  3 10  1  0  0  0  0
  5  6  1  0  0  0  0
  6  7  1  0  0  0  0
  7  8  1  0  0  0  0
  8  9  1  0  0  0  0
M  END
>  <CHROM.1>
-52.03472651,-39.86199008,176.10590063,-174.69274777,63.53426973,26.41193537
14.41042774,11.02983327,-0.20377775,0.37976255,1.55509689

>  <Name>
ligand

>  <RI>
0

>  <Rbt.Current_Directory>
/home/itssahil/PROJECTS/Mol_Feturizer/New_Systems/rnas/3DJ0

>  <Rbt.Executable>
rbdock ($Id: //depot/dev/client3/rdock/2013.1/src/exe/rbdock.cxx#4 $)

>  <Rbt.Library>
libRbt.so (2013.1, Build901 2013/11/27)

>  <Rbt.Parameter_File>
/export/apps/rDock/src/rDock_2013.1_src/data/scripts/dock_solv.prm

>  <Rbt.Receptor>
prm/blind_docking_40.prm

>  <SCORE>
-4.43311

>  <SCORE.INTER>
-2.76836

>  <SCORE.INTER.CONST>
1

>  <SCORE.INTER.POLAR>
0

>  <SCORE.INTER.ROT>
5

>  <SCORE.INTER.SOLV>
14.6521

>  <SCORE.INTER.VDW>
-13.6629

>  <SCORE.INTER.norm>
-0.276836

>  <SCORE.INTRA>
-1.66621

>  <SCORE.INTRA.DIHEDRAL>
-3.46658

>  <SCORE.INTRA.DIHEDRAL.0>
6.00299

>  <SCORE.INTRA.POLAR>
0

>  <SCORE.INTRA.POLAR.0>
0

>  <SCORE.INTRA.REPUL>
0

>  <SCORE.INTRA.REPUL.0>
0

>  <SCORE.INTRA.SOLV>
0.539069

>  <SCORE.INTRA.SOLV.lig_0>
-39.3257

>  <SCORE.INTRA.VDW>
-0.202453

>  <SCORE.INTRA.VDW.0>
-0.734044

>  <SCORE.INTRA.norm>
-0.166621

>  <SCORE.RESTR>
0.00145825

>  <SCORE.RESTR.CAVITY>
0.00145825

>  <SCORE.RESTR.norm>
0.000145825

>  <SCORE.SYSTEM>
0

>  <SCORE.SYSTEM.CONST>
0

>  <SCORE.SYSTEM.DIHEDRAL>
0

>  <SCORE.SYSTEM.SOLV>
0

>  <SCORE.SYSTEM.norm>
0

>  <SCORE.heavy>
10

>  <SCORE.norm>
-0.443311

>  <RMSD>
11.587

$$$$
ligand
 OpenBabel11021811473D
libRbt.so/2013.1/901 2013/11/27
 10  9  0  0  0  0  0  0  0  0999 V2000
   27.5533   14.4136   12.3699 N   0  0  0  0  0  0  0  0  0  0  0  0
   27.5701   14.3635   10.9198 C   0  0  2  0  0  0  0  0  0  0  0  0
   28.4736   15.4309   10.3628 C   0  0  0  0  0  0  0  0  0  0  0  0
   28.5696   16.5259   10.9713 O   0  0  0  0  0  0  0  0  0  0  0  0
   26.1532   14.5369   10.3900 C   0  0  0  0  0  0  0  0  0  0  0  0
   25.2899   13.6402   11.0845 O   0  0  0  0  0  0  0  0  0  0  0  0
   23.9606   13.8676   10.6166 C   0  0  0  0  0  0  0  0  0  0  0  0
   23.0077   13.0059   11.4423 C   0  0  0  0  0  0  0  0  0  0  0  0
   23.0176   13.4400   12.8285 N   0  0  0  0  0  0  0  0  0  0  0  0
   29.4148   15.0318    9.6479 O   0  0  0  0  0  0  0  0  0  0  0  0
  2  1  1  1  0  0  0
  2  5  1  0  0  0  0
  2  3  1  0  0  0  0
  3  4  1  0  0  0  0
  3 10  1  0  0  0  0
  5  6  1  0  0  0  0
  6  7  1  0  0  0  0
  7  8  1  0  0  0  0
  8  9  1  0  0  0  0
M  END
>  <CHROM.1>
-49.50645390,-33.33439248,177.23710658,-174.85727654,64.83415987,26.33707178
14.44547302,11.04848642,-0.16863169,0.39441394,1.45171652

>  <Name>
ligand

>  <RI>
0

>  <Rbt.Current_Directory>
/home/itssahil/PROJECTS/Mol_Feturizer/New_Systems/rnas/3DJ0

>  <Rbt.Executable>
rbdock ($Id: //depot/dev/client3/rdock/2013.1/src/exe/rbdock.cxx#4 $)

>  <Rbt.Library>
libRbt.so (2013.1, Build901 2013/11/27)

>  <Rbt.Parameter_File>
/export/apps/rDock/src/rDock_2013.1_src/data/scripts/dock_solv.prm

>  <Rbt.Receptor>
prm/blind_docking_40.prm

>  <SCORE>
-4.39324

>  <SCORE.INTER>
-2.88656

>  <SCORE.INTER.CONST>
1

>  <SCORE.INTER.POLAR>
0

>  <SCORE.INTER.ROT>
5

>  <SCORE.INTER.SOLV>
14.301

>  <SCORE.INTER.VDW>
-13.6247

>  <SCORE.INTER.norm>
-0.288656

>  <SCORE.INTRA>
-1.50668

>  <SCORE.INTRA.DIHEDRAL>
-3.23411

>  <SCORE.INTRA.DIHEDRAL.0>
6.00299

>  <SCORE.INTRA.POLAR>
0

>  <SCORE.INTRA.POLAR.0>
0

>  <SCORE.INTRA.REPUL>
0

>  <SCORE.INTRA.REPUL.0>
0

>  <SCORE.INTRA.SOLV>
0.533299

>  <SCORE.INTRA.SOLV.lig_0>
-39.3257

>  <SCORE.INTRA.VDW>
-0.156273

>  <SCORE.INTRA.VDW.0>
-0.734044

>  <SCORE.INTRA.norm>
-0.150668

>  <SCORE.RESTR>
0

>  <SCORE.RESTR.CAVITY>
0

>  <SCORE.RESTR.norm>
0

>  <SCORE.SYSTEM>
0

>  <SCORE.SYSTEM.CONST>
0

>  <SCORE.SYSTEM.DIHEDRAL>
0

>  <SCORE.SYSTEM.SOLV>
0

>  <SCORE.SYSTEM.norm>
0

>  <SCORE.heavy>
10

>  <SCORE.norm>
-0.439324

>  <RMSD>
11.597

$$$$
ligand
 OpenBabel11021811473D
libRbt.so/2013.1/901 2013/11/27
 10  9  0  0  0  0  0  0  0  0999 V2000
   26.0789   22.9442   18.9720 N   0  0  0  0  0  0  0  0  0  0  0  0
   24.9479   23.7780   19.3341 C   0  0  2  0  0  0  0  0  0  0  0  0
   24.6939   24.8166   18.2743 C   0  0  0  0  0  0  0  0  0  0  0  0
   23.7893   25.6682   18.4608 O   0  0  0  0  0  0  0  0  0  0  0  0
   25.2178   24.4437   20.6766 C   0  0  0  0  0  0  0  0  0  0  0  0
   26.3553   25.2929   20.5480 O   0  0  0  0  0  0  0  0  0  0  0  0
   26.5099   26.0006   21.7781 C   0  0  0  0  0  0  0  0  0  0  0  0
   27.6906   26.9585   21.6349 C   0  0  0  0  0  0  0  0  0  0  0  0
   27.7927   27.8032   22.8123 N   0  0  0  0  0  0  0  0  0  0  0  0
   25.6590   25.0865   17.5315 O   0  0  0  0  0  0  0  0  0  0  0  0
  2  1  1  6  0  0  0
  2  5  1  0  0  0  0
  2  3  1  0  0  0  0
  3  4  1  0  0  0  0
  3 10  1  0  0  0  0
  5  6  1  0  0  0  0
  6  7  1  0  0  0  0
  7  8  1  0  0  0  0
  8  9  1  0  0  0  0
M  END
>  <CHROM.1>
62.68480233,-176.44719635,174.52761816,-177.65474975,173.79121242,25.86308877
25.29582012,19.97131909,-2.55070015,-0.95407980,0.09113505

>  <Name>
ligand

>  <RI>
0

>  <Rbt.Current_Directory>
/home/itssahil/PROJECTS/Mol_Feturizer/New_Systems/rnas/3DJ0

>  <Rbt.Executable>
rbdock ($Id: //depot/dev/client3/rdock/2013.1/src/exe/rbdock.cxx#4 $)

>  <Rbt.Library>
libRbt.so (2013.1, Build901 2013/11/27)

>  <Rbt.Parameter_File>
/export/apps/rDock/src/rDock_2013.1_src/data/scripts/dock_solv.prm

>  <Rbt.Receptor>
prm/blind_docking_80.prm

>  <SCORE>
-2.36696

>  <SCORE.INTER>
-0.617302

>  <SCORE.INTER.CONST>
1

>  <SCORE.INTER.POLAR>
0

>  <SCORE.INTER.ROT>
5

>  <SCORE.INTER.SOLV>
9.20646

>  <SCORE.INTER.VDW>
-10.4137

>  <SCORE.INTER.norm>
-0.0617302

>  <SCORE.INTRA>
-1.74966

>  <SCORE.INTRA.DIHEDRAL>
-3.60223

>  <SCORE.INTRA.DIHEDRAL.0>
6.00299

>  <SCORE.INTRA.POLAR>
0

>  <SCORE.INTRA.POLAR.0>
0

>  <SCORE.INTRA.REPUL>
0

>  <SCORE.INTRA.REPUL.0>
0

>  <SCORE.INTRA.SOLV>
-0.193812

>  <SCORE.INTRA.SOLV.lig_0>
-39.3257

>  <SCORE.INTRA.VDW>
0.148364

>  <SCORE.INTRA.VDW.0>
-0.734044

>  <SCORE.INTRA.norm>
-0.174966

>  <SCORE.RESTR>
0

>  <SCORE.RESTR.CAVITY>
0

>  <SCORE.RESTR.norm>
0

>  <SCORE.SYSTEM>
0

>  <SCORE.SYSTEM.CONST>
0

>  <SCORE.SYSTEM.DIHEDRAL>
0

>  <SCORE.SYSTEM.SOLV>
0

>  <SCORE.SYSTEM.norm>
0

>  <SCORE.heavy>
10

>  <SCORE.norm>
-0.236696

>  <RMSD>
11.597

$$$$
ligand
 OpenBabel11021811473D
libRbt.so/2013.1/901 2013/11/27
 10  9  0  0  0  0  0  0  0  0999 V2000
   27.0758   14.0006    9.0532 N   0  0  0  0  0  0  0  0  0  0  0  0
   27.0658   14.9278   10.1693 C   0  0  2  0  0  0  0  0  0  0  0  0
   28.4706   15.2484   10.6050 C   0  0  0  0  0  0  0  0  0  0  0  0
   29.4063   15.1361    9.7742 O   0  0  0  0  0  0  0  0  0  0  0  0
   26.2763   14.3242   11.3229 C   0  0  0  0  0  0  0  0  0  0  0  0
   24.9128   14.1943   10.9284 O   0  0  0  0  0  0  0  0  0  0  0  0
   24.1664   13.7852   12.0744 C   0  0  0  0  0  0  0  0  0  0  0  0
   22.7042   13.6281   11.6630 C   0  0  0  0  0  0  0  0  0  0  0  0
   21.9042   13.2304   12.8085 N   0  0  0  0  0  0  0  0  0  0  0  0
   28.5784   16.0438   11.5599 O   0  0  0  0  0  0  0  0  0  0  0  0
  2  1  1  6  0  0  0
  2  5  1  0  0  0  0
  2  3  1  0  0  0  0
  3  4  1  0  0  0  0
  3 10  1  0  0  0  0
  5  6  1  0  0  0  0
  6  7  1  0  0  0  0
  7  8  1  0  0  0  0
  8  9  1  0  0  0  0
M  END
>  <CHROM.1>
-65.37304166,25.06199599,-172.92057536,-179.43825120,-179.16542941,26.09730401
14.47086035,10.99450130,0.16167814,-0.37879244,-1.97350170

>  <Name>
ligand

>  <RI>
0

>  <Rbt.Current_Directory>
/home/itssahil/PROJECTS/Mol_Feturizer/New_Systems/rnas/3DJ0

>  <Rbt.Executable>
rbdock ($Id: //depot/dev/client3/rdock/2013.1/src/exe/rbdock.cxx#4 $)

>  <Rbt.Library>
libRbt.so (2013.1, Build901 2013/11/27)

>  <Rbt.Parameter_File>
/export/apps/rDock/src/rDock_2013.1_src/data/scripts/dock_solv.prm

>  <Rbt.Receptor>
prm/blind_docking_100.prm

>  <SCORE>
-5.21709

>  <SCORE.INTER>
-3.51272

>  <SCORE.INTER.CONST>
1

>  <SCORE.INTER.POLAR>
0

>  <SCORE.INTER.ROT>
5

>  <SCORE.INTER.SOLV>
8.7283

>  <SCORE.INTER.VDW>
-12.1846

>  <SCORE.INTER.norm>
-0.351272

>  <SCORE.INTRA>
-1.70437

>  <SCORE.INTRA.DIHEDRAL>
-2.93261

>  <SCORE.INTRA.DIHEDRAL.0>
6.00299

>  <SCORE.INTRA.POLAR>
0

>  <SCORE.INTRA.POLAR.0>
0

>  <SCORE.INTRA.REPUL>
0

>  <SCORE.INTRA.REPUL.0>
0

>  <SCORE.INTRA.SOLV>
-0.856466

>  <SCORE.INTRA.SOLV.lig_0>
-39.3257

>  <SCORE.INTRA.VDW>
0.19017

>  <SCORE.INTRA.VDW.0>
-0.734044

>  <SCORE.INTRA.norm>
-0.170437

>  <SCORE.RESTR>
0

>  <SCORE.RESTR.CAVITY>
0

>  <SCORE.RESTR.norm>
0

>  <SCORE.SYSTEM>
0

>  <SCORE.SYSTEM.CONST>
0

>  <SCORE.SYSTEM.DIHEDRAL>
0

>  <SCORE.SYSTEM.SOLV>
0

>  <SCORE.SYSTEM.norm>
0

>  <SCORE.heavy>
10

>  <SCORE.norm>
-0.521709

>  <RMSD>
11.715

$$$$
ligand
 OpenBabel11021811473D
libRbt.so/2013.1/901 2013/11/27
 10  9  0  0  0  0  0  0  0  0999 V2000
   24.7642   22.4146   19.5485 N   0  0  0  0  0  0  0  0  0  0  0  0
   24.6082   23.8354   19.7987 C   0  0  2  0  0  0  0  0  0  0  0  0
   24.5968   24.6037   18.5043 C   0  0  0  0  0  0  0  0  0  0  0  0
   24.2397   25.8082   18.5143 O   0  0  0  0  0  0  0  0  0  0  0  0
   25.7404   24.3198   20.6942 C   0  0  0  0  0  0  0  0  0  0  0  0
   25.5291   25.6963   20.9982 O   0  0  0  0  0  0  0  0  0  0  0  0
   26.6081   26.1283   21.8270 C   0  0  0  0  0  0  0  0  0  0  0  0
   26.3750   27.5926   22.1928 C   0  0  0  0  0  0  0  0  0  0  0  0
   27.4523   28.0720   23.0410 N   0  0  0  0  0  0  0  0  0  0  0  0
   25.3715   24.1917   17.6175 O   0  0  0  0  0  0  0  0  0  0  0  0
  2  1  1  6  0  0  0
  2  5  1  0  0  0  0
  2  3  1  0  0  0  0
  3  4  1  0  0  0  0
  3 10  1  0  0  0  0
  5  6  1  0  0  0  0
  6  7  1  0  0  0  0
  7  8  1  0  0  0  0
  8  9  1  0  0  0  0
M  END
>  <CHROM.1>
-176.47110915,167.72217385,-179.48198555,-178.46468795,179.86542633,25.52152731
25.27950084,20.23853097,-2.71368797,-1.14972525,-0.27758049

>  <Name>
ligand

>  <RI>
0

>  <Rbt.Current_Directory>
/home/itssahil/PROJECTS/Mol_Feturizer/New_Systems/rnas/3DJ0

>  <Rbt.Executable>
rbdock ($Id: //depot/dev/client3/rdock/2013.1/src/exe/rbdock.cxx#4 $)

>  <Rbt.Library>
libRbt.so (2013.1, Build901 2013/11/27)

>  <Rbt.Parameter_File>
/export/apps/rDock/src/rDock_2013.1_src/data/scripts/dock_solv.prm

>  <Rbt.Receptor>
prm/blind_docking_100.prm

>  <SCORE>
-2.09042

>  <SCORE.INTER>
0.329567

>  <SCORE.INTER.CONST>
1

>  <SCORE.INTER.POLAR>
0

>  <SCORE.INTER.ROT>
5

>  <SCORE.INTER.SOLV>
11.8843

>  <SCORE.INTER.VDW>
-10.6751

>  <SCORE.INTER.norm>
0.0329567

>  <SCORE.INTRA>
-2.41999

>  <SCORE.INTRA.DIHEDRAL>
-3.64325

>  <SCORE.INTRA.DIHEDRAL.0>
6.00299

>  <SCORE.INTRA.POLAR>
0

>  <SCORE.INTRA.POLAR.0>
0

>  <SCORE.INTRA.REPUL>
0

>  <SCORE.INTRA.REPUL.0>
0

>  <SCORE.INTRA.SOLV>
-1.17807

>  <SCORE.INTRA.SOLV.lig_0>
-39.3257

>  <SCORE.INTRA.VDW>
-0.00932839

>  <SCORE.INTRA.VDW.0>
-0.734044

>  <SCORE.INTRA.norm>
-0.241999

>  <SCORE.RESTR>
0

>  <SCORE.RESTR.CAVITY>
0

>  <SCORE.RESTR.norm>
0

>  <SCORE.SYSTEM>
0

>  <SCORE.SYSTEM.CONST>
0

>  <SCORE.SYSTEM.DIHEDRAL>
0

>  <SCORE.SYSTEM.SOLV>
0

>  <SCORE.SYSTEM.norm>
0

>  <SCORE.heavy>
10

>  <SCORE.norm>
-0.209042

>  <RMSD>
11.732

$$$$
ligand
 OpenBabel11021811473D
libRbt.so/2013.1/901 2013/11/27
 10  9  0  0  0  0  0  0  0  0999 V2000
   24.6954   22.4087   19.5821 N   0  0  0  0  0  0  0  0  0  0  0  0
   24.5522   23.8315   19.8286 C   0  0  2  0  0  0  0  0  0  0  0  0
   24.5808   24.5994   18.5342 C   0  0  0  0  0  0  0  0  0  0  0  0
   24.1489   25.7790   18.5164 O   0  0  0  0  0  0  0  0  0  0  0  0
   25.6694   24.3015   20.7502 C   0  0  0  0  0  0  0  0  0  0  0  0
   25.4842   25.6874   21.0271 O   0  0  0  0  0  0  0  0  0  0  0  0
   26.5734   26.1160   21.8443 C   0  0  0  0  0  0  0  0  0  0  0  0
   26.3681   27.5912   22.1816 C   0  0  0  0  0  0  0  0  0  0  0  0
   27.4486   28.0636   23.0297 N   0  0  0  0  0  0  0  0  0  0  0  0
   25.4386   24.2382   17.7035 O   0  0  0  0  0  0  0  0  0  0  0  0
  2  1  1  6  0  0  0
  2  5  1  0  0  0  0
  2  3  1  0  0  0  0
  3  4  1  0  0  0  0
  3 10  1  0  0  0  0
  5  6  1  0  0  0  0
  6  7  1  0  0  0  0
  7  8  1  0  0  0  0
  8  9  1  0  0  0  0
M  END
>  <CHROM.1>
-177.64602290,162.66335403,-177.56871905,-178.45457564,179.22823578,25.48940455
25.27519216,20.26514097,-2.74901917,-1.14795826,-0.32101422

>  <Name>
ligand

>  <RI>
0

>  <Rbt.Current_Directory>
/home/itssahil/PROJECTS/Mol_Feturizer/New_Systems/rnas/3DJ0

>  <Rbt.Executable>
rbdock ($Id: //depot/dev/client3/rdock/2013.1/src/exe/rbdock.cxx#4 $)

>  <Rbt.Library>
libRbt.so (2013.1, Build901 2013/11/27)

>  <Rbt.Parameter_File>
/export/apps/rDock/src/rDock_2013.1_src/data/scripts/dock_solv.prm

>  <Rbt.Receptor>
prm/blind_docking_80.prm

>  <SCORE>
-2.06829

>  <SCORE.INTER>
0.353803

>  <SCORE.INTER.CONST>
1

>  <SCORE.INTER.POLAR>
0

>  <SCORE.INTER.ROT>
5

>  <SCORE.INTER.SOLV>
12.169

>  <SCORE.INTER.VDW>
-10.7538

>  <SCORE.INTER.norm>
0.0353803

>  <SCORE.INTRA>
-2.4221

>  <SCORE.INTRA.DIHEDRAL>
-3.53511

>  <SCORE.INTRA.DIHEDRAL.0>
6.00299

>  <SCORE.INTRA.POLAR>
0

>  <SCORE.INTRA.POLAR.0>
0

>  <SCORE.INTRA.REPUL>
0

>  <SCORE.INTRA.REPUL.0>
0

>  <SCORE.INTRA.SOLV>
-1.19542

>  <SCORE.INTRA.SOLV.lig_0>
-39.3257

>  <SCORE.INTRA.VDW>
-0.0568297

>  <SCORE.INTRA.VDW.0>
-0.734044

>  <SCORE.INTRA.norm>
-0.24221

>  <SCORE.RESTR>
0

>  <SCORE.RESTR.CAVITY>
0

>  <SCORE.RESTR.norm>
0

>  <SCORE.SYSTEM>
0

>  <SCORE.SYSTEM.CONST>
0

>  <SCORE.SYSTEM.DIHEDRAL>
0

>  <SCORE.SYSTEM.SOLV>
0

>  <SCORE.SYSTEM.norm>
0

>  <SCORE.heavy>
10

>  <SCORE.norm>
-0.206829

>  <RMSD>
11.738

$$$$
ligand
 OpenBabel11021811473D
libRbt.so/2013.1/901 2013/11/27
 10  9  0  0  0  0  0  0  0  0999 V2000
   27.1034   13.9951    9.0309 N   0  0  0  0  0  0  0  0  0  0  0  0
   27.0649   14.9285   10.1412 C   0  0  2  0  0  0  0  0  0  0  0  0
   28.4587   15.2639   10.6004 C   0  0  0  0  0  0  0  0  0  0  0  0
   29.4153   15.1183    9.7992 O   0  0  0  0  0  0  0  0  0  0  0  0
   26.2598   14.3245   11.2837 C   0  0  0  0  0  0  0  0  0  0  0  0
   24.9043   14.1830   10.8663 O   0  0  0  0  0  0  0  0  0  0  0  0
   24.1483   13.7349   11.9912 C   0  0  0  0  0  0  0  0  0  0  0  0
   22.6965   13.5560   11.5525 C   0  0  0  0  0  0  0  0  0  0  0  0
   21.8823   13.1401   12.6813 N   0  0  0  0  0  0  0  0  0  0  0  0
   28.5435   16.0958   11.5262 O   0  0  0  0  0  0  0  0  0  0  0  0
  2  1  1  6  0  0  0
  2  5  1  0  0  0  0
  2  3  1  0  0  0  0
  3  4  1  0  0  0  0
  3 10  1  0  0  0  0
  5  6  1  0  0  0  0
  6  7  1  0  0  0  0
  7  8  1  0  0  0  0
  8  9  1  0  0  0  0
M  END
>  <CHROM.1>
-65.50062984,23.02059659,-174.63887267,-179.06171855,-178.20702792,26.08875084
14.45366710,10.94647230,0.13185493,-0.38608997,-1.99622044

>  <Name>
ligand

>  <RI>
0

>  <Rbt.Current_Directory>
/home/itssahil/PROJECTS/Mol_Feturizer/New_Systems/rnas/3DJ0

>  <Rbt.Executable>
rbdock ($Id: //depot/dev/client3/rdock/2013.1/src/exe/rbdock.cxx#4 $)

>  <Rbt.Library>
libRbt.so (2013.1, Build901 2013/11/27)

>  <Rbt.Parameter_File>
/export/apps/rDock/src/rDock_2013.1_src/data/scripts/dock_solv.prm

>  <Rbt.Receptor>
prm/blind_docking_40.prm

>  <SCORE>
-5.23563

>  <SCORE.INTER>
-3.47646

>  <SCORE.INTER.CONST>
1

>  <SCORE.INTER.POLAR>
0

>  <SCORE.INTER.ROT>
5

>  <SCORE.INTER.SOLV>
8.79102

>  <SCORE.INTER.VDW>
-12.1813

>  <SCORE.INTER.norm>
-0.347646

>  <SCORE.INTRA>
-1.75917

>  <SCORE.INTRA.DIHEDRAL>
-2.99468

>  <SCORE.INTRA.DIHEDRAL.0>
6.00299

>  <SCORE.INTRA.POLAR>
0

>  <SCORE.INTRA.POLAR.0>
0

>  <SCORE.INTRA.REPUL>
0

>  <SCORE.INTRA.REPUL.0>
0

>  <SCORE.INTRA.SOLV>
-0.848509

>  <SCORE.INTRA.SOLV.lig_0>
-39.3257

>  <SCORE.INTRA.VDW>
0.162422

>  <SCORE.INTRA.VDW.0>
-0.734044

>  <SCORE.INTRA.norm>
-0.175917

>  <SCORE.RESTR>
0

>  <SCORE.RESTR.CAVITY>
0

>  <SCORE.RESTR.norm>
0

>  <SCORE.SYSTEM>
0

>  <SCORE.SYSTEM.CONST>
0

>  <SCORE.SYSTEM.DIHEDRAL>
0

>  <SCORE.SYSTEM.SOLV>
0

>  <SCORE.SYSTEM.norm>
0

>  <SCORE.heavy>
10

>  <SCORE.norm>
-0.523563

>  <RMSD>
11.758

$$$$
ligand
 OpenBabel11021811473D
libRbt.so/2013.1/901 2013/11/27
 10  9  0  0  0  0  0  0  0  0999 V2000
   24.7247   22.5069   19.5088 N   0  0  0  0  0  0  0  0  0  0  0  0
   24.6377   23.9403   19.7169 C   0  0  2  0  0  0  0  0  0  0  0  0
   24.7845   24.6754   18.4114 C   0  0  0  0  0  0  0  0  0  0  0  0
   25.2959   24.0791   17.4310 O   0  0  0  0  0  0  0  0  0  0  0  0
   25.7180   24.3769   20.6970 C   0  0  0  0  0  0  0  0  0  0  0  0
   25.5650   25.7696   20.9593 O   0  0  0  0  0  0  0  0  0  0  0  0
   26.6044   26.1590   21.8568 C   0  0  0  0  0  0  0  0  0  0  0  0
   26.4326   27.6428   22.1744 C   0  0  0  0  0  0  0  0  0  0  0  0
   27.4887   28.0870   23.0674 N   0  0  0  0  0  0  0  0  0  0  0  0
   23.9865   25.6152   18.2209 O   0  0  0  0  0  0  0  0  0  0  0  0
  2  1  1  6  0  0  0
  2  5  1  0  0  0  0
  2  3  1  0  0  0  0
  3  4  1  0  0  0  0
  3 10  1  0  0  0  0
  5  6  1  0  0  0  0
  6  7  1  0  0  0  0
  7  8  1  0  0  0  0
  8  9  1  0  0  0  0
M  END
>  <CHROM.1>
-176.21922625,-18.60624419,-178.80207202,-178.61859416,-178.90778696,25.51139675
25.29352784,20.16525061,-2.73089168,-1.14522818,-0.25843094

>  <Name>
ligand

>  <RI>
0

>  <Rbt.Current_Directory>
/home/itssahil/PROJECTS/Mol_Feturizer/New_Systems/rnas/3DJ0

>  <Rbt.Executable>
rbdock ($Id: //depot/dev/client3/rdock/2013.1/src/exe/rbdock.cxx#4 $)

>  <Rbt.Library>
libRbt.so (2013.1, Build901 2013/11/27)

>  <Rbt.Parameter_File>
/export/apps/rDock/src/rDock_2013.1_src/data/scripts/dock_solv.prm

>  <Rbt.Receptor>
prm/blind_docking_100.prm

>  <SCORE>
-2.36908

>  <SCORE.INTER>
0.188041

>  <SCORE.INTER.CONST>
1

>  <SCORE.INTER.POLAR>
0

>  <SCORE.INTER.ROT>
5

>  <SCORE.INTER.SOLV>
11.8124

>  <SCORE.INTER.VDW>
-10.7454

>  <SCORE.INTER.norm>
0.0188041

>  <SCORE.INTRA>
-2.55712

>  <SCORE.INTRA.DIHEDRAL>
-3.53764

>  <SCORE.INTRA.DIHEDRAL.0>
6.00299

>  <SCORE.INTRA.POLAR>
0

>  <SCORE.INTRA.POLAR.0>
0

>  <SCORE.INTRA.REPUL>
0

>  <SCORE.INTRA.REPUL.0>
0

>  <SCORE.INTRA.SOLV>
-1.28538

>  <SCORE.INTRA.SOLV.lig_0>
-39.3257

>  <SCORE.INTRA.VDW>
-0.145611

>  <SCORE.INTRA.VDW.0>
-0.734044

>  <SCORE.INTRA.norm>
-0.255712

>  <SCORE.RESTR>
0

>  <SCORE.RESTR.CAVITY>
0

>  <SCORE.RESTR.norm>
0

>  <SCORE.SYSTEM>
0

>  <SCORE.SYSTEM.CONST>
0

>  <SCORE.SYSTEM.DIHEDRAL>
0

>  <SCORE.SYSTEM.SOLV>
0

>  <SCORE.SYSTEM.norm>
0

>  <SCORE.heavy>
10

>  <SCORE.norm>
-0.236908

>  <RMSD>
11.783

$$$$
ligand
 OpenBabel11021811473D
libRbt.so/2013.1/901 2013/11/27
 10  9  0  0  0  0  0  0  0  0999 V2000
   27.4481   14.2692    9.0202 N   0  0  0  0  0  0  0  0  0  0  0  0
   26.6177   14.5807   10.1686 C   0  0  2  0  0  0  0  0  0  0  0  0
   27.4488   14.6458   11.4220 C   0  0  0  0  0  0  0  0  0  0  0  0
   28.0094   13.6003   11.8357 O   0  0  0  0  0  0  0  0  0  0  0  0
   25.5282   13.5262   10.3076 C   0  0  0  0  0  0  0  0  0  0  0  0
   24.6280   13.9282   11.3370 O   0  0  0  0  0  0  0  0  0  0  0  0
   23.6601   12.8912   11.4966 C   0  0  0  0  0  0  0  0  0  0  0  0
   22.6723   13.3200   12.5795 C   0  0  0  0  0  0  0  0  0  0  0  0
   21.8538   14.4202   12.1001 N   0  0  0  0  0  0  0  0  0  0  0  0
   27.9307   15.7621   11.7007 O   0  0  0  0  0  0  0  0  0  0  0  0
  2  1  1  6  0  0  0
  2  5  1  0  0  0  0
  2  3  1  0  0  0  0
  3  4  1  0  0  0  0
  3 10  1  0  0  0  0
  5  6  1  0  0  0  0
  6  7  1  0  0  0  0
  7  8  1  0  0  0  0
  8  9  1  0  0  0  0
M  END
>  <CHROM.1>
-173.16103595,-65.14840305,-176.92523148,-178.95183006,69.47276015,25.61204486
14.10086017,11.22015083,0.16183514,-0.24622408,-1.87079370

>  <Name>
ligand

>  <RI>
0

>  <Rbt.Current_Directory>
/home/itssahil/PROJECTS/Mol_Feturizer/New_Systems/rnas/3DJ0

>  <Rbt.Executable>
rbdock ($Id: //depot/dev/client3/rdock/2013.1/src/exe/rbdock.cxx#4 $)

>  <Rbt.Library>
libRbt.so (2013.1, Build901 2013/11/27)

>  <Rbt.Parameter_File>
/export/apps/rDock/src/rDock_2013.1_src/data/scripts/dock_solv.prm

>  <Rbt.Receptor>
prm/blind_docking_60.prm

>  <SCORE>
-3.56821

>  <SCORE.INTER>
-1.68825

>  <SCORE.INTER.CONST>
1

>  <SCORE.INTER.POLAR>
0

>  <SCORE.INTER.ROT>
5

>  <SCORE.INTER.SOLV>
10.1795

>  <SCORE.INTER.VDW>
-11.452

>  <SCORE.INTER.norm>
-0.168825

>  <SCORE.INTRA>
-1.87996

>  <SCORE.INTRA.DIHEDRAL>
-3.27887

>  <SCORE.INTRA.DIHEDRAL.0>
6.00299

>  <SCORE.INTRA.POLAR>
0

>  <SCORE.INTRA.POLAR.0>
0

>  <SCORE.INTRA.REPUL>
0

>  <SCORE.INTRA.REPUL.0>
0

>  <SCORE.INTRA.SOLV>
-0.247465

>  <SCORE.INTRA.SOLV.lig_0>
-39.3257

>  <SCORE.INTRA.VDW>
-0.116788

>  <SCORE.INTRA.VDW.0>
-0.734044

>  <SCORE.INTRA.norm>
-0.187996

>  <SCORE.RESTR>
0

>  <SCORE.RESTR.CAVITY>
0

>  <SCORE.RESTR.norm>
0

>  <SCORE.SYSTEM>
0

>  <SCORE.SYSTEM.CONST>
0

>  <SCORE.SYSTEM.DIHEDRAL>
0

>  <SCORE.SYSTEM.SOLV>
0

>  <SCORE.SYSTEM.norm>
0

>  <SCORE.heavy>
10

>  <SCORE.norm>
-0.356821

>  <RMSD>
11.807

$$$$
ligand
 OpenBabel11021811473D
libRbt.so/2013.1/901 2013/11/27
 10  9  0  0  0  0  0  0  0  0999 V2000
   27.1100   14.0386    8.9190 N   0  0  0  0  0  0  0  0  0  0  0  0
   26.4314   14.5175   10.1087 C   0  0  2  0  0  0  0  0  0  0  0  0
   27.3677   14.5227   11.2874 C   0  0  0  0  0  0  0  0  0  0  0  0
   27.8961   13.4421   11.6500 O   0  0  0  0  0  0  0  0  0  0  0  0
   25.2235   13.6353   10.3934 C   0  0  0  0  0  0  0  0  0  0  0  0
   24.5053   14.1814   11.4969 O   0  0  0  0  0  0  0  0  0  0  0  0
   23.4003   13.3185   11.7654 C   0  0  0  0  0  0  0  0  0  0  0  0
   22.6350   13.8781   12.9626 C   0  0  0  0  0  0  0  0  0  0  0  0
   21.4840   13.0411   13.2538 N   0  0  0  0  0  0  0  0  0  0  0  0
   27.9387   15.6056   11.5269 O   0  0  0  0  0  0  0  0  0  0  0  0
  2  1  1  6  0  0  0
  2  5  1  0  0  0  0
  2  3  1  0  0  0  0
  3  4  1  0  0  0  0
  3 10  1  0  0  0  0
  5  6  1  0  0  0  0
  6  7  1  0  0  0  0
  7  8  1  0  0  0  0
  8  9  1  0  0  0  0
M  END
>  <CHROM.1>
-175.26611737,-59.56532229,-178.49302759,179.00129738,178.89405205,25.43522583
14.02728236,11.35449644,0.32792705,-0.26639025,-1.75207264

>  <Name>
ligand

>  <RI>
0

>  <Rbt.Current_Directory>
/home/itssahil/PROJECTS/Mol_Feturizer/New_Systems/rnas/3DJ0

>  <Rbt.Executable>
rbdock ($Id: //depot/dev/client3/rdock/2013.1/src/exe/rbdock.cxx#4 $)

>  <Rbt.Library>
libRbt.so (2013.1, Build901 2013/11/27)

>  <Rbt.Parameter_File>
/export/apps/rDock/src/rDock_2013.1_src/data/scripts/dock_solv.prm

>  <Rbt.Receptor>
prm/blind_docking_40.prm

>  <SCORE>
-5.11419

>  <SCORE.INTER>
-2.46608

>  <SCORE.INTER.CONST>
1

>  <SCORE.INTER.POLAR>
0

>  <SCORE.INTER.ROT>
5

>  <SCORE.INTER.SOLV>
7.68662

>  <SCORE.INTER.VDW>
-11.1396

>  <SCORE.INTER.norm>
-0.246608

>  <SCORE.INTRA>
-2.64811

>  <SCORE.INTRA.DIHEDRAL>
-3.81083

>  <SCORE.INTRA.DIHEDRAL.0>
6.00299

>  <SCORE.INTRA.POLAR>
0

>  <SCORE.INTRA.POLAR.0>
0

>  <SCORE.INTRA.REPUL>
0

>  <SCORE.INTRA.REPUL.0>
0

>  <SCORE.INTRA.SOLV>
-1.25416

>  <SCORE.INTRA.SOLV.lig_0>
-39.3257

>  <SCORE.INTRA.VDW>
-0.115617

>  <SCORE.INTRA.VDW.0>
-0.734044

>  <SCORE.INTRA.norm>
-0.264811

>  <SCORE.RESTR>
0

>  <SCORE.RESTR.CAVITY>
0

>  <SCORE.RESTR.norm>
0

>  <SCORE.SYSTEM>
0

>  <SCORE.SYSTEM.CONST>
0

>  <SCORE.SYSTEM.DIHEDRAL>
0

>  <SCORE.SYSTEM.SOLV>
0

>  <SCORE.SYSTEM.norm>
0

>  <SCORE.heavy>
10

>  <SCORE.norm>
-0.511419

>  <RMSD>
11.813

$$$$
ligand
 OpenBabel11021811473D
libRbt.so/2013.1/901 2013/11/27
 10  9  0  0  0  0  0  0  0  0999 V2000
   26.8395   13.9371    9.0246 N   0  0  0  0  0  0  0  0  0  0  0  0
   26.1830   14.4372   10.2181 C   0  0  2  0  0  0  0  0  0  0  0  0
   27.1082   14.3618   11.4032 C   0  0  0  0  0  0  0  0  0  0  0  0
   26.8562   15.0588   12.4177 O   0  0  0  0  0  0  0  0  0  0  0  0
   24.9193   13.6287   10.4783 C   0  0  0  0  0  0  0  0  0  0  0  0
   24.2466   14.1783   11.6084 O   0  0  0  0  0  0  0  0  0  0  0  0
   23.0771   13.3935   11.8413 C   0  0  0  0  0  0  0  0  0  0  0  0
   22.3498   13.9660   13.0560 C   0  0  0  0  0  0  0  0  0  0  0  0
   21.1154   13.2361   13.2875 N   0  0  0  0  0  0  0  0  0  0  0  0
   27.7606   13.3051   11.5207 O   0  0  0  0  0  0  0  0  0  0  0  0
  2  1  1  6  0  0  0
  2  5  1  0  0  0  0
  2  3  1  0  0  0  0
  3  4  1  0  0  0  0
  3 10  1  0  0  0  0
  5  6  1  0  0  0  0
  6  7  1  0  0  0  0
  7  8  1  0  0  0  0
  8  9  1  0  0  0  0
M  END
>  <CHROM.1>
-176.78170018,161.29314653,-179.26040039,179.65471872,177.14312203,25.07450594
13.95352720,11.51001772,0.35794400,-0.17290874,-1.74524698

>  <Name>
ligand

>  <RI>
0

>  <Rbt.Current_Directory>
/home/itssahil/PROJECTS/Mol_Feturizer/New_Systems/rnas/3DJ0

>  <Rbt.Executable>
rbdock ($Id: //depot/dev/client3/rdock/2013.1/src/exe/rbdock.cxx#4 $)

>  <Rbt.Library>
libRbt.so (2013.1, Build901 2013/11/27)

>  <Rbt.Parameter_File>
/export/apps/rDock/src/rDock_2013.1_src/data/scripts/dock_solv.prm

>  <Rbt.Receptor>
prm/blind_docking_60.prm

>  <SCORE>
-4.27313

>  <SCORE.INTER>
-1.83942

>  <SCORE.INTER.CONST>
1

>  <SCORE.INTER.POLAR>
0

>  <SCORE.INTER.ROT>
5

>  <SCORE.INTER.SOLV>
7.95171

>  <SCORE.INTER.VDW>
-10.8102

>  <SCORE.INTER.norm>
-0.183942

>  <SCORE.INTRA>
-2.4337

>  <SCORE.INTRA.DIHEDRAL>
-3.49786

>  <SCORE.INTRA.DIHEDRAL.0>
6.00299

>  <SCORE.INTRA.POLAR>
0

>  <SCORE.INTRA.POLAR.0>
0

>  <SCORE.INTRA.REPUL>
0

>  <SCORE.INTRA.REPUL.0>
0

>  <SCORE.INTRA.SOLV>
-1.21019

>  <SCORE.INTRA.SOLV.lig_0>
-39.3257

>  <SCORE.INTRA.VDW>
-0.0796804

>  <SCORE.INTRA.VDW.0>
-0.734044

>  <SCORE.INTRA.norm>
-0.24337

>  <SCORE.RESTR>
0

>  <SCORE.RESTR.CAVITY>
0

>  <SCORE.RESTR.norm>
0

>  <SCORE.SYSTEM>
0

>  <SCORE.SYSTEM.CONST>
0

>  <SCORE.SYSTEM.DIHEDRAL>
0

>  <SCORE.SYSTEM.SOLV>
0

>  <SCORE.SYSTEM.norm>
0

>  <SCORE.heavy>
10

>  <SCORE.norm>
-0.427313

>  <RMSD>
11.865

$$$$
ligand
 OpenBabel11021811473D
libRbt.so/2013.1/901 2013/11/27
 10  9  0  0  0  0  0  0  0  0999 V2000
   28.2210   14.5805   13.0927 N   0  0  0  0  0  0  0  0  0  0  0  0
   28.0401   14.3884   11.6659 C   0  0  2  0  0  0  0  0  0  0  0  0
   28.6932   15.5035   10.8937 C   0  0  0  0  0  0  0  0  0  0  0  0
   28.7289   16.6537   11.3978 O   0  0  0  0  0  0  0  0  0  0  0  0
   26.5526   14.3219   11.3477 C   0  0  0  0  0  0  0  0  0  0  0  0
   26.3730   14.5156    9.9471 O   0  0  0  0  0  0  0  0  0  0  0  0
   24.9698   14.5123    9.6848 C   0  0  0  0  0  0  0  0  0  0  0  0
   24.7538   14.9096    8.2262 C   0  0  0  0  0  0  0  0  0  0  0  0
   25.5775   14.0862    7.3581 N   0  0  0  0  0  0  0  0  0  0  0  0
   29.5609   15.1597   10.0660 O   0  0  0  0  0  0  0  0  0  0  0  0
  2  1  1  1  0  0  0
  2  5  1  0  0  0  0
  2  3  1  0  0  0  0
  3  4  1  0  0  0  0
  3 10  1  0  0  0  0
  5  6  1  0  0  0  0
  6  7  1  0  0  0  0
  7  8  1  0  0  0  0
  8  9  1  0  0  0  0
M  END
>  <CHROM.1>
163.68595720,-32.55237344,-177.29974256,172.29396981,51.60040033,27.17419551
14.88594828,10.35947894,0.68601749,0.36736572,1.72576918

>  <Name>
ligand

>  <RI>
0

>  <Rbt.Current_Directory>
/home/itssahil/PROJECTS/Mol_Feturizer/New_Systems/rnas/3DJ0

>  <Rbt.Executable>
rbdock ($Id: //depot/dev/client3/rdock/2013.1/src/exe/rbdock.cxx#4 $)

>  <Rbt.Library>
libRbt.so (2013.1, Build901 2013/11/27)

>  <Rbt.Parameter_File>
/export/apps/rDock/src/rDock_2013.1_src/data/scripts/dock_solv.prm

>  <Rbt.Receptor>
prm/blind_docking_60.prm

>  <SCORE>
-4.25562

>  <SCORE.INTER>
-3.30399

>  <SCORE.INTER.CONST>
1

>  <SCORE.INTER.POLAR>
0

>  <SCORE.INTER.ROT>
5

>  <SCORE.INTER.SOLV>
18.8727

>  <SCORE.INTER.VDW>
-15.4269

>  <SCORE.INTER.norm>
-0.330399

>  <SCORE.INTRA>
-0.951628

>  <SCORE.INTRA.DIHEDRAL>
-2.39109

>  <SCORE.INTRA.DIHEDRAL.0>
6.00299

>  <SCORE.INTRA.POLAR>
0

>  <SCORE.INTRA.POLAR.0>
0

>  <SCORE.INTRA.REPUL>
0

>  <SCORE.INTRA.REPUL.0>
0

>  <SCORE.INTRA.SOLV>
0.0086469

>  <SCORE.INTRA.SOLV.lig_0>
-39.3257

>  <SCORE.INTRA.VDW>
0.239591

>  <SCORE.INTRA.VDW.0>
-0.734044

>  <SCORE.INTRA.norm>
-0.0951628

>  <SCORE.RESTR>
0

>  <SCORE.RESTR.CAVITY>
0

>  <SCORE.RESTR.norm>
0

>  <SCORE.SYSTEM>
0

>  <SCORE.SYSTEM.CONST>
0

>  <SCORE.SYSTEM.DIHEDRAL>
0

>  <SCORE.SYSTEM.SOLV>
0

>  <SCORE.SYSTEM.norm>
0

>  <SCORE.heavy>
10

>  <SCORE.norm>
-0.425562

>  <RMSD>
11.875

$$$$
ligand
 OpenBabel11021811473D
libRbt.so/2013.1/901 2013/11/27
 10  9  0  0  0  0  0  0  0  0999 V2000
   25.9905   23.9097   18.2584 N   0  0  0  0  0  0  0  0  0  0  0  0
   25.4877   24.4837   19.4926 C   0  0  2  0  0  0  0  0  0  0  0  0
   24.1370   25.1113   19.2739 C   0  0  0  0  0  0  0  0  0  0  0  0
   23.4072   25.3476   20.2688 O   0  0  0  0  0  0  0  0  0  0  0  0
   26.4771   25.5188   20.0103 C   0  0  0  0  0  0  0  0  0  0  0  0
   26.0339   25.9816   21.2835 O   0  0  0  0  0  0  0  0  0  0  0  0
   26.9958   26.9213   21.7626 C   0  0  0  0  0  0  0  0  0  0  0  0
   26.5330   27.4275   23.1271 C   0  0  0  0  0  0  0  0  0  0  0  0
   27.4718   28.4110   23.6384 N   0  0  0  0  0  0  0  0  0  0  0  0
   24.0118   25.7905   18.2351 O   0  0  0  0  0  0  0  0  0  0  0  0
  2  1  1  6  0  0  0
  2  5  1  0  0  0  0
  2  3  1  0  0  0  0
  3  4  1  0  0  0  0
  3 10  1  0  0  0  0
  5  6  1  0  0  0  0
  6  7  1  0  0  0  0
  7  8  1  0  0  0  0
  8  9  1  0  0  0  0
M  END
>  <CHROM.1>
-174.57924818,161.99450043,178.41858438,179.94298390,-178.75011228,25.61802800
25.89796505,20.52618266,-2.02585220,-0.14371811,0.91127718

>  <Name>
ligand

>  <RI>
0

>  <Rbt.Current_Directory>
/home/itssahil/PROJECTS/Mol_Feturizer/New_Systems/rnas/3DJ0

>  <Rbt.Executable>
rbdock ($Id: //depot/dev/client3/rdock/2013.1/src/exe/rbdock.cxx#4 $)

>  <Rbt.Library>
libRbt.so (2013.1, Build901 2013/11/27)

>  <Rbt.Parameter_File>
/export/apps/rDock/src/rDock_2013.1_src/data/scripts/dock_solv.prm

>  <Rbt.Receptor>
prm/blind_docking_80.prm

>  <SCORE>
-1.72911

>  <SCORE.INTER>
0.712611

>  <SCORE.INTER.CONST>
1

>  <SCORE.INTER.POLAR>
0

>  <SCORE.INTER.ROT>
5

>  <SCORE.INTER.SOLV>
8.86267

>  <SCORE.INTER.VDW>
-9.41248

>  <SCORE.INTER.norm>
0.0712611

>  <SCORE.INTRA>
-2.44172

>  <SCORE.INTRA.DIHEDRAL>
-3.45887

>  <SCORE.INTRA.DIHEDRAL.0>
6.00299

>  <SCORE.INTRA.POLAR>
0

>  <SCORE.INTRA.POLAR.0>
0

>  <SCORE.INTRA.REPUL>
0

>  <SCORE.INTRA.REPUL.0>
0

>  <SCORE.INTRA.SOLV>
-1.22416

>  <SCORE.INTRA.SOLV.lig_0>
-39.3257

>  <SCORE.INTRA.VDW>
-0.100208

>  <SCORE.INTRA.VDW.0>
-0.734044

>  <SCORE.INTRA.norm>
-0.244172

>  <SCORE.RESTR>
0

>  <SCORE.RESTR.CAVITY>
0

>  <SCORE.RESTR.norm>
0

>  <SCORE.SYSTEM>
0

>  <SCORE.SYSTEM.CONST>
0

>  <SCORE.SYSTEM.DIHEDRAL>
0

>  <SCORE.SYSTEM.SOLV>
0

>  <SCORE.SYSTEM.norm>
0

>  <SCORE.heavy>
10

>  <SCORE.norm>
-0.172911

>  <RMSD>
12.177

$$$$
ligand
 OpenBabel11021811473D
libRbt.so/2013.1/901 2013/11/27
 10  9  0  0  0  0  0  0  0  0999 V2000
   27.7393   14.1298   12.5328 N   0  0  0  0  0  0  0  0  0  0  0  0
   27.7673   14.3602   11.1005 C   0  0  2  0  0  0  0  0  0  0  0  0
   28.5537   15.6028   10.7785 C   0  0  0  0  0  0  0  0  0  0  0  0
   28.6242   16.5180   11.6363 O   0  0  0  0  0  0  0  0  0  0  0  0
   26.3421   14.4831   10.5787 C   0  0  0  0  0  0  0  0  0  0  0  0
   26.3649   15.1925    9.3426 O   0  0  0  0  0  0  0  0  0  0  0  0
   25.0613   15.1041    8.7675 C   0  0  0  0  0  0  0  0  0  0  0  0
   24.9496   13.7680    8.0363 C   0  0  0  0  0  0  0  0  0  0  0  0
   25.9776   13.6716    7.0145 N   0  0  0  0  0  0  0  0  0  0  0  0
   29.4614   15.4711    9.9331 O   0  0  0  0  0  0  0  0  0  0  0  0
  2  1  1  1  0  0  0
  2  5  1  0  0  0  0
  2  3  1  0  0  0  0
  3  4  1  0  0  0  0
  3 10  1  0  0  0  0
  5  6  1  0  0  0  0
  6  7  1  0  0  0  0
  7  8  1  0  0  0  0
  8  9  1  0  0  0  0
M  END
>  <CHROM.1>
158.07513560,-27.23217910,170.61765251,-82.58291366,-58.46842344,27.11292691
14.86510793,9.97223382,0.74440709,0.46698090,1.66455956

>  <Name>
ligand

>  <RI>
0

>  <Rbt.Current_Directory>
/home/itssahil/PROJECTS/Mol_Feturizer/New_Systems/rnas/3DJ0

>  <Rbt.Executable>
rbdock ($Id: //depot/dev/client3/rdock/2013.1/src/exe/rbdock.cxx#4 $)

>  <Rbt.Library>
libRbt.so (2013.1, Build901 2013/11/27)

>  <Rbt.Parameter_File>
/export/apps/rDock/src/rDock_2013.1_src/data/scripts/dock_solv.prm

>  <Rbt.Receptor>
prm/blind_docking_100.prm

>  <SCORE>
-1.22314

>  <SCORE.INTER>
-3.11846

>  <SCORE.INTER.CONST>
1

>  <SCORE.INTER.POLAR>
0

>  <SCORE.INTER.ROT>
5

>  <SCORE.INTER.SOLV>
18.2278

>  <SCORE.INTER.VDW>
-15.0882

>  <SCORE.INTER.norm>
-0.311846

>  <SCORE.INTRA>
1.89532

>  <SCORE.INTRA.DIHEDRAL>
0.427243

>  <SCORE.INTRA.DIHEDRAL.0>
6.00299

>  <SCORE.INTRA.POLAR>
0

>  <SCORE.INTRA.POLAR.0>
0

>  <SCORE.INTRA.REPUL>
0

>  <SCORE.INTRA.REPUL.0>
0

>  <SCORE.INTRA.SOLV>
0.423882

>  <SCORE.INTRA.SOLV.lig_0>
-39.3257

>  <SCORE.INTRA.VDW>
1.46976

>  <SCORE.INTRA.VDW.0>
-0.734044

>  <SCORE.INTRA.norm>
0.189532

>  <SCORE.RESTR>
0

>  <SCORE.RESTR.CAVITY>
0

>  <SCORE.RESTR.norm>
0

>  <SCORE.SYSTEM>
0

>  <SCORE.SYSTEM.CONST>
0

>  <SCORE.SYSTEM.DIHEDRAL>
0

>  <SCORE.SYSTEM.SOLV>
0

>  <SCORE.SYSTEM.norm>
0

>  <SCORE.heavy>
10

>  <SCORE.norm>
-0.122314

>  <RMSD>
12.274

$$$$
ligand
 OpenBabel11021811473D
libRbt.so/2013.1/901 2013/11/27
 10  9  0  0  0  0  0  0  0  0999 V2000
   26.7163   13.2290    8.8044 N   0  0  0  0  0  0  0  0  0  0  0  0
   26.4183   14.5803    9.2409 C   0  0  2  0  0  0  0  0  0  0  0  0
   27.2710   14.9557   10.4233 C   0  0  0  0  0  0  0  0  0  0  0  0
   27.4631   14.1068   11.3294 O   0  0  0  0  0  0  0  0  0  0  0  0
   24.9414   14.6844    9.5962 C   0  0  0  0  0  0  0  0  0  0  0  0
   24.6759   13.8360   10.7104 O   0  0  0  0  0  0  0  0  0  0  0  0
   23.3076   14.0146   11.0756 C   0  0  0  0  0  0  0  0  0  0  0  0
   23.0333   13.1846   12.3278 C   0  0  0  0  0  0  0  0  0  0  0  0
   21.6532   13.3563   12.7472 N   0  0  0  0  0  0  0  0  0  0  0  0
   28.1104   15.8574   10.2273 O   0  0  0  0  0  0  0  0  0  0  0  0
  2  1  1  1  0  0  0
  2  5  1  0  0  0  0
  2  3  1  0  0  0  0
  3  4  1  0  0  0  0
  3 10  1  0  0  0  0
  5  6  1  0  0  0  0
  6  7  1  0  0  0  0
  7  8  1  0  0  0  0
  8  9  1  0  0  0  0
M  END
>  <CHROM.1>
64.21294814,-41.36716903,176.43825462,-176.15522220,179.05088049,25.39572360
14.18976365,10.66405504,0.35022674,-0.32746735,-1.72791466

>  <Name>
ligand

>  <RI>
0

>  <Rbt.Current_Directory>
/home/itssahil/PROJECTS/Mol_Feturizer/New_Systems/rnas/3DJ0

>  <Rbt.Executable>
rbdock ($Id: //depot/dev/client3/rdock/2013.1/src/exe/rbdock.cxx#4 $)

>  <Rbt.Library>
libRbt.so (2013.1, Build901 2013/11/27)

>  <Rbt.Parameter_File>
/export/apps/rDock/src/rDock_2013.1_src/data/scripts/dock_solv.prm

>  <Rbt.Receptor>
prm/blind_docking_40.prm

>  <SCORE>
-4.26804

>  <SCORE.INTER>
-2.03777

>  <SCORE.INTER.CONST>
1

>  <SCORE.INTER.POLAR>
0

>  <SCORE.INTER.ROT>
5

>  <SCORE.INTER.SOLV>
8.03802

>  <SCORE.INTER.VDW>
-10.9712

>  <SCORE.INTER.norm>
-0.203777

>  <SCORE.INTRA>
-2.23027

>  <SCORE.INTRA.DIHEDRAL>
-3.76319

>  <SCORE.INTRA.DIHEDRAL.0>
6.00299

>  <SCORE.INTRA.POLAR>
0

>  <SCORE.INTRA.POLAR.0>
0

>  <SCORE.INTRA.REPUL>
0

>  <SCORE.INTRA.REPUL.0>
0

>  <SCORE.INTRA.SOLV>
-0.263753

>  <SCORE.INTRA.SOLV.lig_0>
-39.3257

>  <SCORE.INTRA.VDW>
-0.216801

>  <SCORE.INTRA.VDW.0>
-0.734044

>  <SCORE.INTRA.norm>
-0.223027

>  <SCORE.RESTR>
0

>  <SCORE.RESTR.CAVITY>
0

>  <SCORE.RESTR.norm>
0

>  <SCORE.SYSTEM>
0

>  <SCORE.SYSTEM.CONST>
0

>  <SCORE.SYSTEM.DIHEDRAL>
0

>  <SCORE.SYSTEM.SOLV>
0

>  <SCORE.SYSTEM.norm>
0

>  <SCORE.heavy>
10

>  <SCORE.norm>
-0.426804

>  <RMSD>
12.415

$$$$
ligand
 OpenBabel11021811473D
libRbt.so/2013.1/901 2013/11/27
 10  9  0  0  0  0  0  0  0  0999 V2000
   22.8614   14.7377   10.9653 N   0  0  0  0  0  0  0  0  0  0  0  0
   23.3574   13.3871   11.1533 C   0  0  2  0  0  0  0  0  0  0  0  0
   23.3267   13.0089   12.6100 C   0  0  0  0  0  0  0  0  0  0  0  0
   22.8832   13.8365   13.4447 O   0  0  0  0  0  0  0  0  0  0  0  0
   24.7756   13.2874   10.6081 C   0  0  0  0  0  0  0  0  0  0  0  0
   25.6126   14.1807   11.3383 O   0  0  0  0  0  0  0  0  0  0  0  0
   26.9305   14.0788   10.7994 C   0  0  0  0  0  0  0  0  0  0  0  0
   27.8421   15.0226   11.5808 C   0  0  0  0  0  0  0  0  0  0  0  0
   29.1898   14.9743   11.0410 N   0  0  0  0  0  0  0  0  0  0  0  0
   23.2728   11.7871   12.8563 O   0  0  0  0  0  0  0  0  0  0  0  0
  2  1  1  1  0  0  0
  2  5  1  0  0  0  0
  2  3  1  0  0  0  0
  3  4  1  0  0  0  0
  3 10  1  0  0  0  0
  5  6  1  0  0  0  0
  6  7  1  0  0  0  0
  7  8  1  0  0  0  0
  8  9  1  0  0  0  0
M  END
>  <CHROM.1>
61.66193190,1.19350393,-179.38927144,-179.51596215,-178.58291049,24.98374414
13.81558734,11.67375290,2.77058596,0.11039767,2.17870390

>  <Name>
ligand

>  <RI>
0

>  <Rbt.Current_Directory>
/home/itssahil/PROJECTS/Mol_Feturizer/New_Systems/rnas/3DJ0

>  <Rbt.Executable>
rbdock ($Id: //depot/dev/client3/rdock/2013.1/src/exe/rbdock.cxx#4 $)

>  <Rbt.Library>
libRbt.so (2013.1, Build901 2013/11/27)

>  <Rbt.Parameter_File>
/export/apps/rDock/src/rDock_2013.1_src/data/scripts/dock_solv.prm

>  <Rbt.Receptor>
prm/blind_docking_40.prm

>  <SCORE>
-3.87963

>  <SCORE.INTER>
-2.0367

>  <SCORE.INTER.CONST>
1

>  <SCORE.INTER.POLAR>
0

>  <SCORE.INTER.ROT>
5

>  <SCORE.INTER.SOLV>
14.6712

>  <SCORE.INTER.VDW>
-13.1815

>  <SCORE.INTER.norm>
-0.20367

>  <SCORE.INTRA>
-1.84293

>  <SCORE.INTRA.DIHEDRAL>
-3.24029

>  <SCORE.INTRA.DIHEDRAL.0>
6.00299

>  <SCORE.INTRA.POLAR>
0

>  <SCORE.INTRA.POLAR.0>
0

>  <SCORE.INTRA.REPUL>
0

>  <SCORE.INTRA.REPUL.0>
0

>  <SCORE.INTRA.SOLV>
-0.391161

>  <SCORE.INTRA.SOLV.lig_0>
-39.3257

>  <SCORE.INTRA.VDW>
-0.0272044

>  <SCORE.INTRA.VDW.0>
-0.734044

>  <SCORE.INTRA.norm>
-0.184293

>  <SCORE.RESTR>
0

>  <SCORE.RESTR.CAVITY>
0

>  <SCORE.RESTR.norm>
0

>  <SCORE.SYSTEM>
0

>  <SCORE.SYSTEM.CONST>
0

>  <SCORE.SYSTEM.DIHEDRAL>
0

>  <SCORE.SYSTEM.SOLV>
0

>  <SCORE.SYSTEM.norm>
0

>  <SCORE.heavy>
10

>  <SCORE.norm>
-0.387963

>  <RMSD>
12.605

$$$$
ligand
 OpenBabel11021811473D
libRbt.so/2013.1/901 2013/11/27
 10  9  0  0  0  0  0  0  0  0999 V2000
   27.0420   14.6029   12.4228 N   0  0  0  0  0  0  0  0  0  0  0  0
   27.6409   14.3174   11.1323 C   0  0  2  0  0  0  0  0  0  0  0  0
   28.7325   15.3070   10.8238 C   0  0  0  0  0  0  0  0  0  0  0  0
   29.4754   15.1041    9.8312 O   0  0  0  0  0  0  0  0  0  0  0  0
   26.5663   14.3582   10.0544 C   0  0  0  0  0  0  0  0  0  0  0  0
   27.1541   14.0018    8.8057 O   0  0  0  0  0  0  0  0  0  0  0  0
   26.1218   14.0175    7.8199 C   0  0  0  0  0  0  0  0  0  0  0  0
   26.7568   13.7515    6.4567 C   0  0  0  0  0  0  0  0  0  0  0  0
   27.3904   12.4443    6.4485 N   0  0  0  0  0  0  0  0  0  0  0  0
   28.5480   16.4700   11.2355 O   0  0  0  0  0  0  0  0  0  0  0  0
  2  1  1  1  0  0  0
  2  5  1  0  0  0  0
  2  3  1  0  0  0  0
  3  4  1  0  0  0  0
  3 10  1  0  0  0  0
  5  6  1  0  0  0  0
  6  7  1  0  0  0  0
  7  8  1  0  0  0  0
  8  9  1  0  0  0  0
M  END
>  <CHROM.1>
-176.74075468,170.65529268,178.68330306,175.35687227,61.23997285,27.56879441
14.46345126,9.50113099,1.27917293,0.45618144,1.27551527

>  <Name>
ligand

>  <RI>
0

>  <Rbt.Current_Directory>
/home/itssahil/PROJECTS/Mol_Feturizer/New_Systems/rnas/3DJ0

>  <Rbt.Executable>
rbdock ($Id: //depot/dev/client3/rdock/2013.1/src/exe/rbdock.cxx#4 $)

>  <Rbt.Library>
libRbt.so (2013.1, Build901 2013/11/27)

>  <Rbt.Parameter_File>
/export/apps/rDock/src/rDock_2013.1_src/data/scripts/dock_solv.prm

>  <Rbt.Receptor>
prm/blind_docking_100.prm

>  <SCORE>
-5.18912

>  <SCORE.INTER>
-3.36391

>  <SCORE.INTER.CONST>
1

>  <SCORE.INTER.POLAR>
0

>  <SCORE.INTER.ROT>
5

>  <SCORE.INTER.SOLV>
15.8913

>  <SCORE.INTER.VDW>
-14.473

>  <SCORE.INTER.norm>
-0.336391

>  <SCORE.INTRA>
-1.82522

>  <SCORE.INTRA.DIHEDRAL>
-3.59976

>  <SCORE.INTRA.DIHEDRAL.0>
6.00299

>  <SCORE.INTRA.POLAR>
0

>  <SCORE.INTRA.POLAR.0>
0

>  <SCORE.INTRA.REPUL>
0

>  <SCORE.INTRA.REPUL.0>
0

>  <SCORE.INTRA.SOLV>
-0.0771459

>  <SCORE.INTRA.SOLV.lig_0>
-39.3257

>  <SCORE.INTRA.VDW>
0.0132348

>  <SCORE.INTRA.VDW.0>
-0.734044

>  <SCORE.INTRA.norm>
-0.182522

>  <SCORE.RESTR>
0

>  <SCORE.RESTR.CAVITY>
0

>  <SCORE.RESTR.norm>
0

>  <SCORE.SYSTEM>
0

>  <SCORE.SYSTEM.CONST>
0

>  <SCORE.SYSTEM.DIHEDRAL>
0

>  <SCORE.SYSTEM.SOLV>
0

>  <SCORE.SYSTEM.norm>
0

>  <SCORE.heavy>
10

>  <SCORE.norm>
-0.518912

>  <RMSD>
12.722

$$$$
ligand
 OpenBabel11021811473D
libRbt.so/2013.1/901 2013/11/27
 10  9  0  0  0  0  0  0  0  0999 V2000
   26.2627   14.3776    8.1362 N   0  0  0  0  0  0  0  0  0  0  0  0
   25.6878   14.7212    9.4234 C   0  0  2  0  0  0  0  0  0  0  0  0
   26.4830   14.1021   10.5416 C   0  0  0  0  0  0  0  0  0  0  0  0
   26.7890   12.8857   10.4701 O   0  0  0  0  0  0  0  0  0  0  0  0
   24.2413   14.2487    9.4751 C   0  0  0  0  0  0  0  0  0  0  0  0
   23.7138   14.5244   10.7702 O   0  0  0  0  0  0  0  0  0  0  0  0
   22.3620   14.0662   10.7948 C   0  0  0  0  0  0  0  0  0  0  0  0
   21.8164   14.2582   12.2082 C   0  0  0  0  0  0  0  0  0  0  0  0
   22.5275   13.3981   13.1381 N   0  0  0  0  0  0  0  0  0  0  0  0
   27.1927   14.8842   11.2055 O   0  0  0  0  0  0  0  0  0  0  0  0
  2  1  1  6  0  0  0
  2  5  1  0  0  0  0
  2  3  1  0  0  0  0
  3  4  1  0  0  0  0
  3 10  1  0  0  0  0
  5  6  1  0  0  0  0
  6  7  1  0  0  0  0
  7  8  1  0  0  0  0
  8  9  1  0  0  0  0
M  END
>  <CHROM.1>
176.72699313,-48.07706752,-179.68460726,175.77586194,-65.47918353,24.73733597
14.14100869,10.63333742,0.47451589,0.05209425,-1.37270824

>  <Name>
ligand

>  <RI>
0

>  <Rbt.Current_Directory>
/home/itssahil/PROJECTS/Mol_Feturizer/New_Systems/rnas/3DJ0

>  <Rbt.Executable>
rbdock ($Id: //depot/dev/client3/rdock/2013.1/src/exe/rbdock.cxx#4 $)

>  <Rbt.Library>
libRbt.so (2013.1, Build901 2013/11/27)

>  <Rbt.Parameter_File>
/export/apps/rDock/src/rDock_2013.1_src/data/scripts/dock_solv.prm

>  <Rbt.Receptor>
prm/blind_docking_100.prm

>  <SCORE>
-3.03101

>  <SCORE.INTER>
-0.924815

>  <SCORE.INTER.CONST>
1

>  <SCORE.INTER.POLAR>
0

>  <SCORE.INTER.ROT>
5

>  <SCORE.INTER.SOLV>
8.81667

>  <SCORE.INTER.VDW>
-10.4888

>  <SCORE.INTER.norm>
-0.0924815

>  <SCORE.INTRA>
-2.10619

>  <SCORE.INTRA.DIHEDRAL>
-3.75214

>  <SCORE.INTRA.DIHEDRAL.0>
6.00299

>  <SCORE.INTRA.POLAR>
0

>  <SCORE.INTRA.POLAR.0>
0

>  <SCORE.INTRA.REPUL>
0

>  <SCORE.INTRA.REPUL.0>
0

>  <SCORE.INTRA.SOLV>
-0.169323

>  <SCORE.INTRA.SOLV.lig_0>
-39.3257

>  <SCORE.INTRA.VDW>
-0.145462

>  <SCORE.INTRA.VDW.0>
-0.734044

>  <SCORE.INTRA.norm>
-0.210619

>  <SCORE.RESTR>
0

>  <SCORE.RESTR.CAVITY>
0

>  <SCORE.RESTR.norm>
0

>  <SCORE.SYSTEM>
0

>  <SCORE.SYSTEM.CONST>
0

>  <SCORE.SYSTEM.DIHEDRAL>
0

>  <SCORE.SYSTEM.SOLV>
0

>  <SCORE.SYSTEM.norm>
0

>  <SCORE.heavy>
10

>  <SCORE.norm>
-0.303101

>  <RMSD>
12.788

$$$$
ligand
 OpenBabel11021811473D
libRbt.so/2013.1/901 2013/11/27
 10  9  0  0  0  0  0  0  0  0999 V2000
   25.0318   14.8547    9.0162 N   0  0  0  0  0  0  0  0  0  0  0  0
   24.9601   13.6771    9.8609 C   0  0  2  0  0  0  0  0  0  0  0  0
   23.7932   13.7733   10.8069 C   0  0  0  0  0  0  0  0  0  0  0  0
   23.0457   14.7815   10.7511 O   0  0  0  0  0  0  0  0  0  0  0  0
   26.2621   13.5293   10.6363 C   0  0  0  0  0  0  0  0  0  0  0  0
   26.4208   14.6610   11.4881 O   0  0  0  0  0  0  0  0  0  0  0  0
   27.6322   14.4852   12.2224 C   0  0  0  0  0  0  0  0  0  0  0  0
   28.8021   14.8522   11.3120 C   0  0  0  0  0  0  0  0  0  0  0  0
   28.6817   16.2333   10.8781 N   0  0  0  0  0  0  0  0  0  0  0  0
   23.3462   12.6903   11.2351 O   0  0  0  0  0  0  0  0  0  0  0  0
  2  1  1  1  0  0  0
  2  5  1  0  0  0  0
  2  3  1  0  0  0  0
  3  4  1  0  0  0  0
  3 10  1  0  0  0  0
  5  6  1  0  0  0  0
  6  7  1  0  0  0  0
  7  8  1  0  0  0  0
  8  9  1  0  0  0  0
M  END
>  <CHROM.1>
62.69838118,1.15387564,178.83417570,78.80324831,59.78739726,25.75448171,14.34954813
10.84161372,3.06195794,0.31974082,2.26501388

>  <Name>
ligand

>  <RI>
0

>  <Rbt.Current_Directory>
/home/itssahil/PROJECTS/Mol_Feturizer/New_Systems/rnas/3DJ0

>  <Rbt.Executable>
rbdock ($Id: //depot/dev/client3/rdock/2013.1/src/exe/rbdock.cxx#4 $)

>  <Rbt.Library>
libRbt.so (2013.1, Build901 2013/11/27)

>  <Rbt.Parameter_File>
/export/apps/rDock/src/rDock_2013.1_src/data/scripts/dock_solv.prm

>  <Rbt.Receptor>
prm/blind_docking_40.prm

>  <SCORE>
-2.09669

>  <SCORE.INTER>
-3.21356

>  <SCORE.INTER.CONST>
1

>  <SCORE.INTER.POLAR>
0

>  <SCORE.INTER.ROT>
5

>  <SCORE.INTER.SOLV>
15.7865

>  <SCORE.INTER.VDW>
-14.3379

>  <SCORE.INTER.norm>
-0.321356

>  <SCORE.INTRA>
1.11688

>  <SCORE.INTRA.DIHEDRAL>
-1.61922

>  <SCORE.INTRA.DIHEDRAL.0>
6.00299

>  <SCORE.INTRA.POLAR>
0

>  <SCORE.INTRA.POLAR.0>
0

>  <SCORE.INTRA.REPUL>
0

>  <SCORE.INTRA.REPUL.0>
0

>  <SCORE.INTRA.SOLV>
1.40107

>  <SCORE.INTRA.SOLV.lig_0>
-39.3257

>  <SCORE.INTRA.VDW>
1.22595

>  <SCORE.INTRA.VDW.0>
-0.734044

>  <SCORE.INTRA.norm>
0.111688

>  <SCORE.RESTR>
0

>  <SCORE.RESTR.CAVITY>
0

>  <SCORE.RESTR.norm>
0

>  <SCORE.SYSTEM>
0

>  <SCORE.SYSTEM.CONST>
0

>  <SCORE.SYSTEM.DIHEDRAL>
0

>  <SCORE.SYSTEM.SOLV>
0

>  <SCORE.SYSTEM.norm>
0

>  <SCORE.heavy>
10

>  <SCORE.norm>
-0.209669

>  <RMSD>
12.798

$$$$
ligand
 OpenBabel11021811473D
libRbt.so/2013.1/901 2013/11/27
 10  9  0  0  0  0  0  0  0  0999 V2000
   25.2341    6.3581   28.9328 N   0  0  0  0  0  0  0  0  0  0  0  0
   26.3111    6.0954   27.9966 C   0  0  2  0  0  0  0  0  0  0  0  0
   26.5966    4.6195   27.9173 C   0  0  0  0  0  0  0  0  0  0  0  0
   26.3243    3.8928   28.9053 O   0  0  0  0  0  0  0  0  0  0  0  0
   27.5572    6.8551   28.4309 C   0  0  0  0  0  0  0  0  0  0  0  0
   27.3350    8.2500   28.2396 O   0  0  0  0  0  0  0  0  0  0  0  0
   28.5348    8.9341   28.6007 C   0  0  0  0  0  0  0  0  0  0  0  0
   28.3104   10.4318   28.4038 C   0  0  0  0  0  0  0  0  0  0  0  0
   29.4902   11.1712   28.8179 N   0  0  0  0  0  0  0  0  0  0  0  0
   26.6191    4.1282   26.7709 O   0  0  0  0  0  0  0  0  0  0  0  0
  2  1  1  1  0  0  0
  2  5  1  0  0  0  0
  2  3  1  0  0  0  0
  3  4  1  0  0  0  0
  3 10  1  0  0  0  0
  5  6  1  0  0  0  0
  6  7  1  0  0  0  0
  7  8  1  0  0  0  0
  8  9  1  0  0  0  0
M  END
>  <CHROM.1>
-69.42472158,-26.24916047,-177.62877044,-179.86896714,177.45583411,27.22273602
7.02940772,28.29270071,2.04509693,-0.55474911,-2.77369813

>  <Name>
ligand

>  <RI>
0

>  <Rbt.Current_Directory>
/home/itssahil/PROJECTS/Mol_Feturizer/New_Systems/rnas/3DJ0

>  <Rbt.Executable>
rbdock ($Id: //depot/dev/client3/rdock/2013.1/src/exe/rbdock.cxx#4 $)

>  <Rbt.Library>
libRbt.so (2013.1, Build901 2013/11/27)

>  <Rbt.Parameter_File>
/export/apps/rDock/src/rDock_2013.1_src/data/scripts/dock_solv.prm

>  <Rbt.Receptor>
prm/blind_docking_60.prm

>  <SCORE>
-3.44318

>  <SCORE.INTER>
-1.16588

>  <SCORE.INTER.CONST>
1

>  <SCORE.INTER.POLAR>
0

>  <SCORE.INTER.ROT>
5

>  <SCORE.INTER.SOLV>
10.0223

>  <SCORE.INTER.VDW>
-11.0514

>  <SCORE.INTER.norm>
-0.116588

>  <SCORE.INTRA>
-2.27729

>  <SCORE.INTRA.DIHEDRAL>
-3.40525

>  <SCORE.INTRA.DIHEDRAL.0>
6.00299

>  <SCORE.INTRA.POLAR>
0

>  <SCORE.INTRA.POLAR.0>
0

>  <SCORE.INTRA.REPUL>
0

>  <SCORE.INTRA.REPUL.0>
0

>  <SCORE.INTRA.SOLV>
-0.802928

>  <SCORE.INTRA.SOLV.lig_0>
-39.3257

>  <SCORE.INTRA.VDW>
-0.173204

>  <SCORE.INTRA.VDW.0>
-0.734044

>  <SCORE.INTRA.norm>
-0.227729

>  <SCORE.RESTR>
0

>  <SCORE.RESTR.CAVITY>
0

>  <SCORE.RESTR.norm>
0

>  <SCORE.SYSTEM>
0

>  <SCORE.SYSTEM.CONST>
0

>  <SCORE.SYSTEM.DIHEDRAL>
0

>  <SCORE.SYSTEM.SOLV>
0

>  <SCORE.SYSTEM.norm>
0

>  <SCORE.heavy>
10

>  <SCORE.norm>
-0.344318

>  <RMSD>
12.914

$$$$
ligand
 OpenBabel11021811473D
libRbt.so/2013.1/901 2013/11/27
 10  9  0  0  0  0  0  0  0  0999 V2000
   24.3798   14.3005    9.3001 N   0  0  0  0  0  0  0  0  0  0  0  0
   24.3054   13.4781   10.4932 C   0  0  2  0  0  0  0  0  0  0  0  0
   22.8802   13.3488   10.9600 C   0  0  0  0  0  0  0  0  0  0  0  0
   22.6232   12.5914   11.9289 O   0  0  0  0  0  0  0  0  0  0  0  0
   25.1693   14.0916   11.5867 C   0  0  0  0  0  0  0  0  0  0  0  0
   26.5359   14.0176   11.1886 O   0  0  0  0  0  0  0  0  0  0  0  0
   27.3230   14.5970   12.2289 C   0  0  0  0  0  0  0  0  0  0  0  0
   28.7923   14.5145   11.8210 C   0  0  0  0  0  0  0  0  0  0  0  0
   29.0067   15.2392   10.5805 N   0  0  0  0  0  0  0  0  0  0  0  0
   22.1342   14.3175   10.7127 O   0  0  0  0  0  0  0  0  0  0  0  0
  2  1  1  6  0  0  0
  2  5  1  0  0  0  0
  2  3  1  0  0  0  0
  3  4  1  0  0  0  0
  3 10  1  0  0  0  0
  5  6  1  0  0  0  0
  6  7  1  0  0  0  0
  7  8  1  0  0  0  0
  8  9  1  0  0  0  0
M  END
>  <CHROM.1>
-66.43865368,175.04143303,-179.95793442,179.54400110,59.97867757,25.27501764
14.04156669,11.09338321,3.12315278,0.22669789,1.98006935

>  <Name>
ligand

>  <RI>
0

>  <Rbt.Current_Directory>
/home/itssahil/PROJECTS/Mol_Feturizer/New_Systems/rnas/3DJ0

>  <Rbt.Executable>
rbdock ($Id: //depot/dev/client3/rdock/2013.1/src/exe/rbdock.cxx#4 $)

>  <Rbt.Library>
libRbt.so (2013.1, Build901 2013/11/27)

>  <Rbt.Parameter_File>
/export/apps/rDock/src/rDock_2013.1_src/data/scripts/dock_solv.prm

>  <Rbt.Receptor>
prm/blind_docking_40.prm

>  <SCORE>
-4.98851

>  <SCORE.INTER>
-3.34659

>  <SCORE.INTER.CONST>
1

>  <SCORE.INTER.POLAR>
0

>  <SCORE.INTER.ROT>
5

>  <SCORE.INTER.SOLV>
13.0796

>  <SCORE.INTER.VDW>
-13.5243

>  <SCORE.INTER.norm>
-0.334659

>  <SCORE.INTRA>
-1.64191

>  <SCORE.INTRA.DIHEDRAL>
-3.69291

>  <SCORE.INTRA.DIHEDRAL.0>
6.00299

>  <SCORE.INTRA.POLAR>
0

>  <SCORE.INTRA.POLAR.0>
0

>  <SCORE.INTRA.REPUL>
0

>  <SCORE.INTRA.REPUL.0>
0

>  <SCORE.INTRA.SOLV>
0.321497

>  <SCORE.INTRA.SOLV.lig_0>
-39.3257

>  <SCORE.INTRA.VDW>
0.043792

>  <SCORE.INTRA.VDW.0>
-0.734044

>  <SCORE.INTRA.norm>
-0.164191

>  <SCORE.RESTR>
0

>  <SCORE.RESTR.CAVITY>
0

>  <SCORE.RESTR.norm>
0

>  <SCORE.SYSTEM>
0

>  <SCORE.SYSTEM.CONST>
0

>  <SCORE.SYSTEM.DIHEDRAL>
0

>  <SCORE.SYSTEM.SOLV>
0

>  <SCORE.SYSTEM.norm>
0

>  <SCORE.heavy>
10

>  <SCORE.norm>
-0.498851

>  <RMSD>
12.935

$$$$
ligand
 OpenBabel11021811473D
libRbt.so/2013.1/901 2013/11/27
 10  9  0  0  0  0  0  0  0  0999 V2000
   24.4296   14.2248    9.3823 N   0  0  0  0  0  0  0  0  0  0  0  0
   24.2787   13.5293   10.6468 C   0  0  2  0  0  0  0  0  0  0  0  0
   22.8494   13.5859   11.1158 C   0  0  0  0  0  0  0  0  0  0  0  0
   22.0321   14.3081   10.4922 O   0  0  0  0  0  0  0  0  0  0  0  0
   25.2030   14.1543   11.6828 C   0  0  0  0  0  0  0  0  0  0  0  0
   26.5508   14.0133   11.2409 O   0  0  0  0  0  0  0  0  0  0  0  0
   27.3941   14.6227   12.2183 C   0  0  0  0  0  0  0  0  0  0  0  0
   28.8384   14.5277   11.7315 C   0  0  0  0  0  0  0  0  0  0  0  0
   28.9936   15.2587   10.4859 N   0  0  0  0  0  0  0  0  0  0  0  0
   22.4430   12.5921   11.7510 O   0  0  0  0  0  0  0  0  0  0  0  0
  2  1  1  6  0  0  0
  2  5  1  0  0  0  0
  2  3  1  0  0  0  0
  3  4  1  0  0  0  0
  3 10  1  0  0  0  0
  5  6  1  0  0  0  0
  6  7  1  0  0  0  0
  7  8  1  0  0  0  0
  8  9  1  0  0  0  0
M  END
>  <CHROM.1>
-61.30846979,-7.77473313,179.19338346,-177.81147818,62.13396244,25.25841304
14.07059988,11.08131844,3.12466622,0.21838422,1.98646807

>  <Name>
ligand

>  <RI>
0

>  <Rbt.Current_Directory>
/home/itssahil/PROJECTS/Mol_Feturizer/New_Systems/rnas/3DJ0

>  <Rbt.Executable>
rbdock ($Id: //depot/dev/client3/rdock/2013.1/src/exe/rbdock.cxx#4 $)

>  <Rbt.Library>
libRbt.so (2013.1, Build901 2013/11/27)

>  <Rbt.Parameter_File>
/export/apps/rDock/src/rDock_2013.1_src/data/scripts/dock_solv.prm

>  <Rbt.Receptor>
prm/blind_docking_40.prm

>  <SCORE>
-4.65135

>  <SCORE.INTER>
-3.07902

>  <SCORE.INTER.CONST>
1

>  <SCORE.INTER.POLAR>
0

>  <SCORE.INTER.ROT>
5

>  <SCORE.INTER.SOLV>
13.0738

>  <SCORE.INTER.VDW>
-13.3439

>  <SCORE.INTER.norm>
-0.307902

>  <SCORE.INTRA>
-1.57233

>  <SCORE.INTRA.DIHEDRAL>
-3.34729

>  <SCORE.INTRA.DIHEDRAL.0>
6.00299

>  <SCORE.INTRA.POLAR>
0

>  <SCORE.INTRA.POLAR.0>
0

>  <SCORE.INTRA.REPUL>
0

>  <SCORE.INTRA.REPUL.0>
0

>  <SCORE.INTRA.SOLV>
0.379257

>  <SCORE.INTRA.SOLV.lig_0>
-39.3257

>  <SCORE.INTRA.VDW>
-0.0883148

>  <SCORE.INTRA.VDW.0>
-0.734044

>  <SCORE.INTRA.norm>
-0.157233

>  <SCORE.RESTR>
0

>  <SCORE.RESTR.CAVITY>
0

>  <SCORE.RESTR.norm>
0

>  <SCORE.SYSTEM>
0

>  <SCORE.SYSTEM.CONST>
0

>  <SCORE.SYSTEM.DIHEDRAL>
0

>  <SCORE.SYSTEM.SOLV>
0

>  <SCORE.SYSTEM.norm>
0

>  <SCORE.heavy>
10

>  <SCORE.norm>
-0.465135

>  <RMSD>
12.955

$$$$
ligand
 OpenBabel11021811473D
libRbt.so/2013.1/901 2013/11/27
 10  9  0  0  0  0  0  0  0  0999 V2000
   24.4996   14.3268    9.3182 N   0  0  0  0  0  0  0  0  0  0  0  0
   24.2812   13.5913   10.5498 C   0  0  2  0  0  0  0  0  0  0  0  0
   22.8383   13.6777   10.9701 C   0  0  0  0  0  0  0  0  0  0  0  0
   22.0513   14.3937   10.3020 O   0  0  0  0  0  0  0  0  0  0  0  0
   25.1866   14.1478   11.6401 C   0  0  0  0  0  0  0  0  0  0  0  0
   26.5397   14.0675   11.1993 O   0  0  0  0  0  0  0  0  0  0  0  0
   27.3660   14.5979   12.2355 C   0  0  0  0  0  0  0  0  0  0  0  0
   28.8151   14.5702   11.7545 C   0  0  0  0  0  0  0  0  0  0  0  0
   28.9602   15.3871   10.5622 N   0  0  0  0  0  0  0  0  0  0  0  0
   22.3985   12.7058   11.6167 O   0  0  0  0  0  0  0  0  0  0  0  0
  2  1  1  6  0  0  0
  2  5  1  0  0  0  0
  2  3  1  0  0  0  0
  3  4  1  0  0  0  0
  3 10  1  0  0  0  0
  5  6  1  0  0  0  0
  6  7  1  0  0  0  0
  7  8  1  0  0  0  0
  8  9  1  0  0  0  0
M  END
>  <CHROM.1>
-57.14279821,-4.02900521,179.82966683,-177.75933978,60.67479008,25.25054951
14.13611868,11.01970981,-3.13316558,0.22608871,2.00925113

>  <Name>
ligand

>  <RI>
0

>  <Rbt.Current_Directory>
/home/itssahil/PROJECTS/Mol_Feturizer/New_Systems/rnas/3DJ0

>  <Rbt.Executable>
rbdock ($Id: //depot/dev/client3/rdock/2013.1/src/exe/rbdock.cxx#4 $)

>  <Rbt.Library>
libRbt.so (2013.1, Build901 2013/11/27)

>  <Rbt.Parameter_File>
/export/apps/rDock/src/rDock_2013.1_src/data/scripts/dock_solv.prm

>  <Rbt.Receptor>
prm/blind_docking_100.prm

>  <SCORE>
-4.60531

>  <SCORE.INTER>
-3.14358

>  <SCORE.INTER.CONST>
1

>  <SCORE.INTER.POLAR>
0

>  <SCORE.INTER.ROT>
5

>  <SCORE.INTER.SOLV>
13.3072

>  <SCORE.INTER.VDW>
-13.4648

>  <SCORE.INTER.norm>
-0.314358

>  <SCORE.INTRA>
-1.46173

>  <SCORE.INTRA.DIHEDRAL>
-3.27536

>  <SCORE.INTRA.DIHEDRAL.0>
6.00299

>  <SCORE.INTRA.POLAR>
0

>  <SCORE.INTRA.POLAR.0>
0

>  <SCORE.INTRA.REPUL>
0

>  <SCORE.INTRA.REPUL.0>
0

>  <SCORE.INTRA.SOLV>
0.434311

>  <SCORE.INTRA.SOLV.lig_0>
-39.3257

>  <SCORE.INTRA.VDW>
-0.0412097

>  <SCORE.INTRA.VDW.0>
-0.734044

>  <SCORE.INTRA.norm>
-0.146173

>  <SCORE.RESTR>
0

>  <SCORE.RESTR.CAVITY>
0

>  <SCORE.RESTR.norm>
0

>  <SCORE.SYSTEM>
0

>  <SCORE.SYSTEM.CONST>
0

>  <SCORE.SYSTEM.DIHEDRAL>
0

>  <SCORE.SYSTEM.SOLV>
0

>  <SCORE.SYSTEM.norm>
0

>  <SCORE.heavy>
10

>  <SCORE.norm>
-0.460531

>  <RMSD>
12.998

$$$$
ligand
 OpenBabel11021811473D
libRbt.so/2013.1/901 2013/11/27
 10  9  0  0  0  0  0  0  0  0999 V2000
   23.7825   13.3240   12.9070 N   0  0  0  0  0  0  0  0  0  0  0  0
   23.5938   14.1170   11.7066 C   0  0  2  0  0  0  0  0  0  0  0  0
   22.3373   13.7019   10.9890 C   0  0  0  0  0  0  0  0  0  0  0  0
   21.6217   12.7977   11.4878 O   0  0  0  0  0  0  0  0  0  0  0  0
   24.8037   13.9551   10.7965 C   0  0  0  0  0  0  0  0  0  0  0  0
   25.9396   14.5326   11.4349 O   0  0  0  0  0  0  0  0  0  0  0  0
   27.0287   14.4804   10.5135 C   0  0  0  0  0  0  0  0  0  0  0  0
   28.2235   15.1936   11.1427 C   0  0  0  0  0  0  0  0  0  0  0  0
   28.6679   14.4744   12.3239 N   0  0  0  0  0  0  0  0  0  0  0  0
   21.8248   14.5607   10.2434 O   0  0  0  0  0  0  0  0  0  0  0  0
  2  1  1  1  0  0  0
  2  5  1  0  0  0  0
  2  3  1  0  0  0  0
  3  4  1  0  0  0  0
  3 10  1  0  0  0  0
  5  6  1  0  0  0  0
  6  7  1  0  0  0  0
  7  8  1  0  0  0  0
  8  9  1  0  0  0  0
M  END
>  <CHROM.1>
-66.20139220,1.49099770,-174.67886095,175.64647337,64.70713102,24.73943723
14.11048902,11.34200087,-3.09899633,-0.18765067,-1.07898545

>  <Name>
ligand

>  <RI>
0

>  <Rbt.Current_Directory>
/home/itssahil/PROJECTS/Mol_Feturizer/New_Systems/rnas/3DJ0

>  <Rbt.Executable>
rbdock ($Id: //depot/dev/client3/rdock/2013.1/src/exe/rbdock.cxx#4 $)

>  <Rbt.Library>
libRbt.so (2013.1, Build901 2013/11/27)

>  <Rbt.Parameter_File>
/export/apps/rDock/src/rDock_2013.1_src/data/scripts/dock_solv.prm

>  <Rbt.Receptor>
prm/blind_docking_40.prm

>  <SCORE>
-2.59918

>  <SCORE.INTER>
-1.26214

>  <SCORE.INTER.CONST>
1

>  <SCORE.INTER.POLAR>
0

>  <SCORE.INTER.ROT>
5

>  <SCORE.INTER.SOLV>
14.806

>  <SCORE.INTER.VDW>
-12.7101

>  <SCORE.INTER.norm>
-0.126214

>  <SCORE.INTRA>
-1.33703

>  <SCORE.INTRA.DIHEDRAL>
-2.80982

>  <SCORE.INTRA.DIHEDRAL.0>
6.00299

>  <SCORE.INTRA.POLAR>
0

>  <SCORE.INTRA.POLAR.0>
0

>  <SCORE.INTRA.REPUL>
0

>  <SCORE.INTRA.REPUL.0>
0

>  <SCORE.INTRA.SOLV>
0.21283

>  <SCORE.INTRA.SOLV.lig_0>
-39.3257

>  <SCORE.INTRA.VDW>
-0.0385382

>  <SCORE.INTRA.VDW.0>
-0.734044

>  <SCORE.INTRA.norm>
-0.133703

>  <SCORE.RESTR>
0

>  <SCORE.RESTR.CAVITY>
0

>  <SCORE.RESTR.norm>
0

>  <SCORE.SYSTEM>
0

>  <SCORE.SYSTEM.CONST>
0

>  <SCORE.SYSTEM.DIHEDRAL>
0

>  <SCORE.SYSTEM.SOLV>
0

>  <SCORE.SYSTEM.norm>
0

>  <SCORE.heavy>
10

>  <SCORE.norm>
-0.259918

>  <RMSD>
13.033

$$$$
ligand
 OpenBabel11021811473D
libRbt.so/2013.1/901 2013/11/27
 10  9  0  0  0  0  0  0  0  0999 V2000
   23.4708   12.8864   13.0667 N   0  0  0  0  0  0  0  0  0  0  0  0
   23.3312   13.8631   12.0028 C   0  0  2  0  0  0  0  0  0  0  0  0
   22.1080   13.5736   11.1745 C   0  0  0  0  0  0  0  0  0  0  0  0
   21.2276   12.8057   11.6365 O   0  0  0  0  0  0  0  0  0  0  0  0
   24.5795   13.8455   11.1312 C   0  0  0  0  0  0  0  0  0  0  0  0
   25.6906   14.2805   11.9109 O   0  0  0  0  0  0  0  0  0  0  0  0
   26.8333   14.3163   11.0561 C   0  0  0  0  0  0  0  0  0  0  0  0
   28.0270   14.8080   11.8719 C   0  0  0  0  0  0  0  0  0  0  0  0
   29.2017   14.9113   11.0237 N   0  0  0  0  0  0  0  0  0  0  0  0
   21.7970   14.4439   10.3366 O   0  0  0  0  0  0  0  0  0  0  0  0
  2  1  1  1  0  0  0
  2  5  1  0  0  0  0
  2  3  1  0  0  0  0
  3  4  1  0  0  0  0
  3 10  1  0  0  0  0
  5  6  1  0  0  0  0
  6  7  1  0  0  0  0
  7  8  1  0  0  0  0
  8  9  1  0  0  0  0
M  END
>  <CHROM.1>
-64.93337236,16.64295887,-177.27092592,178.88221965,-177.69106412,24.58216882
13.97168502,11.51070156,-3.03851830,-0.17045943,-1.04582928

>  <Name>
ligand

>  <RI>
0

>  <Rbt.Current_Directory>
/home/itssahil/PROJECTS/Mol_Feturizer/New_Systems/rnas/3DJ0

>  <Rbt.Executable>
rbdock ($Id: //depot/dev/client3/rdock/2013.1/src/exe/rbdock.cxx#4 $)

>  <Rbt.Library>
libRbt.so (2013.1, Build901 2013/11/27)

>  <Rbt.Parameter_File>
/export/apps/rDock/src/rDock_2013.1_src/data/scripts/dock_solv.prm

>  <Rbt.Receptor>
prm/blind_docking_60.prm

>  <SCORE>
-3.8972

>  <SCORE.INTER>
-2.05122

>  <SCORE.INTER.CONST>
1

>  <SCORE.INTER.POLAR>
0

>  <SCORE.INTER.ROT>
5

>  <SCORE.INTER.SOLV>
14.0311

>  <SCORE.INTER.VDW>
-12.9779

>  <SCORE.INTER.norm>
-0.205122

>  <SCORE.INTRA>
-1.84598

>  <SCORE.INTRA.DIHEDRAL>
-3.05936

>  <SCORE.INTRA.DIHEDRAL.0>
6.00299

>  <SCORE.INTRA.POLAR>
0

>  <SCORE.INTRA.POLAR.0>
0

>  <SCORE.INTRA.REPUL>
0

>  <SCORE.INTRA.REPUL.0>
0

>  <SCORE.INTRA.SOLV>
-0.823936

>  <SCORE.INTRA.SOLV.lig_0>
-39.3257

>  <SCORE.INTRA.VDW>
0.0956684

>  <SCORE.INTRA.VDW.0>
-0.734044

>  <SCORE.INTRA.norm>
-0.184598

>  <SCORE.RESTR>
0

>  <SCORE.RESTR.CAVITY>
0

>  <SCORE.RESTR.norm>
0

>  <SCORE.SYSTEM>
0

>  <SCORE.SYSTEM.CONST>
0

>  <SCORE.SYSTEM.DIHEDRAL>
0

>  <SCORE.SYSTEM.SOLV>
0

>  <SCORE.SYSTEM.norm>
0

>  <SCORE.heavy>
10

>  <SCORE.norm>
-0.38972

>  <RMSD>
13.037

$$$$
ligand
 OpenBabel11021811473D
libRbt.so/2013.1/901 2013/11/27
 10  9  0  0  0  0  0  0  0  0999 V2000
   23.4115   13.0326   13.0684 N   0  0  0  0  0  0  0  0  0  0  0  0
   23.2894   14.0536   12.0446 C   0  0  2  0  0  0  0  0  0  0  0  0
   22.0169   13.8696   11.2615 C   0  0  0  0  0  0  0  0  0  0  0  0
   21.8515   14.5292   10.2051 O   0  0  0  0  0  0  0  0  0  0  0  0
   24.4968   13.9906   11.1191 C   0  0  0  0  0  0  0  0  0  0  0  0
   25.6683   14.2985   11.8703 O   0  0  0  0  0  0  0  0  0  0  0  0
   26.7708   14.3246   10.9639 C   0  0  0  0  0  0  0  0  0  0  0  0
   28.0306   14.6775   11.7516 C   0  0  0  0  0  0  0  0  0  0  0  0
   29.1574   14.8294   10.8475 N   0  0  0  0  0  0  0  0  0  0  0  0
   21.4387   12.7740   11.4080 O   0  0  0  0  0  0  0  0  0  0  0  0
  2  1  1  1  0  0  0
  2  5  1  0  0  0  0
  2  3  1  0  0  0  0
  3  4  1  0  0  0  0
  3 10  1  0  0  0  0
  5  6  1  0  0  0  0
  6  7  1  0  0  0  0
  7  8  1  0  0  0  0
  8  9  1  0  0  0  0
M  END
>  <CHROM.1>
-63.63099423,-168.79894771,-176.02362468,179.03578318,-175.04415353,24.57331566
14.03205088,11.43905357,-3.05074309,-0.14686626,-1.08514329

>  <Name>
ligand

>  <RI>
0

>  <Rbt.Current_Directory>
/home/itssahil/PROJECTS/Mol_Feturizer/New_Systems/rnas/3DJ0

>  <Rbt.Executable>
rbdock ($Id: //depot/dev/client3/rdock/2013.1/src/exe/rbdock.cxx#4 $)

>  <Rbt.Library>
libRbt.so (2013.1, Build901 2013/11/27)

>  <Rbt.Parameter_File>
/export/apps/rDock/src/rDock_2013.1_src/data/scripts/dock_solv.prm

>  <Rbt.Receptor>
prm/blind_docking_40.prm

>  <SCORE>
-3.4965

>  <SCORE.INTER>
-1.68589

>  <SCORE.INTER.CONST>
1

>  <SCORE.INTER.POLAR>
0

>  <SCORE.INTER.ROT>
5

>  <SCORE.INTER.SOLV>
13.844

>  <SCORE.INTER.VDW>
-12.6719

>  <SCORE.INTER.norm>
-0.168589

>  <SCORE.INTRA>
-1.81061

>  <SCORE.INTRA.DIHEDRAL>
-3.76916

>  <SCORE.INTRA.DIHEDRAL.0>
6.00299

>  <SCORE.INTRA.POLAR>
0

>  <SCORE.INTRA.POLAR.0>
0

>  <SCORE.INTRA.REPUL>
0

>  <SCORE.INTRA.REPUL.0>
0

>  <SCORE.INTRA.SOLV>
-0.719081

>  <SCORE.INTRA.SOLV.lig_0>
-39.3257

>  <SCORE.INTRA.VDW>
0.433507

>  <SCORE.INTRA.VDW.0>
-0.734044

>  <SCORE.INTRA.norm>
-0.181061

>  <SCORE.RESTR>
0

>  <SCORE.RESTR.CAVITY>
0

>  <SCORE.RESTR.norm>
0

>  <SCORE.SYSTEM>
0

>  <SCORE.SYSTEM.CONST>
0

>  <SCORE.SYSTEM.DIHEDRAL>
0

>  <SCORE.SYSTEM.SOLV>
0

>  <SCORE.SYSTEM.norm>
0

>  <SCORE.heavy>
10

>  <SCORE.norm>
-0.34965

>  <RMSD>
13.069

$$$$
ligand
 OpenBabel11021811473D
libRbt.so/2013.1/901 2013/11/27
 10  9  0  0  0  0  0  0  0  0999 V2000
   27.4895   14.5335   10.0879 N   0  0  0  0  0  0  0  0  0  0  0  0
   26.1475   14.0308    9.8602 C   0  0  2  0  0  0  0  0  0  0  0  0
   25.4711   14.8045    8.7603 C   0  0  0  0  0  0  0  0  0  0  0  0
   25.4762   16.0600    8.8069 O   0  0  0  0  0  0  0  0  0  0  0  0
   25.3440   14.1280   11.1499 C   0  0  0  0  0  0  0  0  0  0  0  0
   24.0638   13.5377   10.9394 O   0  0  0  0  0  0  0  0  0  0  0  0
   23.3159   13.6812   12.1468 C   0  0  0  0  0  0  0  0  0  0  0  0
   21.9340   13.0682   11.9303 C   0  0  0  0  0  0  0  0  0  0  0  0
   21.1300   13.2151   13.1312 N   0  0  0  0  0  0  0  0  0  0  0  0
   25.3786   14.2231    7.6605 O   0  0  0  0  0  0  0  0  0  0  0  0
  2  1  1  1  0  0  0
  2  5  1  0  0  0  0
  2  3  1  0  0  0  0
  3  4  1  0  0  0  0
  3 10  1  0  0  0  0
  5  6  1  0  0  0  0
  6  7  1  0  0  0  0
  7  8  1  0  0  0  0
  8  9  1  0  0  0  0
M  END
>  <CHROM.1>
-175.60323024,-49.97763507,-178.10148742,179.30070741,-178.98220478,24.57420934
14.14390072,10.40905015,-0.75565116,0.11442512,1.86149887

>  <Name>
ligand

>  <RI>
0

>  <Rbt.Current_Directory>
/home/itssahil/PROJECTS/Mol_Feturizer/New_Systems/rnas/3DJ0

>  <Rbt.Executable>
rbdock ($Id: //depot/dev/client3/rdock/2013.1/src/exe/rbdock.cxx#4 $)

>  <Rbt.Library>
libRbt.so (2013.1, Build901 2013/11/27)

>  <Rbt.Parameter_File>
/export/apps/rDock/src/rDock_2013.1_src/data/scripts/dock_solv.prm

>  <Rbt.Receptor>
prm/blind_docking_40.prm

>  <SCORE>
-4.90345

>  <SCORE.INTER>
-2.14277

>  <SCORE.INTER.CONST>
1

>  <SCORE.INTER.POLAR>
0

>  <SCORE.INTER.ROT>
5

>  <SCORE.INTER.SOLV>
7.22873

>  <SCORE.INTER.VDW>
-10.7714

>  <SCORE.INTER.norm>
-0.214277

>  <SCORE.INTRA>
-2.76068

>  <SCORE.INTRA.DIHEDRAL>
-3.89031

>  <SCORE.INTRA.DIHEDRAL.0>
6.00299

>  <SCORE.INTRA.POLAR>
0

>  <SCORE.INTRA.POLAR.0>
0

>  <SCORE.INTRA.REPUL>
0

>  <SCORE.INTRA.REPUL.0>
0

>  <SCORE.INTRA.SOLV>
-1.28029

>  <SCORE.INTRA.SOLV.lig_0>
-39.3257

>  <SCORE.INTRA.VDW>
-0.175378

>  <SCORE.INTRA.VDW.0>
-0.734044

>  <SCORE.INTRA.norm>
-0.276068

>  <SCORE.RESTR>
0

>  <SCORE.RESTR.CAVITY>
0

>  <SCORE.RESTR.norm>
0

>  <SCORE.SYSTEM>
0

>  <SCORE.SYSTEM.CONST>
0

>  <SCORE.SYSTEM.DIHEDRAL>
0

>  <SCORE.SYSTEM.SOLV>
0

>  <SCORE.SYSTEM.norm>
0

>  <SCORE.heavy>
10

>  <SCORE.norm>
-0.490345

>  <RMSD>
13.101

$$$$
ligand
 OpenBabel11021811473D
libRbt.so/2013.1/901 2013/11/27
 10  9  0  0  0  0  0  0  0  0999 V2000
   27.4736   14.5245   10.0827 N   0  0  0  0  0  0  0  0  0  0  0  0
   26.1288   14.0306    9.8527 C   0  0  2  0  0  0  0  0  0  0  0  0
   25.4585   14.8100    8.7530 C   0  0  0  0  0  0  0  0  0  0  0  0
   25.4912   16.0654    8.7893 O   0  0  0  0  0  0  0  0  0  0  0  0
   25.3244   14.1310   11.1416 C   0  0  0  0  0  0  0  0  0  0  0  0
   24.0469   13.5339   10.9338 O   0  0  0  0  0  0  0  0  0  0  0  0
   23.2963   13.6844   12.1386 C   0  0  0  0  0  0  0  0  0  0  0  0
   21.9205   13.0559   11.9280 C   0  0  0  0  0  0  0  0  0  0  0  0
   21.1118   13.2142   13.1242 N   0  0  0  0  0  0  0  0  0  0  0  0
   25.3428   14.2220    7.6589 O   0  0  0  0  0  0  0  0  0  0  0  0
  2  1  1  1  0  0  0
  2  5  1  0  0  0  0
  2  3  1  0  0  0  0
  3  4  1  0  0  0  0
  3 10  1  0  0  0  0
  5  6  1  0  0  0  0
  6  7  1  0  0  0  0
  7  8  1  0  0  0  0
  8  9  1  0  0  0  0
M  END
>  <CHROM.1>
-174.87330095,-48.77169034,-177.91248446,179.67036559,-178.73959378,24.55874348
14.14286542,10.40194216,-0.75558912,0.11740764,1.86068881

>  <Name>
ligand

>  <RI>
0

>  <Rbt.Current_Directory>
/home/itssahil/PROJECTS/Mol_Feturizer/New_Systems/rnas/3DJ0

>  <Rbt.Executable>
rbdock ($Id: //depot/dev/client3/rdock/2013.1/src/exe/rbdock.cxx#4 $)

>  <Rbt.Library>
libRbt.so (2013.1, Build901 2013/11/27)

>  <Rbt.Parameter_File>
/export/apps/rDock/src/rDock_2013.1_src/data/scripts/dock_solv.prm

>  <Rbt.Receptor>
prm/blind_docking_40.prm

>  <SCORE>
-4.89591

>  <SCORE.INTER>
-2.13383

>  <SCORE.INTER.CONST>
1

>  <SCORE.INTER.POLAR>
0

>  <SCORE.INTER.ROT>
5

>  <SCORE.INTER.SOLV>
7.23795

>  <SCORE.INTER.VDW>
-10.7685

>  <SCORE.INTER.norm>
-0.213383

>  <SCORE.INTRA>
-2.76208

>  <SCORE.INTRA.DIHEDRAL>
-3.86336

>  <SCORE.INTRA.DIHEDRAL.0>
6.00299

>  <SCORE.INTRA.POLAR>
0

>  <SCORE.INTRA.POLAR.0>
0

>  <SCORE.INTRA.REPUL>
0

>  <SCORE.INTRA.REPUL.0>
0

>  <SCORE.INTRA.SOLV>
-1.28506

>  <SCORE.INTRA.SOLV.lig_0>
-39.3257

>  <SCORE.INTRA.VDW>
-0.187871

>  <SCORE.INTRA.VDW.0>
-0.734044

>  <SCORE.INTRA.norm>
-0.276208

>  <SCORE.RESTR>
0

>  <SCORE.RESTR.CAVITY>
0

>  <SCORE.RESTR.norm>
0

>  <SCORE.SYSTEM>
0

>  <SCORE.SYSTEM.CONST>
0

>  <SCORE.SYSTEM.DIHEDRAL>
0

>  <SCORE.SYSTEM.SOLV>
0

>  <SCORE.SYSTEM.norm>
0

>  <SCORE.heavy>
10

>  <SCORE.norm>
-0.489591

>  <RMSD>
13.115

$$$$
ligand
 OpenBabel11021811473D
libRbt.so/2013.1/901 2013/11/27
 10  9  0  0  0  0  0  0  0  0999 V2000
   27.4591   14.6201   10.0039 N   0  0  0  0  0  0  0  0  0  0  0  0
   26.1271   14.0837    9.7952 C   0  0  2  0  0  0  0  0  0  0  0  0
   25.4089   14.8519    8.7182 C   0  0  0  0  0  0  0  0  0  0  0  0
   25.4267   16.1077    8.7510 O   0  0  0  0  0  0  0  0  0  0  0  0
   25.3462   14.1431   11.1010 C   0  0  0  0  0  0  0  0  0  0  0  0
   24.0688   13.5435   10.9003 O   0  0  0  0  0  0  0  0  0  0  0  0
   23.3403   13.6544   12.1229 C   0  0  0  0  0  0  0  0  0  0  0  0
   21.9472   13.0677   11.9058 C   0  0  0  0  0  0  0  0  0  0  0  0
   21.1616   13.1857   13.1219 N   0  0  0  0  0  0  0  0  0  0  0  0
   25.2628   14.2600    7.6298 O   0  0  0  0  0  0  0  0  0  0  0  0
  2  1  1  1  0  0  0
  2  5  1  0  0  0  0
  2  3  1  0  0  0  0
  3  4  1  0  0  0  0
  3 10  1  0  0  0  0
  5  6  1  0  0  0  0
  6  7  1  0  0  0  0
  7  8  1  0  0  0  0
  8  9  1  0  0  0  0
M  END
>  <CHROM.1>
-176.69622025,-47.13731465,-177.97143877,177.68149483,-178.85350480,24.55295073
14.16736158,10.36690776,-0.77136308,0.12764019,1.86792194

>  <Name>
ligand

>  <RI>
0

>  <Rbt.Current_Directory>
/home/itssahil/PROJECTS/Mol_Feturizer/New_Systems/rnas/3DJ0

>  <Rbt.Executable>
rbdock ($Id: //depot/dev/client3/rdock/2013.1/src/exe/rbdock.cxx#4 $)

>  <Rbt.Library>
libRbt.so (2013.1, Build901 2013/11/27)

>  <Rbt.Parameter_File>
/export/apps/rDock/src/rDock_2013.1_src/data/scripts/dock_solv.prm

>  <Rbt.Receptor>
prm/blind_docking_100.prm

>  <SCORE>
-4.73672

>  <SCORE.INTER>
-1.97667

>  <SCORE.INTER.CONST>
1

>  <SCORE.INTER.POLAR>
0

>  <SCORE.INTER.ROT>
5

>  <SCORE.INTER.SOLV>
7.50405

>  <SCORE.INTER.VDW>
-10.7525

>  <SCORE.INTER.norm>
-0.197667

>  <SCORE.INTRA>
-2.76005

>  <SCORE.INTRA.DIHEDRAL>
-3.89625

>  <SCORE.INTRA.DIHEDRAL.0>
6.00299

>  <SCORE.INTRA.POLAR>
0

>  <SCORE.INTRA.POLAR.0>
0

>  <SCORE.INTRA.REPUL>
0

>  <SCORE.INTRA.REPUL.0>
0

>  <SCORE.INTRA.SOLV>
-1.27768

>  <SCORE.INTRA.SOLV.lig_0>
-39.3257

>  <SCORE.INTRA.VDW>
-0.173085

>  <SCORE.INTRA.VDW.0>
-0.734044

>  <SCORE.INTRA.norm>
-0.276005

>  <SCORE.RESTR>
0

>  <SCORE.RESTR.CAVITY>
0

>  <SCORE.RESTR.norm>
0

>  <SCORE.SYSTEM>
0

>  <SCORE.SYSTEM.CONST>
0

>  <SCORE.SYSTEM.DIHEDRAL>
0

>  <SCORE.SYSTEM.SOLV>
0

>  <SCORE.SYSTEM.norm>
0

>  <SCORE.heavy>
10

>  <SCORE.norm>
-0.473672

>  <RMSD>
13.147

$$$$
ligand
 OpenBabel11021811473D
libRbt.so/2013.1/901 2013/11/27
 10  9  0  0  0  0  0  0  0  0999 V2000
   27.2628   14.5697   10.0719 N   0  0  0  0  0  0  0  0  0  0  0  0
   25.9249   14.0401    9.8848 C   0  0  2  0  0  0  0  0  0  0  0  0
   25.1891   14.8196    8.8280 C   0  0  0  0  0  0  0  0  0  0  0  0
   25.3989   16.0541    8.7252 O   0  0  0  0  0  0  0  0  0  0  0  0
   25.1697   14.0919   11.2059 C   0  0  0  0  0  0  0  0  0  0  0  0
   23.9018   13.4632   11.0354 O   0  0  0  0  0  0  0  0  0  0  0  0
   23.1896   13.5817   12.2668 C   0  0  0  0  0  0  0  0  0  0  0  0
   21.8102   12.9520   12.0853 C   0  0  0  0  0  0  0  0  0  0  0  0
   21.0192   13.1285   13.2907 N   0  0  0  0  0  0  0  0  0  0  0  0
   24.8082   14.1684    7.8345 O   0  0  0  0  0  0  0  0  0  0  0  0
  2  1  1  1  0  0  0
  2  5  1  0  0  0  0
  2  3  1  0  0  0  0
  3  4  1  0  0  0  0
  3 10  1  0  0  0  0
  5  6  1  0  0  0  0
  6  7  1  0  0  0  0
  7  8  1  0  0  0  0
  8  9  1  0  0  0  0
M  END
>  <CHROM.1>
-174.99594428,-34.73578840,-177.26293746,178.18568459,-176.31816974,24.36464496
14.10169961,10.48444145,-0.78688129,0.15042304,1.86070577

>  <Name>
ligand

>  <RI>
0

>  <Rbt.Current_Directory>
/home/itssahil/PROJECTS/Mol_Feturizer/New_Systems/rnas/3DJ0

>  <Rbt.Executable>
rbdock ($Id: //depot/dev/client3/rdock/2013.1/src/exe/rbdock.cxx#4 $)

>  <Rbt.Library>
libRbt.so (2013.1, Build901 2013/11/27)

>  <Rbt.Parameter_File>
/export/apps/rDock/src/rDock_2013.1_src/data/scripts/dock_solv.prm

>  <Rbt.Receptor>
prm/blind_docking_40.prm

>  <SCORE>
-4.74028

>  <SCORE.INTER>
-2.04308

>  <SCORE.INTER.CONST>
1

>  <SCORE.INTER.POLAR>
0

>  <SCORE.INTER.ROT>
5

>  <SCORE.INTER.SOLV>
7.35144

>  <SCORE.INTER.VDW>
-10.7459

>  <SCORE.INTER.norm>
-0.204308

>  <SCORE.INTRA>
-2.6972

>  <SCORE.INTRA.DIHEDRAL>
-3.70482

>  <SCORE.INTRA.DIHEDRAL.0>
6.00299

>  <SCORE.INTRA.POLAR>
0

>  <SCORE.INTRA.POLAR.0>
0

>  <SCORE.INTRA.REPUL>
0

>  <SCORE.INTRA.REPUL.0>
0

>  <SCORE.INTRA.SOLV>
-1.29532

>  <SCORE.INTRA.SOLV.lig_0>
-39.3257

>  <SCORE.INTRA.VDW>
-0.197133

>  <SCORE.INTRA.VDW.0>
-0.734044

>  <SCORE.INTRA.norm>
-0.26972

>  <SCORE.RESTR>
0

>  <SCORE.RESTR.CAVITY>
0

>  <SCORE.RESTR.norm>
0

>  <SCORE.SYSTEM>
0

>  <SCORE.SYSTEM.CONST>
0

>  <SCORE.SYSTEM.DIHEDRAL>
0

>  <SCORE.SYSTEM.SOLV>
0

>  <SCORE.SYSTEM.norm>
0

>  <SCORE.heavy>
10

>  <SCORE.norm>
-0.474028

>  <RMSD>
13.162

$$$$
ligand
 OpenBabel11021811473D
libRbt.so/2013.1/901 2013/11/27
 10  9  0  0  0  0  0  0  0  0999 V2000
   27.2781   14.5021    9.8486 N   0  0  0  0  0  0  0  0  0  0  0  0
   25.9095   14.0231    9.7932 C   0  0  2  0  0  0  0  0  0  0  0  0
   25.1052   14.8286    8.8081 C   0  0  0  0  0  0  0  0  0  0  0  0
   25.3207   16.0625    8.7108 O   0  0  0  0  0  0  0  0  0  0  0  0
   25.2871   14.1051   11.1804 C   0  0  0  0  0  0  0  0  0  0  0  0
   23.9757   13.5489   11.1294 O   0  0  0  0  0  0  0  0  0  0  0  0
   23.4354   13.5893   12.4500 C   0  0  0  0  0  0  0  0  0  0  0  0
   22.0231   13.0099   12.4081 C   0  0  0  0  0  0  0  0  0  0  0  0
   21.1552   13.8688   11.6212 N   0  0  0  0  0  0  0  0  0  0  0  0
   24.6436   14.1990    7.8352 O   0  0  0  0  0  0  0  0  0  0  0  0
  2  1  1  1  0  0  0
  2  5  1  0  0  0  0
  2  3  1  0  0  0  0
  3  4  1  0  0  0  0
  3 10  1  0  0  0  0
  5  6  1  0  0  0  0
  6  7  1  0  0  0  0
  7  8  1  0  0  0  0
  8  9  1  0  0  0  0
M  END
>  <CHROM.1>
-176.14604194,-37.01638383,177.75238542,179.38801855,-65.77555517,24.40768189
14.18785690,10.34611219,-0.76506645,0.04904747,1.93823894

>  <Name>
ligand

>  <RI>
0

>  <Rbt.Current_Directory>
/home/itssahil/PROJECTS/Mol_Feturizer/New_Systems/rnas/3DJ0

>  <Rbt.Executable>
rbdock ($Id: //depot/dev/client3/rdock/2013.1/src/exe/rbdock.cxx#4 $)

>  <Rbt.Library>
libRbt.so (2013.1, Build901 2013/11/27)

>  <Rbt.Parameter_File>
/export/apps/rDock/src/rDock_2013.1_src/data/scripts/dock_solv.prm

>  <Rbt.Receptor>
prm/blind_docking_40.prm

>  <SCORE>
-3.70937

>  <SCORE.INTER>
-1.47598

>  <SCORE.INTER.CONST>
1

>  <SCORE.INTER.POLAR>
0

>  <SCORE.INTER.ROT>
5

>  <SCORE.INTER.SOLV>
9.52024

>  <SCORE.INTER.VDW>
-11.0907

>  <SCORE.INTER.norm>
-0.147598

>  <SCORE.INTRA>
-2.23339

>  <SCORE.INTRA.DIHEDRAL>
-3.72163

>  <SCORE.INTRA.DIHEDRAL.0>
6.00299

>  <SCORE.INTRA.POLAR>
0

>  <SCORE.INTRA.POLAR.0>
0

>  <SCORE.INTRA.REPUL>
0

>  <SCORE.INTRA.REPUL.0>
0

>  <SCORE.INTRA.SOLV>
-0.245302

>  <SCORE.INTRA.SOLV.lig_0>
-39.3257

>  <SCORE.INTRA.VDW>
-0.249931

>  <SCORE.INTRA.VDW.0>
-0.734044

>  <SCORE.INTRA.norm>
-0.223339

>  <SCORE.RESTR>
0

>  <SCORE.RESTR.CAVITY>
0

>  <SCORE.RESTR.norm>
0

>  <SCORE.SYSTEM>
0

>  <SCORE.SYSTEM.CONST>
0

>  <SCORE.SYSTEM.DIHEDRAL>
0

>  <SCORE.SYSTEM.SOLV>
0

>  <SCORE.SYSTEM.norm>
0

>  <SCORE.heavy>
10

>  <SCORE.norm>
-0.370937

>  <RMSD>
13.226

$$$$
ligand
 OpenBabel11021811473D
libRbt.so/2013.1/901 2013/11/27
 10  9  0  0  0  0  0  0  0  0999 V2000
   26.5500   14.5291   10.7033 N   0  0  0  0  0  0  0  0  0  0  0  0
   25.6703   13.9993    9.6783 C   0  0  2  0  0  0  0  0  0  0  0  0
   25.6934   14.8759    8.4547 C   0  0  0  0  0  0  0  0  0  0  0  0
   25.6694   14.3378    7.3197 O   0  0  0  0  0  0  0  0  0  0  0  0
   24.2549   13.8937   10.2296 C   0  0  0  0  0  0  0  0  0  0  0  0
   24.2632   13.0146   11.3516 O   0  0  0  0  0  0  0  0  0  0  0  0
   22.9316   12.9494   11.8617 C   0  0  0  0  0  0  0  0  0  0  0  0
   22.9333   12.0448   13.0921 C   0  0  0  0  0  0  0  0  0  0  0  0
   21.5838   11.9074   13.6116 N   0  0  0  0  0  0  0  0  0  0  0  0
   25.2540   16.0338    8.6038 O   0  0  0  0  0  0  0  0  0  0  0  0
  2  1  1  1  0  0  0
  2  5  1  0  0  0  0
  2  3  1  0  0  0  0
  3  4  1  0  0  0  0
  3 10  1  0  0  0  0
  5  6  1  0  0  0  0
  6  7  1  0  0  0  0
  7  8  1  0  0  0  0
  8  9  1  0  0  0  0
M  END
>  <CHROM.1>
-60.33076443,140.92606216,179.10633271,-178.24665049,-177.69479845,24.48758708
13.77812899,10.45265768,-0.98976165,0.31909985,1.90898231

>  <Name>
ligand

>  <RI>
0

>  <Rbt.Current_Directory>
/home/itssahil/PROJECTS/Mol_Feturizer/New_Systems/rnas/3DJ0

>  <Rbt.Executable>
rbdock ($Id: //depot/dev/client3/rdock/2013.1/src/exe/rbdock.cxx#4 $)

>  <Rbt.Library>
libRbt.so (2013.1, Build901 2013/11/27)

>  <Rbt.Parameter_File>
/export/apps/rDock/src/rDock_2013.1_src/data/scripts/dock_solv.prm

>  <Rbt.Receptor>
prm/blind_docking_40.prm

>  <SCORE>
-4.16472

>  <SCORE.INTER>
-2.24417

>  <SCORE.INTER.CONST>
1

>  <SCORE.INTER.POLAR>
0

>  <SCORE.INTER.ROT>
5

>  <SCORE.INTER.SOLV>
8.91434

>  <SCORE.INTER.VDW>
-11.4009

>  <SCORE.INTER.norm>
-0.224417

>  <SCORE.INTRA>
-1.92056

>  <SCORE.INTRA.DIHEDRAL>
-3.19644

>  <SCORE.INTRA.DIHEDRAL.0>
6.00299

>  <SCORE.INTRA.POLAR>
0

>  <SCORE.INTRA.POLAR.0>
0

>  <SCORE.INTRA.REPUL>
0

>  <SCORE.INTRA.REPUL.0>
0

>  <SCORE.INTRA.SOLV>
-0.82579

>  <SCORE.INTRA.SOLV.lig_0>
-39.3257

>  <SCORE.INTRA.VDW>
0.0905571

>  <SCORE.INTRA.VDW.0>
-0.734044

>  <SCORE.INTRA.norm>
-0.192056

>  <SCORE.RESTR>
0

>  <SCORE.RESTR.CAVITY>
0

>  <SCORE.RESTR.norm>
0

>  <SCORE.SYSTEM>
0

>  <SCORE.SYSTEM.CONST>
0

>  <SCORE.SYSTEM.DIHEDRAL>
0

>  <SCORE.SYSTEM.SOLV>
0

>  <SCORE.SYSTEM.norm>
0

>  <SCORE.heavy>
10

>  <SCORE.norm>
-0.416472

>  <RMSD>
13.235

$$$$
ligand
 OpenBabel11021811473D
libRbt.so/2013.1/901 2013/11/27
 10  9  0  0  0  0  0  0  0  0999 V2000
   22.9449   13.7860   10.3442 N   0  0  0  0  0  0  0  0  0  0  0  0
   24.1476   14.5940   10.2649 C   0  0  2  0  0  0  0  0  0  0  0  0
   24.5517   14.8039    8.8301 C   0  0  0  0  0  0  0  0  0  0  0  0
   25.2001   15.8357    8.5249 O   0  0  0  0  0  0  0  0  0  0  0  0
   25.2682   13.9126   11.0384 C   0  0  0  0  0  0  0  0  0  0  0  0
   26.4356   14.7275   10.9698 O   0  0  0  0  0  0  0  0  0  0  0  0
   27.4724   14.0621   11.6908 C   0  0  0  0  0  0  0  0  0  0  0  0
   28.7251   14.9343   11.6433 C   0  0  0  0  0  0  0  0  0  0  0  0
   29.1063   15.1844   10.2641 N   0  0  0  0  0  0  0  0  0  0  0  0
   24.6609   13.7726    8.1367 O   0  0  0  0  0  0  0  0  0  0  0  0
  2  1  1  6  0  0  0
  2  5  1  0  0  0  0
  2  3  1  0  0  0  0
  3  4  1  0  0  0  0
  3 10  1  0  0  0  0
  5  6  1  0  0  0  0
  6  7  1  0  0  0  0
  7  8  1  0  0  0  0
  8  9  1  0  0  0  0
M  END
>  <CHROM.1>
-179.06531574,152.73609353,-179.48378748,-179.18214918,-57.67277256,25.85501548
14.56831802,10.13995136,2.79778146,-0.24664463,-1.21637323

>  <Name>
ligand

>  <RI>
0

>  <Rbt.Current_Directory>
/home/itssahil/PROJECTS/Mol_Feturizer/New_Systems/rnas/3DJ0

>  <Rbt.Executable>
rbdock ($Id: //depot/dev/client3/rdock/2013.1/src/exe/rbdock.cxx#4 $)

>  <Rbt.Library>
libRbt.so (2013.1, Build901 2013/11/27)

>  <Rbt.Parameter_File>
/export/apps/rDock/src/rDock_2013.1_src/data/scripts/dock_solv.prm

>  <Rbt.Receptor>
prm/blind_docking_60.prm

>  <SCORE>
-5.61236

>  <SCORE.INTER>
-3.72822

>  <SCORE.INTER.CONST>
1

>  <SCORE.INTER.POLAR>
0

>  <SCORE.INTER.ROT>
5

>  <SCORE.INTER.SOLV>
15.0697

>  <SCORE.INTER.VDW>
-14.442

>  <SCORE.INTER.norm>
-0.372822

>  <SCORE.INTRA>
-1.88414

>  <SCORE.INTRA.DIHEDRAL>
-3.37306

>  <SCORE.INTRA.DIHEDRAL.0>
6.00299

>  <SCORE.INTRA.POLAR>
0

>  <SCORE.INTRA.POLAR.0>
0

>  <SCORE.INTRA.REPUL>
0

>  <SCORE.INTRA.REPUL.0>
0

>  <SCORE.INTRA.SOLV>
-0.0910396

>  <SCORE.INTRA.SOLV.lig_0>
-39.3257

>  <SCORE.INTRA.VDW>
-0.152091

>  <SCORE.INTRA.VDW.0>
-0.734044

>  <SCORE.INTRA.norm>
-0.188414

>  <SCORE.RESTR>
0

>  <SCORE.RESTR.CAVITY>
0

>  <SCORE.RESTR.norm>
0

>  <SCORE.SYSTEM>
0

>  <SCORE.SYSTEM.CONST>
0

>  <SCORE.SYSTEM.DIHEDRAL>
0

>  <SCORE.SYSTEM.SOLV>
0

>  <SCORE.SYSTEM.norm>
0

>  <SCORE.heavy>
10

>  <SCORE.norm>
-0.561236

>  <RMSD>
13.270

$$$$
ligand
 OpenBabel11021811473D
libRbt.so/2013.1/901 2013/11/27
 10  9  0  0  0  0  0  0  0  0999 V2000
   25.0253   15.5943    7.7564 N   0  0  0  0  0  0  0  0  0  0  0  0
   25.2237   15.1117    9.1104 C   0  0  2  0  0  0  0  0  0  0  0  0
   26.4019   14.1769    9.1728 C   0  0  0  0  0  0  0  0  0  0  0  0
   26.6086   13.3928    8.2131 O   0  0  0  0  0  0  0  0  0  0  0  0
   23.9608   14.4077    9.5878 C   0  0  0  0  0  0  0  0  0  0  0  0
   24.1418   14.0091   10.9443 O   0  0  0  0  0  0  0  0  0  0  0  0
   22.9698   13.3016   11.3488 C   0  0  0  0  0  0  0  0  0  0  0  0
   23.1398   12.8876   12.8089 C   0  0  0  0  0  0  0  0  0  0  0  0
   21.9674   12.1583   13.2599 N   0  0  0  0  0  0  0  0  0  0  0  0
   27.3525   14.5432    9.8928 O   0  0  0  0  0  0  0  0  0  0  0  0
  2  1  1  6  0  0  0
  2  5  1  0  0  0  0
  2  3  1  0  0  0  0
  3  4  1  0  0  0  0
  3 10  1  0  0  0  0
  5  6  1  0  0  0  0
  6  7  1  0  0  0  0
  7  8  1  0  0  0  0
  8  9  1  0  0  0  0
M  END
>  <CHROM.1>
-176.61432443,-37.04433248,-177.50025516,-179.08470244,-179.79088444,24.71927245
13.94971198,10.20276569,0.86207460,0.16216885,-1.00430823

>  <Name>
ligand

>  <RI>
0

>  <Rbt.Current_Directory>
/home/itssahil/PROJECTS/Mol_Feturizer/New_Systems/rnas/3DJ0

>  <Rbt.Executable>
rbdock ($Id: //depot/dev/client3/rdock/2013.1/src/exe/rbdock.cxx#4 $)

>  <Rbt.Library>
libRbt.so (2013.1, Build901 2013/11/27)

>  <Rbt.Parameter_File>
/export/apps/rDock/src/rDock_2013.1_src/data/scripts/dock_solv.prm

>  <Rbt.Receptor>
prm/blind_docking_40.prm

>  <SCORE>
-4.62569

>  <SCORE.INTER>
-1.87572

>  <SCORE.INTER.CONST>
1

>  <SCORE.INTER.POLAR>
0

>  <SCORE.INTER.ROT>
5

>  <SCORE.INTER.SOLV>
11.143

>  <SCORE.INTER.VDW>
-11.8982

>  <SCORE.INTER.norm>
-0.187572

>  <SCORE.INTRA>
-2.74997

>  <SCORE.INTRA.DIHEDRAL>
-3.85129

>  <SCORE.INTRA.DIHEDRAL.0>
6.00299

>  <SCORE.INTRA.POLAR>
0

>  <SCORE.INTRA.POLAR.0>
0

>  <SCORE.INTRA.REPUL>
0

>  <SCORE.INTRA.REPUL.0>
0

>  <SCORE.INTRA.SOLV>
-1.28676

>  <SCORE.INTRA.SOLV.lig_0>
-39.3257

>  <SCORE.INTRA.VDW>
-0.180942

>  <SCORE.INTRA.VDW.0>
-0.734044

>  <SCORE.INTRA.norm>
-0.274997

>  <SCORE.RESTR>
0

>  <SCORE.RESTR.CAVITY>
0

>  <SCORE.RESTR.norm>
0

>  <SCORE.SYSTEM>
0

>  <SCORE.SYSTEM.CONST>
0

>  <SCORE.SYSTEM.DIHEDRAL>
0

>  <SCORE.SYSTEM.SOLV>
0

>  <SCORE.SYSTEM.norm>
0

>  <SCORE.heavy>
10

>  <SCORE.norm>
-0.462569

>  <RMSD>
13.274

$$$$
ligand
 OpenBabel11021811473D
libRbt.so/2013.1/901 2013/11/27
 10  9  0  0  0  0  0  0  0  0999 V2000
   25.0153   15.5824    7.7542 N   0  0  0  0  0  0  0  0  0  0  0  0
   25.2147   15.1004    9.1082 C   0  0  2  0  0  0  0  0  0  0  0  0
   26.3964   14.1700    9.1713 C   0  0  0  0  0  0  0  0  0  0  0  0
   26.6049   13.3848    8.2130 O   0  0  0  0  0  0  0  0  0  0  0  0
   23.9542   14.3917    9.5850 C   0  0  0  0  0  0  0  0  0  0  0  0
   24.1253   14.0181   10.9498 O   0  0  0  0  0  0  0  0  0  0  0  0
   22.9619   13.2947   11.3509 C   0  0  0  0  0  0  0  0  0  0  0  0
   23.1283   12.8928   12.8148 C   0  0  0  0  0  0  0  0  0  0  0  0
   21.9569   12.1627   13.2675 N   0  0  0  0  0  0  0  0  0  0  0  0
   27.3464   14.5413    9.8895 O   0  0  0  0  0  0  0  0  0  0  0  0
  2  1  1  6  0  0  0
  2  5  1  0  0  0  0
  2  3  1  0  0  0  0
  3  4  1  0  0  0  0
  3 10  1  0  0  0  0
  5  6  1  0  0  0  0
  6  7  1  0  0  0  0
  7  8  1  0  0  0  0
  8  9  1  0  0  0  0
M  END
>  <CHROM.1>
-175.43045586,-37.19709717,-176.96563171,-179.75059074,179.47764679,24.71051786
13.94550416,10.20370236,0.86154646,0.16085661,-1.00863539

>  <Name>
ligand

>  <RI>
0

>  <Rbt.Current_Directory>
/home/itssahil/PROJECTS/Mol_Feturizer/New_Systems/rnas/3DJ0

>  <Rbt.Executable>
rbdock ($Id: //depot/dev/client3/rdock/2013.1/src/exe/rbdock.cxx#4 $)

>  <Rbt.Library>
libRbt.so (2013.1, Build901 2013/11/27)

>  <Rbt.Parameter_File>
/export/apps/rDock/src/rDock_2013.1_src/data/scripts/dock_solv.prm

>  <Rbt.Receptor>
prm/blind_docking_40.prm

>  <SCORE>
-4.6252

>  <SCORE.INTER>
-1.88004

>  <SCORE.INTER.CONST>
1

>  <SCORE.INTER.POLAR>
0

>  <SCORE.INTER.ROT>
5

>  <SCORE.INTER.SOLV>
11.0828

>  <SCORE.INTER.VDW>
-11.881

>  <SCORE.INTER.norm>
-0.188004

>  <SCORE.INTRA>
-2.74516

>  <SCORE.INTRA.DIHEDRAL>
-3.80689

>  <SCORE.INTRA.DIHEDRAL.0>
6.00299

>  <SCORE.INTRA.POLAR>
0

>  <SCORE.INTRA.POLAR.0>
0

>  <SCORE.INTRA.REPUL>
0

>  <SCORE.INTRA.REPUL.0>
0

>  <SCORE.INTRA.SOLV>
-1.29224

>  <SCORE.INTRA.SOLV.lig_0>
-39.3257

>  <SCORE.INTRA.VDW>
-0.195599

>  <SCORE.INTRA.VDW.0>
-0.734044

>  <SCORE.INTRA.norm>
-0.274516

>  <SCORE.RESTR>
0

>  <SCORE.RESTR.CAVITY>
0

>  <SCORE.RESTR.norm>
0

>  <SCORE.SYSTEM>
0

>  <SCORE.SYSTEM.CONST>
0

>  <SCORE.SYSTEM.DIHEDRAL>
0

>  <SCORE.SYSTEM.SOLV>
0

>  <SCORE.SYSTEM.norm>
0

>  <SCORE.heavy>
10

>  <SCORE.norm>
-0.46252

>  <RMSD>
13.279

$$$$
ligand
 OpenBabel11021811473D
libRbt.so/2013.1/901 2013/11/27
 10  9  0  0  0  0  0  0  0  0999 V2000
   25.4533   14.3562   11.4415 N   0  0  0  0  0  0  0  0  0  0  0  0
   26.5751   13.8230   10.6913 C   0  0  2  0  0  0  0  0  0  0  0  0
   27.8535   14.5122   11.0874 C   0  0  0  0  0  0  0  0  0  0  0  0
   27.8980   15.7676   11.0732 O   0  0  0  0  0  0  0  0  0  0  0  0
   26.3171   13.9973    9.2008 C   0  0  0  0  0  0  0  0  0  0  0  0
   27.3272   13.3011    8.4751 O   0  0  0  0  0  0  0  0  0  0  0  0
   27.0531   13.4652    7.0838 C   0  0  0  0  0  0  0  0  0  0  0  0
   28.1511   12.7581    6.2922 C   0  0  0  0  0  0  0  0  0  0  0  0
   27.9461   12.9576    4.8681 N   0  0  0  0  0  0  0  0  0  0  0  0
   28.6067   13.8714   11.8478 O   0  0  0  0  0  0  0  0  0  0  0  0
  2  1  1  1  0  0  0
  2  5  1  0  0  0  0
  2  3  1  0  0  0  0
  3  4  1  0  0  0  0
  3 10  1  0  0  0  0
  5  6  1  0  0  0  0
  6  7  1  0  0  0  0
  7  8  1  0  0  0  0
  8  9  1  0  0  0  0
M  END
>  <CHROM.1>
-171.69672368,-51.94015014,179.25053523,178.37732869,-177.16946308,27.34544835
13.89478489,9.23457174,1.64631673,0.04303672,1.28974591

>  <Name>
ligand

>  <RI>
0

>  <Rbt.Current_Directory>
/home/itssahil/PROJECTS/Mol_Feturizer/New_Systems/rnas/3DJ0

>  <Rbt.Executable>
rbdock ($Id: //depot/dev/client3/rdock/2013.1/src/exe/rbdock.cxx#4 $)

>  <Rbt.Library>
libRbt.so (2013.1, Build901 2013/11/27)

>  <Rbt.Parameter_File>
/export/apps/rDock/src/rDock_2013.1_src/data/scripts/dock_solv.prm

>  <Rbt.Receptor>
prm/blind_docking_40.prm

>  <SCORE>
-4.64766

>  <SCORE.INTER>
-1.95712

>  <SCORE.INTER.CONST>
1

>  <SCORE.INTER.POLAR>
0

>  <SCORE.INTER.ROT>
5

>  <SCORE.INTER.SOLV>
9.66867

>  <SCORE.INTER.VDW>
-11.461

>  <SCORE.INTER.norm>
-0.195712

>  <SCORE.INTRA>
-2.69053

>  <SCORE.INTRA.DIHEDRAL>
-3.68369

>  <SCORE.INTRA.DIHEDRAL.0>
6.00299

>  <SCORE.INTRA.POLAR>
0

>  <SCORE.INTRA.POLAR.0>
0

>  <SCORE.INTRA.REPUL>
0

>  <SCORE.INTRA.REPUL.0>
0

>  <SCORE.INTRA.SOLV>
-1.29729

>  <SCORE.INTRA.SOLV.lig_0>
-39.3257

>  <SCORE.INTRA.VDW>
-0.200043

>  <SCORE.INTRA.VDW.0>
-0.734044

>  <SCORE.INTRA.norm>
-0.269053

>  <SCORE.RESTR>
0

>  <SCORE.RESTR.CAVITY>
0

>  <SCORE.RESTR.norm>
0

>  <SCORE.SYSTEM>
0

>  <SCORE.SYSTEM.CONST>
0

>  <SCORE.SYSTEM.DIHEDRAL>
0

>  <SCORE.SYSTEM.SOLV>
0

>  <SCORE.SYSTEM.norm>
0

>  <SCORE.heavy>
10

>  <SCORE.norm>
-0.464766

>  <RMSD>
13.308

$$$$
ligand
 OpenBabel11021811473D
libRbt.so/2013.1/901 2013/11/27
 10  9  0  0  0  0  0  0  0  0999 V2000
   25.9594   14.2406   10.5897 N   0  0  0  0  0  0  0  0  0  0  0  0
   24.8701   14.1026    9.6412 C   0  0  2  0  0  0  0  0  0  0  0  0
   25.1072   14.9671    8.4319 C   0  0  0  0  0  0  0  0  0  0  0  0
   25.2621   16.2040    8.5885 O   0  0  0  0  0  0  0  0  0  0  0  0
   23.5589   14.4813   10.3163 C   0  0  0  0  0  0  0  0  0  0  0  0
   23.4074   13.6985   11.4977 O   0  0  0  0  0  0  0  0  0  0  0  0
   22.2162   14.1309   12.1551 C   0  0  0  0  0  0  0  0  0  0  0  0
   22.1087   13.3920   13.4872 C   0  0  0  0  0  0  0  0  0  0  0  0
   21.9320   11.9690   13.2550 N   0  0  0  0  0  0  0  0  0  0  0  0
   25.6112   14.3972    7.4432 O   0  0  0  0  0  0  0  0  0  0  0  0
  2  1  1  1  0  0  0
  2  5  1  0  0  0  0
  2  3  1  0  0  0  0
  3  4  1  0  0  0  0
  3 10  1  0  0  0  0
  5  6  1  0  0  0  0
  6  7  1  0  0  0  0
  7  8  1  0  0  0  0
  8  9  1  0  0  0  0
M  END
>  <CHROM.1>
-54.58714726,-57.62393909,176.39782685,-174.83880300,-65.03044118,24.02064131
14.17832186,10.50521252,-0.75846176,-0.72071157,2.58568891

>  <Name>
ligand

>  <RI>
0

>  <Rbt.Current_Directory>
/home/itssahil/PROJECTS/Mol_Feturizer/New_Systems/rnas/3DJ0

>  <Rbt.Executable>
rbdock ($Id: //depot/dev/client3/rdock/2013.1/src/exe/rbdock.cxx#4 $)

>  <Rbt.Library>
libRbt.so (2013.1, Build901 2013/11/27)

>  <Rbt.Parameter_File>
/export/apps/rDock/src/rDock_2013.1_src/data/scripts/dock_solv.prm

>  <Rbt.Receptor>
prm/blind_docking_40.prm

>  <SCORE>
-3.75121

>  <SCORE.INTER>
-2.06876

>  <SCORE.INTER.CONST>
1

>  <SCORE.INTER.POLAR>
0

>  <SCORE.INTER.ROT>
5

>  <SCORE.INTER.SOLV>
8.70372

>  <SCORE.INTER.VDW>
-11.2137

>  <SCORE.INTER.norm>
-0.206876

>  <SCORE.INTRA>
-1.68245

>  <SCORE.INTRA.DIHEDRAL>
-3.53874

>  <SCORE.INTRA.DIHEDRAL.0>
6.00299

>  <SCORE.INTRA.POLAR>
0

>  <SCORE.INTRA.POLAR.0>
0

>  <SCORE.INTRA.REPUL>
0

>  <SCORE.INTRA.REPUL.0>
0

>  <SCORE.INTRA.SOLV>
0.454703

>  <SCORE.INTRA.SOLV.lig_0>
-39.3257

>  <SCORE.INTRA.VDW>
-0.140431

>  <SCORE.INTRA.VDW.0>
-0.734044

>  <SCORE.INTRA.norm>
-0.168245

>  <SCORE.RESTR>
0

>  <SCORE.RESTR.CAVITY>
0

>  <SCORE.RESTR.norm>
0

>  <SCORE.SYSTEM>
0

>  <SCORE.SYSTEM.CONST>
0

>  <SCORE.SYSTEM.DIHEDRAL>
0

>  <SCORE.SYSTEM.SOLV>
0

>  <SCORE.SYSTEM.norm>
0

>  <SCORE.heavy>
10

>  <SCORE.norm>
-0.375121

>  <RMSD>
13.360

$$$$
ligand
 OpenBabel11021811473D
libRbt.so/2013.1/901 2013/11/27
 10  9  0  0  0  0  0  0  0  0999 V2000
   27.0015   14.1054    8.9847 N   0  0  0  0  0  0  0  0  0  0  0  0
   25.5765   14.0434    9.2511 C   0  0  2  0  0  0  0  0  0  0  0  0
   24.8813   15.2613    8.7038 C   0  0  0  0  0  0  0  0  0  0  0  0
   25.5105   16.3472    8.6461 O   0  0  0  0  0  0  0  0  0  0  0  0
   25.3458   13.9292   10.7518 C   0  0  0  0  0  0  0  0  0  0  0  0
   23.9644   13.6671   10.9858 O   0  0  0  0  0  0  0  0  0  0  0  0
   23.7694   13.5954   12.3981 C   0  0  0  0  0  0  0  0  0  0  0  0
   22.3173   13.2030   12.6621 C   0  0  0  0  0  0  0  0  0  0  0  0
   21.4223   14.2117   12.1220 N   0  0  0  0  0  0  0  0  0  0  0  0
   23.9406   15.0445    7.9137 O   0  0  0  0  0  0  0  0  0  0  0  0
  2  1  1  1  0  0  0
  2  5  1  0  0  0  0
  2  3  1  0  0  0  0
  3  4  1  0  0  0  0
  3 10  1  0  0  0  0
  5  6  1  0  0  0  0
  6  7  1  0  0  0  0
  7  8  1  0  0  0  0
  8  9  1  0  0  0  0
M  END
>  <CHROM.1>
-171.34138223,-30.14824827,-178.68905473,-175.47533054,-61.44239684,24.36507601
14.36439199,10.21599059,-0.88582502,-0.24930195,2.14755751

>  <Name>
ligand

>  <RI>
0

>  <Rbt.Current_Directory>
/home/itssahil/PROJECTS/Mol_Feturizer/New_Systems/rnas/3DJ0

>  <Rbt.Executable>
rbdock ($Id: //depot/dev/client3/rdock/2013.1/src/exe/rbdock.cxx#4 $)

>  <Rbt.Library>
libRbt.so (2013.1, Build901 2013/11/27)

>  <Rbt.Parameter_File>
/export/apps/rDock/src/rDock_2013.1_src/data/scripts/dock_solv.prm

>  <Rbt.Receptor>
prm/blind_docking_100.prm

>  <SCORE>
-4.25146

>  <SCORE.INTER>
-2.13852

>  <SCORE.INTER.CONST>
1

>  <SCORE.INTER.POLAR>
0

>  <SCORE.INTER.ROT>
5

>  <SCORE.INTER.SOLV>
9.79929

>  <SCORE.INTER.VDW>
-11.6254

>  <SCORE.INTER.norm>
-0.213852

>  <SCORE.INTRA>
-2.11294

>  <SCORE.INTRA.DIHEDRAL>
-3.44601

>  <SCORE.INTRA.DIHEDRAL.0>
6.00299

>  <SCORE.INTRA.POLAR>
0

>  <SCORE.INTRA.POLAR.0>
0

>  <SCORE.INTRA.REPUL>
0

>  <SCORE.INTRA.REPUL.0>
0

>  <SCORE.INTRA.SOLV>
-0.239893

>  <SCORE.INTRA.SOLV.lig_0>
-39.3257

>  <SCORE.INTRA.VDW>
-0.269986

>  <SCORE.INTRA.VDW.0>
-0.734044

>  <SCORE.INTRA.norm>
-0.211294

>  <SCORE.RESTR>
0

>  <SCORE.RESTR.CAVITY>
0

>  <SCORE.RESTR.norm>
0

>  <SCORE.SYSTEM>
0

>  <SCORE.SYSTEM.CONST>
0

>  <SCORE.SYSTEM.DIHEDRAL>
0

>  <SCORE.SYSTEM.SOLV>
0

>  <SCORE.SYSTEM.norm>
0

>  <SCORE.heavy>
10

>  <SCORE.norm>
-0.425146

>  <RMSD>
13.376

$$$$
ligand
 OpenBabel11021811473D
libRbt.so/2013.1/901 2013/11/27
 10  9  0  0  0  0  0  0  0  0999 V2000
   26.6406   13.8033    7.6639 N   0  0  0  0  0  0  0  0  0  0  0  0
   25.4847   13.6872    8.5334 C   0  0  2  0  0  0  0  0  0  0  0  0
   24.6324   14.9252    8.4505 C   0  0  0  0  0  0  0  0  0  0  0  0
   23.5524   14.9648    9.0911 O   0  0  0  0  0  0  0  0  0  0  0  0
   25.9484   13.4561    9.9651 C   0  0  0  0  0  0  0  0  0  0  0  0
   26.8753   14.4795   10.3189 O   0  0  0  0  0  0  0  0  0  0  0  0
   27.2842   14.2477   11.6668 C   0  0  0  0  0  0  0  0  0  0  0  0
   28.4104   15.2236   12.0006 C   0  0  0  0  0  0  0  0  0  0  0  0
   29.4820   15.0996   11.0278 N   0  0  0  0  0  0  0  0  0  0  0  0
   25.2320   15.9840    8.1757 O   0  0  0  0  0  0  0  0  0  0  0  0
  2  1  1  6  0  0  0
  2  5  1  0  0  0  0
  2  3  1  0  0  0  0
  3  4  1  0  0  0  0
  3 10  1  0  0  0  0
  5  6  1  0  0  0  0
  6  7  1  0  0  0  0
  7  8  1  0  0  0  0
  8  9  1  0  0  0  0
M  END
>  <CHROM.1>
53.24511974,176.45546600,179.46155421,172.70869202,-54.73214069,26.32530803
14.61388564,9.68593411,-2.48356534,-0.15191389,1.36281190

>  <Name>
ligand

>  <RI>
0

>  <Rbt.Current_Directory>
/home/itssahil/PROJECTS/Mol_Feturizer/New_Systems/rnas/3DJ0

>  <Rbt.Executable>
rbdock ($Id: //depot/dev/client3/rdock/2013.1/src/exe/rbdock.cxx#4 $)

>  <Rbt.Library>
libRbt.so (2013.1, Build901 2013/11/27)

>  <Rbt.Parameter_File>
/export/apps/rDock/src/rDock_2013.1_src/data/scripts/dock_solv.prm

>  <Rbt.Receptor>
prm/blind_docking_40.prm

>  <SCORE>
-4.74915

>  <SCORE.INTER>
-3.54191

>  <SCORE.INTER.CONST>
1

>  <SCORE.INTER.POLAR>
0

>  <SCORE.INTER.ROT>
5

>  <SCORE.INTER.SOLV>
14.2036

>  <SCORE.INTER.VDW>
-14.0291

>  <SCORE.INTER.norm>
-0.354191

>  <SCORE.INTRA>
-1.20724

>  <SCORE.INTRA.DIHEDRAL>
-3.33687

>  <SCORE.INTRA.DIHEDRAL.0>
6.00299

>  <SCORE.INTRA.POLAR>
0

>  <SCORE.INTRA.POLAR.0>
0

>  <SCORE.INTRA.REPUL>
0

>  <SCORE.INTRA.REPUL.0>
0

>  <SCORE.INTRA.SOLV>
1.0318

>  <SCORE.INTRA.SOLV.lig_0>
-39.3257

>  <SCORE.INTRA.VDW>
-0.0547017

>  <SCORE.INTRA.VDW.0>
-0.734044

>  <SCORE.INTRA.norm>
-0.120724

>  <SCORE.RESTR>
0

>  <SCORE.RESTR.CAVITY>
0

>  <SCORE.RESTR.norm>
0

>  <SCORE.SYSTEM>
0

>  <SCORE.SYSTEM.CONST>
0

>  <SCORE.SYSTEM.DIHEDRAL>
0

>  <SCORE.SYSTEM.SOLV>
0

>  <SCORE.SYSTEM.norm>
0

>  <SCORE.heavy>
10

>  <SCORE.norm>
-0.474915

>  <RMSD>
13.428

$$$$
ligand
 OpenBabel11021811473D
libRbt.so/2013.1/901 2013/11/27
 10  9  0  0  0  0  0  0  0  0999 V2000
   25.7059   13.9443   10.8205 N   0  0  0  0  0  0  0  0  0  0  0  0
   24.5067   13.9167   10.0041 C   0  0  2  0  0  0  0  0  0  0  0  0
   24.7799   14.4937    8.6408 C   0  0  0  0  0  0  0  0  0  0  0  0
   25.3266   15.6216    8.5554 O   0  0  0  0  0  0  0  0  0  0  0  0
   23.4012   14.6988   10.7003 C   0  0  0  0  0  0  0  0  0  0  0  0
   23.0691   14.0391   11.9194 O   0  0  0  0  0  0  0  0  0  0  0  0
   22.2448   12.9193   11.5963 C   0  0  0  0  0  0  0  0  0  0  0  0
   21.8309   12.2372   12.8984 C   0  0  0  0  0  0  0  0  0  0  0  0
   22.9715   11.5602   13.4908 N   0  0  0  0  0  0  0  0  0  0  0  0
   24.9075   13.6686    7.7140 O   0  0  0  0  0  0  0  0  0  0  0  0
  2  1  1  1  0  0  0
  2  5  1  0  0  0  0
  2  3  1  0  0  0  0
  3  4  1  0  0  0  0
  3 10  1  0  0  0  0
  5  6  1  0  0  0  0
  6  7  1  0  0  0  0
  7  8  1  0  0  0  0
  8  9  1  0  0  0  0
M  END
>  <CHROM.1>
-64.28842047,-51.54077074,-78.14924675,-177.58434480,-71.17155683,23.88652544
13.73339085,10.60108624,-0.61363595,0.93687385,1.20248652

>  <Name>
ligand

>  <RI>
0

>  <Rbt.Current_Directory>
/home/itssahil/PROJECTS/Mol_Feturizer/New_Systems/rnas/3DJ0

>  <Rbt.Executable>
rbdock ($Id: //depot/dev/client3/rdock/2013.1/src/exe/rbdock.cxx#4 $)

>  <Rbt.Library>
libRbt.so (2013.1, Build901 2013/11/27)

>  <Rbt.Parameter_File>
/export/apps/rDock/src/rDock_2013.1_src/data/scripts/dock_solv.prm

>  <Rbt.Receptor>
prm/blind_docking_40.prm

>  <SCORE>
-0.27661

>  <SCORE.INTER>
-0.187438

>  <SCORE.INTER.CONST>
1

>  <SCORE.INTER.POLAR>
0

>  <SCORE.INTER.ROT>
5

>  <SCORE.INTER.SOLV>
11.2272

>  <SCORE.INTER.VDW>
-10.8007

>  <SCORE.INTER.norm>
-0.0187438

>  <SCORE.INTRA>
-0.089172

>  <SCORE.INTRA.DIHEDRAL>
-1.92383

>  <SCORE.INTRA.DIHEDRAL.0>
6.00299

>  <SCORE.INTRA.POLAR>
0

>  <SCORE.INTRA.POLAR.0>
0

>  <SCORE.INTRA.REPUL>
0

>  <SCORE.INTRA.REPUL.0>
0

>  <SCORE.INTRA.SOLV>
0.707646

>  <SCORE.INTRA.SOLV.lig_0>
-39.3257

>  <SCORE.INTRA.VDW>
0.518918

>  <SCORE.INTRA.VDW.0>
-0.734044

>  <SCORE.INTRA.norm>
-0.0089172

>  <SCORE.RESTR>
0

>  <SCORE.RESTR.CAVITY>
0

>  <SCORE.RESTR.norm>
0

>  <SCORE.SYSTEM>
0

>  <SCORE.SYSTEM.CONST>
0

>  <SCORE.SYSTEM.DIHEDRAL>
0

>  <SCORE.SYSTEM.SOLV>
0

>  <SCORE.SYSTEM.norm>
0

>  <SCORE.heavy>
10

>  <SCORE.norm>
-0.027661

>  <RMSD>
13.437

$$$$
ligand
 OpenBabel11021811473D
libRbt.so/2013.1/901 2013/11/27
 10  9  0  0  0  0  0  0  0  0999 V2000
   27.0129   14.1153    9.0373 N   0  0  0  0  0  0  0  0  0  0  0  0
   25.5676   14.0059    9.1034 C   0  0  2  0  0  0  0  0  0  0  0  0
   24.9181   15.2926    8.6689 C   0  0  0  0  0  0  0  0  0  0  0  0
   25.5758   16.3607    8.7393 O   0  0  0  0  0  0  0  0  0  0  0  0
   25.1501   13.6533   10.5245 C   0  0  0  0  0  0  0  0  0  0  0  0
   23.7355   13.4819   10.5589 O   0  0  0  0  0  0  0  0  0  0  0  0
   23.3630   13.2183   11.9115 C   0  0  0  0  0  0  0  0  0  0  0  0
   21.8458   13.0530   11.9673 C   0  0  0  0  0  0  0  0  0  0  0  0
   21.4185   12.8334   13.3381 N   0  0  0  0  0  0  0  0  0  0  0  0
   23.9936   15.1847    7.8384 O   0  0  0  0  0  0  0  0  0  0  0  0
  2  1  1  1  0  0  0
  2  5  1  0  0  0  0
  2  3  1  0  0  0  0
  3  4  1  0  0  0  0
  3 10  1  0  0  0  0
  5  6  1  0  0  0  0
  6  7  1  0  0  0  0
  7  8  1  0  0  0  0
  8  9  1  0  0  0  0
M  END
>  <CHROM.1>
-177.05153139,-22.97700252,-177.16830340,179.16000645,-177.83019382,24.25158928
14.14918909,10.14028337,-0.88664843,-0.21444865,2.25541279

>  <Name>
ligand

>  <RI>
0

>  <Rbt.Current_Directory>
/home/itssahil/PROJECTS/Mol_Feturizer/New_Systems/rnas/3DJ0

>  <Rbt.Executable>
rbdock ($Id: //depot/dev/client3/rdock/2013.1/src/exe/rbdock.cxx#4 $)

>  <Rbt.Library>
libRbt.so (2013.1, Build901 2013/11/27)

>  <Rbt.Parameter_File>
/export/apps/rDock/src/rDock_2013.1_src/data/scripts/dock_solv.prm

>  <Rbt.Receptor>
prm/blind_docking_100.prm

>  <SCORE>
-4.78062

>  <SCORE.INTER>
-2.1778

>  <SCORE.INTER.CONST>
1

>  <SCORE.INTER.POLAR>
0

>  <SCORE.INTER.ROT>
5

>  <SCORE.INTER.SOLV>
8.63565

>  <SCORE.INTER.VDW>
-11.2638

>  <SCORE.INTER.norm>
-0.21778

>  <SCORE.INTRA>
-2.60282

>  <SCORE.INTRA.DIHEDRAL>
-3.60786

>  <SCORE.INTRA.DIHEDRAL.0>
6.00299

>  <SCORE.INTRA.POLAR>
0

>  <SCORE.INTRA.POLAR.0>
0

>  <SCORE.INTRA.REPUL>
0

>  <SCORE.INTRA.REPUL.0>
0

>  <SCORE.INTRA.SOLV>
-1.2857

>  <SCORE.INTRA.SOLV.lig_0>
-39.3257

>  <SCORE.INTRA.VDW>
-0.156035

>  <SCORE.INTRA.VDW.0>
-0.734044

>  <SCORE.INTRA.norm>
-0.260282

>  <SCORE.RESTR>
0

>  <SCORE.RESTR.CAVITY>
0

>  <SCORE.RESTR.norm>
0

>  <SCORE.SYSTEM>
0

>  <SCORE.SYSTEM.CONST>
0

>  <SCORE.SYSTEM.DIHEDRAL>
0

>  <SCORE.SYSTEM.SOLV>
0

>  <SCORE.SYSTEM.norm>
0

>  <SCORE.heavy>
10

>  <SCORE.norm>
-0.478062

>  <RMSD>
13.515

$$$$
ligand
 OpenBabel11021811473D
libRbt.so/2013.1/901 2013/11/27
 10  9  0  0  0  0  0  0  0  0999 V2000
   27.2314   14.2869    9.1871 N   0  0  0  0  0  0  0  0  0  0  0  0
   25.7972   14.0751    9.1266 C   0  0  2  0  0  0  0  0  0  0  0  0
   25.1241   15.2084    8.3996 C   0  0  0  0  0  0  0  0  0  0  0  0
   23.9534   15.0480    7.9728 O   0  0  0  0  0  0  0  0  0  0  0  0
   25.2437   13.9466   10.5392 C   0  0  0  0  0  0  0  0  0  0  0  0
   23.8545   13.6367   10.4620 O   0  0  0  0  0  0  0  0  0  0  0  0
   23.3468   13.5842   11.7952 C   0  0  0  0  0  0  0  0  0  0  0  0
   21.8549   13.2650   11.7277 C   0  0  0  0  0  0  0  0  0  0  0  0
   21.2905   13.2360   13.0658 N   0  0  0  0  0  0  0  0  0  0  0  0
   25.5349   16.3540    8.6737 O   0  0  0  0  0  0  0  0  0  0  0  0
  2  1  1  1  0  0  0
  2  5  1  0  0  0  0
  2  3  1  0  0  0  0
  3  4  1  0  0  0  0
  3 10  1  0  0  0  0
  5  6  1  0  0  0  0
  6  7  1  0  0  0  0
  7  8  1  0  0  0  0
  8  9  1  0  0  0  0
M  END
>  <CHROM.1>
-175.57364587,163.04854905,-177.30572861,179.50243174,-178.55019855,24.31236031
14.28968061,10.06984550,-0.81082702,-0.14370141,2.17148651

>  <Name>
ligand

>  <RI>
0

>  <Rbt.Current_Directory>
/home/itssahil/PROJECTS/Mol_Feturizer/New_Systems/rnas/3DJ0

>  <Rbt.Executable>
rbdock ($Id: //depot/dev/client3/rdock/2013.1/src/exe/rbdock.cxx#4 $)

>  <Rbt.Library>
libRbt.so (2013.1, Build901 2013/11/27)

>  <Rbt.Parameter_File>
/export/apps/rDock/src/rDock_2013.1_src/data/scripts/dock_solv.prm

>  <Rbt.Receptor>
prm/blind_docking_40.prm

>  <SCORE>
-4.91653

>  <SCORE.INTER>
-2.48217

>  <SCORE.INTER.CONST>
1

>  <SCORE.INTER.POLAR>
0

>  <SCORE.INTER.ROT>
5

>  <SCORE.INTER.SOLV>
8.29266

>  <SCORE.INTER.VDW>
-11.3523

>  <SCORE.INTER.norm>
-0.248217

>  <SCORE.INTRA>
-2.43436

>  <SCORE.INTRA.DIHEDRAL>
-3.48962

>  <SCORE.INTRA.DIHEDRAL.0>
6.00299

>  <SCORE.INTRA.POLAR>
0

>  <SCORE.INTRA.POLAR.0>
0

>  <SCORE.INTRA.REPUL>
0

>  <SCORE.INTRA.REPUL.0>
0

>  <SCORE.INTRA.SOLV>
-1.20631

>  <SCORE.INTRA.SOLV.lig_0>
-39.3257

>  <SCORE.INTRA.VDW>
-0.0863944

>  <SCORE.INTRA.VDW.0>
-0.734044

>  <SCORE.INTRA.norm>
-0.243436

>  <SCORE.RESTR>
0

>  <SCORE.RESTR.CAVITY>
0

>  <SCORE.RESTR.norm>
0

>  <SCORE.SYSTEM>
0

>  <SCORE.SYSTEM.CONST>
0

>  <SCORE.SYSTEM.DIHEDRAL>
0

>  <SCORE.SYSTEM.SOLV>
0

>  <SCORE.SYSTEM.norm>
0

>  <SCORE.heavy>
10

>  <SCORE.norm>
-0.491653

>  <RMSD>
13.515

$$$$
ligand
 OpenBabel11021811473D
libRbt.so/2013.1/901 2013/11/27
 10  9  0  0  0  0  0  0  0  0999 V2000
   27.0181   14.1213    9.0390 N   0  0  0  0  0  0  0  0  0  0  0  0
   25.5725   14.0137    9.1033 C   0  0  2  0  0  0  0  0  0  0  0  0
   24.9251   15.3006    8.6665 C   0  0  0  0  0  0  0  0  0  0  0  0
   25.5856   16.3673    8.7318 O   0  0  0  0  0  0  0  0  0  0  0  0
   25.1528   13.6633   10.5244 C   0  0  0  0  0  0  0  0  0  0  0  0
   23.7389   13.4853   10.5553 O   0  0  0  0  0  0  0  0  0  0  0  0
   23.3665   13.2026   11.9041 C   0  0  0  0  0  0  0  0  0  0  0  0
   21.8481   13.0490   11.9599 C   0  0  0  0  0  0  0  0  0  0  0  0
   21.4247   12.7749   13.3221 N   0  0  0  0  0  0  0  0  0  0  0  0
   23.9982   15.1923    7.8386 O   0  0  0  0  0  0  0  0  0  0  0  0
  2  1  1  1  0  0  0
  2  5  1  0  0  0  0
  2  3  1  0  0  0  0
  3  4  1  0  0  0  0
  3 10  1  0  0  0  0
  5  6  1  0  0  0  0
  6  7  1  0  0  0  0
  7  8  1  0  0  0  0
  8  9  1  0  0  0  0
M  END
>  <CHROM.1>
-176.69373102,-22.71719137,-178.08890043,178.39538140,-179.34248140,24.25657757
14.14653196,10.13601617,-0.88929381,-0.20723936,2.25777184

>  <Name>
ligand

>  <RI>
0

>  <Rbt.Current_Directory>
/home/itssahil/PROJECTS/Mol_Feturizer/New_Systems/rnas/3DJ0

>  <Rbt.Executable>
rbdock ($Id: //depot/dev/client3/rdock/2013.1/src/exe/rbdock.cxx#4 $)

>  <Rbt.Library>
libRbt.so (2013.1, Build901 2013/11/27)

>  <Rbt.Parameter_File>
/export/apps/rDock/src/rDock_2013.1_src/data/scripts/dock_solv.prm

>  <Rbt.Receptor>
prm/blind_docking_40.prm

>  <SCORE>
-4.78933

>  <SCORE.INTER>
-2.17528

>  <SCORE.INTER.CONST>
1

>  <SCORE.INTER.POLAR>
0

>  <SCORE.INTER.ROT>
5

>  <SCORE.INTER.SOLV>
8.65791

>  <SCORE.INTER.VDW>
-11.2695

>  <SCORE.INTER.norm>
-0.217528

>  <SCORE.INTRA>
-2.61405

>  <SCORE.INTRA.DIHEDRAL>
-3.62283

>  <SCORE.INTRA.DIHEDRAL.0>
6.00299

>  <SCORE.INTRA.POLAR>
0

>  <SCORE.INTRA.POLAR.0>
0

>  <SCORE.INTRA.REPUL>
0

>  <SCORE.INTRA.REPUL.0>
0

>  <SCORE.INTRA.SOLV>
-1.28858

>  <SCORE.INTRA.SOLV.lig_0>
-39.3257

>  <SCORE.INTRA.VDW>
-0.158348

>  <SCORE.INTRA.VDW.0>
-0.734044

>  <SCORE.INTRA.norm>
-0.261405

>  <SCORE.RESTR>
0

>  <SCORE.RESTR.CAVITY>
0

>  <SCORE.RESTR.norm>
0

>  <SCORE.SYSTEM>
0

>  <SCORE.SYSTEM.CONST>
0

>  <SCORE.SYSTEM.DIHEDRAL>
0

>  <SCORE.SYSTEM.SOLV>
0

>  <SCORE.SYSTEM.norm>
0

>  <SCORE.heavy>
10

>  <SCORE.norm>
-0.478933

>  <RMSD>
13.516

$$$$
ligand
 OpenBabel11021811473D
libRbt.so/2013.1/901 2013/11/27
 10  9  0  0  0  0  0  0  0  0999 V2000
   27.0049   14.1869    9.2958 N   0  0  0  0  0  0  0  0  0  0  0  0
   25.5595   14.0829    9.2226 C   0  0  2  0  0  0  0  0  0  0  0  0
   24.9630   15.3547    8.6817 C   0  0  0  0  0  0  0  0  0  0  0  0
   25.6361   16.4142    8.7362 O   0  0  0  0  0  0  0  0  0  0  0  0
   25.0020   13.7812   10.6071 C   0  0  0  0  0  0  0  0  0  0  0  0
   23.5829   13.6811   10.5193 O   0  0  0  0  0  0  0  0  0  0  0  0
   23.0821   13.4475   11.8355 C   0  0  0  0  0  0  0  0  0  0  0  0
   21.5571   13.4023   11.7671 C   0  0  0  0  0  0  0  0  0  0  0  0
   21.0049   13.1889   13.0936 N   0  0  0  0  0  0  0  0  0  0  0  0
   24.0888   15.2175    7.8025 O   0  0  0  0  0  0  0  0  0  0  0  0
  2  1  1  1  0  0  0
  2  5  1  0  0  0  0
  2  3  1  0  0  0  0
  3  4  1  0  0  0  0
  3 10  1  0  0  0  0
  5  6  1  0  0  0  0
  6  7  1  0  0  0  0
  7  8  1  0  0  0  0
  8  9  1  0  0  0  0
M  END
>  <CHROM.1>
-179.96349259,-20.45445429,-177.90621355,177.41946316,-179.01215318,24.14442185
14.30371656,10.12601230,-0.79522765,-0.17590167,2.22774746

>  <Name>
ligand

>  <RI>
0

>  <Rbt.Current_Directory>
/home/itssahil/PROJECTS/Mol_Feturizer/New_Systems/rnas/3DJ0

>  <Rbt.Executable>
rbdock ($Id: //depot/dev/client3/rdock/2013.1/src/exe/rbdock.cxx#4 $)

>  <Rbt.Library>
libRbt.so (2013.1, Build901 2013/11/27)

>  <Rbt.Parameter_File>
/export/apps/rDock/src/rDock_2013.1_src/data/scripts/dock_solv.prm

>  <Rbt.Receptor>
prm/blind_docking_40.prm

>  <SCORE>
-4.75073

>  <SCORE.INTER>
-2.21582

>  <SCORE.INTER.CONST>
1

>  <SCORE.INTER.POLAR>
0

>  <SCORE.INTER.ROT>
5

>  <SCORE.INTER.SOLV>
7.9958

>  <SCORE.INTER.VDW>
-11.0758

>  <SCORE.INTER.norm>
-0.221582

>  <SCORE.INTRA>
-2.53491

>  <SCORE.INTRA.DIHEDRAL>
-3.59254

>  <SCORE.INTRA.DIHEDRAL.0>
6.00299

>  <SCORE.INTRA.POLAR>
0

>  <SCORE.INTRA.POLAR.0>
0

>  <SCORE.INTRA.REPUL>
0

>  <SCORE.INTRA.REPUL.0>
0

>  <SCORE.INTRA.SOLV>
-1.26638

>  <SCORE.INTRA.SOLV.lig_0>
-39.3257

>  <SCORE.INTRA.VDW>
-0.105446

>  <SCORE.INTRA.VDW.0>
-0.734044

>  <SCORE.INTRA.norm>
-0.253491

>  <SCORE.RESTR>
0

>  <SCORE.RESTR.CAVITY>
0

>  <SCORE.RESTR.norm>
0

>  <SCORE.SYSTEM>
0

>  <SCORE.SYSTEM.CONST>
0

>  <SCORE.SYSTEM.DIHEDRAL>
0

>  <SCORE.SYSTEM.SOLV>
0

>  <SCORE.SYSTEM.norm>
0

>  <SCORE.heavy>
10

>  <SCORE.norm>
-0.475073

>  <RMSD>
13.538

$$$$
ligand
 OpenBabel11021811473D
libRbt.so/2013.1/901 2013/11/27
 10  9  0  0  0  0  0  0  0  0999 V2000
   27.1773   14.0503    8.7856 N   0  0  0  0  0  0  0  0  0  0  0  0
   25.7350   13.9314    8.8906 C   0  0  2  0  0  0  0  0  0  0  0  0
   25.0599   15.1540    8.3289 C   0  0  0  0  0  0  0  0  0  0  0  0
   23.8572   15.0764    7.9740 O   0  0  0  0  0  0  0  0  0  0  0  0
   25.3474   13.7334   10.3497 C   0  0  0  0  0  0  0  0  0  0  0  0
   23.9427   13.5039   10.4250 O   0  0  0  0  0  0  0  0  0  0  0  0
   23.5978   13.3715   11.8039 C   0  0  0  0  0  0  0  0  0  0  0  0
   22.0985   13.0973   11.8988 C   0  0  0  0  0  0  0  0  0  0  0  0
   21.7072   12.9424   13.2891 N   0  0  0  0  0  0  0  0  0  0  0  0
   25.5344   16.2517    8.6837 O   0  0  0  0  0  0  0  0  0  0  0  0
  2  1  1  1  0  0  0
  2  5  1  0  0  0  0
  2  3  1  0  0  0  0
  3  4  1  0  0  0  0
  3 10  1  0  0  0  0
  5  6  1  0  0  0  0
  6  7  1  0  0  0  0
  7  8  1  0  0  0  0
  8  9  1  0  0  0  0
M  END
>  <CHROM.1>
-175.08094367,159.23072186,-177.87204872,-178.89502664,179.43901323,24.39344580
14.13956364,10.02099918,-0.88739932,-0.24993890,2.22647592

>  <Name>
ligand

>  <RI>
0

>  <Rbt.Current_Directory>
/home/itssahil/PROJECTS/Mol_Feturizer/New_Systems/rnas/3DJ0

>  <Rbt.Executable>
rbdock ($Id: //depot/dev/client3/rdock/2013.1/src/exe/rbdock.cxx#4 $)

>  <Rbt.Library>
libRbt.so (2013.1, Build901 2013/11/27)

>  <Rbt.Parameter_File>
/export/apps/rDock/src/rDock_2013.1_src/data/scripts/dock_solv.prm

>  <Rbt.Receptor>
prm/blind_docking_40.prm

>  <SCORE>
-4.8307

>  <SCORE.INTER>
-2.39353

>  <SCORE.INTER.CONST>
1

>  <SCORE.INTER.POLAR>
0

>  <SCORE.INTER.ROT>
5

>  <SCORE.INTER.SOLV>
8.95172

>  <SCORE.INTER.VDW>
-11.5129

>  <SCORE.INTER.norm>
-0.239353

>  <SCORE.INTRA>
-2.43717

>  <SCORE.INTRA.DIHEDRAL>
-3.40927

>  <SCORE.INTRA.DIHEDRAL.0>
6.00299

>  <SCORE.INTRA.POLAR>
0

>  <SCORE.INTRA.POLAR.0>
0

>  <SCORE.INTRA.REPUL>
0

>  <SCORE.INTRA.REPUL.0>
0

>  <SCORE.INTRA.SOLV>
-1.23078

>  <SCORE.INTRA.SOLV.lig_0>
-39.3257

>  <SCORE.INTRA.VDW>
-0.11714

>  <SCORE.INTRA.VDW.0>
-0.734044

>  <SCORE.INTRA.norm>
-0.243717

>  <SCORE.RESTR>
0

>  <SCORE.RESTR.CAVITY>
0

>  <SCORE.RESTR.norm>
0

>  <SCORE.SYSTEM>
0

>  <SCORE.SYSTEM.CONST>
0

>  <SCORE.SYSTEM.DIHEDRAL>
0

>  <SCORE.SYSTEM.SOLV>
0

>  <SCORE.SYSTEM.norm>
0

>  <SCORE.heavy>
10

>  <SCORE.norm>
-0.48307

>  <RMSD>
13.560

$$$$
ligand
 OpenBabel11021811473D
libRbt.so/2013.1/901 2013/11/27
 10  9  0  0  0  0  0  0  0  0999 V2000
   26.3324   13.8347    6.5643 N   0  0  0  0  0  0  0  0  0  0  0  0
   25.9269   13.8444    7.9574 C   0  0  2  0  0  0  0  0  0  0  0  0
   24.9816   14.9847    8.2266 C   0  0  0  0  0  0  0  0  0  0  0  0
   25.1717   16.0829    7.6468 O   0  0  0  0  0  0  0  0  0  0  0  0
   27.1599   13.9559    8.8437 C   0  0  0  0  0  0  0  0  0  0  0  0
   26.7417   14.0537   10.2028 O   0  0  0  0  0  0  0  0  0  0  0  0
   27.8870   14.3887   10.9863 C   0  0  0  0  0  0  0  0  0  0  0  0
   27.4608   14.4632   12.4509 C   0  0  0  0  0  0  0  0  0  0  0  0
   28.5988   14.8106   13.2841 N   0  0  0  0  0  0  0  0  0  0  0  0
   23.8334   14.6669    8.5964 O   0  0  0  0  0  0  0  0  0  0  0  0
  2  1  1  6  0  0  0
  2  5  1  0  0  0  0
  2  3  1  0  0  0  0
  3  4  1  0  0  0  0
  3 10  1  0  0  0  0
  5  6  1  0  0  0  0
  6  7  1  0  0  0  0
  7  8  1  0  0  0  0
  8  9  1  0  0  0  0
M  END
>  <CHROM.1>
176.18865847,-37.41836882,-170.09595790,-178.62106282,-179.66049584,26.37483243
14.52743185,9.46802831,-2.17510606,-0.45099122,1.32021482

>  <Name>
ligand

>  <RI>
0

>  <Rbt.Current_Directory>
/home/itssahil/PROJECTS/Mol_Feturizer/New_Systems/rnas/3DJ0

>  <Rbt.Executable>
rbdock ($Id: //depot/dev/client3/rdock/2013.1/src/exe/rbdock.cxx#4 $)

>  <Rbt.Library>
libRbt.so (2013.1, Build901 2013/11/27)

>  <Rbt.Parameter_File>
/export/apps/rDock/src/rDock_2013.1_src/data/scripts/dock_solv.prm

>  <Rbt.Receptor>
prm/blind_docking_100.prm

>  <SCORE>
-2.40001

>  <SCORE.INTER>
0.00769626

>  <SCORE.INTER.CONST>
1

>  <SCORE.INTER.POLAR>
0

>  <SCORE.INTER.ROT>
5

>  <SCORE.INTER.SOLV>
19.5958

>  <SCORE.INTER.VDW>
-13.4601

>  <SCORE.INTER.norm>
0.000769626

>  <SCORE.INTRA>
-2.40771

>  <SCORE.INTRA.DIHEDRAL>
-3.40105

>  <SCORE.INTRA.DIHEDRAL.0>
6.00299

>  <SCORE.INTRA.POLAR>
0

>  <SCORE.INTRA.POLAR.0>
0

>  <SCORE.INTRA.REPUL>
0

>  <SCORE.INTRA.REPUL.0>
0

>  <SCORE.INTRA.SOLV>
-1.24686

>  <SCORE.INTRA.SOLV.lig_0>
-39.3257

>  <SCORE.INTRA.VDW>
-0.0837511

>  <SCORE.INTRA.VDW.0>
-0.734044

>  <SCORE.INTRA.norm>
-0.240771

>  <SCORE.RESTR>
0

>  <SCORE.RESTR.CAVITY>
0

>  <SCORE.RESTR.norm>
0

>  <SCORE.SYSTEM>
0

>  <SCORE.SYSTEM.CONST>
0

>  <SCORE.SYSTEM.DIHEDRAL>
0

>  <SCORE.SYSTEM.SOLV>
0

>  <SCORE.SYSTEM.norm>
0

>  <SCORE.heavy>
10

>  <SCORE.norm>
-0.240001

>  <RMSD>
13.630

$$$$
ligand
 OpenBabel11021811473D
libRbt.so/2013.1/901 2013/11/27
 10  9  0  0  0  0  0  0  0  0999 V2000
   24.9177   14.2426   10.9088 N   0  0  0  0  0  0  0  0  0  0  0  0
   26.1016   13.6096   10.3580 C   0  0  2  0  0  0  0  0  0  0  0  0
   27.3480   14.2033   10.9580 C   0  0  0  0  0  0  0  0  0  0  0  0
   27.5270   15.4447   10.8855 O   0  0  0  0  0  0  0  0  0  0  0  0
   26.1086   13.7770    8.8446 C   0  0  0  0  0  0  0  0  0  0  0  0
   27.2098   13.0492    8.3068 O   0  0  0  0  0  0  0  0  0  0  0  0
   27.2184   13.2560    6.8944 C   0  0  0  0  0  0  0  0  0  0  0  0
   28.4057   12.4968    6.3060 C   0  0  0  0  0  0  0  0  0  0  0  0
   28.4635   12.6985    4.8687 N   0  0  0  0  0  0  0  0  0  0  0  0
   27.8724   13.5521   11.8839 O   0  0  0  0  0  0  0  0  0  0  0  0
  2  1  1  1  0  0  0
  2  5  1  0  0  0  0
  2  3  1  0  0  0  0
  3  4  1  0  0  0  0
  3 10  1  0  0  0  0
  5  6  1  0  0  0  0
  6  7  1  0  0  0  0
  7  8  1  0  0  0  0
  8  9  1  0  0  0  0
M  END
>  <CHROM.1>
-174.81936718,-55.50767430,-178.22022384,179.23435986,-179.11174751,27.14008635
13.64490154,9.05380495,1.80702019,-0.04649561,1.30143199

>  <Name>
ligand

>  <RI>
0

>  <Rbt.Current_Directory>
/home/itssahil/PROJECTS/Mol_Feturizer/New_Systems/rnas/3DJ0

>  <Rbt.Executable>
rbdock ($Id: //depot/dev/client3/rdock/2013.1/src/exe/rbdock.cxx#4 $)

>  <Rbt.Library>
libRbt.so (2013.1, Build901 2013/11/27)

>  <Rbt.Parameter_File>
/export/apps/rDock/src/rDock_2013.1_src/data/scripts/dock_solv.prm

>  <Rbt.Receptor>
prm/blind_docking_40.prm

>  <SCORE>
-4.65737

>  <SCORE.INTER>
-1.95123

>  <SCORE.INTER.CONST>
1

>  <SCORE.INTER.POLAR>
0

>  <SCORE.INTER.ROT>
5

>  <SCORE.INTER.SOLV>
7.94009

>  <SCORE.INTER.VDW>
-10.8808

>  <SCORE.INTER.norm>
-0.195123

>  <SCORE.INTRA>
-2.70614

>  <SCORE.INTRA.DIHEDRAL>
-3.83556

>  <SCORE.INTRA.DIHEDRAL.0>
6.00299

>  <SCORE.INTRA.POLAR>
0

>  <SCORE.INTRA.POLAR.0>
0

>  <SCORE.INTRA.REPUL>
0

>  <SCORE.INTRA.REPUL.0>
0

>  <SCORE.INTRA.SOLV>
-1.27011

>  <SCORE.INTRA.SOLV.lig_0>
-39.3257

>  <SCORE.INTRA.VDW>
-0.153306

>  <SCORE.INTRA.VDW.0>
-0.734044

>  <SCORE.INTRA.norm>
-0.270614

>  <SCORE.RESTR>
0

>  <SCORE.RESTR.CAVITY>
0

>  <SCORE.RESTR.norm>
0

>  <SCORE.SYSTEM>
0

>  <SCORE.SYSTEM.CONST>
0

>  <SCORE.SYSTEM.DIHEDRAL>
0

>  <SCORE.SYSTEM.SOLV>
0

>  <SCORE.SYSTEM.norm>
0

>  <SCORE.heavy>
10

>  <SCORE.norm>
-0.465737

>  <RMSD>
13.636

$$$$
ligand
 OpenBabel11021811473D
libRbt.so/2013.1/901 2013/11/27
 10  9  0  0  0  0  0  0  0  0999 V2000
   25.3700   13.3892   10.3378 N   0  0  0  0  0  0  0  0  0  0  0  0
   24.4085   14.0996    9.5155 C   0  0  2  0  0  0  0  0  0  0  0  0
   25.0437   15.3079    8.8810 C   0  0  0  0  0  0  0  0  0  0  0  0
   26.1497   15.7141    9.3172 O   0  0  0  0  0  0  0  0  0  0  0  0
   23.2175   14.5122   10.3698 C   0  0  0  0  0  0  0  0  0  0  0  0
   22.6070   13.3402   10.9039 O   0  0  0  0  0  0  0  0  0  0  0  0
   21.4567   13.7488   11.6439 C   0  0  0  0  0  0  0  0  0  0  0  0
   20.8251   12.5082   12.2717 C   0  0  0  0  0  0  0  0  0  0  0  0
   21.7434   11.9094   13.2246 N   0  0  0  0  0  0  0  0  0  0  0  0
   24.7179   15.5393    7.6993 O   0  0  0  0  0  0  0  0  0  0  0  0
  2  1  1  1  0  0  0
  2  5  1  0  0  0  0
  2  3  1  0  0  0  0
  3  4  1  0  0  0  0
  3 10  1  0  0  0  0
  5  6  1  0  0  0  0
  6  7  1  0  0  0  0
  7  8  1  0  0  0  0
  8  9  1  0  0  0  0
M  END
>  <CHROM.1>
-60.57711081,-14.51615136,-177.14288304,-177.63957205,63.70034657,23.57606101
14.03275358,10.38756081,-0.85362413,-0.05476180,2.25789144

>  <Name>
ligand

>  <RI>
0

>  <Rbt.Current_Directory>
/home/itssahil/PROJECTS/Mol_Feturizer/New_Systems/rnas/3DJ0

>  <Rbt.Executable>
rbdock ($Id: //depot/dev/client3/rdock/2013.1/src/exe/rbdock.cxx#4 $)

>  <Rbt.Library>
libRbt.so (2013.1, Build901 2013/11/27)

>  <Rbt.Parameter_File>
/export/apps/rDock/src/rDock_2013.1_src/data/scripts/dock_solv.prm

>  <Rbt.Receptor>
prm/blind_docking_40.prm

>  <SCORE>
-2.91411

>  <SCORE.INTER>
-1.26267

>  <SCORE.INTER.CONST>
1

>  <SCORE.INTER.POLAR>
0

>  <SCORE.INTER.ROT>
5

>  <SCORE.INTER.SOLV>
8.58483

>  <SCORE.INTER.VDW>
-10.6367

>  <SCORE.INTER.norm>
-0.126267

>  <SCORE.INTRA>
-1.65143

>  <SCORE.INTRA.DIHEDRAL>
-3.40773

>  <SCORE.INTRA.DIHEDRAL.0>
6.00299

>  <SCORE.INTRA.POLAR>
0

>  <SCORE.INTRA.POLAR.0>
0

>  <SCORE.INTRA.REPUL>
0

>  <SCORE.INTRA.REPUL.0>
0

>  <SCORE.INTRA.SOLV>
0.363133

>  <SCORE.INTRA.SOLV.lig_0>
-39.3257

>  <SCORE.INTRA.VDW>
-0.129133

>  <SCORE.INTRA.VDW.0>
-0.734044

>  <SCORE.INTRA.norm>
-0.165143

>  <SCORE.RESTR>
0

>  <SCORE.RESTR.CAVITY>
0

>  <SCORE.RESTR.norm>
0

>  <SCORE.SYSTEM>
0

>  <SCORE.SYSTEM.CONST>
0

>  <SCORE.SYSTEM.DIHEDRAL>
0

>  <SCORE.SYSTEM.SOLV>
0

>  <SCORE.SYSTEM.norm>
0

>  <SCORE.heavy>
10

>  <SCORE.norm>
-0.291411

>  <RMSD>
13.650

$$$$
ligand
 OpenBabel11021811473D
libRbt.so/2013.1/901 2013/11/27
 10  9  0  0  0  0  0  0  0  0999 V2000
   24.4873   14.3092   10.7596 N   0  0  0  0  0  0  0  0  0  0  0  0
   25.6946   13.6228   10.3392 C   0  0  2  0  0  0  0  0  0  0  0  0
   26.8937   14.1623   11.0721 C   0  0  0  0  0  0  0  0  0  0  0  0
   27.7290   13.3548   11.5503 O   0  0  0  0  0  0  0  0  0  0  0  0
   25.8731   13.7855    8.8359 C   0  0  0  0  0  0  0  0  0  0  0  0
   27.0028   13.0214    8.4218 O   0  0  0  0  0  0  0  0  0  0  0  0
   27.1730   13.2234    7.0190 C   0  0  0  0  0  0  0  0  0  0  0  0
   28.4009   12.4362    6.5668 C   0  0  0  0  0  0  0  0  0  0  0  0
   28.6282   12.6397    5.1466 N   0  0  0  0  0  0  0  0  0  0  0  0
   27.2518   15.3156   10.7595 O   0  0  0  0  0  0  0  0  0  0  0  0
  2  1  1  1  0  0  0
  2  5  1  0  0  0  0
  2  3  1  0  0  0  0
  3  4  1  0  0  0  0
  3 10  1  0  0  0  0
  5  6  1  0  0  0  0
  6  7  1  0  0  0  0
  7  8  1  0  0  0  0
  8  9  1  0  0  0  0
M  END
>  <CHROM.1>
-175.54268138,134.73947392,-178.23614701,178.68033786,-178.70076469,26.93921871
13.59558552,9.07333703,1.92237898,-0.12961498,1.31477704

>  <Name>
ligand

>  <RI>
0

>  <Rbt.Current_Directory>
/home/itssahil/PROJECTS/Mol_Feturizer/New_Systems/rnas/3DJ0

>  <Rbt.Executable>
rbdock ($Id: //depot/dev/client3/rdock/2013.1/src/exe/rbdock.cxx#4 $)

>  <Rbt.Library>
libRbt.so (2013.1, Build901 2013/11/27)

>  <Rbt.Parameter_File>
/export/apps/rDock/src/rDock_2013.1_src/data/scripts/dock_solv.prm

>  <Rbt.Receptor>
prm/blind_docking_40.prm

>  <SCORE>
-4.1267

>  <SCORE.INTER>
-2.04293

>  <SCORE.INTER.CONST>
1

>  <SCORE.INTER.POLAR>
0

>  <SCORE.INTER.ROT>
5

>  <SCORE.INTER.SOLV>
7.78982

>  <SCORE.INTER.VDW>
-10.8919

>  <SCORE.INTER.norm>
-0.204293

>  <SCORE.INTRA>
-2.08377

>  <SCORE.INTRA.DIHEDRAL>
-3.09493

>  <SCORE.INTRA.DIHEDRAL.0>
6.00299

>  <SCORE.INTRA.POLAR>
0

>  <SCORE.INTRA.POLAR.0>
0

>  <SCORE.INTRA.REPUL>
0

>  <SCORE.INTRA.REPUL.0>
0

>  <SCORE.INTRA.SOLV>
-1.30957

>  <SCORE.INTRA.SOLV.lig_0>
-39.3257

>  <SCORE.INTRA.VDW>
0.118481

>  <SCORE.INTRA.VDW.0>
-0.734044

>  <SCORE.INTRA.norm>
-0.208377

>  <SCORE.RESTR>
0

>  <SCORE.RESTR.CAVITY>
0

>  <SCORE.RESTR.norm>
0

>  <SCORE.SYSTEM>
0

>  <SCORE.SYSTEM.CONST>
0

>  <SCORE.SYSTEM.DIHEDRAL>
0

>  <SCORE.SYSTEM.SOLV>
0

>  <SCORE.SYSTEM.norm>
0

>  <SCORE.heavy>
10

>  <SCORE.norm>
-0.41267

>  <RMSD>
13.700

$$$$
ligand
 OpenBabel11021811473D
libRbt.so/2013.1/901 2013/11/27
 10  9  0  0  0  0  0  0  0  0999 V2000
   25.7215   13.9945   10.4976 N   0  0  0  0  0  0  0  0  0  0  0  0
   24.7441   14.0444    9.4263 C   0  0  2  0  0  0  0  0  0  0  0  0
   25.1791   15.0098    8.3563 C   0  0  0  0  0  0  0  0  0  0  0  0
   25.4365   16.1973    8.6757 O   0  0  0  0  0  0  0  0  0  0  0  0
   23.3912   14.4533    9.9928 C   0  0  0  0  0  0  0  0  0  0  0  0
   22.9282   13.4250   10.8645 O   0  0  0  0  0  0  0  0  0  0  0  0
   21.6322   13.8013   11.3297 C   0  0  0  0  0  0  0  0  0  0  0  0
   21.1087   12.6921   12.2395 C   0  0  0  0  0  0  0  0  0  0  0  0
   21.9628   12.5603   13.4070 N   0  0  0  0  0  0  0  0  0  0  0  0
   25.7190   14.5047    7.3515 O   0  0  0  0  0  0  0  0  0  0  0  0
  2  1  1  1  0  0  0
  2  5  1  0  0  0  0
  2  3  1  0  0  0  0
  3  4  1  0  0  0  0
  3 10  1  0  0  0  0
  5  6  1  0  0  0  0
  6  7  1  0  0  0  0
  7  8  1  0  0  0  0
  8  9  1  0  0  0  0
M  END
>  <CHROM.1>
-65.86739496,-55.48630128,-177.19763690,178.66705080,63.09523394,23.80327506
14.08837943,10.18076080,-0.87020369,-0.04032079,2.08771079

>  <Name>
ligand

>  <RI>
0

>  <Rbt.Current_Directory>
/home/itssahil/PROJECTS/Mol_Feturizer/New_Systems/rnas/3DJ0

>  <Rbt.Executable>
rbdock ($Id: //depot/dev/client3/rdock/2013.1/src/exe/rbdock.cxx#4 $)

>  <Rbt.Library>
libRbt.so (2013.1, Build901 2013/11/27)

>  <Rbt.Parameter_File>
/export/apps/rDock/src/rDock_2013.1_src/data/scripts/dock_solv.prm

>  <Rbt.Receptor>
prm/blind_docking_40.prm

>  <SCORE>
-3.65654

>  <SCORE.INTER>
-1.77402

>  <SCORE.INTER.CONST>
1

>  <SCORE.INTER.POLAR>
0

>  <SCORE.INTER.ROT>
5

>  <SCORE.INTER.SOLV>
8.80535

>  <SCORE.INTER.VDW>
-11.0511

>  <SCORE.INTER.norm>
-0.177402

>  <SCORE.INTRA>
-1.88252

>  <SCORE.INTRA.DIHEDRAL>
-3.75387

>  <SCORE.INTRA.DIHEDRAL.0>
6.00299

>  <SCORE.INTRA.POLAR>
0

>  <SCORE.INTRA.POLAR.0>
0

>  <SCORE.INTRA.REPUL>
0

>  <SCORE.INTRA.REPUL.0>
0

>  <SCORE.INTRA.SOLV>
0.343758

>  <SCORE.INTRA.SOLV.lig_0>
-39.3257

>  <SCORE.INTRA.VDW>
-0.177461

>  <SCORE.INTRA.VDW.0>
-0.734044

>  <SCORE.INTRA.norm>
-0.188252

>  <SCORE.RESTR>
0

>  <SCORE.RESTR.CAVITY>
0

>  <SCORE.RESTR.norm>
0

>  <SCORE.SYSTEM>
0

>  <SCORE.SYSTEM.CONST>
0

>  <SCORE.SYSTEM.DIHEDRAL>
0

>  <SCORE.SYSTEM.SOLV>
0

>  <SCORE.SYSTEM.norm>
0

>  <SCORE.heavy>
10

>  <SCORE.norm>
-0.365654

>  <RMSD>
13.710

$$$$
ligand
 OpenBabel11021811473D
libRbt.so/2013.1/901 2013/11/27
 10  9  0  0  0  0  0  0  0  0999 V2000
   26.5314   14.8875    9.7320 N   0  0  0  0  0  0  0  0  0  0  0  0
   25.9714   13.6837    9.1465 C   0  0  2  0  0  0  0  0  0  0  0  0
   26.2124   13.6551    7.6609 C   0  0  0  0  0  0  0  0  0  0  0  0
   26.0389   14.7066    6.9955 O   0  0  0  0  0  0  0  0  0  0  0  0
   24.4795   13.6217    9.4442 C   0  0  0  0  0  0  0  0  0  0  0  0
   24.2974   13.4587   10.8485 O   0  0  0  0  0  0  0  0  0  0  0  0
   22.8933   13.4426   11.1051 C   0  0  0  0  0  0  0  0  0  0  0  0
   22.6827   13.2906   12.6100 C   0  0  0  0  0  0  0  0  0  0  0  0
   21.2637   13.3143   12.9197 N   0  0  0  0  0  0  0  0  0  0  0  0
   27.0076   12.7848    7.2530 O   0  0  0  0  0  0  0  0  0  0  0  0
  2  1  1  6  0  0  0
  2  5  1  0  0  0  0
  2  3  1  0  0  0  0
  3  4  1  0  0  0  0
  3 10  1  0  0  0  0
  5  6  1  0  0  0  0
  6  7  1  0  0  0  0
  7  8  1  0  0  0  0
  8  9  1  0  0  0  0
M  END
>  <CHROM.1>
-66.16339162,-43.06876272,178.34548029,-179.11165736,178.11258663,24.76197683
13.68324086,9.73250503,-0.69260871,0.52212710,1.13233220

>  <Name>
ligand

>  <RI>
0

>  <Rbt.Current_Directory>
/home/itssahil/PROJECTS/Mol_Feturizer/New_Systems/rnas/3DJ0

>  <Rbt.Executable>
rbdock ($Id: //depot/dev/client3/rdock/2013.1/src/exe/rbdock.cxx#4 $)

>  <Rbt.Library>
libRbt.so (2013.1, Build901 2013/11/27)

>  <Rbt.Parameter_File>
/export/apps/rDock/src/rDock_2013.1_src/data/scripts/dock_solv.prm

>  <Rbt.Receptor>
prm/blind_docking_100.prm

>  <SCORE>
-4.15289

>  <SCORE.INTER>
-1.67596

>  <SCORE.INTER.CONST>
1

>  <SCORE.INTER.POLAR>
0

>  <SCORE.INTER.ROT>
5

>  <SCORE.INTER.SOLV>
8.11705

>  <SCORE.INTER.VDW>
-10.7563

>  <SCORE.INTER.norm>
-0.167596

>  <SCORE.INTRA>
-2.47693

>  <SCORE.INTRA.DIHEDRAL>
-3.81555

>  <SCORE.INTRA.DIHEDRAL.0>
6.00299

>  <SCORE.INTRA.POLAR>
0

>  <SCORE.INTRA.POLAR.0>
0

>  <SCORE.INTRA.REPUL>
0

>  <SCORE.INTRA.REPUL.0>
0

>  <SCORE.INTRA.SOLV>
-0.726005

>  <SCORE.INTRA.SOLV.lig_0>
-39.3257

>  <SCORE.INTRA.VDW>
-0.206157

>  <SCORE.INTRA.VDW.0>
-0.734044

>  <SCORE.INTRA.norm>
-0.247693

>  <SCORE.RESTR>
0

>  <SCORE.RESTR.CAVITY>
0

>  <SCORE.RESTR.norm>
0

>  <SCORE.SYSTEM>
0

>  <SCORE.SYSTEM.CONST>
0

>  <SCORE.SYSTEM.DIHEDRAL>
0

>  <SCORE.SYSTEM.SOLV>
0

>  <SCORE.SYSTEM.norm>
0

>  <SCORE.heavy>
10

>  <SCORE.norm>
-0.415289

>  <RMSD>
13.743

$$$$
ligand
 OpenBabel11021811473D
libRbt.so/2013.1/901 2013/11/27
 10  9  0  0  0  0  0  0  0  0999 V2000
   24.5928   13.3530    8.9136 N   0  0  0  0  0  0  0  0  0  0  0  0
   25.4111   14.2916    8.1687 C   0  0  2  0  0  0  0  0  0  0  0  0
   26.4635   13.5642    7.3754 C   0  0  0  0  0  0  0  0  0  0  0  0
   27.0073   12.5473    7.8739 O   0  0  0  0  0  0  0  0  0  0  0  0
   26.0585   15.2763    9.1329 C   0  0  0  0  0  0  0  0  0  0  0  0
   26.9784   14.5705    9.9619 O   0  0  0  0  0  0  0  0  0  0  0  0
   27.8298   15.5333   10.5831 C   0  0  0  0  0  0  0  0  0  0  0  0
   28.7233   14.8068   11.5861 C   0  0  0  0  0  0  0  0  0  0  0  0
   27.9169   14.2419   12.6542 N   0  0  0  0  0  0  0  0  0  0  0  0
   26.3979   13.6903    6.1361 O   0  0  0  0  0  0  0  0  0  0  0  0
  2  1  1  1  0  0  0
  2  5  1  0  0  0  0
  2  3  1  0  0  0  0
  3  4  1  0  0  0  0
  3 10  1  0  0  0  0
  5  6  1  0  0  0  0
  6  7  1  0  0  0  0
  7  8  1  0  0  0  0
  8  9  1  0  0  0  0
M  END
>  <CHROM.1>
66.05252583,-36.99251815,164.10310578,174.10955331,-64.70286972,26.75160563
14.16725452,9.20742326,1.98697029,0.12692220,-1.90525559

>  <Name>
ligand

>  <RI>
0

>  <Rbt.Current_Directory>
/home/itssahil/PROJECTS/Mol_Feturizer/New_Systems/rnas/3DJ0

>  <Rbt.Executable>
rbdock ($Id: //depot/dev/client3/rdock/2013.1/src/exe/rbdock.cxx#4 $)

>  <Rbt.Library>
libRbt.so (2013.1, Build901 2013/11/27)

>  <Rbt.Parameter_File>
/export/apps/rDock/src/rDock_2013.1_src/data/scripts/dock_solv.prm

>  <Rbt.Receptor>
prm/blind_docking_40.prm

>  <SCORE>
-2.62885

>  <SCORE.INTER>
-1.55886

>  <SCORE.INTER.CONST>
1

>  <SCORE.INTER.POLAR>
0

>  <SCORE.INTER.ROT>
5

>  <SCORE.INTER.SOLV>
17.6579

>  <SCORE.INTER.VDW>
-13.8585

>  <SCORE.INTER.norm>
-0.155886

>  <SCORE.INTRA>
-1.06999

>  <SCORE.INTRA.DIHEDRAL>
-2.3645

>  <SCORE.INTRA.DIHEDRAL.0>
6.00299

>  <SCORE.INTRA.POLAR>
0

>  <SCORE.INTRA.POLAR.0>
0

>  <SCORE.INTRA.REPUL>
0

>  <SCORE.INTRA.REPUL.0>
0

>  <SCORE.INTRA.SOLV>
0.772587

>  <SCORE.INTRA.SOLV.lig_0>
-39.3257

>  <SCORE.INTRA.VDW>
-0.274037

>  <SCORE.INTRA.VDW.0>
-0.734044

>  <SCORE.INTRA.norm>
-0.106999

>  <SCORE.RESTR>
0

>  <SCORE.RESTR.CAVITY>
0

>  <SCORE.RESTR.norm>
0

>  <SCORE.SYSTEM>
0

>  <SCORE.SYSTEM.CONST>
0

>  <SCORE.SYSTEM.DIHEDRAL>
0

>  <SCORE.SYSTEM.SOLV>
0

>  <SCORE.SYSTEM.norm>
0

>  <SCORE.heavy>
10

>  <SCORE.norm>
-0.262885

>  <RMSD>
13.767

$$$$
ligand
 OpenBabel11021811473D
libRbt.so/2013.1/901 2013/11/27
 10  9  0  0  0  0  0  0  0  0999 V2000
   23.2793   12.5261   11.9755 N   0  0  0  0  0  0  0  0  0  0  0  0
   23.0820   13.9354   11.6918 C   0  0  2  0  0  0  0  0  0  0  0  0
   21.6462   14.3262   11.9194 C   0  0  0  0  0  0  0  0  0  0  0  0
   20.7355   13.5997   11.4490 O   0  0  0  0  0  0  0  0  0  0  0  0
   23.4900   14.2251   10.2537 C   0  0  0  0  0  0  0  0  0  0  0  0
   24.8436   13.8183   10.0692 O   0  0  0  0  0  0  0  0  0  0  0  0
   25.1952   14.0836    8.7113 C   0  0  0  0  0  0  0  0  0  0  0  0
   26.6186   13.5817    8.4780 C   0  0  0  0  0  0  0  0  0  0  0  0
   27.0244   13.8523    7.1097 N   0  0  0  0  0  0  0  0  0  0  0  0
   21.4242   15.0287   12.9261 O   0  0  0  0  0  0  0  0  0  0  0  0
  2  1  1  6  0  0  0
  2  5  1  0  0  0  0
  2  3  1  0  0  0  0
  3  4  1  0  0  0  0
  3 10  1  0  0  0  0
  5  6  1  0  0  0  0
  6  7  1  0  0  0  0
  7  8  1  0  0  0  0
  8  9  1  0  0  0  0
M  END
>  <CHROM.1>
-56.83235637,-46.78391458,179.24561142,-176.91334468,-179.10041379,23.69520975
13.90497412,10.48178850,-2.65053739,0.52382644,-0.89963014

>  <Name>
ligand

>  <RI>
0

>  <Rbt.Current_Directory>
/home/itssahil/PROJECTS/Mol_Feturizer/New_Systems/rnas/3DJ0

>  <Rbt.Executable>
rbdock ($Id: //depot/dev/client3/rdock/2013.1/src/exe/rbdock.cxx#4 $)

>  <Rbt.Library>
libRbt.so (2013.1, Build901 2013/11/27)

>  <Rbt.Parameter_File>
/export/apps/rDock/src/rDock_2013.1_src/data/scripts/dock_solv.prm

>  <Rbt.Receptor>
prm/blind_docking_100.prm

>  <SCORE>
-2.21359

>  <SCORE.INTER>
0.192033

>  <SCORE.INTER.CONST>
1

>  <SCORE.INTER.POLAR>
0

>  <SCORE.INTER.ROT>
5

>  <SCORE.INTER.SOLV>
10.9309

>  <SCORE.INTER.VDW>
-10.4489

>  <SCORE.INTER.norm>
0.0192033

>  <SCORE.INTRA>
-2.40562

>  <SCORE.INTRA.DIHEDRAL>
-3.8982

>  <SCORE.INTRA.DIHEDRAL.0>
6.00299

>  <SCORE.INTRA.POLAR>
0

>  <SCORE.INTRA.POLAR.0>
0

>  <SCORE.INTRA.REPUL>
0

>  <SCORE.INTRA.REPUL.0>
0

>  <SCORE.INTRA.SOLV>
-0.623085

>  <SCORE.INTRA.SOLV.lig_0>
-39.3257

>  <SCORE.INTRA.VDW>
-0.14498

>  <SCORE.INTRA.VDW.0>
-0.734044

>  <SCORE.INTRA.norm>
-0.240562

>  <SCORE.RESTR>
0

>  <SCORE.RESTR.CAVITY>
0

>  <SCORE.RESTR.norm>
0

>  <SCORE.SYSTEM>
0

>  <SCORE.SYSTEM.CONST>
0

>  <SCORE.SYSTEM.DIHEDRAL>
0

>  <SCORE.SYSTEM.SOLV>
0

>  <SCORE.SYSTEM.norm>
0

>  <SCORE.heavy>
10

>  <SCORE.norm>
-0.221359

>  <RMSD>
14.072

$$$$
ligand
 OpenBabel11021811473D
libRbt.so/2013.1/901 2013/11/27
 10  9  0  0  0  0  0  0  0  0999 V2000
   26.6705   14.1391   10.8554 N   0  0  0  0  0  0  0  0  0  0  0  0
   25.6094   14.4364    9.9115 C   0  0  2  0  0  0  0  0  0  0  0  0
   24.2627   14.1486   10.5196 C   0  0  0  0  0  0  0  0  0  0  0  0
   23.2387   14.6588   10.0005 O   0  0  0  0  0  0  0  0  0  0  0  0
   25.8090   13.6111    8.6476 C   0  0  0  0  0  0  0  0  0  0  0  0
   27.1206   13.8518    8.1440 O   0  0  0  0  0  0  0  0  0  0  0  0
   27.3148   13.0005    7.0146 C   0  0  0  0  0  0  0  0  0  0  0  0
   28.7324   13.2167    6.4895 C   0  0  0  0  0  0  0  0  0  0  0  0
   28.9748   12.3601    5.3418 N   0  0  0  0  0  0  0  0  0  0  0  0
   24.1697   13.0834   11.1621 O   0  0  0  0  0  0  0  0  0  0  0  0
  2  1  1  1  0  0  0
  2  5  1  0  0  0  0
  2  3  1  0  0  0  0
  3  4  1  0  0  0  0
  3 10  1  0  0  0  0
  5  6  1  0  0  0  0
  6  7  1  0  0  0  0
  7  8  1  0  0  0  0
  8  9  1  0  0  0  0
M  END
>  <CHROM.1>
-54.69686420,161.72807855,176.12917066,-178.30340413,179.62520962,26.15203654
13.65057134,8.82860887,-2.32599947,0.08513857,-1.75131346

>  <Name>
ligand

>  <RI>
0

>  <Rbt.Current_Directory>
/home/itssahil/PROJECTS/Mol_Feturizer/New_Systems/rnas/3DJ0

>  <Rbt.Executable>
rbdock ($Id: //depot/dev/client3/rdock/2013.1/src/exe/rbdock.cxx#4 $)

>  <Rbt.Library>
libRbt.so (2013.1, Build901 2013/11/27)

>  <Rbt.Parameter_File>
/export/apps/rDock/src/rDock_2013.1_src/data/scripts/dock_solv.prm

>  <Rbt.Receptor>
prm/blind_docking_40.prm

>  <SCORE>
-3.61143

>  <SCORE.INTER>
-1.59021

>  <SCORE.INTER.CONST>
1

>  <SCORE.INTER.POLAR>
0

>  <SCORE.INTER.ROT>
5

>  <SCORE.INTER.SOLV>
6.34703

>  <SCORE.INTER.VDW>
-10.1092

>  <SCORE.INTER.norm>
-0.159021

>  <SCORE.INTRA>
-2.02122

>  <SCORE.INTRA.DIHEDRAL>
-3.38774

>  <SCORE.INTRA.DIHEDRAL.0>
6.00299

>  <SCORE.INTRA.POLAR>
0

>  <SCORE.INTRA.POLAR.0>
0

>  <SCORE.INTRA.REPUL>
0

>  <SCORE.INTRA.REPUL.0>
0

>  <SCORE.INTRA.SOLV>
-0.693993

>  <SCORE.INTRA.SOLV.lig_0>
-39.3257

>  <SCORE.INTRA.VDW>
0.0196504

>  <SCORE.INTRA.VDW.0>
-0.734044

>  <SCORE.INTRA.norm>
-0.202122

>  <SCORE.RESTR>
0

>  <SCORE.RESTR.CAVITY>
0

>  <SCORE.RESTR.norm>
0

>  <SCORE.SYSTEM>
0

>  <SCORE.SYSTEM.CONST>
0

>  <SCORE.SYSTEM.DIHEDRAL>
0

>  <SCORE.SYSTEM.SOLV>
0

>  <SCORE.SYSTEM.norm>
0

>  <SCORE.heavy>
10

>  <SCORE.norm>
-0.361143

>  <RMSD>
14.360

$$$$
ligand
 OpenBabel11021811473D
libRbt.so/2013.1/901 2013/11/27
 10  9  0  0  0  0  0  0  0  0999 V2000
   25.9866   14.6205   10.5926 N   0  0  0  0  0  0  0  0  0  0  0  0
   24.9126   14.8415    9.6422 C   0  0  2  0  0  0  0  0  0  0  0  0
   23.8012   13.8494    9.8579 C   0  0  0  0  0  0  0  0  0  0  0  0
   24.0780   12.7176   10.3277 O   0  0  0  0  0  0  0  0  0  0  0  0
   25.4582   14.7286    8.2252 C   0  0  0  0  0  0  0  0  0  0  0  0
   26.2417   13.5419    8.1276 O   0  0  0  0  0  0  0  0  0  0  0  0
   26.8394   13.5217    6.8314 C   0  0  0  0  0  0  0  0  0  0  0  0
   27.7727   12.3155    6.7525 C   0  0  0  0  0  0  0  0  0  0  0  0
   28.4664   12.3047    5.4763 N   0  0  0  0  0  0  0  0  0  0  0  0
   22.6633   14.3319   10.0268 O   0  0  0  0  0  0  0  0  0  0  0  0
  2  1  1  1  0  0  0
  2  5  1  0  0  0  0
  2  3  1  0  0  0  0
  3  4  1  0  0  0  0
  3 10  1  0  0  0  0
  5  6  1  0  0  0  0
  6  7  1  0  0  0  0
  7  8  1  0  0  0  0
  8  9  1  0  0  0  0
M  END
>  <CHROM.1>
48.09039776,-29.01048588,-174.81332186,175.42020975,-176.45141458,25.58609797
13.66198795,8.60718651,-2.51955099,-0.53713465,-2.53755363

>  <Name>
ligand

>  <RI>
0

>  <Rbt.Current_Directory>
/home/itssahil/PROJECTS/Mol_Feturizer/New_Systems/rnas/3DJ0

>  <Rbt.Executable>
rbdock ($Id: //depot/dev/client3/rdock/2013.1/src/exe/rbdock.cxx#4 $)

>  <Rbt.Library>
libRbt.so (2013.1, Build901 2013/11/27)

>  <Rbt.Parameter_File>
/export/apps/rDock/src/rDock_2013.1_src/data/scripts/dock_solv.prm

>  <Rbt.Receptor>
prm/blind_docking_40.prm

>  <SCORE>
-3.96253

>  <SCORE.INTER>
-2.10509

>  <SCORE.INTER.CONST>
1

>  <SCORE.INTER.POLAR>
0

>  <SCORE.INTER.ROT>
5

>  <SCORE.INTER.SOLV>
8.74153

>  <SCORE.INTER.VDW>
-11.2506

>  <SCORE.INTER.norm>
-0.210509

>  <SCORE.INTRA>
-1.85744

>  <SCORE.INTRA.DIHEDRAL>
-3.04491

>  <SCORE.INTRA.DIHEDRAL.0>
6.00299

>  <SCORE.INTRA.POLAR>
0

>  <SCORE.INTRA.POLAR.0>
0

>  <SCORE.INTRA.REPUL>
0

>  <SCORE.INTRA.REPUL.0>
0

>  <SCORE.INTRA.SOLV>
-0.219896

>  <SCORE.INTRA.SOLV.lig_0>
-39.3257

>  <SCORE.INTRA.VDW>
-0.225034

>  <SCORE.INTRA.VDW.0>
-0.734044

>  <SCORE.INTRA.norm>
-0.185744

>  <SCORE.RESTR>
0

>  <SCORE.RESTR.CAVITY>
0

>  <SCORE.RESTR.norm>
0

>  <SCORE.SYSTEM>
0

>  <SCORE.SYSTEM.CONST>
0

>  <SCORE.SYSTEM.DIHEDRAL>
0

>  <SCORE.SYSTEM.SOLV>
0

>  <SCORE.SYSTEM.norm>
0

>  <SCORE.heavy>
10

>  <SCORE.norm>
-0.396253

>  <RMSD>
14.716

$$$$
ligand
 OpenBabel11021811473D
libRbt.so/2013.1/901 2013/11/27
 10  9  0  0  0  0  0  0  0  0999 V2000
   26.9848   14.3363   10.1589 N   0  0  0  0  0  0  0  0  0  0  0  0
   26.2614   14.5126    8.9135 C   0  0  2  0  0  0  0  0  0  0  0  0
   24.7801   14.5964    9.1679 C   0  0  0  0  0  0  0  0  0  0  0  0
   24.3630   14.5628   10.3525 O   0  0  0  0  0  0  0  0  0  0  0  0
   26.5750   13.3541    7.9765 C   0  0  0  0  0  0  0  0  0  0  0  0
   27.9501   13.4209    7.6073 O   0  0  0  0  0  0  0  0  0  0  0  0
   28.2044   12.3596    6.6871 C   0  0  0  0  0  0  0  0  0  0  0  0
   29.6806   12.4056    6.2985 C   0  0  0  0  0  0  0  0  0  0  0  0
   29.9684   13.6340    5.5785 N   0  0  0  0  0  0  0  0  0  0  0  0
   24.1058   15.1664    8.2868 O   0  0  0  0  0  0  0  0  0  0  0  0
  2  1  1  1  0  0  0
  2  5  1  0  0  0  0
  2  3  1  0  0  0  0
  3  4  1  0  0  0  0
  3 10  1  0  0  0  0
  5  6  1  0  0  0  0
  6  7  1  0  0  0  0
  7  8  1  0  0  0  0
  8  9  1  0  0  0  0
M  END
>  <CHROM.1>
-66.19355994,2.73306693,-177.62008579,-179.15592181,-64.66591524,26.84795163
13.84727493,8.11623857,-2.54647924,0.34794435,-1.61643480

>  <Name>
ligand

>  <RI>
0

>  <Rbt.Current_Directory>
/home/itssahil/PROJECTS/Mol_Feturizer/New_Systems/rnas/3DJ0

>  <Rbt.Executable>
rbdock ($Id: //depot/dev/client3/rdock/2013.1/src/exe/rbdock.cxx#4 $)

>  <Rbt.Library>
libRbt.so (2013.1, Build901 2013/11/27)

>  <Rbt.Parameter_File>
/export/apps/rDock/src/rDock_2013.1_src/data/scripts/dock_solv.prm

>  <Rbt.Receptor>
prm/blind_docking_40.prm

>  <SCORE>
-3.5415

>  <SCORE.INTER>
-2.12778

>  <SCORE.INTER.CONST>
1

>  <SCORE.INTER.POLAR>
0

>  <SCORE.INTER.ROT>
5

>  <SCORE.INTER.SOLV>
7.51512

>  <SCORE.INTER.VDW>
-10.8569

>  <SCORE.INTER.norm>
-0.212778

>  <SCORE.INTRA>
-1.41373

>  <SCORE.INTRA.DIHEDRAL>
-2.99897

>  <SCORE.INTRA.DIHEDRAL.0>
6.00299

>  <SCORE.INTRA.POLAR>
0

>  <SCORE.INTRA.POLAR.0>
0

>  <SCORE.INTRA.REPUL>
0

>  <SCORE.INTRA.REPUL.0>
0

>  <SCORE.INTRA.SOLV>
0.240382

>  <SCORE.INTRA.SOLV.lig_0>
-39.3257

>  <SCORE.INTRA.VDW>
-0.0344317

>  <SCORE.INTRA.VDW.0>
-0.734044

>  <SCORE.INTRA.norm>
-0.141373

>  <SCORE.RESTR>
0

>  <SCORE.RESTR.CAVITY>
0

>  <SCORE.RESTR.norm>
0

>  <SCORE.SYSTEM>
0

>  <SCORE.SYSTEM.CONST>
0

>  <SCORE.SYSTEM.DIHEDRAL>
0

>  <SCORE.SYSTEM.SOLV>
0

>  <SCORE.SYSTEM.norm>
0

>  <SCORE.heavy>
10

>  <SCORE.norm>
-0.35415

>  <RMSD>
14.773

$$$$
ligand
 OpenBabel11021811473D
libRbt.so/2013.1/901 2013/11/27
 10  9  0  0  0  0  0  0  0  0999 V2000
   25.1447   15.9380    8.7355 N   0  0  0  0  0  0  0  0  0  0  0  0
   24.6951   14.5659    8.8794 C   0  0  2  0  0  0  0  0  0  0  0  0
   24.1296   14.3347   10.2552 C   0  0  0  0  0  0  0  0  0  0  0  0
   23.0467   13.7083   10.3710 O   0  0  0  0  0  0  0  0  0  0  0  0
   25.8597   13.6206    8.6178 C   0  0  0  0  0  0  0  0  0  0  0  0
   26.3231   13.8201    7.2847 O   0  0  0  0  0  0  0  0  0  0  0  0
   27.4315   12.9454    7.0750 C   0  0  0  0  0  0  0  0  0  0  0  0
   27.9639   13.1763    5.6624 C   0  0  0  0  0  0  0  0  0  0  0  0
   29.1040   12.3118    5.4119 N   0  0  0  0  0  0  0  0  0  0  0  0
   24.9542   14.3302   11.1912 O   0  0  0  0  0  0  0  0  0  0  0  0
  2  1  1  1  0  0  0
  2  5  1  0  0  0  0
  2  3  1  0  0  0  0
  3  4  1  0  0  0  0
  3 10  1  0  0  0  0
  5  6  1  0  0  0  0
  6  7  1  0  0  0  0
  7  8  1  0  0  0  0
  8  9  1  0  0  0  0
M  END
>  <CHROM.1>
-60.96536529,134.81405483,178.72424134,-178.43073948,179.47544526,25.84041960
13.87018793,8.38376387,3.05964330,-0.84270567,2.69790317

>  <Name>
ligand

>  <RI>
0

>  <Rbt.Current_Directory>
/home/itssahil/PROJECTS/Mol_Feturizer/New_Systems/rnas/3DJ0

>  <Rbt.Executable>
rbdock ($Id: //depot/dev/client3/rdock/2013.1/src/exe/rbdock.cxx#4 $)

>  <Rbt.Library>
libRbt.so (2013.1, Build901 2013/11/27)

>  <Rbt.Parameter_File>
/export/apps/rDock/src/rDock_2013.1_src/data/scripts/dock_solv.prm

>  <Rbt.Receptor>
prm/blind_docking_40.prm

>  <SCORE>
-3.43618

>  <SCORE.INTER>
-1.63379

>  <SCORE.INTER.CONST>
1

>  <SCORE.INTER.POLAR>
0

>  <SCORE.INTER.ROT>
5

>  <SCORE.INTER.SOLV>
10.4093

>  <SCORE.INTER.VDW>
-11.4923

>  <SCORE.INTER.norm>
-0.163379

>  <SCORE.INTRA>
-1.80239

>  <SCORE.INTRA.DIHEDRAL>
-3.17574

>  <SCORE.INTRA.DIHEDRAL.0>
6.00299

>  <SCORE.INTRA.POLAR>
0

>  <SCORE.INTRA.POLAR.0>
0

>  <SCORE.INTRA.REPUL>
0

>  <SCORE.INTRA.REPUL.0>
0

>  <SCORE.INTRA.SOLV>
-0.841485

>  <SCORE.INTRA.SOLV.lig_0>
-39.3257

>  <SCORE.INTRA.VDW>
0.206222

>  <SCORE.INTRA.VDW.0>
-0.734044

>  <SCORE.INTRA.norm>
-0.180239

>  <SCORE.RESTR>
0

>  <SCORE.RESTR.CAVITY>
0

>  <SCORE.RESTR.norm>
0

>  <SCORE.SYSTEM>
0

>  <SCORE.SYSTEM.CONST>
0

>  <SCORE.SYSTEM.DIHEDRAL>
0

>  <SCORE.SYSTEM.SOLV>
0

>  <SCORE.SYSTEM.norm>
0

>  <SCORE.heavy>
10

>  <SCORE.norm>
-0.343618

>  <RMSD>
14.810

$$$$
ligand
 OpenBabel11021811473D
libRbt.so/2013.1/901 2013/11/27
 10  9  0  0  0  0  0  0  0  0999 V2000
   25.1075   13.7315   10.2986 N   0  0  0  0  0  0  0  0  0  0  0  0
   25.9604   14.3657    9.3108 C   0  0  2  0  0  0  0  0  0  0  0  0
   25.1706   15.3349    8.4723 C   0  0  0  0  0  0  0  0  0  0  0  0
   24.0213   15.0081    8.0841 O   0  0  0  0  0  0  0  0  0  0  0  0
   26.5978   13.2988    8.4312 C   0  0  0  0  0  0  0  0  0  0  0  0
   27.5448   13.9213    7.5668 O   0  0  0  0  0  0  0  0  0  0  0  0
   28.1803   12.8933    6.8070 C   0  0  0  0  0  0  0  0  0  0  0  0
   29.2243   13.5426    5.9011 C   0  0  0  0  0  0  0  0  0  0  0  0
   30.2195   14.2332    6.7028 N   0  0  0  0  0  0  0  0  0  0  0  0
   25.4614   16.5401    8.6105 O   0  0  0  0  0  0  0  0  0  0  0  0
  2  1  1  1  0  0  0
  2  5  1  0  0  0  0
  2  3  1  0  0  0  0
  3  4  1  0  0  0  0
  3 10  1  0  0  0  0
  5  6  1  0  0  0  0
  6  7  1  0  0  0  0
  7  8  1  0  0  0  0
  8  9  1  0  0  0  0
M  END
>  <CHROM.1>
-173.55436290,-41.65306794,176.82334164,-178.55930101,60.52121638,26.72102310
14.31486078,8.00898091,3.10498873,0.57287521,-0.45462180

>  <Name>
ligand

>  <RI>
0

>  <Rbt.Current_Directory>
/home/itssahil/PROJECTS/Mol_Feturizer/New_Systems/rnas/3DJ0

>  <Rbt.Executable>
rbdock ($Id: //depot/dev/client3/rdock/2013.1/src/exe/rbdock.cxx#4 $)

>  <Rbt.Library>
libRbt.so (2013.1, Build901 2013/11/27)

>  <Rbt.Parameter_File>
/export/apps/rDock/src/rDock_2013.1_src/data/scripts/dock_solv.prm

>  <Rbt.Receptor>
prm/blind_docking_100.prm

>  <SCORE>
-3.76069

>  <SCORE.INTER>
-1.53289

>  <SCORE.INTER.CONST>
1

>  <SCORE.INTER.POLAR>
0

>  <SCORE.INTER.ROT>
5

>  <SCORE.INTER.SOLV>
11.9966

>  <SCORE.INTER.VDW>
-11.9541

>  <SCORE.INTER.norm>
-0.153289

>  <SCORE.INTRA>
-2.2278

>  <SCORE.INTRA.DIHEDRAL>
-3.7566

>  <SCORE.INTRA.DIHEDRAL.0>
6.00299

>  <SCORE.INTRA.POLAR>
0

>  <SCORE.INTRA.POLAR.0>
0

>  <SCORE.INTRA.REPUL>
0

>  <SCORE.INTRA.REPUL.0>
0

>  <SCORE.INTRA.SOLV>
-0.181063

>  <SCORE.INTRA.SOLV.lig_0>
-39.3257

>  <SCORE.INTRA.VDW>
-0.258969

>  <SCORE.INTRA.VDW.0>
-0.734044

>  <SCORE.INTRA.norm>
-0.22278

>  <SCORE.RESTR>
0

>  <SCORE.RESTR.CAVITY>
0

>  <SCORE.RESTR.norm>
0

>  <SCORE.SYSTEM>
0

>  <SCORE.SYSTEM.CONST>
0

>  <SCORE.SYSTEM.DIHEDRAL>
0

>  <SCORE.SYSTEM.SOLV>
0

>  <SCORE.SYSTEM.norm>
0

>  <SCORE.heavy>
10

>  <SCORE.norm>
-0.376069

>  <RMSD>
14.820

$$$$
ligand
 OpenBabel11021811473D
libRbt.so/2013.1/901 2013/11/27
 10  9  0  0  0  0  0  0  0  0999 V2000
   25.1987   13.8630   10.3900 N   0  0  0  0  0  0  0  0  0  0  0  0
   26.0336   14.4252    9.3449 C   0  0  2  0  0  0  0  0  0  0  0  0
   25.2458   15.3881    8.4973 C   0  0  0  0  0  0  0  0  0  0  0  0
   24.0988   15.0569    8.1058 O   0  0  0  0  0  0  0  0  0  0  0  0
   26.5980   13.3010    8.4870 C   0  0  0  0  0  0  0  0  0  0  0  0
   27.5511   13.8493    7.5799 O   0  0  0  0  0  0  0  0  0  0  0  0
   28.1181   12.7681    6.8402 C   0  0  0  0  0  0  0  0  0  0  0  0
   29.1742   13.3361    5.8946 C   0  0  0  0  0  0  0  0  0  0  0  0
   28.5479   14.2001    4.9091 N   0  0  0  0  0  0  0  0  0  0  0  0
   25.5337   16.5946    8.6298 O   0  0  0  0  0  0  0  0  0  0  0  0
  2  1  1  1  0  0  0
  2  5  1  0  0  0  0
  2  3  1  0  0  0  0
  3  4  1  0  0  0  0
  3 10  1  0  0  0  0
  5  6  1  0  0  0  0
  6  7  1  0  0  0  0
  7  8  1  0  0  0  0
  8  9  1  0  0  0  0
M  END
>  <CHROM.1>
-172.41582412,-45.50931278,176.84616722,-178.21721482,-64.92895878,26.58726899
14.30600650,7.86292335,-2.90367863,0.74917742,-0.80751680

>  <Name>
ligand

>  <RI>
0

>  <Rbt.Current_Directory>
/home/itssahil/PROJECTS/Mol_Feturizer/New_Systems/rnas/3DJ0

>  <Rbt.Executable>
rbdock ($Id: //depot/dev/client3/rdock/2013.1/src/exe/rbdock.cxx#4 $)

>  <Rbt.Library>
libRbt.so (2013.1, Build901 2013/11/27)

>  <Rbt.Parameter_File>
/export/apps/rDock/src/rDock_2013.1_src/data/scripts/dock_solv.prm

>  <Rbt.Receptor>
prm/blind_docking_40.prm

>  <SCORE>
-4.26013

>  <SCORE.INTER>
-2.0429

>  <SCORE.INTER.CONST>
1

>  <SCORE.INTER.POLAR>
0

>  <SCORE.INTER.ROT>
5

>  <SCORE.INTER.SOLV>
9.26675

>  <SCORE.INTER.VDW>
-11.3842

>  <SCORE.INTER.norm>
-0.20429

>  <SCORE.INTRA>
-2.21724

>  <SCORE.INTRA.DIHEDRAL>
-3.62147

>  <SCORE.INTRA.DIHEDRAL.0>
6.00299

>  <SCORE.INTRA.POLAR>
0

>  <SCORE.INTRA.POLAR.0>
0

>  <SCORE.INTRA.REPUL>
0

>  <SCORE.INTRA.REPUL.0>
0

>  <SCORE.INTRA.SOLV>
-0.25763

>  <SCORE.INTRA.SOLV.lig_0>
-39.3257

>  <SCORE.INTRA.VDW>
-0.27769

>  <SCORE.INTRA.VDW.0>
-0.734044

>  <SCORE.INTRA.norm>
-0.221724

>  <SCORE.RESTR>
0

>  <SCORE.RESTR.CAVITY>
0

>  <SCORE.RESTR.norm>
0

>  <SCORE.SYSTEM>
0

>  <SCORE.SYSTEM.CONST>
0

>  <SCORE.SYSTEM.DIHEDRAL>
0

>  <SCORE.SYSTEM.SOLV>
0

>  <SCORE.SYSTEM.norm>
0

>  <SCORE.heavy>
10

>  <SCORE.norm>
-0.426013

>  <RMSD>
14.925

$$$$
ligand
 OpenBabel11021811473D
libRbt.so/2013.1/901 2013/11/27
 10  9  0  0  0  0  0  0  0  0999 V2000
   25.2754   13.9275   10.4226 N   0  0  0  0  0  0  0  0  0  0  0  0
   26.0713   14.4537    9.3294 C   0  0  2  0  0  0  0  0  0  0  0  0
   25.2536   15.3910    8.4815 C   0  0  0  0  0  0  0  0  0  0  0  0
   24.1250   15.0170    8.0755 O   0  0  0  0  0  0  0  0  0  0  0  0
   26.6015   13.3011    8.4876 C   0  0  0  0  0  0  0  0  0  0  0  0
   27.5195   13.8176    7.5273 O   0  0  0  0  0  0  0  0  0  0  0  0
   28.0083   12.7183    6.7590 C   0  0  0  0  0  0  0  0  0  0  0  0
   29.0220   13.2522    5.7493 C   0  0  0  0  0  0  0  0  0  0  0  0
   29.5529   12.1607    4.9513 N   0  0  0  0  0  0  0  0  0  0  0  0
   25.4911   16.6070    8.6267 O   0  0  0  0  0  0  0  0  0  0  0  0
  2  1  1  1  0  0  0
  2  5  1  0  0  0  0
  2  3  1  0  0  0  0
  3  4  1  0  0  0  0
  3 10  1  0  0  0  0
  5  6  1  0  0  0  0
  6  7  1  0  0  0  0
  7  8  1  0  0  0  0
  8  9  1  0  0  0  0
M  END
>  <CHROM.1>
-172.47802017,-49.84427776,179.58905669,-178.52413412,179.57101569,26.66601108
14.09734297,7.83585567,-3.02047609,0.80824548,-0.81757995

>  <Name>
ligand

>  <RI>
0

>  <Rbt.Current_Directory>
/home/itssahil/PROJECTS/Mol_Feturizer/New_Systems/rnas/3DJ0

>  <Rbt.Executable>
rbdock ($Id: //depot/dev/client3/rdock/2013.1/src/exe/rbdock.cxx#4 $)

>  <Rbt.Library>
libRbt.so (2013.1, Build901 2013/11/27)

>  <Rbt.Parameter_File>
/export/apps/rDock/src/rDock_2013.1_src/data/scripts/dock_solv.prm

>  <Rbt.Receptor>
prm/blind_docking_40.prm

>  <SCORE>
-4.96584

>  <SCORE.INTER>
-2.23057

>  <SCORE.INTER.CONST>
1

>  <SCORE.INTER.POLAR>
0

>  <SCORE.INTER.ROT>
5

>  <SCORE.INTER.SOLV>
7.81191

>  <SCORE.INTER.VDW>
-11.0244

>  <SCORE.INTER.norm>
-0.223057

>  <SCORE.INTRA>
-2.73527

>  <SCORE.INTRA.DIHEDRAL>
-3.76853

>  <SCORE.INTRA.DIHEDRAL.0>
6.00299

>  <SCORE.INTRA.POLAR>
0

>  <SCORE.INTRA.POLAR.0>
0

>  <SCORE.INTRA.REPUL>
0

>  <SCORE.INTRA.REPUL.0>
0

>  <SCORE.INTRA.SOLV>
-1.29622

>  <SCORE.INTRA.SOLV.lig_0>
-39.3257

>  <SCORE.INTRA.VDW>
-0.202889

>  <SCORE.INTRA.VDW.0>
-0.734044

>  <SCORE.INTRA.norm>
-0.273527

>  <SCORE.RESTR>
0

>  <SCORE.RESTR.CAVITY>
0

>  <SCORE.RESTR.norm>
0

>  <SCORE.SYSTEM>
0

>  <SCORE.SYSTEM.CONST>
0

>  <SCORE.SYSTEM.DIHEDRAL>
0

>  <SCORE.SYSTEM.SOLV>
0

>  <SCORE.SYSTEM.norm>
0

>  <SCORE.heavy>
10

>  <SCORE.norm>
-0.496584

>  <RMSD>
14.971

$$$$
ligand
 OpenBabel11021811473D
libRbt.so/2013.1/901 2013/11/27
 10  9  0  0  0  0  0  0  0  0999 V2000
   25.2752   16.0386    8.7799 N   0  0  0  0  0  0  0  0  0  0  0  0
   24.6108   14.7538    8.6655 C   0  0  2  0  0  0  0  0  0  0  0  0
   23.8519   14.4352    9.9259 C   0  0  0  0  0  0  0  0  0  0  0  0
   24.4392   14.5357   11.0320 O   0  0  0  0  0  0  0  0  0  0  0  0
   25.6438   13.6724    8.3794 C   0  0  0  0  0  0  0  0  0  0  0  0
   26.2900   13.9693    7.1441 O   0  0  0  0  0  0  0  0  0  0  0  0
   27.2846   12.9695    6.9232 C   0  0  0  0  0  0  0  0  0  0  0  0
   27.9867   13.2754    5.6020 C   0  0  0  0  0  0  0  0  0  0  0  0
   29.0485   12.3124    5.3672 N   0  0  0  0  0  0  0  0  0  0  0  0
   22.6127   14.5652    9.8652 O   0  0  0  0  0  0  0  0  0  0  0  0
  2  1  1  1  0  0  0
  2  5  1  0  0  0  0
  2  3  1  0  0  0  0
  3  4  1  0  0  0  0
  3 10  1  0  0  0  0
  5  6  1  0  0  0  0
  6  7  1  0  0  0  0
  7  8  1  0  0  0  0
  8  9  1  0  0  0  0
M  END
>  <CHROM.1>
-61.11644294,-50.11216140,177.94832936,-179.96797471,177.52418882,25.67290291
14.05761227,8.20136797,-3.07696309,-0.80227105,2.81328592

>  <Name>
ligand

>  <RI>
0

>  <Rbt.Current_Directory>
/home/itssahil/PROJECTS/Mol_Feturizer/New_Systems/rnas/3DJ0

>  <Rbt.Executable>
rbdock ($Id: //depot/dev/client3/rdock/2013.1/src/exe/rbdock.cxx#4 $)

>  <Rbt.Library>
libRbt.so (2013.1, Build901 2013/11/27)

>  <Rbt.Parameter_File>
/export/apps/rDock/src/rDock_2013.1_src/data/scripts/dock_solv.prm

>  <Rbt.Receptor>
prm/blind_docking_40.prm

>  <SCORE>
-4.11055

>  <SCORE.INTER>
-1.65725

>  <SCORE.INTER.CONST>
1

>  <SCORE.INTER.POLAR>
0

>  <SCORE.INTER.ROT>
5

>  <SCORE.INTER.SOLV>
11.3946

>  <SCORE.INTER.VDW>
-11.8364

>  <SCORE.INTER.norm>
-0.165725

>  <SCORE.INTRA>
-2.4533

>  <SCORE.INTRA.DIHEDRAL>
-3.93867

>  <SCORE.INTRA.DIHEDRAL.0>
6.00299

>  <SCORE.INTRA.POLAR>
0

>  <SCORE.INTRA.POLAR.0>
0

>  <SCORE.INTRA.REPUL>
0

>  <SCORE.INTRA.REPUL.0>
0

>  <SCORE.INTRA.SOLV>
-0.659586

>  <SCORE.INTRA.SOLV.lig_0>
-39.3257

>  <SCORE.INTRA.VDW>
-0.154167

>  <SCORE.INTRA.VDW.0>
-0.734044

>  <SCORE.INTRA.norm>
-0.24533

>  <SCORE.RESTR>
0

>  <SCORE.RESTR.CAVITY>
0

>  <SCORE.RESTR.norm>
0

>  <SCORE.SYSTEM>
0

>  <SCORE.SYSTEM.CONST>
0

>  <SCORE.SYSTEM.DIHEDRAL>
0

>  <SCORE.SYSTEM.SOLV>
0

>  <SCORE.SYSTEM.norm>
0

>  <SCORE.heavy>
10

>  <SCORE.norm>
-0.411055

>  <RMSD>
15.020

$$$$
ligand
 OpenBabel11021811473D
libRbt.so/2013.1/901 2013/11/27
 10  9  0  0  0  0  0  0  0  0999 V2000
   28.1527   13.1554    4.7026 N   0  0  0  0  0  0  0  0  0  0  0  0
   28.7534   13.8595    5.8201 C   0  0  2  0  0  0  0  0  0  0  0  0
   30.2264   13.5609    5.9048 C   0  0  0  0  0  0  0  0  0  0  0  0
   30.9468   14.2595    6.6607 O   0  0  0  0  0  0  0  0  0  0  0  0
   28.0539   13.4538    7.1102 C   0  0  0  0  0  0  0  0  0  0  0  0
   26.7362   13.9971    7.1090 O   0  0  0  0  0  0  0  0  0  0  0  0
   26.1500   13.7169    8.3800 C   0  0  0  0  0  0  0  0  0  0  0  0
   24.7802   14.3899    8.4350 C   0  0  0  0  0  0  0  0  0  0  0  0
   24.1511   14.1355    9.7193 N   0  0  0  0  0  0  0  0  0  0  0  0
   30.5636   12.3917    5.6299 O   0  0  0  0  0  0  0  0  0  0  0  0
  2  1  1  6  0  0  0
  2  5  1  0  0  0  0
  2  3  1  0  0  0  0
  3  4  1  0  0  0  0
  3 10  1  0  0  0  0
  5  6  1  0  0  0  0
  6  7  1  0  0  0  0
  7  8  1  0  0  0  0
  8  9  1  0  0  0  0
M  END
>  <CHROM.1>
-69.96018380,167.71279929,-174.34345007,175.51153492,-179.65624858,27.89320580
13.68591880,6.94252105,0.53143887,-0.03916478,-1.88830838

>  <Name>
ligand

>  <RI>
0

>  <Rbt.Current_Directory>
/home/itssahil/PROJECTS/Mol_Feturizer/New_Systems/rnas/3DJ0

>  <Rbt.Executable>
rbdock ($Id: //depot/dev/client3/rdock/2013.1/src/exe/rbdock.cxx#4 $)

>  <Rbt.Library>
libRbt.so (2013.1, Build901 2013/11/27)

>  <Rbt.Parameter_File>
/export/apps/rDock/src/rDock_2013.1_src/data/scripts/dock_solv.prm

>  <Rbt.Receptor>
prm/blind_docking_40.prm

>  <SCORE>
-3.04833

>  <SCORE.INTER>
-1.06025

>  <SCORE.INTER.CONST>
1

>  <SCORE.INTER.POLAR>
0

>  <SCORE.INTER.ROT>
5

>  <SCORE.INTER.SOLV>
8.4554

>  <SCORE.INTER.VDW>
-10.4586

>  <SCORE.INTER.norm>
-0.106025

>  <SCORE.INTRA>
-1.98808

>  <SCORE.INTRA.DIHEDRAL>
-3.10371

>  <SCORE.INTRA.DIHEDRAL.0>
6.00299

>  <SCORE.INTRA.POLAR>
0

>  <SCORE.INTRA.POLAR.0>
0

>  <SCORE.INTRA.REPUL>
0

>  <SCORE.INTRA.REPUL.0>
0

>  <SCORE.INTRA.SOLV>
-0.887837

>  <SCORE.INTRA.SOLV.lig_0>
-39.3257

>  <SCORE.INTRA.VDW>
0.00769546

>  <SCORE.INTRA.VDW.0>
-0.734044

>  <SCORE.INTRA.norm>
-0.198808

>  <SCORE.RESTR>
0

>  <SCORE.RESTR.CAVITY>
0

>  <SCORE.RESTR.norm>
0

>  <SCORE.SYSTEM>
0

>  <SCORE.SYSTEM.CONST>
0

>  <SCORE.SYSTEM.DIHEDRAL>
0

>  <SCORE.SYSTEM.SOLV>
0

>  <SCORE.SYSTEM.norm>
0

>  <SCORE.heavy>
10

>  <SCORE.norm>
-0.304833

>  <RMSD>
15.162

$$$$
ligand
 OpenBabel11021811473D
libRbt.so/2013.1/901 2013/11/27
 10  9  0  0  0  0  0  0  0  0999 V2000
   17.8133   19.7473   17.2447 N   0  0  0  0  0  0  0  0  0  0  0  0
   17.1017   20.0344   16.0132 C   0  0  2  0  0  0  0  0  0  0  0  0
   17.7494   19.3314   14.8503 C   0  0  0  0  0  0  0  0  0  0  0  0
   18.5959   18.4314   15.0778 O   0  0  0  0  0  0  0  0  0  0  0  0
   17.0794   21.5388   15.7793 C   0  0  0  0  0  0  0  0  0  0  0  0
   16.2816   21.8135   14.6305 O   0  0  0  0  0  0  0  0  0  0  0  0
   16.1476   23.2307   14.5240 C   0  0  0  0  0  0  0  0  0  0  0  0
   15.3154   23.5414   13.2818 C   0  0  0  0  0  0  0  0  0  0  0  0
   15.0156   24.9616   13.2251 N   0  0  0  0  0  0  0  0  0  0  0  0
   17.0957   19.3166   13.7879 O   0  0  0  0  0  0  0  0  0  0  0  0
  2  1  1  1  0  0  0
  2  5  1  0  0  0  0
  2  3  1  0  0  0  0
  3  4  1  0  0  0  0
  3 10  1  0  0  0  0
  5  6  1  0  0  0  0
  6  7  1  0  0  0  0
  7  8  1  0  0  0  0
  8  9  1  0  0  0  0
M  END
>  <CHROM.1>
-175.09700177,13.34627287,173.33612678,178.98391700,173.02764252,16.83193460
21.16045933,14.81902781,-0.05879125,-1.12122167,1.13073847

>  <Name>
ligand

>  <RI>
0

>  <Rbt.Current_Directory>
/home/itssahil/PROJECTS/Mol_Feturizer/New_Systems/rnas/3DJ0

>  <Rbt.Executable>
rbdock ($Id: //depot/dev/client3/rdock/2013.1/src/exe/rbdock.cxx#4 $)

>  <Rbt.Library>
libRbt.so (2013.1, Build901 2013/11/27)

>  <Rbt.Parameter_File>
/export/apps/rDock/src/rDock_2013.1_src/data/scripts/dock_solv.prm

>  <Rbt.Receptor>
prm/blind_docking_40.prm

>  <SCORE>
-0.831315

>  <SCORE.INTER>
1.04693

>  <SCORE.INTER.CONST>
1

>  <SCORE.INTER.POLAR>
0

>  <SCORE.INTER.ROT>
5

>  <SCORE.INTER.SOLV>
8.54094

>  <SCORE.INTER.VDW>
-9.08236

>  <SCORE.INTER.norm>
0.104693

>  <SCORE.INTRA>
-1.87824

>  <SCORE.INTRA.DIHEDRAL>
-2.70358

>  <SCORE.INTRA.DIHEDRAL.0>
6.00299

>  <SCORE.INTRA.POLAR>
0

>  <SCORE.INTRA.POLAR.0>
0

>  <SCORE.INTRA.REPUL>
0

>  <SCORE.INTRA.REPUL.0>
0

>  <SCORE.INTRA.SOLV>
-1.25234

>  <SCORE.INTRA.SOLV.lig_0>
-39.3257

>  <SCORE.INTRA.VDW>
0.0997205

>  <SCORE.INTRA.VDW.0>
-0.734044

>  <SCORE.INTRA.norm>
-0.187824

>  <SCORE.RESTR>
0

>  <SCORE.RESTR.CAVITY>
0

>  <SCORE.RESTR.norm>
0

>  <SCORE.SYSTEM>
0

>  <SCORE.SYSTEM.CONST>
0

>  <SCORE.SYSTEM.DIHEDRAL>
0

>  <SCORE.SYSTEM.SOLV>
0

>  <SCORE.SYSTEM.norm>
0

>  <SCORE.heavy>
10

>  <SCORE.norm>
-0.0831315

>  <RMSD>
16.834

$$$$
ligand
 OpenBabel11021811473D
libRbt.so/2013.1/901 2013/11/27
 10  9  0  0  0  0  0  0  0  0999 V2000
   19.0125   28.8097   20.6052 N   0  0  0  0  0  0  0  0  0  0  0  0
   18.5681   27.7212   21.4556 C   0  0  2  0  0  0  0  0  0  0  0  0
   19.7459   27.0185   22.0763 C   0  0  0  0  0  0  0  0  0  0  0  0
   20.8188   26.9393   21.4275 O   0  0  0  0  0  0  0  0  0  0  0  0
   17.7377   26.7434   20.6355 C   0  0  0  0  0  0  0  0  0  0  0  0
   16.5957   27.4263   20.1244 O   0  0  0  0  0  0  0  0  0  0  0  0
   15.8320   26.4879   19.3668 C   0  0  0  0  0  0  0  0  0  0  0  0
   14.5975   27.2032   18.8222 C   0  0  0  0  0  0  0  0  0  0  0  0
   13.7658   26.2692   18.0832 N   0  0  0  0  0  0  0  0  0  0  0  0
   19.7691   26.9884   23.3232 O   0  0  0  0  0  0  0  0  0  0  0  0
  2  1  1  6  0  0  0
  2  5  1  0  0  0  0
  2  3  1  0  0  0  0
  3  4  1  0  0  0  0
  3 10  1  0  0  0  0
  5  6  1  0  0  0  0
  6  7  1  0  0  0  0
  7  8  1  0  0  0  0
  8  9  1  0  0  0  0
M  END
>  <CHROM.1>
-61.08398457,-32.86652105,-179.70276392,179.52302849,-177.94993614,17.68169484
27.15592806,20.61831744,-0.27375682,-0.50887915,-0.68155108

>  <Name>
ligand

>  <RI>
0

>  <Rbt.Current_Directory>
/home/itssahil/PROJECTS/Mol_Feturizer/New_Systems/rnas/3DJ0

>  <Rbt.Executable>
rbdock ($Id: //depot/dev/client3/rdock/2013.1/src/exe/rbdock.cxx#4 $)

>  <Rbt.Library>
libRbt.so (2013.1, Build901 2013/11/27)

>  <Rbt.Parameter_File>
/export/apps/rDock/src/rDock_2013.1_src/data/scripts/dock_solv.prm

>  <Rbt.Receptor>
prm/blind_docking_80.prm

>  <SCORE>
-0.447936

>  <SCORE.INTER>
2.00018

>  <SCORE.INTER.CONST>
1

>  <SCORE.INTER.POLAR>
0

>  <SCORE.INTER.ROT>
5

>  <SCORE.INTER.SOLV>
6.75754

>  <SCORE.INTER.VDW>
-7.85239

>  <SCORE.INTER.norm>
0.200018

>  <SCORE.INTRA>
-2.44812

>  <SCORE.INTRA.DIHEDRAL>
-3.8554

>  <SCORE.INTRA.DIHEDRAL.0>
6.00299

>  <SCORE.INTRA.POLAR>
0

>  <SCORE.INTRA.POLAR.0>
0

>  <SCORE.INTRA.REPUL>
0

>  <SCORE.INTRA.REPUL.0>
0

>  <SCORE.INTRA.SOLV>
-0.69065

>  <SCORE.INTRA.SOLV.lig_0>
-39.3257

>  <SCORE.INTRA.VDW>
-0.175093

>  <SCORE.INTRA.VDW.0>
-0.734044

>  <SCORE.INTRA.norm>
-0.244812

>  <SCORE.RESTR>
0

>  <SCORE.RESTR.CAVITY>
0

>  <SCORE.RESTR.norm>
0

>  <SCORE.SYSTEM>
0

>  <SCORE.SYSTEM.CONST>
0

>  <SCORE.SYSTEM.DIHEDRAL>
0

>  <SCORE.SYSTEM.SOLV>
0

>  <SCORE.SYSTEM.norm>
0

>  <SCORE.heavy>
10

>  <SCORE.norm>
-0.0447936

>  <RMSD>
17.454

$$$$
ligand
 OpenBabel11021811473D
libRbt.so/2013.1/901 2013/11/27
 10  9  0  0  0  0  0  0  0  0999 V2000
   14.7099   24.9954   14.6274 N   0  0  0  0  0  0  0  0  0  0  0  0
   15.7657   24.0803   14.2357 C   0  0  2  0  0  0  0  0  0  0  0  0
   15.8252   23.9497   12.7372 C   0  0  0  0  0  0  0  0  0  0  0  0
   14.7557   23.7937   12.0966 O   0  0  0  0  0  0  0  0  0  0  0  0
   15.5232   22.7214   14.8783 C   0  0  0  0  0  0  0  0  0  0  0  0
   16.5906   21.8470   14.5209 O   0  0  0  0  0  0  0  0  0  0  0  0
   16.3255   20.5746   15.1112 C   0  0  0  0  0  0  0  0  0  0  0  0
   17.4712   19.6312   14.7514 C   0  0  0  0  0  0  0  0  0  0  0  0
   17.2411   18.3217   15.3367 N   0  0  0  0  0  0  0  0  0  0  0  0
   16.8124   24.4725   12.1819 O   0  0  0  0  0  0  0  0  0  0  0  0
  2  1  1  6  0  0  0
  2  5  1  0  0  0  0
  2  3  1  0  0  0  0
  3  4  1  0  0  0  0
  3 10  1  0  0  0  0
  5  6  1  0  0  0  0
  6  7  1  0  0  0  0
  7  8  1  0  0  0  0
  8  9  1  0  0  0  0
M  END
>  <CHROM.1>
-178.09209518,-45.46781003,-178.78974165,-179.28228427,179.88887592,16.10435200
22.45519064,14.00955995,2.12235296,1.00290770,-0.86654396

>  <Name>
ligand

>  <RI>
0

>  <Rbt.Current_Directory>
/home/itssahil/PROJECTS/Mol_Feturizer/New_Systems/rnas/3DJ0

>  <Rbt.Executable>
rbdock ($Id: //depot/dev/client3/rdock/2013.1/src/exe/rbdock.cxx#4 $)

>  <Rbt.Library>
libRbt.so (2013.1, Build901 2013/11/27)

>  <Rbt.Parameter_File>
/export/apps/rDock/src/rDock_2013.1_src/data/scripts/dock_solv.prm

>  <Rbt.Receptor>
prm/blind_docking_40.prm

>  <SCORE>
-1.88563

>  <SCORE.INTER>
0.889861

>  <SCORE.INTER.CONST>
1

>  <SCORE.INTER.POLAR>
0

>  <SCORE.INTER.ROT>
5

>  <SCORE.INTER.SOLV>
7.77493

>  <SCORE.INTER.VDW>
-8.93174

>  <SCORE.INTER.norm>
0.0889861

>  <SCORE.INTRA>
-2.77549

>  <SCORE.INTRA.DIHEDRAL>
-3.96278

>  <SCORE.INTRA.DIHEDRAL.0>
6.00299

>  <SCORE.INTRA.POLAR>
0

>  <SCORE.INTRA.POLAR.0>
0

>  <SCORE.INTRA.REPUL>
0

>  <SCORE.INTRA.REPUL.0>
0

>  <SCORE.INTRA.SOLV>
-1.27259

>  <SCORE.INTRA.SOLV.lig_0>
-39.3257

>  <SCORE.INTRA.VDW>
-0.157802

>  <SCORE.INTRA.VDW.0>
-0.734044

>  <SCORE.INTRA.norm>
-0.277549

>  <SCORE.RESTR>
0

>  <SCORE.RESTR.CAVITY>
0

>  <SCORE.RESTR.norm>
0

>  <SCORE.SYSTEM>
0

>  <SCORE.SYSTEM.CONST>
0

>  <SCORE.SYSTEM.DIHEDRAL>
0

>  <SCORE.SYSTEM.SOLV>
0

>  <SCORE.SYSTEM.norm>
0

>  <SCORE.heavy>
10

>  <SCORE.norm>
-0.188563

>  <RMSD>
18.200

$$$$
ligand
 OpenBabel11021811473D
libRbt.so/2013.1/901 2013/11/27
 10  9  0  0  0  0  0  0  0  0999 V2000
   13.6094   25.4978   13.4967 N   0  0  0  0  0  0  0  0  0  0  0  0
   14.9302   24.9642   13.7727 C   0  0  2  0  0  0  0  0  0  0  0  0
   15.4700   24.2366   12.5705 C   0  0  0  0  0  0  0  0  0  0  0  0
   16.7046   24.2732   12.3403 O   0  0  0  0  0  0  0  0  0  0  0  0
   14.8588   24.0289   14.9721 C   0  0  0  0  0  0  0  0  0  0  0  0
   14.4771   24.7822   16.1203 O   0  0  0  0  0  0  0  0  0  0  0  0
   14.4154   23.8839   17.2280 C   0  0  0  0  0  0  0  0  0  0  0  0
   14.0216   24.6806   18.4699 C   0  0  0  0  0  0  0  0  0  0  0  0
   13.9143   23.7954   19.6166 N   0  0  0  0  0  0  0  0  0  0  0  0
   14.7895   23.2735   12.1637 O   0  0  0  0  0  0  0  0  0  0  0  0
  2  1  1  6  0  0  0
  2  5  1  0  0  0  0
  2  3  1  0  0  0  0
  3  4  1  0  0  0  0
  3 10  1  0  0  0  0
  5  6  1  0  0  0  0
  6  7  1  0  0  0  0
  7  8  1  0  0  0  0
  8  9  1  0  0  0  0
M  END
>  <CHROM.1>
-63.92936463,145.93398598,179.90831714,179.40637894,178.56496440,14.73745017
24.32839807,15.03831679,1.29492959,0.65146505,-1.40016641

>  <Name>
ligand

>  <RI>
0

>  <Rbt.Current_Directory>
/home/itssahil/PROJECTS/Mol_Feturizer/New_Systems/rnas/3DJ0

>  <Rbt.Executable>
rbdock ($Id: //depot/dev/client3/rdock/2013.1/src/exe/rbdock.cxx#4 $)

>  <Rbt.Library>
libRbt.so (2013.1, Build901 2013/11/27)

>  <Rbt.Parameter_File>
/export/apps/rDock/src/rDock_2013.1_src/data/scripts/dock_solv.prm

>  <Rbt.Receptor>
prm/blind_docking_40.prm

>  <SCORE>
0.991159

>  <SCORE.INTER>
3.02784

>  <SCORE.INTER.CONST>
1

>  <SCORE.INTER.POLAR>
0

>  <SCORE.INTER.ROT>
5

>  <SCORE.INTER.SOLV>
4.78105

>  <SCORE.INTER.VDW>
-6.50846

>  <SCORE.INTER.norm>
0.302784

>  <SCORE.INTRA>
-2.03668

>  <SCORE.INTRA.DIHEDRAL>
-3.23026

>  <SCORE.INTRA.DIHEDRAL.0>
6.00299

>  <SCORE.INTRA.POLAR>
0

>  <SCORE.INTRA.POLAR.0>
0

>  <SCORE.INTRA.REPUL>
0

>  <SCORE.INTRA.REPUL.0>
0

>  <SCORE.INTRA.SOLV>
-0.863398

>  <SCORE.INTRA.SOLV.lig_0>
-39.3257

>  <SCORE.INTRA.VDW>
0.0101461

>  <SCORE.INTRA.VDW.0>
-0.734044

>  <SCORE.INTRA.norm>
-0.203668

>  <SCORE.RESTR>
0

>  <SCORE.RESTR.CAVITY>
0

>  <SCORE.RESTR.norm>
0

>  <SCORE.SYSTEM>
0

>  <SCORE.SYSTEM.CONST>
0

>  <SCORE.SYSTEM.DIHEDRAL>
0

>  <SCORE.SYSTEM.SOLV>
0

>  <SCORE.SYSTEM.norm>
0

>  <SCORE.heavy>
10

>  <SCORE.norm>
0.0991159

>  <RMSD>
19.727

$$$$
ligand
 OpenBabel11021811473D
libRbt.so/2013.1/901 2013/11/27
 10  9  0  0  0  0  0  0  0  0999 V2000
   13.0783   28.2443   14.3485 N   0  0  0  0  0  0  0  0  0  0  0  0
   14.2770   28.1109   15.1552 C   0  0  2  0  0  0  0  0  0  0  0  0
   15.3100   27.2842   14.4372 C   0  0  0  0  0  0  0  0  0  0  0  0
   14.9726   26.1757   13.9517 O   0  0  0  0  0  0  0  0  0  0  0  0
   13.9208   27.4732   16.4911 C   0  0  0  0  0  0  0  0  0  0  0  0
   15.0926   27.4176   17.3008 O   0  0  0  0  0  0  0  0  0  0  0  0
   14.7366   26.8003   18.5377 C   0  0  0  0  0  0  0  0  0  0  0  0
   15.9878   26.7167   19.4093 C   0  0  0  0  0  0  0  0  0  0  0  0
   15.6680   26.0934   20.6818 N   0  0  0  0  0  0  0  0  0  0  0  0
   16.2675   27.9138   13.9443 O   0  0  0  0  0  0  0  0  0  0  0  0
  2  1  1  6  0  0  0
  2  5  1  0  0  0  0
  2  3  1  0  0  0  0
  3  4  1  0  0  0  0
  3 10  1  0  0  0  0
  5  6  1  0  0  0  0
  6  7  1  0  0  0  0
  7  8  1  0  0  0  0
  8  9  1  0  0  0  0
M  END
>  <CHROM.1>
-176.77184810,-49.99661166,-179.21756180,179.25166323,179.96966993,14.95427291
27.21417238,16.39238422,1.70804444,0.35203729,-1.43780741

>  <Name>
ligand

>  <RI>
0

>  <Rbt.Current_Directory>
/home/itssahil/PROJECTS/Mol_Feturizer/New_Systems/rnas/3DJ0

>  <Rbt.Executable>
rbdock ($Id: //depot/dev/client3/rdock/2013.1/src/exe/rbdock.cxx#4 $)

>  <Rbt.Library>
libRbt.so (2013.1, Build901 2013/11/27)

>  <Rbt.Parameter_File>
/export/apps/rDock/src/rDock_2013.1_src/data/scripts/dock_solv.prm

>  <Rbt.Receptor>
prm/blind_docking_40.prm

>  <SCORE>
1.14811

>  <SCORE.INTER>
3.9166

>  <SCORE.INTER.CONST>
1

>  <SCORE.INTER.POLAR>
0

>  <SCORE.INTER.ROT>
5

>  <SCORE.INTER.SOLV>
7.06673

>  <SCORE.INTER.VDW>
-6.67784

>  <SCORE.INTER.norm>
0.39166

>  <SCORE.INTRA>
-2.76849

>  <SCORE.INTRA.DIHEDRAL>
-3.94124

>  <SCORE.INTRA.DIHEDRAL.0>
6.00299

>  <SCORE.INTRA.POLAR>
0

>  <SCORE.INTRA.POLAR.0>
0

>  <SCORE.INTRA.REPUL>
0

>  <SCORE.INTRA.REPUL.0>
0

>  <SCORE.INTRA.SOLV>
-1.2748

>  <SCORE.INTRA.SOLV.lig_0>
-39.3257

>  <SCORE.INTRA.VDW>
-0.160471

>  <SCORE.INTRA.VDW.0>
-0.734044

>  <SCORE.INTRA.norm>
-0.276849

>  <SCORE.RESTR>
0

>  <SCORE.RESTR.CAVITY>
0

>  <SCORE.RESTR.norm>
0

>  <SCORE.SYSTEM>
0

>  <SCORE.SYSTEM.CONST>
0

>  <SCORE.SYSTEM.DIHEDRAL>
0

>  <SCORE.SYSTEM.SOLV>
0

>  <SCORE.SYSTEM.norm>
0

>  <SCORE.heavy>
10

>  <SCORE.norm>
0.114811

>  <RMSD>
20.613

$$$$
ligand
 OpenBabel11021811473D
libRbt.so/2013.1/901 2013/11/27
 10  9  0  0  0  0  0  0  0  0999 V2000
   17.6443   33.0636   24.2889 N   0  0  0  0  0  0  0  0  0  0  0  0
   18.6900   33.3303   23.3189 C   0  0  2  0  0  0  0  0  0  0  0  0
   18.5261   34.7047   22.7270 C   0  0  0  0  0  0  0  0  0  0  0  0
   17.4161   35.0272   22.2348 O   0  0  0  0  0  0  0  0  0  0  0  0
   18.6486   32.2721   22.2248 C   0  0  0  0  0  0  0  0  0  0  0  0
   18.9571   31.0047   22.7994 O   0  0  0  0  0  0  0  0  0  0  0  0
   19.1122   30.0703   21.7315 C   0  0  0  0  0  0  0  0  0  0  0  0
   19.3239   28.6835   22.3350 C   0  0  0  0  0  0  0  0  0  0  0  0
   20.4953   28.6873   23.1940 N   0  0  0  0  0  0  0  0  0  0  0  0
   19.2890   35.5857   23.1718 O   0  0  0  0  0  0  0  0  0  0  0  0
  2  1  1  1  0  0  0
  2  5  1  0  0  0  0
  2  3  1  0  0  0  0
  3  4  1  0  0  0  0
  3 10  1  0  0  0  0
  5  6  1  0  0  0  0
  6  7  1  0  0  0  0
  7  8  1  0  0  0  0
  8  9  1  0  0  0  0
M  END
>  <CHROM.1>
-64.49348449,-52.50914605,-171.33915747,-175.19018147,-58.63269657,18.80249407
32.28541548,22.79648142,-1.98542206,0.98342521,-2.72500744

>  <Name>
ligand

>  <RI>
0

>  <Rbt.Current_Directory>
/home/itssahil/PROJECTS/Mol_Feturizer/New_Systems/rnas/3DJ0

>  <Rbt.Executable>
rbdock ($Id: //depot/dev/client3/rdock/2013.1/src/exe/rbdock.cxx#4 $)

>  <Rbt.Library>
libRbt.so (2013.1, Build901 2013/11/27)

>  <Rbt.Parameter_File>
/export/apps/rDock/src/rDock_2013.1_src/data/scripts/dock_solv.prm

>  <Rbt.Receptor>
prm/blind_docking_60.prm

>  <SCORE>
-0.50472

>  <SCORE.INTER>
1.20773

>  <SCORE.INTER.CONST>
1

>  <SCORE.INTER.POLAR>
0

>  <SCORE.INTER.ROT>
5

>  <SCORE.INTER.SOLV>
9.49783

>  <SCORE.INTER.VDW>
-9.29413

>  <SCORE.INTER.norm>
0.120773

>  <SCORE.INTRA>
-1.71245

>  <SCORE.INTRA.DIHEDRAL>
-3.4229

>  <SCORE.INTRA.DIHEDRAL.0>
6.00299

>  <SCORE.INTRA.POLAR>
0

>  <SCORE.INTRA.POLAR.0>
0

>  <SCORE.INTRA.REPUL>
0

>  <SCORE.INTRA.REPUL.0>
0

>  <SCORE.INTRA.SOLV>
0.375907

>  <SCORE.INTRA.SOLV.lig_0>
-39.3257

>  <SCORE.INTRA.VDW>
-0.188952

>  <SCORE.INTRA.VDW.0>
-0.734044

>  <SCORE.INTRA.norm>
-0.171245

>  <SCORE.RESTR>
0

>  <SCORE.RESTR.CAVITY>
0

>  <SCORE.RESTR.norm>
0

>  <SCORE.SYSTEM>
0

>  <SCORE.SYSTEM.CONST>
0

>  <SCORE.SYSTEM.DIHEDRAL>
0

>  <SCORE.SYSTEM.SOLV>
0

>  <SCORE.SYSTEM.norm>
0

>  <SCORE.heavy>
10

>  <SCORE.norm>
-0.050472

>  <RMSD>
20.638

$$$$
ligand
 OpenBabel11021811473D
libRbt.so/2013.1/901 2013/11/27
 10  9  0  0  0  0  0  0  0  0999 V2000
   15.3319   30.8108   14.6835 N   0  0  0  0  0  0  0  0  0  0  0  0
   16.5036   29.9548   14.6858 C   0  0  2  0  0  0  0  0  0  0  0  0
   17.6480   30.6206   13.9695 C   0  0  0  0  0  0  0  0  0  0  0  0
   17.4332   31.1764   12.8634 O   0  0  0  0  0  0  0  0  0  0  0  0
   16.1627   28.6268   14.0236 C   0  0  0  0  0  0  0  0  0  0  0  0
   15.2725   27.9056   14.8715 O   0  0  0  0  0  0  0  0  0  0  0  0
   15.0412   26.6302   14.2735 C   0  0  0  0  0  0  0  0  0  0  0  0
   14.1084   25.8355   15.1848 C   0  0  0  0  0  0  0  0  0  0  0  0
   13.8384   24.5309   14.6060 N   0  0  0  0  0  0  0  0  0  0  0  0
   18.5907   31.0090   14.6883 O   0  0  0  0  0  0  0  0  0  0  0  0
  2  1  1  6  0  0  0
  2  5  1  0  0  0  0
  2  3  1  0  0  0  0
  3  4  1  0  0  0  0
  3 10  1  0  0  0  0
  5  6  1  0  0  0  0
  6  7  1  0  0  0  0
  7  8  1  0  0  0  0
  8  9  1  0  0  0  0
M  END
>  <CHROM.1>
-69.51818253,-45.77119218,-176.11041378,178.96766885,179.56009354,16.02372062
28.74249804,14.37570485,0.98551742,0.32777679,0.07176021

>  <Name>
ligand

>  <RI>
0

>  <Rbt.Current_Directory>
/home/itssahil/PROJECTS/Mol_Feturizer/New_Systems/rnas/3DJ0

>  <Rbt.Executable>
rbdock ($Id: //depot/dev/client3/rdock/2013.1/src/exe/rbdock.cxx#4 $)

>  <Rbt.Library>
libRbt.so (2013.1, Build901 2013/11/27)

>  <Rbt.Parameter_File>
/export/apps/rDock/src/rDock_2013.1_src/data/scripts/dock_solv.prm

>  <Rbt.Receptor>
prm/blind_docking_40.prm

>  <SCORE>
-0.144037

>  <SCORE.INTER>
2.25293

>  <SCORE.INTER.CONST>
1

>  <SCORE.INTER.POLAR>
0

>  <SCORE.INTER.ROT>
5

>  <SCORE.INTER.SOLV>
6.20166

>  <SCORE.INTER.VDW>
-7.4986

>  <SCORE.INTER.norm>
0.225293

>  <SCORE.INTRA>
-2.39696

>  <SCORE.INTRA.DIHEDRAL>
-3.59339

>  <SCORE.INTRA.DIHEDRAL.0>
6.00299

>  <SCORE.INTRA.POLAR>
0

>  <SCORE.INTRA.POLAR.0>
0

>  <SCORE.INTRA.REPUL>
0

>  <SCORE.INTRA.REPUL.0>
0

>  <SCORE.INTRA.SOLV>
-0.786652

>  <SCORE.INTRA.SOLV.lig_0>
-39.3257

>  <SCORE.INTRA.VDW>
-0.20694

>  <SCORE.INTRA.VDW.0>
-0.734044

>  <SCORE.INTRA.norm>
-0.239696

>  <SCORE.RESTR>
0

>  <SCORE.RESTR.CAVITY>
0

>  <SCORE.RESTR.norm>
0

>  <SCORE.SYSTEM>
0

>  <SCORE.SYSTEM.CONST>
0

>  <SCORE.SYSTEM.DIHEDRAL>
0

>  <SCORE.SYSTEM.SOLV>
0

>  <SCORE.SYSTEM.norm>
0

>  <SCORE.heavy>
10

>  <SCORE.norm>
-0.0144037

>  <RMSD>
20.980

$$$$
ligand
 OpenBabel11021811473D
libRbt.so/2013.1/901 2013/11/27
 10  9  0  0  0  0  0  0  0  0999 V2000
   17.4933   33.1921   15.3990 N   0  0  0  0  0  0  0  0  0  0  0  0
   18.4578   32.5192   14.5491 C   0  0  2  0  0  0  0  0  0  0  0  0
   18.4466   33.1091   13.1642 C   0  0  0  0  0  0  0  0  0  0  0  0
   17.3593   33.5174   12.6851 O   0  0  0  0  0  0  0  0  0  0  0  0
   18.1361   31.0319   14.4958 C   0  0  0  0  0  0  0  0  0  0  0  0
   16.8039   30.8667   14.0169 O   0  0  0  0  0  0  0  0  0  0  0  0
   16.5009   29.4721   14.0490 C   0  0  0  0  0  0  0  0  0  0  0  0
   15.0574   29.2844   13.5871 C   0  0  0  0  0  0  0  0  0  0  0  0
   14.6681   27.8915   13.7220 N   0  0  0  0  0  0  0  0  0  0  0  0
   19.5235   33.6012   12.7712 O   0  0  0  0  0  0  0  0  0  0  0  0
  2  1  1  1  0  0  0
  2  5  1  0  0  0  0
  2  3  1  0  0  0  0
  3  4  1  0  0  0  0
  3 10  1  0  0  0  0
  5  6  1  0  0  0  0
  6  7  1  0  0  0  0
  7  8  1  0  0  0  0
  8  9  1  0  0  0  0
M  END
>  <CHROM.1>
57.60914789,-34.67810998,-176.73021530,177.93316840,-174.76993102,17.25485911
31.47952511,13.81537180,-0.35013829,0.90603516,1.93028246

>  <Name>
ligand

>  <RI>
0

>  <Rbt.Current_Directory>
/home/itssahil/PROJECTS/Mol_Feturizer/New_Systems/rnas/3DJ0

>  <Rbt.Executable>
rbdock ($Id: //depot/dev/client3/rdock/2013.1/src/exe/rbdock.cxx#4 $)

>  <Rbt.Library>
libRbt.so (2013.1, Build901 2013/11/27)

>  <Rbt.Parameter_File>
/export/apps/rDock/src/rDock_2013.1_src/data/scripts/dock_solv.prm

>  <Rbt.Receptor>
prm/blind_docking_80.prm

>  <SCORE>
-0.2587

>  <SCORE.INTER>
1.98571

>  <SCORE.INTER.CONST>
1

>  <SCORE.INTER.POLAR>
0

>  <SCORE.INTER.ROT>
5

>  <SCORE.INTER.SOLV>
7.18377

>  <SCORE.INTER.VDW>
-8.00412

>  <SCORE.INTER.norm>
0.198571

>  <SCORE.INTRA>
-2.24441

>  <SCORE.INTRA.DIHEDRAL>
-3.70583

>  <SCORE.INTRA.DIHEDRAL.0>
6.00299

>  <SCORE.INTRA.POLAR>
0

>  <SCORE.INTRA.POLAR.0>
0

>  <SCORE.INTRA.REPUL>
0

>  <SCORE.INTRA.REPUL.0>
0

>  <SCORE.INTRA.SOLV>
-0.235598

>  <SCORE.INTRA.SOLV.lig_0>
-39.3257

>  <SCORE.INTRA.VDW>
-0.273696

>  <SCORE.INTRA.VDW.0>
-0.734044

>  <SCORE.INTRA.norm>
-0.224441

>  <SCORE.RESTR>
0

>  <SCORE.RESTR.CAVITY>
0

>  <SCORE.RESTR.norm>
0

>  <SCORE.SYSTEM>
0

>  <SCORE.SYSTEM.CONST>
0

>  <SCORE.SYSTEM.DIHEDRAL>
0

>  <SCORE.SYSTEM.SOLV>
0

>  <SCORE.SYSTEM.norm>
0

>  <SCORE.heavy>
10

>  <SCORE.norm>
-0.02587

>  <RMSD>
22.101

$$$$
ligand
 OpenBabel11021811473D
libRbt.so/2013.1/901 2013/11/27
 10  9  0  0  0  0  0  0  0  0999 V2000
   10.4974   24.8326   14.5821 N   0  0  0  0  0  0  0  0  0  0  0  0
    9.9586   24.1996   15.7714 C   0  0  2  0  0  0  0  0  0  0  0  0
    9.7449   25.2149   16.8620 C   0  0  0  0  0  0  0  0  0  0  0  0
   10.3701   26.3035   16.8114 O   0  0  0  0  0  0  0  0  0  0  0  0
   10.9109   23.1081   16.2406 C   0  0  0  0  0  0  0  0  0  0  0  0
   10.4013   22.5397   17.4443 O   0  0  0  0  0  0  0  0  0  0  0  0
   11.3929   21.6507   17.9582 C   0  0  0  0  0  0  0  0  0  0  0  0
   10.9423   21.1761   19.3380 C   0  0  0  0  0  0  0  0  0  0  0  0
   12.0030   20.4143   19.9740 N   0  0  0  0  0  0  0  0  0  0  0  0
    8.6521   25.1523   17.4604 O   0  0  0  0  0  0  0  0  0  0  0  0
  2  1  1  6  0  0  0
  2  5  1  0  0  0  0
  2  3  1  0  0  0  0
  3  4  1  0  0  0  0
  3 10  1  0  0  0  0
  5  6  1  0  0  0  0
  6  7  1  0  0  0  0
  7  8  1  0  0  0  0
  8  9  1  0  0  0  0
M  END
>  <CHROM.1>
177.22766496,-20.56334538,-172.37700272,172.61153302,-172.31275565,10.46813282
23.49147899,17.25697146,-2.15884504,-1.03847144,2.01287803

>  <Name>
ligand

>  <RI>
0

>  <Rbt.Current_Directory>
/home/itssahil/PROJECTS/Mol_Feturizer/New_Systems/rnas/3DJ0

>  <Rbt.Executable>
rbdock ($Id: //depot/dev/client3/rdock/2013.1/src/exe/rbdock.cxx#4 $)

>  <Rbt.Library>
libRbt.so (2013.1, Build901 2013/11/27)

>  <Rbt.Parameter_File>
/export/apps/rDock/src/rDock_2013.1_src/data/scripts/dock_solv.prm

>  <Rbt.Receptor>
prm/blind_docking_40.prm

>  <SCORE>
-0.948254

>  <SCORE.INTER>
1.17182

>  <SCORE.INTER.CONST>
1

>  <SCORE.INTER.POLAR>
0

>  <SCORE.INTER.ROT>
5

>  <SCORE.INTER.SOLV>
5.88582

>  <SCORE.INTER.VDW>
-8.11406

>  <SCORE.INTER.norm>
0.117182

>  <SCORE.INTRA>
-2.12007

>  <SCORE.INTRA.DIHEDRAL>
-2.8575

>  <SCORE.INTRA.DIHEDRAL.0>
6.00299

>  <SCORE.INTRA.POLAR>
0

>  <SCORE.INTRA.POLAR.0>
0

>  <SCORE.INTRA.REPUL>
0

>  <SCORE.INTRA.REPUL.0>
0

>  <SCORE.INTRA.SOLV>
-1.23979

>  <SCORE.INTRA.SOLV.lig_0>
-39.3257

>  <SCORE.INTRA.VDW>
-0.0714285

>  <SCORE.INTRA.VDW.0>
-0.734044

>  <SCORE.INTRA.norm>
-0.212007

>  <SCORE.RESTR>
0

>  <SCORE.RESTR.CAVITY>
0

>  <SCORE.RESTR.norm>
0

>  <SCORE.SYSTEM>
0

>  <SCORE.SYSTEM.CONST>
0

>  <SCORE.SYSTEM.DIHEDRAL>
0

>  <SCORE.SYSTEM.SOLV>
0

>  <SCORE.SYSTEM.norm>
0

>  <SCORE.heavy>
10

>  <SCORE.norm>
-0.0948254

>  <RMSD>
22.506

$$$$
ligand
 OpenBabel11021811473D
libRbt.so/2013.1/901 2013/11/27
 10  9  0  0  0  0  0  0  0  0999 V2000
   16.9260   33.3819   21.4893 N   0  0  0  0  0  0  0  0  0  0  0  0
   17.3958   34.2311   22.5680 C   0  0  2  0  0  0  0  0  0  0  0  0
   18.6323   34.9819   22.1517 C   0  0  0  0  0  0  0  0  0  0  0  0
   18.7153   35.4132   20.9746 O   0  0  0  0  0  0  0  0  0  0  0  0
   17.6802   33.3788   23.7972 C   0  0  0  0  0  0  0  0  0  0  0  0
   16.4432   32.9091   24.3271 O   0  0  0  0  0  0  0  0  0  0  0  0
   16.7268   32.2161   25.5425 C   0  0  0  0  0  0  0  0  0  0  0  0
   15.4038   31.7623   26.1556 C   0  0  0  0  0  0  0  0  0  0  0  0
   15.6461   31.0788   27.4142 N   0  0  0  0  0  0  0  0  0  0  0  0
   19.2620   35.5481   23.0676 O   0  0  0  0  0  0  0  0  0  0  0  0
  2  1  1  6  0  0  0
  2  5  1  0  0  0  0
  2  3  1  0  0  0  0
  3  4  1  0  0  0  0
  3 10  1  0  0  0  0
  5  6  1  0  0  0  0
  6  7  1  0  0  0  0
  7  8  1  0  0  0  0
  8  9  1  0  0  0  0
M  END
>  <CHROM.1>
-70.03125975,38.02333966,-174.86551665,177.42783232,-178.63544986,17.30840443
33.52141094,23.72863459,0.96418304,-0.72017092,-1.35898426

>  <Name>
ligand

>  <RI>
0

>  <Rbt.Current_Directory>
/home/itssahil/PROJECTS/Mol_Feturizer/New_Systems/rnas/3DJ0

>  <Rbt.Executable>
rbdock ($Id: //depot/dev/client3/rdock/2013.1/src/exe/rbdock.cxx#4 $)

>  <Rbt.Library>
libRbt.so (2013.1, Build901 2013/11/27)

>  <Rbt.Parameter_File>
/export/apps/rDock/src/rDock_2013.1_src/data/scripts/dock_solv.prm

>  <Rbt.Receptor>
prm/blind_docking_100.prm

>  <SCORE>
-1.45451

>  <SCORE.INTER>
0.0748441

>  <SCORE.INTER.CONST>
1

>  <SCORE.INTER.POLAR>
0

>  <SCORE.INTER.ROT>
5

>  <SCORE.INTER.SOLV>
8.10793

>  <SCORE.INTER.VDW>
-9.58608

>  <SCORE.INTER.norm>
0.00748441

>  <SCORE.INTRA>
-1.52936

>  <SCORE.INTRA.DIHEDRAL>
-2.98707

>  <SCORE.INTRA.DIHEDRAL.0>
6.00299

>  <SCORE.INTRA.POLAR>
0

>  <SCORE.INTRA.POLAR.0>
0

>  <SCORE.INTRA.REPUL>
0

>  <SCORE.INTRA.REPUL.0>
0

>  <SCORE.INTRA.SOLV>
-0.916502

>  <SCORE.INTRA.SOLV.lig_0>
-39.3257

>  <SCORE.INTRA.VDW>
0.422428

>  <SCORE.INTRA.VDW.0>
-0.734044

>  <SCORE.INTRA.norm>
-0.152936

>  <SCORE.RESTR>
0

>  <SCORE.RESTR.CAVITY>
0

>  <SCORE.RESTR.norm>
0

>  <SCORE.SYSTEM>
0

>  <SCORE.SYSTEM.CONST>
0

>  <SCORE.SYSTEM.DIHEDRAL>
0

>  <SCORE.SYSTEM.SOLV>
0

>  <SCORE.SYSTEM.norm>
0

>  <SCORE.heavy>
10

>  <SCORE.norm>
-0.145451

>  <RMSD>
22.515

$$$$
ligand
 OpenBabel11021811473D
libRbt.so/2013.1/901 2013/11/27
 10  9  0  0  0  0  0  0  0  0999 V2000
   16.3569   36.2089   20.4920 N   0  0  0  0  0  0  0  0  0  0  0  0
   17.1497   34.9938   20.5123 C   0  0  2  0  0  0  0  0  0  0  0  0
   18.2825   35.1163   21.4962 C   0  0  0  0  0  0  0  0  0  0  0  0
   18.5846   36.2527   21.9385 O   0  0  0  0  0  0  0  0  0  0  0  0
   17.6871   34.7156   19.1151 C   0  0  0  0  0  0  0  0  0  0  0  0
   16.5886   34.4695   18.2408 O   0  0  0  0  0  0  0  0  0  0  0  0
   17.1203   34.1510   16.9549 C   0  0  0  0  0  0  0  0  0  0  0  0
   15.9534   33.8957   16.0035 C   0  0  0  0  0  0  0  0  0  0  0  0
   16.4517   33.4822   14.7032 N   0  0  0  0  0  0  0  0  0  0  0  0
   18.5295   34.0988   22.1743 O   0  0  0  0  0  0  0  0  0  0  0  0
  2  1  1  6  0  0  0
  2  5  1  0  0  0  0
  2  3  1  0  0  0  0
  3  4  1  0  0  0  0
  3 10  1  0  0  0  0
  5  6  1  0  0  0  0
  6  7  1  0  0  0  0
  7  8  1  0  0  0  0
  8  9  1  0  0  0  0
M  END
>  <CHROM.1>
-63.91015044,-14.71404685,-177.35549413,-179.54350119,-176.29870474,17.29033526
34.74228363,19.20434413,1.15531950,-0.82179426,1.01003032

>  <Name>
ligand

>  <RI>
0

>  <Rbt.Current_Directory>
/home/itssahil/PROJECTS/Mol_Feturizer/New_Systems/rnas/3DJ0

>  <Rbt.Executable>
rbdock ($Id: //depot/dev/client3/rdock/2013.1/src/exe/rbdock.cxx#4 $)

>  <Rbt.Library>
libRbt.so (2013.1, Build901 2013/11/27)

>  <Rbt.Parameter_File>
/export/apps/rDock/src/rDock_2013.1_src/data/scripts/dock_solv.prm

>  <Rbt.Receptor>
prm/blind_docking_60.prm

>  <SCORE>
-0.924172

>  <SCORE.INTER>
1.22919

>  <SCORE.INTER.CONST>
1

>  <SCORE.INTER.POLAR>
0

>  <SCORE.INTER.ROT>
5

>  <SCORE.INTER.SOLV>
7.5152

>  <SCORE.INTER.VDW>
-8.61894

>  <SCORE.INTER.norm>
0.122919

>  <SCORE.INTRA>
-2.15336

>  <SCORE.INTRA.DIHEDRAL>
-3.39241

>  <SCORE.INTRA.DIHEDRAL.0>
6.00299

>  <SCORE.INTRA.POLAR>
0

>  <SCORE.INTRA.POLAR.0>
0

>  <SCORE.INTRA.REPUL>
0

>  <SCORE.INTRA.REPUL.0>
0

>  <SCORE.INTRA.SOLV>
-0.757651

>  <SCORE.INTRA.SOLV.lig_0>
-39.3257

>  <SCORE.INTRA.VDW>
-0.0783265

>  <SCORE.INTRA.VDW.0>
-0.734044

>  <SCORE.INTRA.norm>
-0.215336

>  <SCORE.RESTR>
0

>  <SCORE.RESTR.CAVITY>
0

>  <SCORE.RESTR.norm>
0

>  <SCORE.SYSTEM>
0

>  <SCORE.SYSTEM.CONST>
0

>  <SCORE.SYSTEM.DIHEDRAL>
0

>  <SCORE.SYSTEM.SOLV>
0

>  <SCORE.SYSTEM.norm>
0

>  <SCORE.heavy>
10

>  <SCORE.norm>
-0.0924172

>  <RMSD>
23.463

$$$$
ligand
 OpenBabel11021811473D
libRbt.so/2013.1/901 2013/11/27
 10  9  0  0  0  0  0  0  0  0999 V2000
   16.0333   33.0008   14.5792 N   0  0  0  0  0  0  0  0  0  0  0  0
   16.7510   34.2603   14.5160 C   0  0  2  0  0  0  0  0  0  0  0  0
   17.8057   34.2162   13.4428 C   0  0  0  0  0  0  0  0  0  0  0  0
   18.5622   33.2156   13.3733 O   0  0  0  0  0  0  0  0  0  0  0  0
   17.3827   34.5524   15.8702 C   0  0  0  0  0  0  0  0  0  0  0  0
   16.3498   34.8651   16.8013 O   0  0  0  0  0  0  0  0  0  0  0  0
   16.9696   35.1748   18.0494 C   0  0  0  0  0  0  0  0  0  0  0  0
   15.8750   35.5310   19.0529 C   0  0  0  0  0  0  0  0  0  0  0  0
   16.4604   35.7981   20.3552 N   0  0  0  0  0  0  0  0  0  0  0  0
   17.5741   34.8933   12.4210 O   0  0  0  0  0  0  0  0  0  0  0  0
  2  1  1  1  0  0  0
  2  5  1  0  0  0  0
  2  3  1  0  0  0  0
  3  4  1  0  0  0  0
  3 10  1  0  0  0  0
  5  6  1  0  0  0  0
  6  7  1  0  0  0  0
  7  8  1  0  0  0  0
  8  9  1  0  0  0  0
M  END
>  <CHROM.1>
-70.09320370,-46.66915235,-178.23412280,179.23008529,177.57040713,16.99367118
34.54589101,15.80413323,1.30555183,-0.64944386,-1.98448412

>  <Name>
ligand

>  <RI>
0

>  <Rbt.Current_Directory>
/home/itssahil/PROJECTS/Mol_Feturizer/New_Systems/rnas/3DJ0

>  <Rbt.Executable>
rbdock ($Id: //depot/dev/client3/rdock/2013.1/src/exe/rbdock.cxx#4 $)

>  <Rbt.Library>
libRbt.so (2013.1, Build901 2013/11/27)

>  <Rbt.Parameter_File>
/export/apps/rDock/src/rDock_2013.1_src/data/scripts/dock_solv.prm

>  <Rbt.Receptor>
prm/blind_docking_80.prm

>  <SCORE>
-1.57473

>  <SCORE.INTER>
0.821567

>  <SCORE.INTER.CONST>
1

>  <SCORE.INTER.POLAR>
0

>  <SCORE.INTER.ROT>
5

>  <SCORE.INTER.SOLV>
7.39103

>  <SCORE.INTER.VDW>
-8.8493

>  <SCORE.INTER.norm>
0.0821567

>  <SCORE.INTRA>
-2.3963

>  <SCORE.INTRA.DIHEDRAL>
-3.59603

>  <SCORE.INTRA.DIHEDRAL.0>
6.00299

>  <SCORE.INTRA.POLAR>
0

>  <SCORE.INTRA.POLAR.0>
0

>  <SCORE.INTRA.REPUL>
0

>  <SCORE.INTRA.REPUL.0>
0

>  <SCORE.INTRA.SOLV>
-0.782727

>  <SCORE.INTRA.SOLV.lig_0>
-39.3257

>  <SCORE.INTRA.VDW>
-0.206921

>  <SCORE.INTRA.VDW.0>
-0.734044

>  <SCORE.INTRA.norm>
-0.23963

>  <SCORE.RESTR>
0

>  <SCORE.RESTR.CAVITY>
0

>  <SCORE.RESTR.norm>
0

>  <SCORE.SYSTEM>
0

>  <SCORE.SYSTEM.CONST>
0

>  <SCORE.SYSTEM.DIHEDRAL>
0

>  <SCORE.SYSTEM.SOLV>
0

>  <SCORE.SYSTEM.norm>
0

>  <SCORE.heavy>
10

>  <SCORE.norm>
-0.157473

>  <RMSD>
24.222

$$$$
ligand
 OpenBabel11021811473D
libRbt.so/2013.1/901 2013/11/27
 10  9  0  0  0  0  0  0  0  0999 V2000
   15.6292   35.6348   20.3754 N   0  0  0  0  0  0  0  0  0  0  0  0
   16.2462   36.6641   21.1911 C   0  0  2  0  0  0  0  0  0  0  0  0
   16.2927   37.9725   20.4482 C   0  0  0  0  0  0  0  0  0  0  0  0
   16.4056   37.9585   19.1970 O   0  0  0  0  0  0  0  0  0  0  0  0
   17.6505   36.2258   21.5839 C   0  0  0  0  0  0  0  0  0  0  0  0
   17.5557   35.0784   22.4242 O   0  0  0  0  0  0  0  0  0  0  0  0
   18.8807   34.7091   22.8057 C   0  0  0  0  0  0  0  0  0  0  0  0
   18.7955   33.4737   23.6994 C   0  0  0  0  0  0  0  0  0  0  0  0
   18.1668   32.3800   22.9792 N   0  0  0  0  0  0  0  0  0  0  0  0
   15.7458   38.9411   21.0128 O   0  0  0  0  0  0  0  0  0  0  0  0
  2  1  1  6  0  0  0
  2  5  1  0  0  0  0
  2  3  1  0  0  0  0
  3  4  1  0  0  0  0
  3 10  1  0  0  0  0
  5  6  1  0  0  0  0
  6  7  1  0  0  0  0
  7  8  1  0  0  0  0
  8  9  1  0  0  0  0
M  END
>  <CHROM.1>
-65.13999472,-31.20636744,-178.52840494,-179.60144987,59.90579626,17.12574424
35.94294833,21.55369558,2.23867040,-0.84759331,-0.03176126

>  <Name>
ligand

>  <RI>
0

>  <Rbt.Current_Directory>
/home/itssahil/PROJECTS/Mol_Feturizer/New_Systems/rnas/3DJ0

>  <Rbt.Executable>
rbdock ($Id: //depot/dev/client3/rdock/2013.1/src/exe/rbdock.cxx#4 $)

>  <Rbt.Library>
libRbt.so (2013.1, Build901 2013/11/27)

>  <Rbt.Parameter_File>
/export/apps/rDock/src/rDock_2013.1_src/data/scripts/dock_solv.prm

>  <Rbt.Receptor>
prm/blind_docking_100.prm

>  <SCORE>
-2.77186

>  <SCORE.INTER>
-0.857275

>  <SCORE.INTER.CONST>
1

>  <SCORE.INTER.POLAR>
0

>  <SCORE.INTER.ROT>
5

>  <SCORE.INTER.SOLV>
8.33276

>  <SCORE.INTER.VDW>
-10.2824

>  <SCORE.INTER.norm>
-0.0857275

>  <SCORE.INTRA>
-1.91458

>  <SCORE.INTRA.DIHEDRAL>
-3.74839

>  <SCORE.INTRA.DIHEDRAL.0>
6.00299

>  <SCORE.INTRA.POLAR>
0

>  <SCORE.INTRA.POLAR.0>
0

>  <SCORE.INTRA.REPUL>
0

>  <SCORE.INTRA.REPUL.0>
0

>  <SCORE.INTRA.SOLV>
0.379815

>  <SCORE.INTRA.SOLV.lig_0>
-39.3257

>  <SCORE.INTRA.VDW>
-0.230294

>  <SCORE.INTRA.VDW.0>
-0.734044

>  <SCORE.INTRA.norm>
-0.191458

>  <SCORE.RESTR>
0

>  <SCORE.RESTR.CAVITY>
0

>  <SCORE.RESTR.norm>
0

>  <SCORE.SYSTEM>
0

>  <SCORE.SYSTEM.CONST>
0

>  <SCORE.SYSTEM.DIHEDRAL>
0

>  <SCORE.SYSTEM.SOLV>
0

>  <SCORE.SYSTEM.norm>
0

>  <SCORE.heavy>
10

>  <SCORE.norm>
-0.277186

>  <RMSD>
24.555

$$$$
ligand
 OpenBabel11021811473D
libRbt.so/2013.1/901 2013/11/27
 10  9  0  0  0  0  0  0  0  0999 V2000
   16.2277   38.7570   21.4975 N   0  0  0  0  0  0  0  0  0  0  0  0
   16.1836   37.7918   20.4150 C   0  0  2  0  0  0  0  0  0  0  0  0
   14.8908   37.9087   19.6528 C   0  0  0  0  0  0  0  0  0  0  0  0
   13.9218   38.5051   20.1853 O   0  0  0  0  0  0  0  0  0  0  0  0
   16.3415   36.3872   20.9813 C   0  0  0  0  0  0  0  0  0  0  0  0
   17.5929   36.3026   21.6583 O   0  0  0  0  0  0  0  0  0  0  0  0
   17.7255   34.9730   22.1608 C   0  0  0  0  0  0  0  0  0  0  0  0
   19.0095   34.8976   22.9841 C   0  0  0  0  0  0  0  0  0  0  0  0
   19.1399   33.5814   23.5846 N   0  0  0  0  0  0  0  0  0  0  0  0
   14.9829   37.8576   18.4098 O   0  0  0  0  0  0  0  0  0  0  0  0
  2  1  1  1  0  0  0
  2  5  1  0  0  0  0
  2  3  1  0  0  0  0
  3  4  1  0  0  0  0
  3 10  1  0  0  0  0
  5  6  1  0  0  0  0
  6  7  1  0  0  0  0
  7  8  1  0  0  0  0
  8  9  1  0  0  0  0
M  END
>  <CHROM.1>
-59.80049261,-17.84322866,-179.11445248,-175.53648490,176.43086478,16.57092852
36.71547483,21.12433067,-2.99632788,0.89889394,-2.48214779

>  <Name>
ligand

>  <RI>
0

>  <Rbt.Current_Directory>
/home/itssahil/PROJECTS/Mol_Feturizer/New_Systems/rnas/3DJ0

>  <Rbt.Executable>
rbdock ($Id: //depot/dev/client3/rdock/2013.1/src/exe/rbdock.cxx#4 $)

>  <Rbt.Library>
libRbt.so (2013.1, Build901 2013/11/27)

>  <Rbt.Parameter_File>
/export/apps/rDock/src/rDock_2013.1_src/data/scripts/dock_solv.prm

>  <Rbt.Receptor>
prm/blind_docking_80.prm

>  <SCORE>
-0.895915

>  <SCORE.INTER>
1.27652

>  <SCORE.INTER.CONST>
1

>  <SCORE.INTER.POLAR>
0

>  <SCORE.INTER.ROT>
5

>  <SCORE.INTER.SOLV>
15.2137

>  <SCORE.INTER.VDW>
-11.1535

>  <SCORE.INTER.norm>
0.127652

>  <SCORE.INTRA>
-2.17362

>  <SCORE.INTRA.DIHEDRAL>
-3.44659

>  <SCORE.INTRA.DIHEDRAL.0>
6.00299

>  <SCORE.INTRA.POLAR>
0

>  <SCORE.INTRA.POLAR.0>
0

>  <SCORE.INTRA.REPUL>
0

>  <SCORE.INTRA.REPUL.0>
0

>  <SCORE.INTRA.SOLV>
-0.69924

>  <SCORE.INTRA.SOLV.lig_0>
-39.3257

>  <SCORE.INTRA.VDW>
-0.1007

>  <SCORE.INTRA.VDW.0>
-0.734044

>  <SCORE.INTRA.norm>
-0.217362

>  <SCORE.RESTR>
0.00118063

>  <SCORE.RESTR.CAVITY>
0.00118063

>  <SCORE.RESTR.norm>
0.000118063

>  <SCORE.SYSTEM>
0

>  <SCORE.SYSTEM.CONST>
0

>  <SCORE.SYSTEM.DIHEDRAL>
0

>  <SCORE.SYSTEM.SOLV>
0

>  <SCORE.SYSTEM.norm>
0

>  <SCORE.heavy>
10

>  <SCORE.norm>
-0.0895915

>  <RMSD>
25.596

$$$$
ligand
 OpenBabel11021811473D
libRbt.so/2013.1/901 2013/11/27
 10  9  0  0  0  0  0  0  0  0999 V2000
   11.4971   40.7858   32.8562 N   0  0  0  0  0  0  0  0  0  0  0  0
   12.2050   40.3749   31.6581 C   0  0  2  0  0  0  0  0  0  0  0  0
   11.5281   40.9199   30.4290 C   0  0  0  0  0  0  0  0  0  0  0  0
   11.3646   42.1611   30.3238 O   0  0  0  0  0  0  0  0  0  0  0  0
   12.2657   38.8545   31.6013 C   0  0  0  0  0  0  0  0  0  0  0  0
   13.2091   38.4691   30.6048 O   0  0  0  0  0  0  0  0  0  0  0  0
   13.2655   37.0428   30.5890 C   0  0  0  0  0  0  0  0  0  0  0  0
   14.3433   36.6167   29.5945 C   0  0  0  0  0  0  0  0  0  0  0  0
   14.5003   35.1728   29.6180 N   0  0  0  0  0  0  0  0  0  0  0  0
   11.6057   40.2135   29.4038 O   0  0  0  0  0  0  0  0  0  0  0  0
  2  1  1  1  0  0  0
  2  5  1  0  0  0  0
  2  3  1  0  0  0  0
  3  4  1  0  0  0  0
  3 10  1  0  0  0  0
  5  6  1  0  0  0  0
  6  7  1  0  0  0  0
  7  8  1  0  0  0  0
  8  9  1  0  0  0  0
M  END
>  <CHROM.1>
-166.91518729,57.08408143,178.93164382,-176.10512571,175.92441864,12.56696836
39.08933596,30.63956595,-3.06249435,1.10043699,-1.43944677

>  <Name>
ligand

>  <RI>
0

>  <Rbt.Current_Directory>
/home/itssahil/PROJECTS/Mol_Feturizer/New_Systems/rnas/3DJ0

>  <Rbt.Executable>
rbdock ($Id: //depot/dev/client3/rdock/2013.1/src/exe/rbdock.cxx#4 $)

>  <Rbt.Library>
libRbt.so (2013.1, Build901 2013/11/27)

>  <Rbt.Parameter_File>
/export/apps/rDock/src/rDock_2013.1_src/data/scripts/dock_solv.prm

>  <Rbt.Receptor>
prm/blind_docking_100.prm

>  <SCORE>
-1.26854

>  <SCORE.INTER>
-0.117074

>  <SCORE.INTER.CONST>
1

>  <SCORE.INTER.POLAR>
0

>  <SCORE.INTER.ROT>
5

>  <SCORE.INTER.SOLV>
9.12039

>  <SCORE.INTER.VDW>
-10.0515

>  <SCORE.INTER.norm>
-0.0117074

>  <SCORE.INTRA>
-1.15279

>  <SCORE.INTRA.DIHEDRAL>
-3.1254

>  <SCORE.INTRA.DIHEDRAL.0>
6.00299

>  <SCORE.INTRA.POLAR>
0

>  <SCORE.INTRA.POLAR.0>
0

>  <SCORE.INTRA.REPUL>
0

>  <SCORE.INTRA.REPUL.0>
0

>  <SCORE.INTRA.SOLV>
-1.29509

>  <SCORE.INTRA.SOLV.lig_0>
-39.3257

>  <SCORE.INTRA.VDW>
1.05746

>  <SCORE.INTRA.VDW.0>
-0.734044

>  <SCORE.INTRA.norm>
-0.115279

>  <SCORE.RESTR>
0.00131759

>  <SCORE.RESTR.CAVITY>
0.00131759

>  <SCORE.RESTR.norm>
0.000131759

>  <SCORE.SYSTEM>
0

>  <SCORE.SYSTEM.CONST>
0

>  <SCORE.SYSTEM.DIHEDRAL>
0

>  <SCORE.SYSTEM.SOLV>
0

>  <SCORE.SYSTEM.norm>
0

>  <SCORE.heavy>
10

>  <SCORE.norm>
-0.126854

>  <RMSD>
31.154

$$$$
ligand
 OpenBabel11021811473D
libRbt.so/2013.1/901 2013/11/27
 10  9  0  0  0  0  0  0  0  0999 V2000
   -0.5949   41.7105   10.5570 N   0  0  0  0  0  0  0  0  0  0  0  0
    0.5260   41.3014    9.7313 C   0  0  2  0  0  0  0  0  0  0  0  0
    1.3960   42.4830    9.3950 C   0  0  0  0  0  0  0  0  0  0  0  0
    0.8616   43.6107    9.2496 O   0  0  0  0  0  0  0  0  0  0  0  0
    0.0060   40.6453    8.4595 C   0  0  0  0  0  0  0  0  0  0  0  0
   -0.7214   39.4714    8.8123 O   0  0  0  0  0  0  0  0  0  0  0  0
   -1.2149   38.8879    7.6066 C   0  0  0  0  0  0  0  0  0  0  0  0
   -2.0023   37.6307    7.9698 C   0  0  0  0  0  0  0  0  0  0  0  0
   -2.5536   37.0241    6.7706 N   0  0  0  0  0  0  0  0  0  0  0  0
    2.5895   42.4009    9.7484 O   0  0  0  0  0  0  0  0  0  0  0  0
  2  1  1  1  0  0  0
  2  5  1  0  0  0  0
  2  3  1  0  0  0  0
  3  4  1  0  0  0  0
  3 10  1  0  0  0  0
  5  6  1  0  0  0  0
  6  7  1  0  0  0  0
  7  8  1  0  0  0  0
  8  9  1  0  0  0  0
M  END
>  <CHROM.1>
-62.63322818,-33.01747229,179.10398905,-179.77380251,178.47773695,-0.14186287
40.55151763,8.83785818,0.93964980,0.45961850,0.72907748

>  <Name>
ligand

>  <RI>
0

>  <Rbt.Current_Directory>
/home/itssahil/PROJECTS/Mol_Feturizer/New_Systems/rnas/3DJ0

>  <Rbt.Executable>
rbdock ($Id: //depot/dev/client3/rdock/2013.1/src/exe/rbdock.cxx#4 $)

>  <Rbt.Library>
libRbt.so (2013.1, Build901 2013/11/27)

>  <Rbt.Parameter_File>
/export/apps/rDock/src/rDock_2013.1_src/data/scripts/dock_solv.prm

>  <Rbt.Receptor>
prm/blind_docking_100.prm

>  <SCORE>
-4.55853

>  <SCORE.INTER>
-2.10398

>  <SCORE.INTER.CONST>
1

>  <SCORE.INTER.POLAR>
0

>  <SCORE.INTER.ROT>
5

>  <SCORE.INTER.SOLV>
13.0545

>  <SCORE.INTER.VDW>
-12.6875

>  <SCORE.INTER.norm>
-0.210398

>  <SCORE.INTRA>
-2.45455

>  <SCORE.INTRA.DIHEDRAL>
-3.84235

>  <SCORE.INTRA.DIHEDRAL.0>
6.00299

>  <SCORE.INTRA.POLAR>
0

>  <SCORE.INTRA.POLAR.0>
0

>  <SCORE.INTRA.REPUL>
0

>  <SCORE.INTRA.REPUL.0>
0

>  <SCORE.INTRA.SOLV>
-0.702284

>  <SCORE.INTRA.SOLV.lig_0>
-39.3257

>  <SCORE.INTRA.VDW>
-0.182237

>  <SCORE.INTRA.VDW.0>
-0.734044

>  <SCORE.INTRA.norm>
-0.245455

>  <SCORE.RESTR>
0

>  <SCORE.RESTR.CAVITY>
0

>  <SCORE.RESTR.norm>
0

>  <SCORE.SYSTEM>
0

>  <SCORE.SYSTEM.CONST>
0

>  <SCORE.SYSTEM.DIHEDRAL>
0

>  <SCORE.SYSTEM.SOLV>
0

>  <SCORE.SYSTEM.norm>
0

>  <SCORE.heavy>
10

>  <SCORE.norm>
-0.455853

>  <RMSD>
41.619

$$$$
ligand
 OpenBabel11021811473D
libRbt.so/2013.1/901 2013/11/27
 10  9  0  0  0  0  0  0  0  0999 V2000
   -0.9048   41.6642   10.6581 N   0  0  0  0  0  0  0  0  0  0  0  0
    0.3138   41.2800    9.9705 C   0  0  2  0  0  0  0  0  0  0  0  0
    1.1793   42.4844    9.7127 C   0  0  0  0  0  0  0  0  0  0  0  0
    2.3972   42.3150    9.4548 O   0  0  0  0  0  0  0  0  0  0  0  0
   -0.0393   40.5891    8.6605 C   0  0  0  0  0  0  0  0  0  0  0  0
   -0.8434   39.4472    8.9454 O   0  0  0  0  0  0  0  0  0  0  0  0
   -1.1663   38.8228    7.7029 C   0  0  0  0  0  0  0  0  0  0  0  0
   -2.0541   37.6140    7.9904 C   0  0  0  0  0  0  0  0  0  0  0  0
   -2.4303   36.9649    6.7465 N   0  0  0  0  0  0  0  0  0  0  0  0
    0.5902   43.5010    9.2936 O   0  0  0  0  0  0  0  0  0  0  0  0
  2  1  1  6  0  0  0
  2  5  1  0  0  0  0
  2  3  1  0  0  0  0
  3  4  1  0  0  0  0
  3 10  1  0  0  0  0
  5  6  1  0  0  0  0
  6  7  1  0  0  0  0
  7  8  1  0  0  0  0
  8  9  1  0  0  0  0
M  END
>  <CHROM.1>
-58.69223345,161.50680338,179.68702454,-178.77201197,178.77634873,-0.26847331
40.50161609,8.91365830,0.97319812,0.49169115,0.72784538

>  <Name>
ligand

>  <RI>
0

>  <Rbt.Current_Directory>
/home/itssahil/PROJECTS/Mol_Feturizer/New_Systems/rnas/3DJ0

>  <Rbt.Executable>
rbdock ($Id: //depot/dev/client3/rdock/2013.1/src/exe/rbdock.cxx#4 $)

>  <Rbt.Library>
libRbt.so (2013.1, Build901 2013/11/27)

>  <Rbt.Parameter_File>
/export/apps/rDock/src/rDock_2013.1_src/data/scripts/dock_solv.prm

>  <Rbt.Receptor>
prm/blind_docking_100.prm

>  <SCORE>
-3.85567

>  <SCORE.INTER>
-1.69957

>  <SCORE.INTER.CONST>
1

>  <SCORE.INTER.POLAR>
0

>  <SCORE.INTER.ROT>
5

>  <SCORE.INTER.SOLV>
12.7439

>  <SCORE.INTER.VDW>
-12.3144

>  <SCORE.INTER.norm>
-0.169957

>  <SCORE.INTRA>
-2.15609

>  <SCORE.INTRA.DIHEDRAL>
-3.55516

>  <SCORE.INTRA.DIHEDRAL.0>
6.00299

>  <SCORE.INTRA.POLAR>
0

>  <SCORE.INTRA.POLAR.0>
0

>  <SCORE.INTRA.REPUL>
0

>  <SCORE.INTRA.REPUL.0>
0

>  <SCORE.INTRA.SOLV>
-0.754749

>  <SCORE.INTRA.SOLV.lig_0>
-39.3257

>  <SCORE.INTRA.VDW>
-0.00114077

>  <SCORE.INTRA.VDW.0>
-0.734044

>  <SCORE.INTRA.norm>
-0.215609

>  <SCORE.RESTR>
0

>  <SCORE.RESTR.CAVITY>
0

>  <SCORE.RESTR.norm>
0

>  <SCORE.SYSTEM>
0

>  <SCORE.SYSTEM.CONST>
0

>  <SCORE.SYSTEM.DIHEDRAL>
0

>  <SCORE.SYSTEM.SOLV>
0

>  <SCORE.SYSTEM.norm>
0

>  <SCORE.heavy>
10

>  <SCORE.norm>
-0.385567

>  <RMSD>
41.662

$$$$
ligand
 OpenBabel11021811473D
libRbt.so/2013.1/901 2013/11/27
 10  9  0  0  0  0  0  0  0  0999 V2000
   -1.0645   41.0042   10.5725 N   0  0  0  0  0  0  0  0  0  0  0  0
    0.0951   40.9505    9.7018 C   0  0  2  0  0  0  0  0  0  0  0  0
    0.8755   42.2355    9.7782 C   0  0  0  0  0  0  0  0  0  0  0  0
    1.8700   42.3895    9.0261 O   0  0  0  0  0  0  0  0  0  0  0  0
   -0.3563   40.6871    8.2717 C   0  0  0  0  0  0  0  0  0  0  0  0
   -1.0217   39.4274    8.2244 O   0  0  0  0  0  0  0  0  0  0  0  0
   -1.5122   39.2453    6.8962 C   0  0  0  0  0  0  0  0  0  0  0  0
   -2.1966   37.8822    6.8207 C   0  0  0  0  0  0  0  0  0  0  0  0
   -3.3101   37.8312    7.7521 N   0  0  0  0  0  0  0  0  0  0  0  0
    0.2491   43.2312   10.1933 O   0  0  0  0  0  0  0  0  0  0  0  0
  2  1  1  1  0  0  0
  2  5  1  0  0  0  0
  2  3  1  0  0  0  0
  3  4  1  0  0  0  0
  3 10  1  0  0  0  0
  5  6  1  0  0  0  0
  6  7  1  0  0  0  0
  7  8  1  0  0  0  0
  8  9  1  0  0  0  0
M  END
>  <CHROM.1>
-61.36086786,-175.86557960,176.18859981,178.54138005,60.70668906,-0.61125880
40.52230226,8.72678433,0.85445313,0.59975141,0.99367234

>  <Name>
ligand

>  <RI>
0

>  <Rbt.Current_Directory>
/home/itssahil/PROJECTS/Mol_Feturizer/New_Systems/rnas/3DJ0

>  <Rbt.Executable>
rbdock ($Id: //depot/dev/client3/rdock/2013.1/src/exe/rbdock.cxx#4 $)

>  <Rbt.Library>
libRbt.so (2013.1, Build901 2013/11/27)

>  <Rbt.Parameter_File>
/export/apps/rDock/src/rDock_2013.1_src/data/scripts/dock_solv.prm

>  <Rbt.Receptor>
prm/blind_docking_80.prm

>  <SCORE>
-3.43761

>  <SCORE.INTER>
-1.93964

>  <SCORE.INTER.CONST>
1

>  <SCORE.INTER.POLAR>
0

>  <SCORE.INTER.ROT>
5

>  <SCORE.INTER.SOLV>
11.7172

>  <SCORE.INTER.VDW>
-12.1322

>  <SCORE.INTER.norm>
-0.193964

>  <SCORE.INTRA>
-1.49797

>  <SCORE.INTRA.DIHEDRAL>
-3.86398

>  <SCORE.INTRA.DIHEDRAL.0>
6.00299

>  <SCORE.INTRA.POLAR>
0

>  <SCORE.INTRA.POLAR.0>
0

>  <SCORE.INTRA.REPUL>
0

>  <SCORE.INTRA.REPUL.0>
0

>  <SCORE.INTRA.SOLV>
0.414642

>  <SCORE.INTRA.SOLV.lig_0>
-39.3257

>  <SCORE.INTRA.VDW>
0.226698

>  <SCORE.INTRA.VDW.0>
-0.734044

>  <SCORE.INTRA.norm>
-0.149797

>  <SCORE.RESTR>
0

>  <SCORE.RESTR.CAVITY>
0

>  <SCORE.RESTR.norm>
0

>  <SCORE.SYSTEM>
0

>  <SCORE.SYSTEM.CONST>
0

>  <SCORE.SYSTEM.DIHEDRAL>
0

>  <SCORE.SYSTEM.SOLV>
0

>  <SCORE.SYSTEM.norm>
0

>  <SCORE.heavy>
10

>  <SCORE.norm>
-0.343761

>  <RMSD>
41.983

$$$$
ligand
 OpenBabel11021811473D
libRbt.so/2013.1/901 2013/11/27
 10  9  0  0  0  0  0  0  0  0999 V2000
    0.4784   40.4079    8.6868 N   0  0  0  0  0  0  0  0  0  0  0  0
    0.2407   41.7140    9.2724 C   0  0  2  0  0  0  0  0  0  0  0  0
    1.5271   42.4883    9.3815 C   0  0  0  0  0  0  0  0  0  0  0  0
    2.6099   41.8590    9.4811 O   0  0  0  0  0  0  0  0  0  0  0  0
   -0.3964   41.5460   10.6451 C   0  0  0  0  0  0  0  0  0  0  0  0
   -1.6367   40.8598   10.4951 O   0  0  0  0  0  0  0  0  0  0  0  0
   -2.2506   40.7868   11.7818 C   0  0  0  0  0  0  0  0  0  0  0  0
   -3.5931   40.0743   11.6327 C   0  0  0  0  0  0  0  0  0  0  0  0
   -4.2676   40.0080   12.9175 N   0  0  0  0  0  0  0  0  0  0  0  0
    1.5172   43.6360    8.8928 O   0  0  0  0  0  0  0  0  0  0  0  0
  2  1  1  1  0  0  0
  2  5  1  0  0  0  0
  2  3  1  0  0  0  0
  3  4  1  0  0  0  0
  3 10  1  0  0  0  0
  5  6  1  0  0  0  0
  6  7  1  0  0  0  0
  7  8  1  0  0  0  0
  8  9  1  0  0  0  0
M  END
>  <CHROM.1>
-60.42105686,-26.79596773,-176.55016527,179.05134770,-178.60312426,-0.53938644
41.35968458,10.30383323,-0.11864977,-0.60560883,-2.72154249

>  <Name>
ligand

>  <RI>
0

>  <Rbt.Current_Directory>
/home/itssahil/PROJECTS/Mol_Feturizer/New_Systems/rnas/3DJ0

>  <Rbt.Executable>
rbdock ($Id: //depot/dev/client3/rdock/2013.1/src/exe/rbdock.cxx#4 $)

>  <Rbt.Library>
libRbt.so (2013.1, Build901 2013/11/27)

>  <Rbt.Parameter_File>
/export/apps/rDock/src/rDock_2013.1_src/data/scripts/dock_solv.prm

>  <Rbt.Receptor>
prm/blind_docking_100.prm

>  <SCORE>
-5.53085

>  <SCORE.INTER>
-3.17871

>  <SCORE.INTER.CONST>
1

>  <SCORE.INTER.POLAR>
0

>  <SCORE.INTER.ROT>
5

>  <SCORE.INTER.SOLV>
12.4518

>  <SCORE.INTER.VDW>
-13.2031

>  <SCORE.INTER.norm>
-0.317871

>  <SCORE.INTRA>
-2.35213

>  <SCORE.INTRA.DIHEDRAL>
-3.70469

>  <SCORE.INTRA.DIHEDRAL.0>
6.00299

>  <SCORE.INTRA.POLAR>
0

>  <SCORE.INTRA.POLAR.0>
0

>  <SCORE.INTRA.REPUL>
0

>  <SCORE.INTRA.REPUL.0>
0

>  <SCORE.INTRA.SOLV>
-0.704673

>  <SCORE.INTRA.SOLV.lig_0>
-39.3257

>  <SCORE.INTRA.VDW>
-0.147452

>  <SCORE.INTRA.VDW.0>
-0.734044

>  <SCORE.INTRA.norm>
-0.235213

>  <SCORE.RESTR>
0

>  <SCORE.RESTR.CAVITY>
0

>  <SCORE.RESTR.norm>
0

>  <SCORE.SYSTEM>
0

>  <SCORE.SYSTEM.CONST>
0

>  <SCORE.SYSTEM.DIHEDRAL>
0

>  <SCORE.SYSTEM.SOLV>
0

>  <SCORE.SYSTEM.norm>
0

>  <SCORE.heavy>
10

>  <SCORE.norm>
-0.553085

>  <RMSD>
41.995

$$$$
ligand
 OpenBabel11021811473D
libRbt.so/2013.1/901 2013/11/27
 10  9  0  0  0  0  0  0  0  0999 V2000
    0.5636   40.4427    8.6465 N   0  0  0  0  0  0  0  0  0  0  0  0
    0.2596   41.7452    9.2091 C   0  0  2  0  0  0  0  0  0  0  0  0
    1.5039   42.5878    9.2984 C   0  0  0  0  0  0  0  0  0  0  0  0
    1.3936   43.8098    9.5685 O   0  0  0  0  0  0  0  0  0  0  0  0
   -0.3632   41.5694   10.5874 C   0  0  0  0  0  0  0  0  0  0  0  0
   -1.5932   40.8625   10.4491 O   0  0  0  0  0  0  0  0  0  0  0  0
   -2.1982   40.7876   11.7399 C   0  0  0  0  0  0  0  0  0  0  0  0
   -3.5346   40.0616   11.6015 C   0  0  0  0  0  0  0  0  0  0  0  0
   -4.2180   40.0268   12.8828 N   0  0  0  0  0  0  0  0  0  0  0  0
    2.5558   41.9803    9.5822 O   0  0  0  0  0  0  0  0  0  0  0  0
  2  1  1  1  0  0  0
  2  5  1  0  0  0  0
  2  3  1  0  0  0  0
  3  4  1  0  0  0  0
  3 10  1  0  0  0  0
  5  6  1  0  0  0  0
  6  7  1  0  0  0  0
  7  8  1  0  0  0  0
  8  9  1  0  0  0  0
M  END
>  <CHROM.1>
-62.70110817,169.19072952,-176.27399213,178.64863110,-176.95758729,-0.52755778
41.41089660,10.35172661,-0.08100754,-0.60081522,-2.60263592

>  <Name>
ligand

>  <RI>
0

>  <Rbt.Current_Directory>
/home/itssahil/PROJECTS/Mol_Feturizer/New_Systems/rnas/3DJ0

>  <Rbt.Executable>
rbdock ($Id: //depot/dev/client3/rdock/2013.1/src/exe/rbdock.cxx#4 $)

>  <Rbt.Library>
libRbt.so (2013.1, Build901 2013/11/27)

>  <Rbt.Parameter_File>
/export/apps/rDock/src/rDock_2013.1_src/data/scripts/dock_solv.prm

>  <Rbt.Receptor>
prm/blind_docking_100.prm

>  <SCORE>
-5.66993

>  <SCORE.INTER>
-3.5209

>  <SCORE.INTER.CONST>
1

>  <SCORE.INTER.POLAR>
0

>  <SCORE.INTER.ROT>
5

>  <SCORE.INTER.SOLV>
12.1294

>  <SCORE.INTER.VDW>
-13.3237

>  <SCORE.INTER.norm>
-0.35209

>  <SCORE.INTRA>
-2.14903

>  <SCORE.INTRA.DIHEDRAL>
-3.59558

>  <SCORE.INTRA.DIHEDRAL.0>
6.00299

>  <SCORE.INTRA.POLAR>
0

>  <SCORE.INTRA.POLAR.0>
0

>  <SCORE.INTRA.REPUL>
0

>  <SCORE.INTRA.REPUL.0>
0

>  <SCORE.INTRA.SOLV>
-0.790935

>  <SCORE.INTRA.SOLV.lig_0>
-39.3257

>  <SCORE.INTRA.VDW>
0.044228

>  <SCORE.INTRA.VDW.0>
-0.734044

>  <SCORE.INTRA.norm>
-0.214903

>  <SCORE.RESTR>
0

>  <SCORE.RESTR.CAVITY>
0

>  <SCORE.RESTR.norm>
0

>  <SCORE.SYSTEM>
0

>  <SCORE.SYSTEM.CONST>
0

>  <SCORE.SYSTEM.DIHEDRAL>
0

>  <SCORE.SYSTEM.SOLV>
0

>  <SCORE.SYSTEM.norm>
0

>  <SCORE.heavy>
10

>  <SCORE.norm>
-0.566993

>  <RMSD>
41.999

$$$$
ligand
 OpenBabel11021811473D
libRbt.so/2013.1/901 2013/11/27
 10  9  0  0  0  0  0  0  0  0999 V2000
    0.4520   40.3900    8.6848 N   0  0  0  0  0  0  0  0  0  0  0  0
    0.1921   41.6904    9.2736 C   0  0  2  0  0  0  0  0  0  0  0  0
    1.4631   42.4908    9.3737 C   0  0  0  0  0  0  0  0  0  0  0  0
    2.5518   41.8863    9.5401 O   0  0  0  0  0  0  0  0  0  0  0  0
   -0.4309   41.5080   10.6509 C   0  0  0  0  0  0  0  0  0  0  0  0
   -1.6813   40.8395   10.5049 O   0  0  0  0  0  0  0  0  0  0  0  0
   -2.2869   40.7650   11.7954 C   0  0  0  0  0  0  0  0  0  0  0  0
   -3.6574   40.1083   11.6446 C   0  0  0  0  0  0  0  0  0  0  0  0
   -4.3010   39.9945   12.9418 N   0  0  0  0  0  0  0  0  0  0  0  0
    1.4502   43.6082    8.8191 O   0  0  0  0  0  0  0  0  0  0  0  0
  2  1  1  1  0  0  0
  2  5  1  0  0  0  0
  2  3  1  0  0  0  0
  3  4  1  0  0  0  0
  3 10  1  0  0  0  0
  5  6  1  0  0  0  0
  6  7  1  0  0  0  0
  7  8  1  0  0  0  0
  8  9  1  0  0  0  0
M  END
>  <CHROM.1>
-62.50045757,-30.76556694,-175.98884300,177.42112346,179.14370654,-0.58737593
41.34991635,10.30793537,-0.11464156,-0.61056530,-2.71814702

>  <Name>
ligand

>  <RI>
0

>  <Rbt.Current_Directory>
/home/itssahil/PROJECTS/Mol_Feturizer/New_Systems/rnas/3DJ0

>  <Rbt.Executable>
rbdock ($Id: //depot/dev/client3/rdock/2013.1/src/exe/rbdock.cxx#4 $)

>  <Rbt.Library>
libRbt.so (2013.1, Build901 2013/11/27)

>  <Rbt.Parameter_File>
/export/apps/rDock/src/rDock_2013.1_src/data/scripts/dock_solv.prm

>  <Rbt.Receptor>
prm/blind_docking_100.prm

>  <SCORE>
-5.6178

>  <SCORE.INTER>
-3.22948

>  <SCORE.INTER.CONST>
1

>  <SCORE.INTER.POLAR>
0

>  <SCORE.INTER.ROT>
5

>  <SCORE.INTER.SOLV>
12.3624

>  <SCORE.INTER.VDW>
-13.2071

>  <SCORE.INTER.norm>
-0.322948

>  <SCORE.INTRA>
-2.38832

>  <SCORE.INTRA.DIHEDRAL>
-3.70868

>  <SCORE.INTRA.DIHEDRAL.0>
6.00299

>  <SCORE.INTRA.POLAR>
0

>  <SCORE.INTRA.POLAR.0>
0

>  <SCORE.INTRA.REPUL>
0

>  <SCORE.INTRA.REPUL.0>
0

>  <SCORE.INTRA.SOLV>
-0.725016

>  <SCORE.INTRA.SOLV.lig_0>
-39.3257

>  <SCORE.INTRA.VDW>
-0.171477

>  <SCORE.INTRA.VDW.0>
-0.734044

>  <SCORE.INTRA.norm>
-0.238832

>  <SCORE.RESTR>
0

>  <SCORE.RESTR.CAVITY>
0

>  <SCORE.RESTR.norm>
0

>  <SCORE.SYSTEM>
0

>  <SCORE.SYSTEM.CONST>
0

>  <SCORE.SYSTEM.DIHEDRAL>
0

>  <SCORE.SYSTEM.SOLV>
0

>  <SCORE.SYSTEM.norm>
0

>  <SCORE.heavy>
10

>  <SCORE.norm>
-0.56178

>  <RMSD>
42.024

$$$$
ligand
 OpenBabel11021811473D
libRbt.so/2013.1/901 2013/11/27
 10  9  0  0  0  0  0  0  0  0999 V2000
    2.6020   42.1451    9.7961 N   0  0  0  0  0  0  0  0  0  0  0  0
    1.4665   42.8089    9.1834 C   0  0  2  0  0  0  0  0  0  0  0  0
    1.1223   44.0693    9.9312 C   0  0  0  0  0  0  0  0  0  0  0  0
    1.8995   44.4748   10.8311 O   0  0  0  0  0  0  0  0  0  0  0  0
    0.2752   41.8608    9.1632 C   0  0  0  0  0  0  0  0  0  0  0  0
   -0.2069   41.7002   10.4949 O   0  0  0  0  0  0  0  0  0  0  0  0
   -1.3399   40.8333   10.4447 C   0  0  0  0  0  0  0  0  0  0  0  0
   -2.0233   40.8579   11.8102 C   0  0  0  0  0  0  0  0  0  0  0  0
   -3.2062   40.0150   11.7908 N   0  0  0  0  0  0  0  0  0  0  0  0
    0.3924   44.8808    9.3272 O   0  0  0  0  0  0  0  0  0  0  0  0
  2  1  1  1  0  0  0
  2  5  1  0  0  0  0
  2  3  1  0  0  0  0
  3  4  1  0  0  0  0
  3 10  1  0  0  0  0
  5  6  1  0  0  0  0
  6  7  1  0  0  0  0
  7  8  1  0  0  0  0
  8  9  1  0  0  0  0
M  END
>  <CHROM.1>
71.12915459,8.53289605,178.69358225,-169.54387391,178.42022751,0.10603865
42.40418144,10.28476028,-0.66329515,-0.42896702,-3.08675096

>  <Name>
ligand

>  <RI>
0

>  <Rbt.Current_Directory>
/home/itssahil/PROJECTS/Mol_Feturizer/New_Systems/rnas/3DJ0

>  <Rbt.Executable>
rbdock ($Id: //depot/dev/client3/rdock/2013.1/src/exe/rbdock.cxx#4 $)

>  <Rbt.Library>
libRbt.so (2013.1, Build901 2013/11/27)

>  <Rbt.Parameter_File>
/export/apps/rDock/src/rDock_2013.1_src/data/scripts/dock_solv.prm

>  <Rbt.Receptor>
prm/blind_docking_100.prm

>  <SCORE>
-5.29172

>  <SCORE.INTER>
-4.12392

>  <SCORE.INTER.CONST>
1

>  <SCORE.INTER.POLAR>
0

>  <SCORE.INTER.ROT>
5

>  <SCORE.INTER.SOLV>
16.2752

>  <SCORE.INTER.VDW>
-15.1077

>  <SCORE.INTER.norm>
-0.412392

>  <SCORE.INTRA>
-1.16984

>  <SCORE.INTRA.DIHEDRAL>
-2.21914

>  <SCORE.INTRA.DIHEDRAL.0>
6.00299

>  <SCORE.INTRA.POLAR>
0

>  <SCORE.INTRA.POLAR.0>
0

>  <SCORE.INTRA.REPUL>
0

>  <SCORE.INTRA.REPUL.0>
0

>  <SCORE.INTRA.SOLV>
-0.463214

>  <SCORE.INTRA.SOLV.lig_0>
-39.3257

>  <SCORE.INTRA.VDW>
0.171336

>  <SCORE.INTRA.VDW.0>
-0.734044

>  <SCORE.INTRA.norm>
-0.116984

>  <SCORE.RESTR>
0.00204191

>  <SCORE.RESTR.CAVITY>
0.00204191

>  <SCORE.RESTR.norm>
0.000204191

>  <SCORE.SYSTEM>
0

>  <SCORE.SYSTEM.CONST>
0

>  <SCORE.SYSTEM.DIHEDRAL>
0

>  <SCORE.SYSTEM.SOLV>
0

>  <SCORE.SYSTEM.norm>
0

>  <SCORE.heavy>
10

>  <SCORE.norm>
-0.529172

>  <RMSD>
42.133

$$$$
ligand
 OpenBabel11021811473D
libRbt.so/2013.1/901 2013/11/27
 10  9  0  0  0  0  0  0  0  0999 V2000
   -0.6468   39.7992    9.2900 N   0  0  0  0  0  0  0  0  0  0  0  0
   -0.6479   41.1701    9.7655 C   0  0  2  0  0  0  0  0  0  0  0  0
    0.7376   41.7550    9.7006 C   0  0  0  0  0  0  0  0  0  0  0  0
    1.6741   41.0529    9.2439 O   0  0  0  0  0  0  0  0  0  0  0  0
   -1.1758   41.2113   11.1931 C   0  0  0  0  0  0  0  0  0  0  0  0
   -2.5361   40.7853   11.1925 O   0  0  0  0  0  0  0  0  0  0  0  0
   -2.9836   40.7605   12.5478 C   0  0  0  0  0  0  0  0  0  0  0  0
   -4.4770   40.4411   12.5537 C   0  0  0  0  0  0  0  0  0  0  0  0
   -4.7087   39.1307   11.9713 N   0  0  0  0  0  0  0  0  0  0  0  0
    0.8030   42.9989    9.6341 O   0  0  0  0  0  0  0  0  0  0  0  0
  2  1  1  1  0  0  0
  2  5  1  0  0  0  0
  2  3  1  0  0  0  0
  3  4  1  0  0  0  0
  3 10  1  0  0  0  0
  5  6  1  0  0  0  0
  6  7  1  0  0  0  0
  7  8  1  0  0  0  0
  8  9  1  0  0  0  0
M  END
>  <CHROM.1>
-64.15575788,1.57347533,176.78474089,174.43848906,61.71154485,-1.35938266
40.93201290,10.69477284,-0.01153052,-0.57086682,-2.63094982

>  <Name>
ligand

>  <RI>
0

>  <Rbt.Current_Directory>
/home/itssahil/PROJECTS/Mol_Feturizer/New_Systems/rnas/3DJ0

>  <Rbt.Executable>
rbdock ($Id: //depot/dev/client3/rdock/2013.1/src/exe/rbdock.cxx#4 $)

>  <Rbt.Library>
libRbt.so (2013.1, Build901 2013/11/27)

>  <Rbt.Parameter_File>
/export/apps/rDock/src/rDock_2013.1_src/data/scripts/dock_solv.prm

>  <Rbt.Receptor>
prm/blind_docking_80.prm

>  <SCORE>
-3.29238

>  <SCORE.INTER>
-1.92937

>  <SCORE.INTER.CONST>
1

>  <SCORE.INTER.POLAR>
0

>  <SCORE.INTER.ROT>
5

>  <SCORE.INTER.SOLV>
9.82421

>  <SCORE.INTER.VDW>
-11.4943

>  <SCORE.INTER.norm>
-0.192937

>  <SCORE.INTRA>
-1.363

>  <SCORE.INTRA.DIHEDRAL>
-2.98484

>  <SCORE.INTRA.DIHEDRAL.0>
6.00299

>  <SCORE.INTRA.POLAR>
0

>  <SCORE.INTRA.POLAR.0>
0

>  <SCORE.INTRA.REPUL>
0

>  <SCORE.INTRA.REPUL.0>
0

>  <SCORE.INTRA.SOLV>
0.308744

>  <SCORE.INTRA.SOLV.lig_0>
-39.3257

>  <SCORE.INTRA.VDW>
-0.0249557

>  <SCORE.INTRA.VDW.0>
-0.734044

>  <SCORE.INTRA.norm>
-0.1363

>  <SCORE.RESTR>
0

>  <SCORE.RESTR.CAVITY>
0

>  <SCORE.RESTR.norm>
0

>  <SCORE.SYSTEM>
0

>  <SCORE.SYSTEM.CONST>
0

>  <SCORE.SYSTEM.DIHEDRAL>
0

>  <SCORE.SYSTEM.SOLV>
0

>  <SCORE.SYSTEM.norm>
0

>  <SCORE.heavy>
10

>  <SCORE.norm>
-0.329238

>  <RMSD>
42.256

$$$$
ligand
 OpenBabel11021811473D
libRbt.so/2013.1/901 2013/11/27
 10  9  0  0  0  0  0  0  0  0999 V2000
   -2.2493   38.5462    9.2628 N   0  0  0  0  0  0  0  0  0  0  0  0
   -1.7856   39.7769    8.6497 C   0  0  2  0  0  0  0  0  0  0  0  0
   -1.4564   39.5546    7.1977 C   0  0  0  0  0  0  0  0  0  0  0  0
   -1.2057   40.5484    6.4711 O   0  0  0  0  0  0  0  0  0  0  0  0
   -0.5628   40.2876    9.3996 C   0  0  0  0  0  0  0  0  0  0  0  0
   -0.2049   41.5653    8.8790 O   0  0  0  0  0  0  0  0  0  0  0  0
    0.8727   42.0691    9.6681 C   0  0  0  0  0  0  0  0  0  0  0  0
    1.1643   43.5006    9.2231 C   0  0  0  0  0  0  0  0  0  0  0  0
    2.1984   44.0822   10.0612 N   0  0  0  0  0  0  0  0  0  0  0  0
   -0.9807   38.4378    6.9100 O   0  0  0  0  0  0  0  0  0  0  0  0
  2  1  1  1  0  0  0
  2  5  1  0  0  0  0
  2  3  1  0  0  0  0
  3  4  1  0  0  0  0
  3 10  1  0  0  0  0
  5  6  1  0  0  0  0
  6  7  1  0  0  0  0
  7  8  1  0  0  0  0
  8  9  1  0  0  0  0
M  END
>  <CHROM.1>
-173.87446053,170.88436373,175.37808721,-173.78313498,176.28816747,-0.41978209
40.82630136,8.53367736,2.78695022,-0.95642093,-1.56123753

>  <Name>
ligand

>  <RI>
0

>  <Rbt.Current_Directory>
/home/itssahil/PROJECTS/Mol_Feturizer/New_Systems/rnas/3DJ0

>  <Rbt.Executable>
rbdock ($Id: //depot/dev/client3/rdock/2013.1/src/exe/rbdock.cxx#4 $)

>  <Rbt.Library>
libRbt.so (2013.1, Build901 2013/11/27)

>  <Rbt.Parameter_File>
/export/apps/rDock/src/rDock_2013.1_src/data/scripts/dock_solv.prm

>  <Rbt.Receptor>
prm/blind_docking_100.prm

>  <SCORE>
-3.04015

>  <SCORE.INTER>
-0.817259

>  <SCORE.INTER.CONST>
1

>  <SCORE.INTER.POLAR>
0

>  <SCORE.INTER.ROT>
5

>  <SCORE.INTER.SOLV>
14.3362

>  <SCORE.INTER.VDW>
-12.2569

>  <SCORE.INTER.norm>
-0.0817259

>  <SCORE.INTRA>
-2.2229

>  <SCORE.INTRA.DIHEDRAL>
-3.28062

>  <SCORE.INTRA.DIHEDRAL.0>
6.00299

>  <SCORE.INTRA.POLAR>
0

>  <SCORE.INTRA.POLAR.0>
0

>  <SCORE.INTRA.REPUL>
0

>  <SCORE.INTRA.REPUL.0>
0

>  <SCORE.INTRA.SOLV>
-1.18575

>  <SCORE.INTRA.SOLV.lig_0>
-39.3257

>  <SCORE.INTRA.VDW>
0.0102898

>  <SCORE.INTRA.VDW.0>
-0.734044

>  <SCORE.INTRA.norm>
-0.22229

>  <SCORE.RESTR>
0

>  <SCORE.RESTR.CAVITY>
0

>  <SCORE.RESTR.norm>
0

>  <SCORE.SYSTEM>
0

>  <SCORE.SYSTEM.CONST>
0

>  <SCORE.SYSTEM.DIHEDRAL>
0

>  <SCORE.SYSTEM.SOLV>
0

>  <SCORE.SYSTEM.norm>
0

>  <SCORE.heavy>
10

>  <SCORE.norm>
-0.304015

>  <RMSD>
42.306

$$$$
ligand
 OpenBabel11021811473D
libRbt.so/2013.1/901 2013/11/27
 10  9  0  0  0  0  0  0  0  0999 V2000
    0.8156   42.2845    9.7285 N   0  0  0  0  0  0  0  0  0  0  0  0
    0.0263   41.1211   10.0877 C   0  0  2  0  0  0  0  0  0  0  0  0
   -0.5339   40.4597    8.8570 C   0  0  0  0  0  0  0  0  0  0  0  0
   -0.1796   40.8777    7.7264 O   0  0  0  0  0  0  0  0  0  0  0  0
   -1.0985   41.5410   11.0242 C   0  0  0  0  0  0  0  0  0  0  0  0
   -1.8696   40.3905   11.3611 O   0  0  0  0  0  0  0  0  0  0  0  0
   -2.9532   40.8203   12.1849 C   0  0  0  0  0  0  0  0  0  0  0  0
   -3.8240   39.6068   12.5033 C   0  0  0  0  0  0  0  0  0  0  0  0
   -4.9606   40.0079   13.3141 N   0  0  0  0  0  0  0  0  0  0  0  0
   -0.9079   39.2776    8.9942 O   0  0  0  0  0  0  0  0  0  0  0  0
  2  1  1  6  0  0  0
  2  5  1  0  0  0  0
  2  3  1  0  0  0  0
  3  4  1  0  0  0  0
  3 10  1  0  0  0  0
  5  6  1  0  0  0  0
  6  7  1  0  0  0  0
  7  8  1  0  0  0  0
  8  9  1  0  0  0  0
M  END
>  <CHROM.1>
179.62452310,6.33967559,-177.22338137,177.52794216,-178.55019661,-1.54339901
40.61769244,10.54333220,-0.46065450,0.66147280,0.90713593

>  <Name>
ligand

>  <RI>
0

>  <Rbt.Current_Directory>
/home/itssahil/PROJECTS/Mol_Feturizer/New_Systems/rnas/3DJ0

>  <Rbt.Executable>
rbdock ($Id: //depot/dev/client3/rdock/2013.1/src/exe/rbdock.cxx#4 $)

>  <Rbt.Library>
libRbt.so (2013.1, Build901 2013/11/27)

>  <Rbt.Parameter_File>
/export/apps/rDock/src/rDock_2013.1_src/data/scripts/dock_solv.prm

>  <Rbt.Receptor>
prm/blind_docking_80.prm

>  <SCORE>
-4.21899

>  <SCORE.INTER>
-2.14081

>  <SCORE.INTER.CONST>
1

>  <SCORE.INTER.POLAR>
0

>  <SCORE.INTER.ROT>
5

>  <SCORE.INTER.SOLV>
10.4078

>  <SCORE.INTER.VDW>
-11.8298

>  <SCORE.INTER.norm>
-0.214081

>  <SCORE.INTRA>
-2.07818

>  <SCORE.INTRA.DIHEDRAL>
-3.13942

>  <SCORE.INTRA.DIHEDRAL.0>
6.00299

>  <SCORE.INTRA.POLAR>
0

>  <SCORE.INTRA.POLAR.0>
0

>  <SCORE.INTRA.REPUL>
0

>  <SCORE.INTRA.REPUL.0>
0

>  <SCORE.INTRA.SOLV>
-1.21572

>  <SCORE.INTRA.SOLV.lig_0>
-39.3257

>  <SCORE.INTRA.VDW>
0.099391

>  <SCORE.INTRA.VDW.0>
-0.734044

>  <SCORE.INTRA.norm>
-0.207818

>  <SCORE.RESTR>
0

>  <SCORE.RESTR.CAVITY>
0

>  <SCORE.RESTR.norm>
0

>  <SCORE.SYSTEM>
0

>  <SCORE.SYSTEM.CONST>
0

>  <SCORE.SYSTEM.DIHEDRAL>
0

>  <SCORE.SYSTEM.SOLV>
0

>  <SCORE.SYSTEM.norm>
0

>  <SCORE.heavy>
10

>  <SCORE.norm>
-0.421899

>  <RMSD>
42.306

$$$$
ligand
 OpenBabel11021811473D
libRbt.so/2013.1/901 2013/11/27
 10  9  0  0  0  0  0  0  0  0999 V2000
   -1.1870   39.2961    8.8882 N   0  0  0  0  0  0  0  0  0  0  0  0
   -0.6779   40.2441    9.8616 C   0  0  2  0  0  0  0  0  0  0  0  0
   -1.7998   40.8004   10.6970 C   0  0  0  0  0  0  0  0  0  0  0  0
   -2.9862   40.5869   10.3429 O   0  0  0  0  0  0  0  0  0  0  0  0
    0.0551   41.3671    9.1406 C   0  0  0  0  0  0  0  0  0  0  0  0
    0.5174   42.3084   10.1060 O   0  0  0  0  0  0  0  0  0  0  0  0
    1.1894   43.3546    9.4050 C   0  0  0  0  0  0  0  0  0  0  0  0
    1.6911   44.3717   10.4278 C   0  0  0  0  0  0  0  0  0  0  0  0
    2.4547   45.4128    9.7621 N   0  0  0  0  0  0  0  0  0  0  0  0
   -1.5365   41.0049   11.8991 O   0  0  0  0  0  0  0  0  0  0  0  0
  2  1  1  6  0  0  0
  2  5  1  0  0  0  0
  2  3  1  0  0  0  0
  3  4  1  0  0  0  0
  3 10  1  0  0  0  0
  5  6  1  0  0  0  0
  6  7  1  0  0  0  0
  7  8  1  0  0  0  0
  8  9  1  0  0  0  0
M  END
>  <CHROM.1>
178.43091534,-11.55253415,-179.50204186,-179.98539216,176.46112262,-0.25954645
41.86989222,10.08002049,-2.62833504,0.70579832,0.77185397

>  <Name>
ligand

>  <RI>
0

>  <Rbt.Current_Directory>
/home/itssahil/PROJECTS/Mol_Feturizer/New_Systems/rnas/3DJ0

>  <Rbt.Executable>
rbdock ($Id: //depot/dev/client3/rdock/2013.1/src/exe/rbdock.cxx#4 $)

>  <Rbt.Library>
libRbt.so (2013.1, Build901 2013/11/27)

>  <Rbt.Parameter_File>
/export/apps/rDock/src/rDock_2013.1_src/data/scripts/dock_solv.prm

>  <Rbt.Receptor>
prm/blind_docking_80.prm

>  <SCORE>
-4.44714

>  <SCORE.INTER>
-2.08529

>  <SCORE.INTER.CONST>
1

>  <SCORE.INTER.POLAR>
0

>  <SCORE.INTER.ROT>
5

>  <SCORE.INTER.SOLV>
17.9196

>  <SCORE.INTER.VDW>
-14.2967

>  <SCORE.INTER.norm>
-0.208529

>  <SCORE.INTRA>
-2.36185

>  <SCORE.INTRA.DIHEDRAL>
-3.41187

>  <SCORE.INTRA.DIHEDRAL.0>
6.00299

>  <SCORE.INTRA.POLAR>
0

>  <SCORE.INTRA.POLAR.0>
0

>  <SCORE.INTRA.REPUL>
0

>  <SCORE.INTRA.REPUL.0>
0

>  <SCORE.INTRA.SOLV>
-1.24368

>  <SCORE.INTRA.SOLV.lig_0>
-39.3257

>  <SCORE.INTRA.VDW>
-0.0340747

>  <SCORE.INTRA.VDW.0>
-0.734044

>  <SCORE.INTRA.norm>
-0.236185

>  <SCORE.RESTR>
0

>  <SCORE.RESTR.CAVITY>
0

>  <SCORE.RESTR.norm>
0

>  <SCORE.SYSTEM>
0

>  <SCORE.SYSTEM.CONST>
0

>  <SCORE.SYSTEM.DIHEDRAL>
0

>  <SCORE.SYSTEM.SOLV>
0

>  <SCORE.SYSTEM.norm>
0

>  <SCORE.heavy>
10

>  <SCORE.norm>
-0.444714

>  <RMSD>
42.354

$$$$
ligand
 OpenBabel11021811473D
libRbt.so/2013.1/901 2013/11/27
 10  9  0  0  0  0  0  0  0  0999 V2000
   -3.2973   38.6448    8.9714 N   0  0  0  0  0  0  0  0  0  0  0  0
   -2.4045   39.6287    8.3880 C   0  0  2  0  0  0  0  0  0  0  0  0
   -1.8305   39.1214    7.0921 C   0  0  0  0  0  0  0  0  0  0  0  0
   -1.2059   38.0313    7.0882 O   0  0  0  0  0  0  0  0  0  0  0  0
   -1.2892   39.9491    9.3739 C   0  0  0  0  0  0  0  0  0  0  0  0
   -0.4825   40.9919    8.8322 O   0  0  0  0  0  0  0  0  0  0  0  0
    0.5461   41.2812    9.7788 C   0  0  0  0  0  0  0  0  0  0  0  0
    1.4004   42.4197    9.2255 C   0  0  0  0  0  0  0  0  0  0  0  0
    0.6261   43.6479    9.1817 N   0  0  0  0  0  0  0  0  0  0  0  0
   -2.3928   39.5201    6.0524 O   0  0  0  0  0  0  0  0  0  0  0  0
  2  1  1  1  0  0  0
  2  5  1  0  0  0  0
  2  3  1  0  0  0  0
  3  4  1  0  0  0  0
  3 10  1  0  0  0  0
  5  6  1  0  0  0  0
  6  7  1  0  0  0  0
  7  8  1  0  0  0  0
  8  9  1  0  0  0  0
M  END
>  <CHROM.1>
-175.43278234,-56.50141841,179.48564350,-178.73411452,67.56020472,-1.03121193
40.30341258,8.36333489,2.63004005,-0.82579560,-1.73789595

>  <Name>
ligand

>  <RI>
0

>  <Rbt.Current_Directory>
/home/itssahil/PROJECTS/Mol_Feturizer/New_Systems/rnas/3DJ0

>  <Rbt.Executable>
rbdock ($Id: //depot/dev/client3/rdock/2013.1/src/exe/rbdock.cxx#4 $)

>  <Rbt.Library>
libRbt.so (2013.1, Build901 2013/11/27)

>  <Rbt.Parameter_File>
/export/apps/rDock/src/rDock_2013.1_src/data/scripts/dock_solv.prm

>  <Rbt.Receptor>
prm/blind_docking_100.prm

>  <SCORE>
-2.88605

>  <SCORE.INTER>
-0.750085

>  <SCORE.INTER.CONST>
1

>  <SCORE.INTER.POLAR>
0

>  <SCORE.INTER.ROT>
5

>  <SCORE.INTER.SOLV>
12.1998

>  <SCORE.INTER.VDW>
-11.5

>  <SCORE.INTER.norm>
-0.0750085

>  <SCORE.INTRA>
-2.13596

>  <SCORE.INTRA.DIHEDRAL>
-3.64741

>  <SCORE.INTRA.DIHEDRAL.0>
6.00299

>  <SCORE.INTRA.POLAR>
0

>  <SCORE.INTRA.POLAR.0>
0

>  <SCORE.INTRA.REPUL>
0

>  <SCORE.INTRA.REPUL.0>
0

>  <SCORE.INTRA.SOLV>
-0.24229

>  <SCORE.INTRA.SOLV.lig_0>
-39.3257

>  <SCORE.INTRA.VDW>
-0.191114

>  <SCORE.INTRA.VDW.0>
-0.734044

>  <SCORE.INTRA.norm>
-0.213596

>  <SCORE.RESTR>
0

>  <SCORE.RESTR.CAVITY>
0

>  <SCORE.RESTR.norm>
0

>  <SCORE.SYSTEM>
0

>  <SCORE.SYSTEM.CONST>
0

>  <SCORE.SYSTEM.DIHEDRAL>
0

>  <SCORE.SYSTEM.SOLV>
0

>  <SCORE.SYSTEM.norm>
0

>  <SCORE.heavy>
10

>  <SCORE.norm>
-0.288605

>  <RMSD>
42.514

$$$$
ligand
 OpenBabel11021811473D
libRbt.so/2013.1/901 2013/11/27
 10  9  0  0  0  0  0  0  0  0999 V2000
   -3.9387   41.2239   12.7208 N   0  0  0  0  0  0  0  0  0  0  0  0
   -3.3162   40.6378   11.5485 C   0  0  2  0  0  0  0  0  0  0  0  0
   -3.2820   39.1370   11.6607 C   0  0  0  0  0  0  0  0  0  0  0  0
   -3.1025   38.6147   12.7892 O   0  0  0  0  0  0  0  0  0  0  0  0
   -1.9063   41.1912   11.3928 C   0  0  0  0  0  0  0  0  0  0  0  0
   -1.3096   40.6103   10.2360 O   0  0  0  0  0  0  0  0  0  0  0  0
   -0.0491   41.2481   10.0311 C   0  0  0  0  0  0  0  0  0  0  0  0
    0.6202   40.6080    8.8168 C   0  0  0  0  0  0  0  0  0  0  0  0
   -0.2597   40.6862    7.6637 N   0  0  0  0  0  0  0  0  0  0  0  0
   -3.8959   38.5088   10.7749 O   0  0  0  0  0  0  0  0  0  0  0  0
  2  1  1  1  0  0  0
  2  5  1  0  0  0  0
  2  3  1  0  0  0  0
  3  4  1  0  0  0  0
  3 10  1  0  0  0  0
  5  6  1  0  0  0  0
  6  7  1  0  0  0  0
  7  8  1  0  0  0  0
  8  9  1  0  0  0  0
M  END
>  <CHROM.1>
-179.81250655,-35.41812162,173.93369161,178.42045951,55.54104638,-2.05619249
40.21027788,10.77253471,-2.95538909,-0.76138239,-2.50855593

>  <Name>
ligand

>  <RI>
0

>  <Rbt.Current_Directory>
/home/itssahil/PROJECTS/Mol_Feturizer/New_Systems/rnas/3DJ0

>  <Rbt.Executable>
rbdock ($Id: //depot/dev/client3/rdock/2013.1/src/exe/rbdock.cxx#4 $)

>  <Rbt.Library>
libRbt.so (2013.1, Build901 2013/11/27)

>  <Rbt.Parameter_File>
/export/apps/rDock/src/rDock_2013.1_src/data/scripts/dock_solv.prm

>  <Rbt.Receptor>
prm/blind_docking_80.prm

>  <SCORE>
-3.42957

>  <SCORE.INTER>
-1.40149

>  <SCORE.INTER.CONST>
1

>  <SCORE.INTER.POLAR>
0

>  <SCORE.INTER.ROT>
5

>  <SCORE.INTER.SOLV>
9.03253

>  <SCORE.INTER.VDW>
-10.8785

>  <SCORE.INTER.norm>
-0.140149

>  <SCORE.INTRA>
-2.02808

>  <SCORE.INTRA.DIHEDRAL>
-3.64328

>  <SCORE.INTRA.DIHEDRAL.0>
6.00299

>  <SCORE.INTRA.POLAR>
0

>  <SCORE.INTRA.POLAR.0>
0

>  <SCORE.INTRA.REPUL>
0

>  <SCORE.INTRA.REPUL.0>
0

>  <SCORE.INTRA.SOLV>
-0.108925

>  <SCORE.INTRA.SOLV.lig_0>
-39.3257

>  <SCORE.INTRA.VDW>
-0.151977

>  <SCORE.INTRA.VDW.0>
-0.734044

>  <SCORE.INTRA.norm>
-0.202808

>  <SCORE.RESTR>
0

>  <SCORE.RESTR.CAVITY>
0

>  <SCORE.RESTR.norm>
0

>  <SCORE.SYSTEM>
0

>  <SCORE.SYSTEM.CONST>
0

>  <SCORE.SYSTEM.DIHEDRAL>
0

>  <SCORE.SYSTEM.SOLV>
0

>  <SCORE.SYSTEM.norm>
0

>  <SCORE.heavy>
10

>  <SCORE.norm>
-0.342957

>  <RMSD>
42.551

$$$$
ligand
 OpenBabel11021811473D
libRbt.so/2013.1/901 2013/11/27
 10  9  0  0  0  0  0  0  0  0999 V2000
   -0.2484   42.7276   10.7258 N   0  0  0  0  0  0  0  0  0  0  0  0
   -0.2619   41.2870   10.5530 C   0  0  2  0  0  0  0  0  0  0  0  0
    0.3325   40.9069    9.2232 C   0  0  0  0  0  0  0  0  0  0  0  0
    0.1811   39.7331    8.8018 O   0  0  0  0  0  0  0  0  0  0  0  0
   -1.6923   40.7767   10.6611 C   0  0  0  0  0  0  0  0  0  0  0  0
   -2.2165   41.1443   11.9346 O   0  0  0  0  0  0  0  0  0  0  0  0
   -3.5658   40.6827   11.9983 C   0  0  0  0  0  0  0  0  0  0  0  0
   -4.1673   41.1418   13.3248 C   0  0  0  0  0  0  0  0  0  0  0  0
   -5.5386   40.6761   13.4379 N   0  0  0  0  0  0  0  0  0  0  0  0
    0.5043   41.8410    8.4145 O   0  0  0  0  0  0  0  0  0  0  0  0
  2  1  1  6  0  0  0
  2  5  1  0  0  0  0
  2  3  1  0  0  0  0
  3  4  1  0  0  0  0
  3 10  1  0  0  0  0
  5  6  1  0  0  0  0
  6  7  1  0  0  0  0
  7  8  1  0  0  0  0
  8  9  1  0  0  0  0
M  END
>  <CHROM.1>
-58.49212763,-167.09856378,178.66245650,-176.69064208,-179.24285152,-1.64324786
41.08385464,10.87253492,-0.29605714,0.63561537,0.54303470

>  <Name>
ligand

>  <RI>
0

>  <Rbt.Current_Directory>
/home/itssahil/PROJECTS/Mol_Feturizer/New_Systems/rnas/3DJ0

>  <Rbt.Executable>
rbdock ($Id: //depot/dev/client3/rdock/2013.1/src/exe/rbdock.cxx#4 $)

>  <Rbt.Library>
libRbt.so (2013.1, Build901 2013/11/27)

>  <Rbt.Parameter_File>
/export/apps/rDock/src/rDock_2013.1_src/data/scripts/dock_solv.prm

>  <Rbt.Receptor>
prm/blind_docking_80.prm

>  <SCORE>
-3.73294

>  <SCORE.INTER>
-1.95053

>  <SCORE.INTER.CONST>
1

>  <SCORE.INTER.POLAR>
0

>  <SCORE.INTER.ROT>
5

>  <SCORE.INTER.SOLV>
12.4007

>  <SCORE.INTER.VDW>
-12.3672

>  <SCORE.INTER.norm>
-0.195053

>  <SCORE.INTRA>
-1.78241

>  <SCORE.INTRA.DIHEDRAL>
-3.91532

>  <SCORE.INTRA.DIHEDRAL.0>
6.00299

>  <SCORE.INTRA.POLAR>
0

>  <SCORE.INTRA.POLAR.0>
0

>  <SCORE.INTRA.REPUL>
0

>  <SCORE.INTRA.REPUL.0>
0

>  <SCORE.INTRA.SOLV>
-0.638963

>  <SCORE.INTRA.SOLV.lig_0>
-39.3257

>  <SCORE.INTRA.VDW>
0.494729

>  <SCORE.INTRA.VDW.0>
-0.734044

>  <SCORE.INTRA.norm>
-0.178241

>  <SCORE.RESTR>
0

>  <SCORE.RESTR.CAVITY>
0

>  <SCORE.RESTR.norm>
0

>  <SCORE.SYSTEM>
0

>  <SCORE.SYSTEM.CONST>
0

>  <SCORE.SYSTEM.DIHEDRAL>
0

>  <SCORE.SYSTEM.SOLV>
0

>  <SCORE.SYSTEM.norm>
0

>  <SCORE.heavy>
10

>  <SCORE.norm>
-0.373294

>  <RMSD>
42.571

$$$$
ligand
 OpenBabel11021811473D
libRbt.so/2013.1/901 2013/11/27
 10  9  0  0  0  0  0  0  0  0999 V2000
   -3.2906   38.7014   11.1119 N   0  0  0  0  0  0  0  0  0  0  0  0
   -2.4037   39.5744   10.3658 C   0  0  2  0  0  0  0  0  0  0  0  0
   -2.2834   40.9130   11.0439 C   0  0  0  0  0  0  0  0  0  0  0  0
   -3.3168   41.4544   11.5101 O   0  0  0  0  0  0  0  0  0  0  0  0
   -2.9323   39.7425    8.9479 C   0  0  0  0  0  0  0  0  0  0  0  0
   -2.8418   38.4907    8.2722 O   0  0  0  0  0  0  0  0  0  0  0  0
   -3.3831   38.6642    6.9627 C   0  0  0  0  0  0  0  0  0  0  0  0
   -3.2577   37.3397    6.2129 C   0  0  0  0  0  0  0  0  0  0  0  0
   -3.9729   36.2946    6.9244 N   0  0  0  0  0  0  0  0  0  0  0  0
   -1.1669   41.1798   11.5321 O   0  0  0  0  0  0  0  0  0  0  0  0
  2  1  1  1  0  0  0
  2  5  1  0  0  0  0
  2  3  1  0  0  0  0
  3  4  1  0  0  0  0
  3 10  1  0  0  0  0
  5  6  1  0  0  0  0
  6  7  1  0  0  0  0
  7  8  1  0  0  0  0
  8  9  1  0  0  0  0
M  END
>  <CHROM.1>
-66.69242252,-42.34451787,178.12497734,178.47228651,59.12001470,-2.87408637
39.26863275,9.31587919,1.12033441,1.08966946,1.31165710

>  <Name>
ligand

>  <RI>
0

>  <Rbt.Current_Directory>
/home/itssahil/PROJECTS/Mol_Feturizer/New_Systems/rnas/3DJ0

>  <Rbt.Executable>
rbdock ($Id: //depot/dev/client3/rdock/2013.1/src/exe/rbdock.cxx#4 $)

>  <Rbt.Library>
libRbt.so (2013.1, Build901 2013/11/27)

>  <Rbt.Parameter_File>
/export/apps/rDock/src/rDock_2013.1_src/data/scripts/dock_solv.prm

>  <Rbt.Receptor>
prm/blind_docking_100.prm

>  <SCORE>
-1.82533

>  <SCORE.INTER>
0.122935

>  <SCORE.INTER.CONST>
1

>  <SCORE.INTER.POLAR>
0

>  <SCORE.INTER.ROT>
5

>  <SCORE.INTER.SOLV>
6.554

>  <SCORE.INTER.VDW>
-9.03604

>  <SCORE.INTER.norm>
0.0122935

>  <SCORE.INTRA>
-1.94827

>  <SCORE.INTRA.DIHEDRAL>
-3.78704

>  <SCORE.INTRA.DIHEDRAL.0>
6.00299

>  <SCORE.INTRA.POLAR>
0

>  <SCORE.INTRA.POLAR.0>
0

>  <SCORE.INTRA.REPUL>
0

>  <SCORE.INTRA.REPUL.0>
0

>  <SCORE.INTRA.SOLV>
0.39187

>  <SCORE.INTRA.SOLV.lig_0>
-39.3257

>  <SCORE.INTRA.VDW>
-0.250681

>  <SCORE.INTRA.VDW.0>
-0.734044

>  <SCORE.INTRA.norm>
-0.194827

>  <SCORE.RESTR>
0

>  <SCORE.RESTR.CAVITY>
0

>  <SCORE.RESTR.norm>
0

>  <SCORE.SYSTEM>
0

>  <SCORE.SYSTEM.CONST>
0

>  <SCORE.SYSTEM.DIHEDRAL>
0

>  <SCORE.SYSTEM.SOLV>
0

>  <SCORE.SYSTEM.norm>
0

>  <SCORE.heavy>
10

>  <SCORE.norm>
-0.182533

>  <RMSD>
42.883

$$$$
ligand
 OpenBabel11021811473D
libRbt.so/2013.1/901 2013/11/27
 10  9  0  0  0  0  0  0  0  0999 V2000
   -3.6904   39.9879   10.5777 N   0  0  0  0  0  0  0  0  0  0  0  0
   -2.9631   40.4164   11.7579 C   0  0  2  0  0  0  0  0  0  0  0  0
   -3.8662   41.1802   12.6891 C   0  0  0  0  0  0  0  0  0  0  0  0
   -4.4489   42.2090   12.2643 O   0  0  0  0  0  0  0  0  0  0  0  0
   -1.7799   41.2785   11.3392 C   0  0  0  0  0  0  0  0  0  0  0  0
   -0.9783   40.5429   10.4184 O   0  0  0  0  0  0  0  0  0  0  0  0
    0.0441   41.4162    9.9390 C   0  0  0  0  0  0  0  0  0  0  0  0
    0.8206   40.6891    8.8432 C   0  0  0  0  0  0  0  0  0  0  0  0
   -0.0781   40.2989    7.7707 N   0  0  0  0  0  0  0  0  0  0  0  0
   -4.3647   40.5250   13.6263 O   0  0  0  0  0  0  0  0  0  0  0  0
  2  1  1  6  0  0  0
  2  5  1  0  0  0  0
  2  3  1  0  0  0  0
  3  4  1  0  0  0  0
  3 10  1  0  0  0  0
  5  6  1  0  0  0  0
  6  7  1  0  0  0  0
  7  8  1  0  0  0  0
  8  9  1  0  0  0  0
M  END
>  <CHROM.1>
-55.67237297,-57.79592858,174.24355680,-174.11682429,58.41119698,-2.15913258
40.86516916,10.95335286,2.50343077,0.37422000,1.01067090

>  <Name>
ligand

>  <RI>
0

>  <Rbt.Current_Directory>
/home/itssahil/PROJECTS/Mol_Feturizer/New_Systems/rnas/3DJ0

>  <Rbt.Executable>
rbdock ($Id: //depot/dev/client3/rdock/2013.1/src/exe/rbdock.cxx#4 $)

>  <Rbt.Library>
libRbt.so (2013.1, Build901 2013/11/27)

>  <Rbt.Parameter_File>
/export/apps/rDock/src/rDock_2013.1_src/data/scripts/dock_solv.prm

>  <Rbt.Receptor>
prm/blind_docking_100.prm

>  <SCORE>
-4.46715

>  <SCORE.INTER>
-2.84158

>  <SCORE.INTER.CONST>
1

>  <SCORE.INTER.POLAR>
0

>  <SCORE.INTER.ROT>
5

>  <SCORE.INTER.SOLV>
8.59221

>  <SCORE.INTER.VDW>
-11.6918

>  <SCORE.INTER.norm>
-0.284158

>  <SCORE.INTRA>
-1.62557

>  <SCORE.INTRA.DIHEDRAL>
-3.52372

>  <SCORE.INTRA.DIHEDRAL.0>
6.00299

>  <SCORE.INTRA.POLAR>
0

>  <SCORE.INTRA.POLAR.0>
0

>  <SCORE.INTRA.REPUL>
0

>  <SCORE.INTRA.REPUL.0>
0

>  <SCORE.INTRA.SOLV>
0.599763

>  <SCORE.INTRA.SOLV.lig_0>
-39.3257

>  <SCORE.INTRA.VDW>
-0.163585

>  <SCORE.INTRA.VDW.0>
-0.734044

>  <SCORE.INTRA.norm>
-0.162557

>  <SCORE.RESTR>
0

>  <SCORE.RESTR.CAVITY>
0

>  <SCORE.RESTR.norm>
0

>  <SCORE.SYSTEM>
0

>  <SCORE.SYSTEM.CONST>
0

>  <SCORE.SYSTEM.DIHEDRAL>
0

>  <SCORE.SYSTEM.SOLV>
0

>  <SCORE.SYSTEM.norm>
0

>  <SCORE.heavy>
10

>  <SCORE.norm>
-0.446715

>  <RMSD>
42.916

$$$$
ligand
 OpenBabel11021811473D
libRbt.so/2013.1/901 2013/11/27
 10  9  0  0  0  0  0  0  0  0999 V2000
   -3.6727   39.9834   10.6256 N   0  0  0  0  0  0  0  0  0  0  0  0
   -2.9469   40.4621   11.7873 C   0  0  2  0  0  0  0  0  0  0  0  0
   -3.8534   41.2576   12.6881 C   0  0  0  0  0  0  0  0  0  0  0  0
   -4.4276   42.2761   12.2282 O   0  0  0  0  0  0  0  0  0  0  0  0
   -1.7683   41.3128   11.3338 C   0  0  0  0  0  0  0  0  0  0  0  0
   -0.9894   40.5617   10.4061 O   0  0  0  0  0  0  0  0  0  0  0  0
    0.0472   41.4141    9.9196 C   0  0  0  0  0  0  0  0  0  0  0  0
    0.8088   40.6670    8.8268 C   0  0  0  0  0  0  0  0  0  0  0  0
   -0.0962   40.2970    7.7526 N   0  0  0  0  0  0  0  0  0  0  0  0
   -4.3623   40.6331   13.6405 O   0  0  0  0  0  0  0  0  0  0  0  0
  2  1  1  6  0  0  0
  2  5  1  0  0  0  0
  2  3  1  0  0  0  0
  3  4  1  0  0  0  0
  3 10  1  0  0  0  0
  5  6  1  0  0  0  0
  6  7  1  0  0  0  0
  7  8  1  0  0  0  0
  8  9  1  0  0  0  0
M  END
>  <CHROM.1>
-53.65388261,-58.72703064,175.63290064,-174.68189422,58.93501475,-2.15488684
40.89818046,10.95099803,2.50056488,0.38399729,0.98307230

>  <Name>
ligand

>  <RI>
0

>  <Rbt.Current_Directory>
/home/itssahil/PROJECTS/Mol_Feturizer/New_Systems/rnas/3DJ0

>  <Rbt.Executable>
rbdock ($Id: //depot/dev/client3/rdock/2013.1/src/exe/rbdock.cxx#4 $)

>  <Rbt.Library>
libRbt.so (2013.1, Build901 2013/11/27)

>  <Rbt.Parameter_File>
/export/apps/rDock/src/rDock_2013.1_src/data/scripts/dock_solv.prm

>  <Rbt.Receptor>
prm/blind_docking_80.prm

>  <SCORE>
-4.41002

>  <SCORE.INTER>
-2.79889

>  <SCORE.INTER.CONST>
1

>  <SCORE.INTER.POLAR>
0

>  <SCORE.INTER.ROT>
5

>  <SCORE.INTER.SOLV>
8.70068

>  <SCORE.INTER.VDW>
-11.6995

>  <SCORE.INTER.norm>
-0.279889

>  <SCORE.INTRA>
-1.61113

>  <SCORE.INTRA.DIHEDRAL>
-3.54025

>  <SCORE.INTRA.DIHEDRAL.0>
6.00299

>  <SCORE.INTRA.POLAR>
0

>  <SCORE.INTRA.POLAR.0>
0

>  <SCORE.INTRA.REPUL>
0

>  <SCORE.INTRA.REPUL.0>
0

>  <SCORE.INTRA.SOLV>
0.604494

>  <SCORE.INTRA.SOLV.lig_0>
-39.3257

>  <SCORE.INTRA.VDW>
-0.143252

>  <SCORE.INTRA.VDW.0>
-0.734044

>  <SCORE.INTRA.norm>
-0.161113

>  <SCORE.RESTR>
0

>  <SCORE.RESTR.CAVITY>
0

>  <SCORE.RESTR.norm>
0

>  <SCORE.SYSTEM>
0

>  <SCORE.SYSTEM.CONST>
0

>  <SCORE.SYSTEM.DIHEDRAL>
0

>  <SCORE.SYSTEM.SOLV>
0

>  <SCORE.SYSTEM.norm>
0

>  <SCORE.heavy>
10

>  <SCORE.norm>
-0.441002

>  <RMSD>
42.931

$$$$
ligand
 OpenBabel11021811473D
libRbt.so/2013.1/901 2013/11/27
 10  9  0  0  0  0  0  0  0  0999 V2000
   -2.2695   39.3763   10.0357 N   0  0  0  0  0  0  0  0  0  0  0  0
   -1.9763   40.7208   10.4957 C   0  0  2  0  0  0  0  0  0  0  0  0
   -0.5095   41.0245   10.3457 C   0  0  0  0  0  0  0  0  0  0  0  0
    0.1640   40.3752    9.5072 O   0  0  0  0  0  0  0  0  0  0  0  0
   -2.4024   40.8633   11.9505 C   0  0  0  0  0  0  0  0  0  0  0  0
   -3.8252   40.8130   12.0196 O   0  0  0  0  0  0  0  0  0  0  0  0
   -4.2014   41.0245   13.3803 C   0  0  0  0  0  0  0  0  0  0  0  0
   -5.7245   40.9617   13.4719 C   0  0  0  0  0  0  0  0  0  0  0  0
   -6.1476   41.1175   14.8528 N   0  0  0  0  0  0  0  0  0  0  0  0
   -0.1532   42.1740   10.6741 O   0  0  0  0  0  0  0  0  0  0  0  0
  2  1  1  1  0  0  0
  2  5  1  0  0  0  0
  2  3  1  0  0  0  0
  3  4  1  0  0  0  0
  3 10  1  0  0  0  0
  5  6  1  0  0  0  0
  6  7  1  0  0  0  0
  7  8  1  0  0  0  0
  8  9  1  0  0  0  0
M  END
>  <CHROM.1>
-68.54919884,23.13089562,-176.76215461,-179.53440221,177.65400763,-2.66572580
40.85617803,11.65207885,0.45099587,-0.49198035,-2.38420005

>  <Name>
ligand

>  <RI>
0

>  <Rbt.Current_Directory>
/home/itssahil/PROJECTS/Mol_Feturizer/New_Systems/rnas/3DJ0

>  <Rbt.Executable>
rbdock ($Id: //depot/dev/client3/rdock/2013.1/src/exe/rbdock.cxx#4 $)

>  <Rbt.Library>
libRbt.so (2013.1, Build901 2013/11/27)

>  <Rbt.Parameter_File>
/export/apps/rDock/src/rDock_2013.1_src/data/scripts/dock_solv.prm

>  <Rbt.Receptor>
prm/blind_docking_80.prm

>  <SCORE>
-3.18016

>  <SCORE.INTER>
-1.43363

>  <SCORE.INTER.CONST>
1

>  <SCORE.INTER.POLAR>
0

>  <SCORE.INTER.ROT>
5

>  <SCORE.INTER.SOLV>
8.34635

>  <SCORE.INTER.VDW>
-10.6712

>  <SCORE.INTER.norm>
-0.143363

>  <SCORE.INTRA>
-1.74653

>  <SCORE.INTRA.DIHEDRAL>
-2.93091

>  <SCORE.INTRA.DIHEDRAL.0>
6.00299

>  <SCORE.INTRA.POLAR>
0

>  <SCORE.INTRA.POLAR.0>
0

>  <SCORE.INTRA.REPUL>
0

>  <SCORE.INTRA.REPUL.0>
0

>  <SCORE.INTRA.SOLV>
-0.870904

>  <SCORE.INTRA.SOLV.lig_0>
-39.3257

>  <SCORE.INTRA.VDW>
0.154375

>  <SCORE.INTRA.VDW.0>
-0.734044

>  <SCORE.INTRA.norm>
-0.174653

>  <SCORE.RESTR>
0

>  <SCORE.RESTR.CAVITY>
0

>  <SCORE.RESTR.norm>
0

>  <SCORE.SYSTEM>
0

>  <SCORE.SYSTEM.CONST>
0

>  <SCORE.SYSTEM.DIHEDRAL>
0

>  <SCORE.SYSTEM.SOLV>
0

>  <SCORE.SYSTEM.norm>
0

>  <SCORE.heavy>
10

>  <SCORE.norm>
-0.318016

>  <RMSD>
43.035

$$$$
ligand
 OpenBabel11021811473D
libRbt.so/2013.1/901 2013/11/27
 10  9  0  0  0  0  0  0  0  0999 V2000
   -3.9624   39.9040   10.3498 N   0  0  0  0  0  0  0  0  0  0  0  0
   -3.4108   40.1918   11.6607 C   0  0  2  0  0  0  0  0  0  0  0  0
   -4.4820   40.7040   12.5859 C   0  0  0  0  0  0  0  0  0  0  0  0
   -5.3578   41.4820   12.1319 O   0  0  0  0  0  0  0  0  0  0  0  0
   -2.2911   41.2149   11.5262 C   0  0  0  0  0  0  0  0  0  0  0  0
   -1.3183   40.7141   10.6126 O   0  0  0  0  0  0  0  0  0  0  0  0
   -0.2992   41.7046   10.4778 C   0  0  0  0  0  0  0  0  0  0  0  0
    0.6816   41.2400    9.4033 C   0  0  0  0  0  0  0  0  0  0  0  0
    1.7371   42.2233    9.2332 N   0  0  0  0  0  0  0  0  0  0  0  0
   -4.7383   39.9877   13.5746 O   0  0  0  0  0  0  0  0  0  0  0  0
  2  1  1  6  0  0  0
  2  5  1  0  0  0  0
  2  3  1  0  0  0  0
  3  4  1  0  0  0  0
  3 10  1  0  0  0  0
  5  6  1  0  0  0  0
  6  7  1  0  0  0  0
  7  8  1  0  0  0  0
  8  9  1  0  0  0  0
M  END
>  <CHROM.1>
-56.19157738,-38.65350541,178.52081264,-174.72508077,179.93276100,-2.38203701
40.93487530,11.18149883,2.77404019,0.36219562,1.20260035

>  <Name>
ligand

>  <RI>
0

>  <Rbt.Current_Directory>
/home/itssahil/PROJECTS/Mol_Feturizer/New_Systems/rnas/3DJ0

>  <Rbt.Executable>
rbdock ($Id: //depot/dev/client3/rdock/2013.1/src/exe/rbdock.cxx#4 $)

>  <Rbt.Library>
libRbt.so (2013.1, Build901 2013/11/27)

>  <Rbt.Parameter_File>
/export/apps/rDock/src/rDock_2013.1_src/data/scripts/dock_solv.prm

>  <Rbt.Receptor>
prm/blind_docking_100.prm

>  <SCORE>
-3.66217

>  <SCORE.INTER>
-1.33237

>  <SCORE.INTER.CONST>
1

>  <SCORE.INTER.POLAR>
0

>  <SCORE.INTER.ROT>
5

>  <SCORE.INTER.SOLV>
9.87834

>  <SCORE.INTER.VDW>
-11.1144

>  <SCORE.INTER.norm>
-0.133237

>  <SCORE.INTRA>
-2.3298

>  <SCORE.INTRA.DIHEDRAL>
-3.74438

>  <SCORE.INTRA.DIHEDRAL.0>
6.00299

>  <SCORE.INTRA.POLAR>
0

>  <SCORE.INTRA.POLAR.0>
0

>  <SCORE.INTRA.REPUL>
0

>  <SCORE.INTRA.REPUL.0>
0

>  <SCORE.INTRA.SOLV>
-0.622309

>  <SCORE.INTRA.SOLV.lig_0>
-39.3257

>  <SCORE.INTRA.VDW>
-0.146454

>  <SCORE.INTRA.VDW.0>
-0.734044

>  <SCORE.INTRA.norm>
-0.23298

>  <SCORE.RESTR>
0

>  <SCORE.RESTR.CAVITY>
0

>  <SCORE.RESTR.norm>
0

>  <SCORE.SYSTEM>
0

>  <SCORE.SYSTEM.CONST>
0

>  <SCORE.SYSTEM.DIHEDRAL>
0

>  <SCORE.SYSTEM.SOLV>
0

>  <SCORE.SYSTEM.norm>
0

>  <SCORE.heavy>
10

>  <SCORE.norm>
-0.366217

>  <RMSD>
43.127

$$$$
ligand
 OpenBabel11021811473D
libRbt.so/2013.1/901 2013/11/27
 10  9  0  0  0  0  0  0  0  0999 V2000
   -4.0517   39.9703   10.3729 N   0  0  0  0  0  0  0  0  0  0  0  0
   -3.4650   40.2095   11.6783 C   0  0  2  0  0  0  0  0  0  0  0  0
   -4.5043   40.7170   12.6418 C   0  0  0  0  0  0  0  0  0  0  0  0
   -5.3745   41.5239   12.2293 O   0  0  0  0  0  0  0  0  0  0  0  0
   -2.3273   41.2128   11.5467 C   0  0  0  0  0  0  0  0  0  0  0  0
   -1.3753   40.7085   10.6134 O   0  0  0  0  0  0  0  0  0  0  0  0
   -0.3317   41.6749   10.4927 C   0  0  0  0  0  0  0  0  0  0  0  0
    0.6346   41.2040    9.4080 C   0  0  0  0  0  0  0  0  0  0  0  0
    1.7170   42.1606    9.2552 N   0  0  0  0  0  0  0  0  0  0  0  0
   -4.7520   39.9794   13.6168 O   0  0  0  0  0  0  0  0  0  0  0  0
  2  1  1  6  0  0  0
  2  5  1  0  0  0  0
  2  3  1  0  0  0  0
  3  4  1  0  0  0  0
  3 10  1  0  0  0  0
  5  6  1  0  0  0  0
  6  7  1  0  0  0  0
  7  8  1  0  0  0  0
  8  9  1  0  0  0  0
M  END
>  <CHROM.1>
-57.10311741,-38.55119354,179.11261184,-175.22987432,-179.85326948,-2.42054790
40.93449318,11.21199051,2.74793096,0.33747496,1.24897240

>  <Name>
ligand

>  <RI>
0

>  <Rbt.Current_Directory>
/home/itssahil/PROJECTS/Mol_Feturizer/New_Systems/rnas/3DJ0

>  <Rbt.Executable>
rbdock ($Id: //depot/dev/client3/rdock/2013.1/src/exe/rbdock.cxx#4 $)

>  <Rbt.Library>
libRbt.so (2013.1, Build901 2013/11/27)

>  <Rbt.Parameter_File>
/export/apps/rDock/src/rDock_2013.1_src/data/scripts/dock_solv.prm

>  <Rbt.Receptor>
prm/blind_docking_100.prm

>  <SCORE>
-3.66231

>  <SCORE.INTER>
-1.29528

>  <SCORE.INTER.CONST>
1

>  <SCORE.INTER.POLAR>
0

>  <SCORE.INTER.ROT>
5

>  <SCORE.INTER.SOLV>
9.97471

>  <SCORE.INTER.VDW>
-11.1218

>  <SCORE.INTER.norm>
-0.129528

>  <SCORE.INTRA>
-2.36703

>  <SCORE.INTRA.DIHEDRAL>
-3.7975

>  <SCORE.INTRA.DIHEDRAL.0>
6.00299

>  <SCORE.INTRA.POLAR>
0

>  <SCORE.INTRA.POLAR.0>
0

>  <SCORE.INTRA.REPUL>
0

>  <SCORE.INTRA.REPUL.0>
0

>  <SCORE.INTRA.SOLV>
-0.634942

>  <SCORE.INTRA.SOLV.lig_0>
-39.3257

>  <SCORE.INTRA.VDW>
-0.150809

>  <SCORE.INTRA.VDW.0>
-0.734044

>  <SCORE.INTRA.norm>
-0.236703

>  <SCORE.RESTR>
0

>  <SCORE.RESTR.CAVITY>
0

>  <SCORE.RESTR.norm>
0

>  <SCORE.SYSTEM>
0

>  <SCORE.SYSTEM.CONST>
0

>  <SCORE.SYSTEM.DIHEDRAL>
0

>  <SCORE.SYSTEM.SOLV>
0

>  <SCORE.SYSTEM.norm>
0

>  <SCORE.heavy>
10

>  <SCORE.norm>
-0.366231

>  <RMSD>
43.149

$$$$
ligand
 OpenBabel11021811473D
libRbt.so/2013.1/901 2013/11/27
 10  9  0  0  0  0  0  0  0  0999 V2000
   -3.8245   39.0951   11.2032 N   0  0  0  0  0  0  0  0  0  0  0  0
   -3.7958   40.4752   11.6504 C   0  0  2  0  0  0  0  0  0  0  0  0
   -4.5831   41.3524   10.7141 C   0  0  0  0  0  0  0  0  0  0  0  0
   -4.7402   40.9849    9.5230 O   0  0  0  0  0  0  0  0  0  0  0  0
   -2.3518   40.9505   11.7359 C   0  0  0  0  0  0  0  0  0  0  0  0
   -1.7359   40.7811   10.4617 O   0  0  0  0  0  0  0  0  0  0  0  0
   -0.4211   41.3315   10.5385 C   0  0  0  0  0  0  0  0  0  0  0  0
    0.2592   41.1384    9.1849 C   0  0  0  0  0  0  0  0  0  0  0  0
    1.5760   41.7516    9.1969 N   0  0  0  0  0  0  0  0  0  0  0  0
   -5.4198   42.1083   11.2475 O   0  0  0  0  0  0  0  0  0  0  0  0
  2  1  1  6  0  0  0
  2  5  1  0  0  0  0
  2  3  1  0  0  0  0
  3  4  1  0  0  0  0
  3 10  1  0  0  0  0
  5  6  1  0  0  0  0
  6  7  1  0  0  0  0
  7  8  1  0  0  0  0
  8  9  1  0  0  0  0
M  END
>  <CHROM.1>
56.90424533,-24.73964253,175.41849119,179.17238211,176.86783963,-2.54052488
41.01031430,10.53126606,-2.93096701,0.13836796,-0.73458174

>  <Name>
ligand

>  <RI>
0

>  <Rbt.Current_Directory>
/home/itssahil/PROJECTS/Mol_Feturizer/New_Systems/rnas/3DJ0

>  <Rbt.Executable>
rbdock ($Id: //depot/dev/client3/rdock/2013.1/src/exe/rbdock.cxx#4 $)

>  <Rbt.Library>
libRbt.so (2013.1, Build901 2013/11/27)

>  <Rbt.Parameter_File>
/export/apps/rDock/src/rDock_2013.1_src/data/scripts/dock_solv.prm

>  <Rbt.Receptor>
prm/blind_docking_80.prm

>  <SCORE>
-4.13596

>  <SCORE.INTER>
-1.95349

>  <SCORE.INTER.CONST>
1

>  <SCORE.INTER.POLAR>
0

>  <SCORE.INTER.ROT>
5

>  <SCORE.INTER.SOLV>
9.75285

>  <SCORE.INTER.VDW>
-11.4866

>  <SCORE.INTER.norm>
-0.195349

>  <SCORE.INTRA>
-2.18247

>  <SCORE.INTRA.DIHEDRAL>
-3.56061

>  <SCORE.INTRA.DIHEDRAL.0>
6.00299

>  <SCORE.INTRA.POLAR>
0

>  <SCORE.INTRA.POLAR.0>
0

>  <SCORE.INTRA.REPUL>
0

>  <SCORE.INTRA.REPUL.0>
0

>  <SCORE.INTRA.SOLV>
-0.30113

>  <SCORE.INTRA.SOLV.lig_0>
-39.3257

>  <SCORE.INTRA.VDW>
-0.251598

>  <SCORE.INTRA.VDW.0>
-0.734044

>  <SCORE.INTRA.norm>
-0.218247

>  <SCORE.RESTR>
0

>  <SCORE.RESTR.CAVITY>
0

>  <SCORE.RESTR.norm>
0

>  <SCORE.SYSTEM>
0

>  <SCORE.SYSTEM.CONST>
0

>  <SCORE.SYSTEM.DIHEDRAL>
0

>  <SCORE.SYSTEM.SOLV>
0

>  <SCORE.SYSTEM.norm>
0

>  <SCORE.heavy>
10

>  <SCORE.norm>
-0.413596

>  <RMSD>
43.419

$$$$
ligand
 OpenBabel11021811473D
libRbt.so/2013.1/901 2013/11/27
 10  9  0  0  0  0  0  0  0  0999 V2000
   -4.2707   40.0782   12.4194 N   0  0  0  0  0  0  0  0  0  0  0  0
   -3.3899   41.2079   12.1886 C   0  0  2  0  0  0  0  0  0  0  0  0
   -4.1117   42.2998   11.4449 C   0  0  0  0  0  0  0  0  0  0  0  0
   -5.0653   41.9925   10.6869 O   0  0  0  0  0  0  0  0  0  0  0  0
   -2.1694   40.7473   11.4034 C   0  0  0  0  0  0  0  0  0  0  0  0
   -1.3259   41.8710   11.1640 O   0  0  0  0  0  0  0  0  0  0  0  0
   -0.2544   41.4386   10.3258 C   0  0  0  0  0  0  0  0  0  0  0  0
    0.5546   42.6656    9.9107 C   0  0  0  0  0  0  0  0  0  0  0  0
    1.6524   42.2695    9.0458 N   0  0  0  0  0  0  0  0  0  0  0  0
   -4.0688   43.4340   11.9626 O   0  0  0  0  0  0  0  0  0  0  0  0
  2  1  1  6  0  0  0
  2  5  1  0  0  0  0
  2  3  1  0  0  0  0
  3  4  1  0  0  0  0
  3 10  1  0  0  0  0
  5  6  1  0  0  0  0
  6  7  1  0  0  0  0
  7  8  1  0  0  0  0
  8  9  1  0  0  0  0
M  END
>  <CHROM.1>
178.98414080,-27.53724130,-174.83158827,172.67681372,-179.57267242,-2.27509115
41.82721907,11.05350680,-2.94220477,0.32406719,-0.35240047

>  <Name>
ligand

>  <RI>
0

>  <Rbt.Current_Directory>
/home/itssahil/PROJECTS/Mol_Feturizer/New_Systems/rnas/3DJ0

>  <Rbt.Executable>
rbdock ($Id: //depot/dev/client3/rdock/2013.1/src/exe/rbdock.cxx#4 $)

>  <Rbt.Library>
libRbt.so (2013.1, Build901 2013/11/27)

>  <Rbt.Parameter_File>
/export/apps/rDock/src/rDock_2013.1_src/data/scripts/dock_solv.prm

>  <Rbt.Receptor>
prm/blind_docking_80.prm

>  <SCORE>
-6.04179

>  <SCORE.INTER>
-3.58977

>  <SCORE.INTER.CONST>
1

>  <SCORE.INTER.POLAR>
0

>  <SCORE.INTER.ROT>
5

>  <SCORE.INTER.SOLV>
11.5783

>  <SCORE.INTER.VDW>
-13.1859

>  <SCORE.INTER.norm>
-0.358977

>  <SCORE.INTRA>
-2.45203

>  <SCORE.INTRA.DIHEDRAL>
-3.39279

>  <SCORE.INTRA.DIHEDRAL.0>
6.00299

>  <SCORE.INTRA.POLAR>
0

>  <SCORE.INTRA.POLAR.0>
0

>  <SCORE.INTRA.REPUL>
0

>  <SCORE.INTRA.REPUL.0>
0

>  <SCORE.INTRA.SOLV>
-1.26786

>  <SCORE.INTRA.SOLV.lig_0>
-39.3257

>  <SCORE.INTRA.VDW>
-0.121697

>  <SCORE.INTRA.VDW.0>
-0.734044

>  <SCORE.INTRA.norm>
-0.245203

>  <SCORE.RESTR>
0

>  <SCORE.RESTR.CAVITY>
0

>  <SCORE.RESTR.norm>
0

>  <SCORE.SYSTEM>
0

>  <SCORE.SYSTEM.CONST>
0

>  <SCORE.SYSTEM.DIHEDRAL>
0

>  <SCORE.SYSTEM.SOLV>
0

>  <SCORE.SYSTEM.norm>
0

>  <SCORE.heavy>
10

>  <SCORE.norm>
-0.604179

>  <RMSD>
43.563

$$$$
ligand
 OpenBabel11021811473D
libRbt.so/2013.1/901 2013/11/27
 10  9  0  0  0  0  0  0  0  0999 V2000
   -4.2883   40.0553   12.4187 N   0  0  0  0  0  0  0  0  0  0  0  0
   -3.4190   41.1913   12.1751 C   0  0  2  0  0  0  0  0  0  0  0  0
   -4.1454   42.2584   11.4007 C   0  0  0  0  0  0  0  0  0  0  0  0
   -5.0424   41.9180   10.5895 O   0  0  0  0  0  0  0  0  0  0  0  0
   -2.1834   40.7304   11.4141 C   0  0  0  0  0  0  0  0  0  0  0  0
   -1.3607   41.8628   11.1446 O   0  0  0  0  0  0  0  0  0  0  0  0
   -0.2674   41.4230   10.3390 C   0  0  0  0  0  0  0  0  0  0  0  0
    0.5416   42.6482    9.9187 C   0  0  0  0  0  0  0  0  0  0  0  0
    1.6940   42.2395    9.1345 N   0  0  0  0  0  0  0  0  0  0  0  0
   -4.1795   43.3885   11.9277 O   0  0  0  0  0  0  0  0  0  0  0  0
  2  1  1  6  0  0  0
  2  5  1  0  0  0  0
  2  3  1  0  0  0  0
  3  4  1  0  0  0  0
  3 10  1  0  0  0  0
  5  6  1  0  0  0  0
  6  7  1  0  0  0  0
  7  8  1  0  0  0  0
  8  9  1  0  0  0  0
M  END
>  <CHROM.1>
178.14309164,-30.94197164,-175.36622885,174.08668953,177.97852982,-2.29593854
41.79773986,11.04311425,-2.93981932,0.30506835,-0.37234785

>  <Name>
ligand

>  <RI>
0

>  <Rbt.Current_Directory>
/home/itssahil/PROJECTS/Mol_Feturizer/New_Systems/rnas/3DJ0

>  <Rbt.Executable>
rbdock ($Id: //depot/dev/client3/rdock/2013.1/src/exe/rbdock.cxx#4 $)

>  <Rbt.Library>
libRbt.so (2013.1, Build901 2013/11/27)

>  <Rbt.Parameter_File>
/export/apps/rDock/src/rDock_2013.1_src/data/scripts/dock_solv.prm

>  <Rbt.Receptor>
prm/blind_docking_100.prm

>  <SCORE>
-6.05759

>  <SCORE.INTER>
-3.55554

>  <SCORE.INTER.CONST>
1

>  <SCORE.INTER.POLAR>
0

>  <SCORE.INTER.ROT>
5

>  <SCORE.INTER.SOLV>
11.3902

>  <SCORE.INTER.VDW>
-13.1004

>  <SCORE.INTER.norm>
-0.355554

>  <SCORE.INTRA>
-2.50205

>  <SCORE.INTRA.DIHEDRAL>
-3.54375

>  <SCORE.INTRA.DIHEDRAL.0>
6.00299

>  <SCORE.INTRA.POLAR>
0

>  <SCORE.INTRA.POLAR.0>
0

>  <SCORE.INTRA.REPUL>
0

>  <SCORE.INTRA.REPUL.0>
0

>  <SCORE.INTRA.SOLV>
-1.26338

>  <SCORE.INTRA.SOLV.lig_0>
-39.3257

>  <SCORE.INTRA.VDW>
-0.0984799

>  <SCORE.INTRA.VDW.0>
-0.734044

>  <SCORE.INTRA.norm>
-0.250205

>  <SCORE.RESTR>
0

>  <SCORE.RESTR.CAVITY>
0

>  <SCORE.RESTR.norm>
0

>  <SCORE.SYSTEM>
0

>  <SCORE.SYSTEM.CONST>
0

>  <SCORE.SYSTEM.DIHEDRAL>
0

>  <SCORE.SYSTEM.SOLV>
0

>  <SCORE.SYSTEM.norm>
0

>  <SCORE.heavy>
10

>  <SCORE.norm>
-0.605759

>  <RMSD>
43.565

$$$$
ligand
 OpenBabel11021811473D
libRbt.so/2013.1/901 2013/11/27
 10  9  0  0  0  0  0  0  0  0999 V2000
   -3.3565   38.4938    6.7315 N   0  0  0  0  0  0  0  0  0  0  0  0
   -3.8022   38.7326    8.0916 C   0  0  2  0  0  0  0  0  0  0  0  0
   -5.1720   39.3570    8.0987 C   0  0  0  0  0  0  0  0  0  0  0  0
   -5.7983   39.4386    9.1847 O   0  0  0  0  0  0  0  0  0  0  0  0
   -2.8029   39.6358    8.8015 C   0  0  0  0  0  0  0  0  0  0  0  0
   -3.1593   39.7223   10.1789 O   0  0  0  0  0  0  0  0  0  0  0  0
   -2.1887   40.5437   10.8276 C   0  0  0  0  0  0  0  0  0  0  0  0
   -2.5620   40.6515   12.3045 C   0  0  0  0  0  0  0  0  0  0  0  0
   -3.8930   41.2167   12.4421 N   0  0  0  0  0  0  0  0  0  0  0  0
   -5.4063   40.1707    7.1826 O   0  0  0  0  0  0  0  0  0  0  0  0
  2  1  1  6  0  0  0
  2  5  1  0  0  0  0
  2  3  1  0  0  0  0
  3  4  1  0  0  0  0
  3 10  1  0  0  0  0
  5  6  1  0  0  0  0
  6  7  1  0  0  0  0
  7  8  1  0  0  0  0
  8  9  1  0  0  0  0
M  END
>  <CHROM.1>
-172.62211458,168.91034097,178.47928934,179.71532386,-58.66595153,-3.84474324
39.80597752,9.38035672,-1.91901883,-0.15999141,1.18385059

>  <Name>
ligand

>  <RI>
0

>  <Rbt.Current_Directory>
/home/itssahil/PROJECTS/Mol_Feturizer/New_Systems/rnas/3DJ0

>  <Rbt.Executable>
rbdock ($Id: //depot/dev/client3/rdock/2013.1/src/exe/rbdock.cxx#4 $)

>  <Rbt.Library>
libRbt.so (2013.1, Build901 2013/11/27)

>  <Rbt.Parameter_File>
/export/apps/rDock/src/rDock_2013.1_src/data/scripts/dock_solv.prm

>  <Rbt.Receptor>
prm/blind_docking_100.prm

>  <SCORE>
-2.08828

>  <SCORE.INTER>
-0.218685

>  <SCORE.INTER.CONST>
1

>  <SCORE.INTER.POLAR>
0

>  <SCORE.INTER.ROT>
5

>  <SCORE.INTER.SOLV>
6.65772

>  <SCORE.INTER.VDW>
-9.29836

>  <SCORE.INTER.norm>
-0.0218685

>  <SCORE.INTRA>
-1.8696

>  <SCORE.INTRA.DIHEDRAL>
-3.50972

>  <SCORE.INTRA.DIHEDRAL.0>
6.00299

>  <SCORE.INTRA.POLAR>
0

>  <SCORE.INTRA.POLAR.0>
0

>  <SCORE.INTRA.REPUL>
0

>  <SCORE.INTRA.REPUL.0>
0

>  <SCORE.INTRA.SOLV>
0.0506288

>  <SCORE.INTRA.SOLV.lig_0>
-39.3257

>  <SCORE.INTRA.VDW>
-0.140052

>  <SCORE.INTRA.VDW.0>
-0.734044

>  <SCORE.INTRA.norm>
-0.18696

>  <SCORE.RESTR>
0

>  <SCORE.RESTR.CAVITY>
0

>  <SCORE.RESTR.norm>
0

>  <SCORE.SYSTEM>
0

>  <SCORE.SYSTEM.CONST>
0

>  <SCORE.SYSTEM.DIHEDRAL>
0

>  <SCORE.SYSTEM.SOLV>
0

>  <SCORE.SYSTEM.norm>
0

>  <SCORE.heavy>
10

>  <SCORE.norm>
-0.208828

>  <RMSD>
44.035

$$$$
ligand
 OpenBabel11021811473D
libRbt.so/2013.1/901 2013/11/27
 10  9  0  0  0  0  0  0  0  0999 V2000
   -3.6660   39.6073   10.3801 N   0  0  0  0  0  0  0  0  0  0  0  0
   -3.3244   40.9545   10.7972 C   0  0  2  0  0  0  0  0  0  0  0  0
   -2.2574   40.9263   11.8587 C   0  0  0  0  0  0  0  0  0  0  0  0
   -2.3759   40.1262   12.8200 O   0  0  0  0  0  0  0  0  0  0  0  0
   -4.5719   41.6564   11.3161 C   0  0  0  0  0  0  0  0  0  0  0  0
   -5.1655   40.8490   12.3297 O   0  0  0  0  0  0  0  0  0  0  0  0
   -6.3296   41.5285   12.7996 C   0  0  0  0  0  0  0  0  0  0  0  0
   -7.0382   40.6252   13.8067 C   0  0  0  0  0  0  0  0  0  0  0  0
   -6.1776   40.3843   14.9519 N   0  0  0  0  0  0  0  0  0  0  0  0
   -1.1245   41.3105   11.5050 O   0  0  0  0  0  0  0  0  0  0  0  0
  2  1  1  1  0  0  0
  2  5  1  0  0  0  0
  2  3  1  0  0  0  0
  3  4  1  0  0  0  0
  3 10  1  0  0  0  0
  5  6  1  0  0  0  0
  6  7  1  0  0  0  0
  7  8  1  0  0  0  0
  8  9  1  0  0  0  0
M  END
>  <CHROM.1>
53.81527993,-46.43275246,179.93524900,175.55257965,62.61238693,-4.16866149
40.79361453,12.26779984,0.49460082,0.07234493,-1.44308394

>  <Name>
ligand

>  <RI>
0

>  <Rbt.Current_Directory>
/home/itssahil/PROJECTS/Mol_Feturizer/New_Systems/rnas/3DJ0

>  <Rbt.Executable>
rbdock ($Id: //depot/dev/client3/rdock/2013.1/src/exe/rbdock.cxx#4 $)

>  <Rbt.Library>
libRbt.so (2013.1, Build901 2013/11/27)

>  <Rbt.Parameter_File>
/export/apps/rDock/src/rDock_2013.1_src/data/scripts/dock_solv.prm

>  <Rbt.Receptor>
prm/blind_docking_80.prm

>  <SCORE>
-1.97338

>  <SCORE.INTER>
-0.17264

>  <SCORE.INTER.CONST>
1

>  <SCORE.INTER.POLAR>
0

>  <SCORE.INTER.ROT>
5

>  <SCORE.INTER.SOLV>
6.0459

>  <SCORE.INTER.VDW>
-9.06373

>  <SCORE.INTER.norm>
-0.017264

>  <SCORE.INTRA>
-1.80074

>  <SCORE.INTRA.DIHEDRAL>
-3.73312

>  <SCORE.INTRA.DIHEDRAL.0>
6.00299

>  <SCORE.INTRA.POLAR>
0

>  <SCORE.INTRA.POLAR.0>
0

>  <SCORE.INTRA.REPUL>
0

>  <SCORE.INTRA.REPUL.0>
0

>  <SCORE.INTRA.SOLV>
0.87648

>  <SCORE.INTRA.SOLV.lig_0>
-39.3257

>  <SCORE.INTRA.VDW>
-0.372418

>  <SCORE.INTRA.VDW.0>
-0.734044

>  <SCORE.INTRA.norm>
-0.180074

>  <SCORE.RESTR>
0

>  <SCORE.RESTR.CAVITY>
0

>  <SCORE.RESTR.norm>
0

>  <SCORE.SYSTEM>
0

>  <SCORE.SYSTEM.CONST>
0

>  <SCORE.SYSTEM.DIHEDRAL>
0

>  <SCORE.SYSTEM.SOLV>
0

>  <SCORE.SYSTEM.norm>
0

>  <SCORE.heavy>
10

>  <SCORE.norm>
-0.197338

>  <RMSD>
44.048

$$$$
ligand
 OpenBabel11021811473D
libRbt.so/2013.1/901 2013/11/27
 10  9  0  0  0  0  0  0  0  0999 V2000
   -3.0973   40.0726   11.9062 N   0  0  0  0  0  0  0  0  0  0  0  0
   -3.8246   41.3192   11.7558 C   0  0  2  0  0  0  0  0  0  0  0  0
   -4.3636   41.7820   13.0830 C   0  0  0  0  0  0  0  0  0  0  0  0
   -4.5763   43.0075   13.2598 O   0  0  0  0  0  0  0  0  0  0  0  0
   -4.9595   41.1270   10.7591 C   0  0  0  0  0  0  0  0  0  0  0  0
   -4.4235   40.5998    9.5482 O   0  0  0  0  0  0  0  0  0  0  0  0
   -5.5174   40.3196    8.6750 C   0  0  0  0  0  0  0  0  0  0  0  0
   -4.9669   39.6553    7.4149 C   0  0  0  0  0  0  0  0  0  0  0  0
   -4.2338   38.4514    7.7659 N   0  0  0  0  0  0  0  0  0  0  0  0
   -5.0113   40.9378   13.7341 O   0  0  0  0  0  0  0  0  0  0  0  0
  2  1  1  1  0  0  0
  2  5  1  0  0  0  0
  2  3  1  0  0  0  0
  3  4  1  0  0  0  0
  3 10  1  0  0  0  0
  5  6  1  0  0  0  0
  6  7  1  0  0  0  0
  7  8  1  0  0  0  0
  8  9  1  0  0  0  0
M  END
>  <CHROM.1>
-53.92271140,154.28399486,175.01773872,-175.75023793,57.46942629,-4.51039922
40.74847238,10.82478625,-1.48995657,0.89980370,-2.05876406

>  <Name>
ligand

>  <RI>
0

>  <Rbt.Current_Directory>
/home/itssahil/PROJECTS/Mol_Feturizer/New_Systems/rnas/3DJ0

>  <Rbt.Executable>
rbdock ($Id: //depot/dev/client3/rdock/2013.1/src/exe/rbdock.cxx#4 $)

>  <Rbt.Library>
libRbt.so (2013.1, Build901 2013/11/27)

>  <Rbt.Parameter_File>
/export/apps/rDock/src/rDock_2013.1_src/data/scripts/dock_solv.prm

>  <Rbt.Receptor>
prm/blind_docking_80.prm

>  <SCORE>
-1.72358

>  <SCORE.INTER>
-0.369911

>  <SCORE.INTER.CONST>
1

>  <SCORE.INTER.POLAR>
0

>  <SCORE.INTER.ROT>
5

>  <SCORE.INTER.SOLV>
5.72821

>  <SCORE.INTER.VDW>
-9.08934

>  <SCORE.INTER.norm>
-0.0369911

>  <SCORE.INTRA>
-1.35367

>  <SCORE.INTRA.DIHEDRAL>
-3.05994

>  <SCORE.INTRA.DIHEDRAL.0>
6.00299

>  <SCORE.INTRA.POLAR>
0

>  <SCORE.INTRA.POLAR.0>
0

>  <SCORE.INTRA.REPUL>
0

>  <SCORE.INTRA.REPUL.0>
0

>  <SCORE.INTRA.SOLV>
0.471227

>  <SCORE.INTRA.SOLV.lig_0>
-39.3257

>  <SCORE.INTRA.VDW>
-0.0593173

>  <SCORE.INTRA.VDW.0>
-0.734044

>  <SCORE.INTRA.norm>
-0.135367

>  <SCORE.RESTR>
0

>  <SCORE.RESTR.CAVITY>
0

>  <SCORE.RESTR.norm>
0

>  <SCORE.SYSTEM>
0

>  <SCORE.SYSTEM.CONST>
0

>  <SCORE.SYSTEM.DIHEDRAL>
0

>  <SCORE.SYSTEM.SOLV>
0

>  <SCORE.SYSTEM.norm>
0

>  <SCORE.heavy>
10

>  <SCORE.norm>
-0.172358

>  <RMSD>
44.603

$$$$
ligand
 OpenBabel11021811473D
libRbt.so/2013.1/901 2013/11/27
 10  9  0  0  0  0  0  0  0  0999 V2000
   -4.3912   38.0624    6.8303 N   0  0  0  0  0  0  0  0  0  0  0  0
   -4.1536   38.9458    7.9567 C   0  0  2  0  0  0  0  0  0  0  0  0
   -4.2123   38.1810    9.2519 C   0  0  0  0  0  0  0  0  0  0  0  0
   -5.2065   37.4479    9.4816 O   0  0  0  0  0  0  0  0  0  0  0  0
   -5.1879   40.0631    7.9518 C   0  0  0  0  0  0  0  0  0  0  0  0
   -4.8721   40.9863    8.9909 O   0  0  0  0  0  0  0  0  0  0  0  0
   -5.8386   42.0359    8.9475 C   0  0  0  0  0  0  0  0  0  0  0  0
   -5.5433   43.0069   10.0886 C   0  0  0  0  0  0  0  0  0  0  0  0
   -5.5486   42.3007   11.3580 N   0  0  0  0  0  0  0  0  0  0  0  0
   -3.1143   37.9256    9.7859 O   0  0  0  0  0  0  0  0  0  0  0  0
  2  1  1  6  0  0  0
  2  5  1  0  0  0  0
  2  3  1  0  0  0  0
  3  4  1  0  0  0  0
  3 10  1  0  0  0  0
  5  6  1  0  0  0  0
  6  7  1  0  0  0  0
  7  8  1  0  0  0  0
  8  9  1  0  0  0  0
M  END
>  <CHROM.1>
-174.93559092,-51.14173865,178.83744541,177.94411824,-56.72908040,-4.79870462
39.86856098,9.08533228,0.61089571,1.22555475,-1.88439089

>  <Name>
ligand

>  <RI>
0

>  <Rbt.Current_Directory>
/home/itssahil/PROJECTS/Mol_Feturizer/New_Systems/rnas/3DJ0

>  <Rbt.Executable>
rbdock ($Id: //depot/dev/client3/rdock/2013.1/src/exe/rbdock.cxx#4 $)

>  <Rbt.Library>
libRbt.so (2013.1, Build901 2013/11/27)

>  <Rbt.Parameter_File>
/export/apps/rDock/src/rDock_2013.1_src/data/scripts/dock_solv.prm

>  <Rbt.Receptor>
prm/blind_docking_80.prm

>  <SCORE>
-1.4039

>  <SCORE.INTER>
0.791229

>  <SCORE.INTER.CONST>
1

>  <SCORE.INTER.POLAR>
0

>  <SCORE.INTER.ROT>
5

>  <SCORE.INTER.SOLV>
9.46104

>  <SCORE.INTER.VDW>
-9.55953

>  <SCORE.INTER.norm>
0.0791229

>  <SCORE.INTRA>
-2.19513

>  <SCORE.INTRA.DIHEDRAL>
-3.81991

>  <SCORE.INTRA.DIHEDRAL.0>
6.00299

>  <SCORE.INTRA.POLAR>
0

>  <SCORE.INTRA.POLAR.0>
0

>  <SCORE.INTRA.REPUL>
0

>  <SCORE.INTRA.REPUL.0>
0

>  <SCORE.INTRA.SOLV>
-0.114048

>  <SCORE.INTRA.SOLV.lig_0>
-39.3257

>  <SCORE.INTRA.VDW>
-0.228148

>  <SCORE.INTRA.VDW.0>
-0.734044

>  <SCORE.INTRA.norm>
-0.219513

>  <SCORE.RESTR>
0

>  <SCORE.RESTR.CAVITY>
0

>  <SCORE.RESTR.norm>
0

>  <SCORE.SYSTEM>
0

>  <SCORE.SYSTEM.CONST>
0

>  <SCORE.SYSTEM.DIHEDRAL>
0

>  <SCORE.SYSTEM.SOLV>
0

>  <SCORE.SYSTEM.norm>
0

>  <SCORE.heavy>
10

>  <SCORE.norm>
-0.14039

>  <RMSD>
44.903

$$$$
ligand
 OpenBabel11021811473D
libRbt.so/2013.1/901 2013/11/27
 10  9  0  0  0  0  0  0  0  0999 V2000
   -4.9845   38.4621    9.5632 N   0  0  0  0  0  0  0  0  0  0  0  0
   -5.5403   39.6640    8.9698 C   0  0  2  0  0  0  0  0  0  0  0  0
   -5.2557   39.7062    7.4922 C   0  0  0  0  0  0  0  0  0  0  0  0
   -4.1217   39.3559    7.0803 O   0  0  0  0  0  0  0  0  0  0  0  0
   -4.9532   40.8881    9.6592 C   0  0  0  0  0  0  0  0  0  0  0  0
   -5.2931   40.8436   11.0427 O   0  0  0  0  0  0  0  0  0  0  0  0
   -4.7798   42.0270   11.6540 C   0  0  0  0  0  0  0  0  0  0  0  0
   -5.0795   41.9623   13.1501 C   0  0  0  0  0  0  0  0  0  0  0  0
   -4.5839   43.1579   13.8098 N   0  0  0  0  0  0  0  0  0  0  0  0
   -6.2475   39.6093    6.7418 O   0  0  0  0  0  0  0  0  0  0  0  0
  2  1  1  1  0  0  0
  2  5  1  0  0  0  0
  2  3  1  0  0  0  0
  3  4  1  0  0  0  0
  3 10  1  0  0  0  0
  5  6  1  0  0  0  0
  6  7  1  0  0  0  0
  7  8  1  0  0  0  0
  8  9  1  0  0  0  0
M  END
>  <CHROM.1>
-60.54688815,-41.48165154,-177.64178788,-177.38955403,-179.42940302,-5.08523712
40.55397267,9.87252313,-2.10182102,-1.44288924,0.55190464

>  <Name>
ligand

>  <RI>
0

>  <Rbt.Current_Directory>
/home/itssahil/PROJECTS/Mol_Feturizer/New_Systems/rnas/3DJ0

>  <Rbt.Executable>
rbdock ($Id: //depot/dev/client3/rdock/2013.1/src/exe/rbdock.cxx#4 $)

>  <Rbt.Library>
libRbt.so (2013.1, Build901 2013/11/27)

>  <Rbt.Parameter_File>
/export/apps/rDock/src/rDock_2013.1_src/data/scripts/dock_solv.prm

>  <Rbt.Receptor>
prm/blind_docking_100.prm

>  <SCORE>
-3.10022

>  <SCORE.INTER>
-0.638859

>  <SCORE.INTER.CONST>
1

>  <SCORE.INTER.POLAR>
0

>  <SCORE.INTER.ROT>
5

>  <SCORE.INTER.SOLV>
9.00316

>  <SCORE.INTER.VDW>
-10.3603

>  <SCORE.INTER.norm>
-0.0638859

>  <SCORE.INTRA>
-2.46136

>  <SCORE.INTRA.DIHEDRAL>
-3.90605

>  <SCORE.INTRA.DIHEDRAL.0>
6.00299

>  <SCORE.INTRA.POLAR>
0

>  <SCORE.INTRA.POLAR.0>
0

>  <SCORE.INTRA.REPUL>
0

>  <SCORE.INTRA.REPUL.0>
0

>  <SCORE.INTRA.SOLV>
-0.683373

>  <SCORE.INTRA.SOLV.lig_0>
-39.3257

>  <SCORE.INTRA.VDW>
-0.166647

>  <SCORE.INTRA.VDW.0>
-0.734044

>  <SCORE.INTRA.norm>
-0.246136

>  <SCORE.RESTR>
0

>  <SCORE.RESTR.CAVITY>
0

>  <SCORE.RESTR.norm>
0

>  <SCORE.SYSTEM>
0

>  <SCORE.SYSTEM.CONST>
0

>  <SCORE.SYSTEM.DIHEDRAL>
0

>  <SCORE.SYSTEM.SOLV>
0

>  <SCORE.SYSTEM.norm>
0

>  <SCORE.heavy>
10

>  <SCORE.norm>
-0.310022

>  <RMSD>
45.340

$$$$
ligand
 OpenBabel11021811473D
libRbt.so/2013.1/901 2013/11/27
 10  9  0  0  0  0  0  0  0  0999 V2000
    2.0469   46.8000    1.4573 N   0  0  0  0  0  0  0  0  0  0  0  0
    2.1982   47.3291    2.7998 C   0  0  2  0  0  0  0  0  0  0  0  0
    1.8684   46.2770    3.8247 C   0  0  0  0  0  0  0  0  0  0  0  0
    1.3018   45.2197    3.4513 O   0  0  0  0  0  0  0  0  0  0  0  0
    1.2929   48.5412    2.9722 C   0  0  0  0  0  0  0  0  0  0  0  0
   -0.0202   48.2000    2.5352 O   0  0  0  0  0  0  0  0  0  0  0  0
   -0.8358   49.3647    2.6608 C   0  0  0  0  0  0  0  0  0  0  0  0
   -0.5674   50.2696    1.4603 C   0  0  0  0  0  0  0  0  0  0  0  0
   -1.0524   49.6408    0.2439 N   0  0  0  0  0  0  0  0  0  0  0  0
    2.5759   46.2744    4.8522 O   0  0  0  0  0  0  0  0  0  0  0  0
  2  1  1  6  0  0  0
  2  5  1  0  0  0  0
  2  3  1  0  0  0  0
  3  4  1  0  0  0  0
  3 10  1  0  0  0  0
  5  6  1  0  0  0  0
  6  7  1  0  0  0  0
  7  8  1  0  0  0  0
  8  9  1  0  0  0  0
M  END
>  <CHROM.1>
49.93535310,-12.36729178,-177.91638166,79.93193955,67.31959143,0.88146549
47.75497131,2.65721008,-0.37349348,0.95186858,-1.72306996

>  <Name>
ligand

>  <RI>
0

>  <Rbt.Current_Directory>
/home/itssahil/PROJECTS/Mol_Feturizer/New_Systems/rnas/3DJ0

>  <Rbt.Executable>
rbdock ($Id: //depot/dev/client3/rdock/2013.1/src/exe/rbdock.cxx#4 $)

>  <Rbt.Library>
libRbt.so (2013.1, Build901 2013/11/27)

>  <Rbt.Parameter_File>
/export/apps/rDock/src/rDock_2013.1_src/data/scripts/dock_solv.prm

>  <Rbt.Receptor>
prm/blind_docking_60.prm

>  <SCORE>
-1.85027

>  <SCORE.INTER>
-2.94771

>  <SCORE.INTER.CONST>
1

>  <SCORE.INTER.POLAR>
0

>  <SCORE.INTER.ROT>
5

>  <SCORE.INTER.SOLV>
11.7382

>  <SCORE.INTER.VDW>
-12.8112

>  <SCORE.INTER.norm>
-0.294771

>  <SCORE.INTRA>
1.09744

>  <SCORE.INTRA.DIHEDRAL>
-1.12336

>  <SCORE.INTRA.DIHEDRAL.0>
6.00299

>  <SCORE.INTRA.POLAR>
0

>  <SCORE.INTRA.POLAR.0>
0

>  <SCORE.INTRA.REPUL>
0

>  <SCORE.INTRA.REPUL.0>
0

>  <SCORE.INTRA.SOLV>
1.33351

>  <SCORE.INTRA.SOLV.lig_0>
-39.3257

>  <SCORE.INTRA.VDW>
0.99236

>  <SCORE.INTRA.VDW.0>
-0.734044

>  <SCORE.INTRA.norm>
0.109744

>  <SCORE.RESTR>
0

>  <SCORE.RESTR.CAVITY>
0

>  <SCORE.RESTR.norm>
0

>  <SCORE.SYSTEM>
0

>  <SCORE.SYSTEM.CONST>
0

>  <SCORE.SYSTEM.DIHEDRAL>
0

>  <SCORE.SYSTEM.SOLV>
0

>  <SCORE.SYSTEM.norm>
0

>  <SCORE.heavy>
10

>  <SCORE.norm>
-0.185027

>  <RMSD>
47.700

$$$$
ligand
 OpenBabel11021811473D
libRbt.so/2013.1/901 2013/11/27
 10  9  0  0  0  0  0  0  0  0999 V2000
    1.9089   48.6126    3.4254 N   0  0  0  0  0  0  0  0  0  0  0  0
    1.3013   47.3475    3.0569 C   0  0  2  0  0  0  0  0  0  0  0  0
    1.9631   46.2090    3.7861 C   0  0  0  0  0  0  0  0  0  0  0  0
    2.5992   46.4502    4.8423 O   0  0  0  0  0  0  0  0  0  0  0  0
    1.4131   47.1508    1.5512 C   0  0  0  0  0  0  0  0  0  0  0  0
    0.6811   48.1842    0.8970 O   0  0  0  0  0  0  0  0  0  0  0  0
    0.7624   47.9506   -0.5089 C   0  0  0  0  0  0  0  0  0  0  0  0
    0.0467   49.0927   -1.2268 C   0  0  0  0  0  0  0  0  0  0  0  0
   -1.3628   49.0966   -0.8756 N   0  0  0  0  0  0  0  0  0  0  0  0
    1.4643   45.0801    3.6042 O   0  0  0  0  0  0  0  0  0  0  0  0
  2  1  1  6  0  0  0
  2  5  1  0  0  0  0
  2  3  1  0  0  0  0
  3  4  1  0  0  0  0
  3 10  1  0  0  0  0
  5  6  1  0  0  0  0
  6  7  1  0  0  0  0
  7  8  1  0  0  0  0
  8  9  1  0  0  0  0
M  END
>  <CHROM.1>
-62.81126446,21.11795046,-177.99717904,-176.95209110,-63.23779058,1.09089396
47.48856000,1.88515456,-0.55394273,-1.10047678,-0.13287417

>  <Name>
ligand

>  <RI>
0

>  <Rbt.Current_Directory>
/home/itssahil/PROJECTS/Mol_Feturizer/New_Systems/rnas/3DJ0

>  <Rbt.Executable>
rbdock ($Id: //depot/dev/client3/rdock/2013.1/src/exe/rbdock.cxx#4 $)

>  <Rbt.Library>
libRbt.so (2013.1, Build901 2013/11/27)

>  <Rbt.Parameter_File>
/export/apps/rDock/src/rDock_2013.1_src/data/scripts/dock_solv.prm

>  <Rbt.Receptor>
prm/blind_docking_80.prm

>  <SCORE>
-4.26693

>  <SCORE.INTER>
-2.94943

>  <SCORE.INTER.CONST>
1

>  <SCORE.INTER.POLAR>
0

>  <SCORE.INTER.ROT>
5

>  <SCORE.INTER.SOLV>
11.7597

>  <SCORE.INTER.VDW>
-12.8195

>  <SCORE.INTER.norm>
-0.294943

>  <SCORE.INTRA>
-1.31751

>  <SCORE.INTRA.DIHEDRAL>
-3.10587

>  <SCORE.INTRA.DIHEDRAL.0>
6.00299

>  <SCORE.INTRA.POLAR>
0

>  <SCORE.INTRA.POLAR.0>
0

>  <SCORE.INTRA.REPUL>
0

>  <SCORE.INTRA.REPUL.0>
0

>  <SCORE.INTRA.SOLV>
0.257275

>  <SCORE.INTRA.SOLV.lig_0>
-39.3257

>  <SCORE.INTRA.VDW>
0.10679

>  <SCORE.INTRA.VDW.0>
-0.734044

>  <SCORE.INTRA.norm>
-0.131751

>  <SCORE.RESTR>
0

>  <SCORE.RESTR.CAVITY>
0

>  <SCORE.RESTR.norm>
0

>  <SCORE.SYSTEM>
0

>  <SCORE.SYSTEM.CONST>
0

>  <SCORE.SYSTEM.DIHEDRAL>
0

>  <SCORE.SYSTEM.SOLV>
0

>  <SCORE.SYSTEM.norm>
0

>  <SCORE.heavy>
10

>  <SCORE.norm>
-0.426693

>  <RMSD>
47.721

$$$$
ligand
 OpenBabel11021811473D
libRbt.so/2013.1/901 2013/11/27
 10  9  0  0  0  0  0  0  0  0999 V2000
   -0.3921   48.3124   -0.2327 N   0  0  0  0  0  0  0  0  0  0  0  0
   -0.3546   47.9522    1.1724 C   0  0  2  0  0  0  0  0  0  0  0  0
   -0.5426   49.1700    2.0371 C   0  0  0  0  0  0  0  0  0  0  0  0
    0.1026   50.2137    1.7675 O   0  0  0  0  0  0  0  0  0  0  0  0
    0.9731   47.2766    1.4875 C   0  0  0  0  0  0  0  0  0  0  0  0
    0.9850   46.9059    2.8637 O   0  0  0  0  0  0  0  0  0  0  0  0
    2.3037   46.4617    3.1822 C   0  0  0  0  0  0  0  0  0  0  0  0
    2.3577   46.1533    4.6769 C   0  0  0  0  0  0  0  0  0  0  0  0
    3.7176   45.8273    5.0697 N   0  0  0  0  0  0  0  0  0  0  0  0
   -1.6328   49.2502    2.6382 O   0  0  0  0  0  0  0  0  0  0  0  0
  2  1  1  6  0  0  0
  2  5  1  0  0  0  0
  2  3  1  0  0  0  0
  3  4  1  0  0  0  0
  3 10  1  0  0  0  0
  5  6  1  0  0  0  0
  6  7  1  0  0  0  0
  7  8  1  0  0  0  0
  8  9  1  0  0  0  0
M  END
>  <CHROM.1>
-178.89640188,-45.72901052,-171.42778225,176.10666555,-174.25431789,0.72996286
47.78383074,2.47655083,-2.77464373,-0.82450534,1.26592896

>  <Name>
ligand

>  <RI>
0

>  <Rbt.Current_Directory>
/home/itssahil/PROJECTS/Mol_Feturizer/New_Systems/rnas/3DJ0

>  <Rbt.Executable>
rbdock ($Id: //depot/dev/client3/rdock/2013.1/src/exe/rbdock.cxx#4 $)

>  <Rbt.Library>
libRbt.so (2013.1, Build901 2013/11/27)

>  <Rbt.Parameter_File>
/export/apps/rDock/src/rDock_2013.1_src/data/scripts/dock_solv.prm

>  <Rbt.Receptor>
prm/blind_docking_60.prm

>  <SCORE>
-2.75709

>  <SCORE.INTER>
-0.254972

>  <SCORE.INTER.CONST>
1

>  <SCORE.INTER.POLAR>
0

>  <SCORE.INTER.ROT>
5

>  <SCORE.INTER.SOLV>
15.8447

>  <SCORE.INTER.VDW>
-12.3849

>  <SCORE.INTER.norm>
-0.0254972

>  <SCORE.INTRA>
-2.50212

>  <SCORE.INTRA.DIHEDRAL>
-3.42735

>  <SCORE.INTRA.DIHEDRAL.0>
6.00299

>  <SCORE.INTRA.POLAR>
0

>  <SCORE.INTRA.POLAR.0>
0

>  <SCORE.INTRA.REPUL>
0

>  <SCORE.INTRA.REPUL.0>
0

>  <SCORE.INTRA.SOLV>
-1.25735

>  <SCORE.INTRA.SOLV.lig_0>
-39.3257

>  <SCORE.INTRA.VDW>
-0.159764

>  <SCORE.INTRA.VDW.0>
-0.734044

>  <SCORE.INTRA.norm>
-0.250212

>  <SCORE.RESTR>
0

>  <SCORE.RESTR.CAVITY>
0

>  <SCORE.RESTR.norm>
0

>  <SCORE.SYSTEM>
0

>  <SCORE.SYSTEM.CONST>
0

>  <SCORE.SYSTEM.DIHEDRAL>
0

>  <SCORE.SYSTEM.SOLV>
0

>  <SCORE.SYSTEM.norm>
0

>  <SCORE.heavy>
10

>  <SCORE.norm>
-0.275709

>  <RMSD>
47.925

$$$$
ligand
 OpenBabel11021811473D
libRbt.so/2013.1/901 2013/11/27
 10  9  0  0  0  0  0  0  0  0999 V2000
    2.5932   46.4786    3.7910 N   0  0  0  0  0  0  0  0  0  0  0  0
    1.9692   47.2961    2.7674 C   0  0  2  0  0  0  0  0  0  0  0  0
    1.7324   48.6931    3.2759 C   0  0  0  0  0  0  0  0  0  0  0  0
    1.5778   48.8740    4.5095 O   0  0  0  0  0  0  0  0  0  0  0  0
    0.6554   46.6568    2.3388 C   0  0  0  0  0  0  0  0  0  0  0  0
    0.1345   47.3790    1.2258 O   0  0  0  0  0  0  0  0  0  0  0  0
   -1.0275   46.6889    0.7661 C   0  0  0  0  0  0  0  0  0  0  0  0
   -1.6587   47.5085   -0.3573 C   0  0  0  0  0  0  0  0  0  0  0  0
   -2.1755   48.7600    0.1686 N   0  0  0  0  0  0  0  0  0  0  0  0
    2.1730   49.6164    2.5621 O   0  0  0  0  0  0  0  0  0  0  0  0
  2  1  1  1  0  0  0
  2  5  1  0  0  0  0
  2  3  1  0  0  0  0
  3  4  1  0  0  0  0
  3 10  1  0  0  0  0
  5  6  1  0  0  0  0
  6  7  1  0  0  0  0
  7  8  1  0  0  0  0
  8  9  1  0  0  0  0
M  END
>  <CHROM.1>
-173.09213729,-27.01721628,174.70623342,175.68486534,-66.80828691,0.60861826
47.82638022,2.11913374,-0.16150489,0.74847660,-3.04361659

>  <Name>
ligand

>  <RI>
0

>  <Rbt.Current_Directory>
/home/itssahil/PROJECTS/Mol_Feturizer/New_Systems/rnas/3DJ0

>  <Rbt.Executable>
rbdock ($Id: //depot/dev/client3/rdock/2013.1/src/exe/rbdock.cxx#4 $)

>  <Rbt.Library>
libRbt.so (2013.1, Build901 2013/11/27)

>  <Rbt.Parameter_File>
/export/apps/rDock/src/rDock_2013.1_src/data/scripts/dock_solv.prm

>  <Rbt.Receptor>
prm/blind_docking_60.prm

>  <SCORE>
-3.60747

>  <SCORE.INTER>
-1.6178

>  <SCORE.INTER.CONST>
1

>  <SCORE.INTER.POLAR>
0

>  <SCORE.INTER.ROT>
5

>  <SCORE.INTER.SOLV>
11.0883

>  <SCORE.INTER.VDW>
-11.708

>  <SCORE.INTER.norm>
-0.16178

>  <SCORE.INTRA>
-1.98967

>  <SCORE.INTRA.DIHEDRAL>
-3.20244

>  <SCORE.INTRA.DIHEDRAL.0>
6.00299

>  <SCORE.INTRA.POLAR>
0

>  <SCORE.INTRA.POLAR.0>
0

>  <SCORE.INTRA.REPUL>
0

>  <SCORE.INTRA.REPUL.0>
0

>  <SCORE.INTRA.SOLV>
-0.25847

>  <SCORE.INTRA.SOLV.lig_0>
-39.3257

>  <SCORE.INTRA.VDW>
-0.259215

>  <SCORE.INTRA.VDW.0>
-0.734044

>  <SCORE.INTRA.norm>
-0.198967

>  <SCORE.RESTR>
0

>  <SCORE.RESTR.CAVITY>
0

>  <SCORE.RESTR.norm>
0

>  <SCORE.SYSTEM>
0

>  <SCORE.SYSTEM.CONST>
0

>  <SCORE.SYSTEM.DIHEDRAL>
0

>  <SCORE.SYSTEM.SOLV>
0

>  <SCORE.SYSTEM.norm>
0

>  <SCORE.heavy>
10

>  <SCORE.norm>
-0.360747

>  <RMSD>
48.042

$$$$
ligand
 OpenBabel11021811473D
libRbt.so/2013.1/901 2013/11/27
 10  9  0  0  0  0  0  0  0  0999 V2000
    2.5497   46.4758    3.8254 N   0  0  0  0  0  0  0  0  0  0  0  0
    1.9703   47.3000    2.7813 C   0  0  2  0  0  0  0  0  0  0  0  0
    1.7361   48.7008    3.2802 C   0  0  0  0  0  0  0  0  0  0  0  0
    1.4967   48.8805    4.5003 O   0  0  0  0  0  0  0  0  0  0  0  0
    0.6625   46.6778    2.3111 C   0  0  0  0  0  0  0  0  0  0  0  0
    0.1562   47.4419    1.2196 O   0  0  0  0  0  0  0  0  0  0  0  0
   -1.0281   46.7973    0.7510 C   0  0  0  0  0  0  0  0  0  0  0  0
   -1.6629   47.6811   -0.3205 C   0  0  0  0  0  0  0  0  0  0  0  0
   -2.0564   48.9560    0.2538 N   0  0  0  0  0  0  0  0  0  0  0  0
    2.2535   49.6144    2.6065 O   0  0  0  0  0  0  0  0  0  0  0  0
  2  1  1  1  0  0  0
  2  5  1  0  0  0  0
  2  3  1  0  0  0  0
  3  4  1  0  0  0  0
  3 10  1  0  0  0  0
  5  6  1  0  0  0  0
  6  7  1  0  0  0  0
  7  8  1  0  0  0  0
  8  9  1  0  0  0  0
M  END
>  <CHROM.1>
-175.72280165,-29.54177042,176.86465123,174.13470567,-62.69759099,0.61895301
47.88309817,2.13504620,-0.13140250,0.75355683,-3.04276337

>  <Name>
ligand

>  <RI>
0

>  <Rbt.Current_Directory>
/home/itssahil/PROJECTS/Mol_Feturizer/New_Systems/rnas/3DJ0

>  <Rbt.Executable>
rbdock ($Id: //depot/dev/client3/rdock/2013.1/src/exe/rbdock.cxx#4 $)

>  <Rbt.Library>
libRbt.so (2013.1, Build901 2013/11/27)

>  <Rbt.Parameter_File>
/export/apps/rDock/src/rDock_2013.1_src/data/scripts/dock_solv.prm

>  <Rbt.Receptor>
prm/blind_docking_80.prm

>  <SCORE>
-3.61299

>  <SCORE.INTER>
-1.53266

>  <SCORE.INTER.CONST>
1

>  <SCORE.INTER.POLAR>
0

>  <SCORE.INTER.ROT>
5

>  <SCORE.INTER.SOLV>
10.9665

>  <SCORE.INTER.VDW>
-11.6106

>  <SCORE.INTER.norm>
-0.153266

>  <SCORE.INTRA>
-2.08033

>  <SCORE.INTRA.DIHEDRAL>
-3.51121

>  <SCORE.INTRA.DIHEDRAL.0>
6.00299

>  <SCORE.INTRA.POLAR>
0

>  <SCORE.INTRA.POLAR.0>
0

>  <SCORE.INTRA.REPUL>
0

>  <SCORE.INTRA.REPUL.0>
0

>  <SCORE.INTRA.SOLV>
-0.180991

>  <SCORE.INTRA.SOLV.lig_0>
-39.3257

>  <SCORE.INTRA.VDW>
-0.234234

>  <SCORE.INTRA.VDW.0>
-0.734044

>  <SCORE.INTRA.norm>
-0.208033

>  <SCORE.RESTR>
0

>  <SCORE.RESTR.CAVITY>
0

>  <SCORE.RESTR.norm>
0

>  <SCORE.SYSTEM>
0

>  <SCORE.SYSTEM.CONST>
0

>  <SCORE.SYSTEM.DIHEDRAL>
0

>  <SCORE.SYSTEM.SOLV>
0

>  <SCORE.SYSTEM.norm>
0

>  <SCORE.heavy>
10

>  <SCORE.norm>
-0.361299

>  <RMSD>
48.068

$$$$
ligand
 OpenBabel11021811473D
libRbt.so/2013.1/901 2013/11/27
 10  9  0  0  0  0  0  0  0  0999 V2000
    2.0663   48.9093    3.2627 N   0  0  0  0  0  0  0  0  0  0  0  0
    1.1978   47.8519    2.7799 C   0  0  2  0  0  0  0  0  0  0  0  0
    1.9140   46.5280    2.7977 C   0  0  0  0  0  0  0  0  0  0  0  0
    3.0454   46.4405    2.2585 O   0  0  0  0  0  0  0  0  0  0  0  0
    0.7301   48.1842    1.3695 C   0  0  0  0  0  0  0  0  0  0  0  0
   -0.4516   47.4380    1.0894 O   0  0  0  0  0  0  0  0  0  0  0  0
   -0.8602   47.7554   -0.2410 C   0  0  0  0  0  0  0  0  0  0  0  0
   -2.2685   47.2045   -0.4542 C   0  0  0  0  0  0  0  0  0  0  0  0
   -3.2078   47.8860    0.4194 N   0  0  0  0  0  0  0  0  0  0  0  0
    1.6044   45.7517    3.7238 O   0  0  0  0  0  0  0  0  0  0  0  0
  2  1  1  6  0  0  0
  2  5  1  0  0  0  0
  2  3  1  0  0  0  0
  3  4  1  0  0  0  0
  3 10  1  0  0  0  0
  5  6  1  0  0  0  0
  6  7  1  0  0  0  0
  7  8  1  0  0  0  0
  8  9  1  0  0  0  0
M  END
>  <CHROM.1>
-159.44178583,-50.91679518,-179.35795747,-168.18871501,64.86106705,0.40274401
47.36258570,1.71228490,-0.18130838,-0.59071184,-0.08380649

>  <Name>
ligand

>  <RI>
0

>  <Rbt.Current_Directory>
/home/itssahil/PROJECTS/Mol_Feturizer/New_Systems/rnas/3DJ0

>  <Rbt.Executable>
rbdock ($Id: //depot/dev/client3/rdock/2013.1/src/exe/rbdock.cxx#4 $)

>  <Rbt.Library>
libRbt.so (2013.1, Build901 2013/11/27)

>  <Rbt.Parameter_File>
/export/apps/rDock/src/rDock_2013.1_src/data/scripts/dock_solv.prm

>  <Rbt.Receptor>
prm/blind_docking_80.prm

>  <SCORE>
-4.01196

>  <SCORE.INTER>
-2.65403

>  <SCORE.INTER.CONST>
1

>  <SCORE.INTER.POLAR>
0

>  <SCORE.INTER.ROT>
5

>  <SCORE.INTER.SOLV>
10.5197

>  <SCORE.INTER.VDW>
-12.2092

>  <SCORE.INTER.norm>
-0.265403

>  <SCORE.INTRA>
-1.35965

>  <SCORE.INTRA.DIHEDRAL>
-1.83289

>  <SCORE.INTRA.DIHEDRAL.0>
6.00299

>  <SCORE.INTRA.POLAR>
0

>  <SCORE.INTRA.POLAR.0>
0

>  <SCORE.INTRA.REPUL>
0

>  <SCORE.INTRA.REPUL.0>
0

>  <SCORE.INTRA.SOLV>
-0.217142

>  <SCORE.INTRA.SOLV.lig_0>
-39.3257

>  <SCORE.INTRA.VDW>
-0.334635

>  <SCORE.INTRA.VDW.0>
-0.734044

>  <SCORE.INTRA.norm>
-0.135965

>  <SCORE.RESTR>
0.00171737

>  <SCORE.RESTR.CAVITY>
0.00171737

>  <SCORE.RESTR.norm>
0.000171737

>  <SCORE.SYSTEM>
0

>  <SCORE.SYSTEM.CONST>
0

>  <SCORE.SYSTEM.DIHEDRAL>
0

>  <SCORE.SYSTEM.SOLV>
0

>  <SCORE.SYSTEM.norm>
0

>  <SCORE.heavy>
10

>  <SCORE.norm>
-0.401196

>  <RMSD>
48.097

$$$$
ligand
 OpenBabel11021811473D
libRbt.so/2013.1/901 2013/11/27
 10  9  0  0  0  0  0  0  0  0999 V2000
   -0.3063   49.0260   -0.0703 N   0  0  0  0  0  0  0  0  0  0  0  0
    0.2640   47.6978   -0.1979 C   0  0  2  0  0  0  0  0  0  0  0  0
   -0.8221   46.6564   -0.2414 C   0  0  0  0  0  0  0  0  0  0  0  0
   -0.6645   45.6423   -0.9661 O   0  0  0  0  0  0  0  0  0  0  0  0
    1.2050   47.4357    0.9701 C   0  0  0  0  0  0  0  0  0  0  0  0
    0.4882   47.6203    2.1882 O   0  0  0  0  0  0  0  0  0  0  0  0
    1.4277   47.5450    3.2603 C   0  0  0  0  0  0  0  0  0  0  0  0
    1.7407   46.0732    3.5209 C   0  0  0  0  0  0  0  0  0  0  0  0
    2.6708   45.9502    4.6299 N   0  0  0  0  0  0  0  0  0  0  0  0
   -1.5613   46.5956    0.7615 O   0  0  0  0  0  0  0  0  0  0  0  0
  2  1  1  1  0  0  0
  2  5  1  0  0  0  0
  2  3  1  0  0  0  0
  3  4  1  0  0  0  0
  3 10  1  0  0  0  0
  5  6  1  0  0  0  0
  6  7  1  0  0  0  0
  7  8  1  0  0  0  0
  8  9  1  0  0  0  0
M  END
>  <CHROM.1>
56.03611796,144.69889439,-172.42256549,-78.68405371,-178.59732256,0.41209695
47.00534682,1.37798763,-2.82625437,0.96399394,2.88147233

>  <Name>
ligand

>  <RI>
0

>  <Rbt.Current_Directory>
/home/itssahil/PROJECTS/Mol_Feturizer/New_Systems/rnas/3DJ0

>  <Rbt.Executable>
rbdock ($Id: //depot/dev/client3/rdock/2013.1/src/exe/rbdock.cxx#4 $)

>  <Rbt.Library>
libRbt.so (2013.1, Build901 2013/11/27)

>  <Rbt.Parameter_File>
/export/apps/rDock/src/rDock_2013.1_src/data/scripts/dock_solv.prm

>  <Rbt.Receptor>
prm/blind_docking_80.prm

>  <SCORE>
-2.8538

>  <SCORE.INTER>
-3.64285

>  <SCORE.INTER.CONST>
1

>  <SCORE.INTER.POLAR>
0

>  <SCORE.INTER.ROT>
5

>  <SCORE.INTER.SOLV>
15.8006

>  <SCORE.INTER.VDW>
-14.6288

>  <SCORE.INTER.norm>
-0.364285

>  <SCORE.INTRA>
0.789049

>  <SCORE.INTRA.DIHEDRAL>
-1.34604

>  <SCORE.INTRA.DIHEDRAL.0>
6.00299

>  <SCORE.INTRA.POLAR>
0

>  <SCORE.INTRA.POLAR.0>
0

>  <SCORE.INTRA.REPUL>
0

>  <SCORE.INTRA.REPUL.0>
0

>  <SCORE.INTRA.SOLV>
0.240844

>  <SCORE.INTRA.SOLV.lig_0>
-39.3257

>  <SCORE.INTRA.VDW>
1.34165

>  <SCORE.INTRA.VDW.0>
-0.734044

>  <SCORE.INTRA.norm>
0.0789049

>  <SCORE.RESTR>
0

>  <SCORE.RESTR.CAVITY>
0

>  <SCORE.RESTR.norm>
0

>  <SCORE.SYSTEM>
0

>  <SCORE.SYSTEM.CONST>
0

>  <SCORE.SYSTEM.DIHEDRAL>
0

>  <SCORE.SYSTEM.SOLV>
0

>  <SCORE.SYSTEM.norm>
0

>  <SCORE.heavy>
10

>  <SCORE.norm>
-0.28538

>  <RMSD>
48.099

$$$$
ligand
 OpenBabel11021811473D
libRbt.so/2013.1/901 2013/11/27
 10  9  0  0  0  0  0  0  0  0999 V2000
    0.0316   48.8871   -1.0529 N   0  0  0  0  0  0  0  0  0  0  0  0
    0.3964   47.6763   -0.3414 C   0  0  2  0  0  0  0  0  0  0  0  0
   -0.7803   46.7424   -0.2460 C   0  0  0  0  0  0  0  0  0  0  0  0
   -1.8977   47.2038    0.0960 O   0  0  0  0  0  0  0  0  0  0  0  0
    0.9020   48.0379    1.0486 C   0  0  0  0  0  0  0  0  0  0  0  0
    1.1973   46.8368    1.7571 O   0  0  0  0  0  0  0  0  0  0  0  0
    1.7569   47.2032    3.0181 C   0  0  0  0  0  0  0  0  0  0  0  0
    2.0014   45.9283    3.8226 C   0  0  0  0  0  0  0  0  0  0  0  0
    2.7383   46.2380    5.0355 N   0  0  0  0  0  0  0  0  0  0  0  0
   -0.7207   45.7147   -0.9506 O   0  0  0  0  0  0  0  0  0  0  0  0
  2  1  1  1  0  0  0
  2  5  1  0  0  0  0
  2  3  1  0  0  0  0
  3  4  1  0  0  0  0
  3 10  1  0  0  0  0
  5  6  1  0  0  0  0
  6  7  1  0  0  0  0
  7  8  1  0  0  0  0
  8  9  1  0  0  0  0
M  END
>  <CHROM.1>
177.32542544,-46.13231809,175.96624298,176.66770091,172.18648296,0.53028475
47.02545997,1.20195926,-2.45779402,0.81435439,2.48054624

>  <Name>
ligand

>  <RI>
0

>  <Rbt.Current_Directory>
/home/itssahil/PROJECTS/Mol_Feturizer/New_Systems/rnas/3DJ0

>  <Rbt.Executable>
rbdock ($Id: //depot/dev/client3/rdock/2013.1/src/exe/rbdock.cxx#4 $)

>  <Rbt.Library>
libRbt.so (2013.1, Build901 2013/11/27)

>  <Rbt.Parameter_File>
/export/apps/rDock/src/rDock_2013.1_src/data/scripts/dock_solv.prm

>  <Rbt.Receptor>
prm/blind_docking_80.prm

>  <SCORE>
-5.31727

>  <SCORE.INTER>
-2.81184

>  <SCORE.INTER.CONST>
1

>  <SCORE.INTER.POLAR>
0

>  <SCORE.INTER.ROT>
5

>  <SCORE.INTER.SOLV>
17.0022

>  <SCORE.INTER.VDW>
-14.4753

>  <SCORE.INTER.norm>
-0.281184

>  <SCORE.INTRA>
-2.50543

>  <SCORE.INTRA.DIHEDRAL>
-3.6019

>  <SCORE.INTRA.DIHEDRAL.0>
6.00299

>  <SCORE.INTRA.POLAR>
0

>  <SCORE.INTRA.POLAR.0>
0

>  <SCORE.INTRA.REPUL>
0

>  <SCORE.INTRA.REPUL.0>
0

>  <SCORE.INTRA.SOLV>
-1.24522

>  <SCORE.INTRA.SOLV.lig_0>
-39.3257

>  <SCORE.INTRA.VDW>
-0.0818673

>  <SCORE.INTRA.VDW.0>
-0.734044

>  <SCORE.INTRA.norm>
-0.250543

>  <SCORE.RESTR>
0

>  <SCORE.RESTR.CAVITY>
0

>  <SCORE.RESTR.norm>
0

>  <SCORE.SYSTEM>
0

>  <SCORE.SYSTEM.CONST>
0

>  <SCORE.SYSTEM.DIHEDRAL>
0

>  <SCORE.SYSTEM.SOLV>
0

>  <SCORE.SYSTEM.norm>
0

>  <SCORE.heavy>
10

>  <SCORE.norm>
-0.531727

>  <RMSD>
48.122

$$$$
ligand
 OpenBabel11021811473D
libRbt.so/2013.1/901 2013/11/27
 10  9  0  0  0  0  0  0  0  0999 V2000
    2.5329   46.4442    3.7130 N   0  0  0  0  0  0  0  0  0  0  0  0
    1.9724   47.3388    2.7175 C   0  0  2  0  0  0  0  0  0  0  0  0
    1.8068   48.7241    3.2827 C   0  0  0  0  0  0  0  0  0  0  0  0
    1.5484   48.8561    4.5051 O   0  0  0  0  0  0  0  0  0  0  0  0
    0.6317   46.7942    2.2439 C   0  0  0  0  0  0  0  0  0  0  0  0
    0.1450   47.6229    1.1912 O   0  0  0  0  0  0  0  0  0  0  0  0
   -1.1038   47.0845    0.7572 C   0  0  0  0  0  0  0  0  0  0  0  0
   -1.6674   47.9972   -0.3298 C   0  0  0  0  0  0  0  0  0  0  0  0
   -2.9750   47.5240   -0.7495 N   0  0  0  0  0  0  0  0  0  0  0  0
    2.3920   49.6385    2.6682 O   0  0  0  0  0  0  0  0  0  0  0  0
  2  1  1  1  0  0  0
  2  5  1  0  0  0  0
  2  3  1  0  0  0  0
  3  4  1  0  0  0  0
  3 10  1  0  0  0  0
  5  6  1  0  0  0  0
  6  7  1  0  0  0  0
  7  8  1  0  0  0  0
  8  9  1  0  0  0  0
M  END
>  <CHROM.1>
-175.35121833,-32.03268151,179.44455645,177.56603115,-176.93714502,0.54369552
47.83656417,2.01847180,-0.10053863,0.74592300,3.10766258

>  <Name>
ligand

>  <RI>
0

>  <Rbt.Current_Directory>
/home/itssahil/PROJECTS/Mol_Feturizer/New_Systems/rnas/3DJ0

>  <Rbt.Executable>
rbdock ($Id: //depot/dev/client3/rdock/2013.1/src/exe/rbdock.cxx#4 $)

>  <Rbt.Library>
libRbt.so (2013.1, Build901 2013/11/27)

>  <Rbt.Parameter_File>
/export/apps/rDock/src/rDock_2013.1_src/data/scripts/dock_solv.prm

>  <Rbt.Receptor>
prm/blind_docking_80.prm

>  <SCORE>
-3.45756

>  <SCORE.INTER>
-0.767154

>  <SCORE.INTER.CONST>
1

>  <SCORE.INTER.POLAR>
0

>  <SCORE.INTER.ROT>
5

>  <SCORE.INTER.SOLV>
13.2153

>  <SCORE.INTER.VDW>
-11.8499

>  <SCORE.INTER.norm>
-0.0767154

>  <SCORE.INTRA>
-2.69041

>  <SCORE.INTRA.DIHEDRAL>
-3.71727

>  <SCORE.INTRA.DIHEDRAL.0>
6.00299

>  <SCORE.INTRA.POLAR>
0

>  <SCORE.INTRA.POLAR.0>
0

>  <SCORE.INTRA.REPUL>
0

>  <SCORE.INTRA.REPUL.0>
0

>  <SCORE.INTRA.SOLV>
-1.29659

>  <SCORE.INTRA.SOLV.lig_0>
-39.3257

>  <SCORE.INTRA.VDW>
-0.18348

>  <SCORE.INTRA.VDW.0>
-0.734044

>  <SCORE.INTRA.norm>
-0.269041

>  <SCORE.RESTR>
0

>  <SCORE.RESTR.CAVITY>
0

>  <SCORE.RESTR.norm>
0

>  <SCORE.SYSTEM>
0

>  <SCORE.SYSTEM.CONST>
0

>  <SCORE.SYSTEM.DIHEDRAL>
0

>  <SCORE.SYSTEM.SOLV>
0

>  <SCORE.SYSTEM.norm>
0

>  <SCORE.heavy>
10

>  <SCORE.norm>
-0.345756

>  <RMSD>
48.127

$$$$
ligand
 OpenBabel11021811473D
libRbt.so/2013.1/901 2013/11/27
 10  9  0  0  0  0  0  0  0  0999 V2000
    1.9143   49.0333    3.9585 N   0  0  0  0  0  0  0  0  0  0  0  0
    1.0650   47.9834    3.4276 C   0  0  2  0  0  0  0  0  0  0  0  0
    1.8866   46.7851    3.0337 C   0  0  0  0  0  0  0  0  0  0  0  0
    2.9439   46.9607    2.3782 O   0  0  0  0  0  0  0  0  0  0  0  0
    0.2913   48.5147    2.2287 C   0  0  0  0  0  0  0  0  0  0  0  0
   -0.7056   47.5625    1.8664 O   0  0  0  0  0  0  0  0  0  0  0  0
   -1.4092   48.0792    0.7369 C   0  0  0  0  0  0  0  0  0  0  0  0
   -2.5324   47.1060    0.3855 C   0  0  0  0  0  0  0  0  0  0  0  0
   -3.2678   47.5898   -0.7699 N   0  0  0  0  0  0  0  0  0  0  0  0
    1.7632   45.7763    3.7571 O   0  0  0  0  0  0  0  0  0  0  0  0
  2  1  1  6  0  0  0
  2  5  1  0  0  0  0
  2  3  1  0  0  0  0
  3  4  1  0  0  0  0
  3 10  1  0  0  0  0
  5  6  1  0  0  0  0
  6  7  1  0  0  0  0
  7  8  1  0  0  0  0
  8  9  1  0  0  0  0
M  END
>  <CHROM.1>
-169.76009056,-45.52601871,-179.60813908,-176.85619629,-179.48429333,0.22401524
47.50932868,2.10787609,0.08661575,-0.61461788,0.24824715

>  <Name>
ligand

>  <RI>
0

>  <Rbt.Current_Directory>
/home/itssahil/PROJECTS/Mol_Feturizer/New_Systems/rnas/3DJ0

>  <Rbt.Executable>
rbdock ($Id: //depot/dev/client3/rdock/2013.1/src/exe/rbdock.cxx#4 $)

>  <Rbt.Library>
libRbt.so (2013.1, Build901 2013/11/27)

>  <Rbt.Parameter_File>
/export/apps/rDock/src/rDock_2013.1_src/data/scripts/dock_solv.prm

>  <Rbt.Receptor>
prm/blind_docking_80.prm

>  <SCORE>
-4.4552

>  <SCORE.INTER>
-1.78023

>  <SCORE.INTER.CONST>
1

>  <SCORE.INTER.POLAR>
0

>  <SCORE.INTER.ROT>
5

>  <SCORE.INTER.SOLV>
13.5106

>  <SCORE.INTER.VDW>
-12.6237

>  <SCORE.INTER.norm>
-0.178023

>  <SCORE.INTRA>
-2.67497

>  <SCORE.INTRA.DIHEDRAL>
-3.56117

>  <SCORE.INTRA.DIHEDRAL.0>
6.00299

>  <SCORE.INTRA.POLAR>
0

>  <SCORE.INTRA.POLAR.0>
0

>  <SCORE.INTRA.REPUL>
0

>  <SCORE.INTRA.REPUL.0>
0

>  <SCORE.INTRA.SOLV>
-1.31255

>  <SCORE.INTRA.SOLV.lig_0>
-39.3257

>  <SCORE.INTRA.VDW>
-0.238116

>  <SCORE.INTRA.VDW.0>
-0.734044

>  <SCORE.INTRA.norm>
-0.267497

>  <SCORE.RESTR>
0

>  <SCORE.RESTR.CAVITY>
0

>  <SCORE.RESTR.norm>
0

>  <SCORE.SYSTEM>
0

>  <SCORE.SYSTEM.CONST>
0

>  <SCORE.SYSTEM.DIHEDRAL>
0

>  <SCORE.SYSTEM.SOLV>
0

>  <SCORE.SYSTEM.norm>
0

>  <SCORE.heavy>
10

>  <SCORE.norm>
-0.44552

>  <RMSD>
48.142

$$$$
ligand
 OpenBabel11021811473D
libRbt.so/2013.1/901 2013/11/27
 10  9  0  0  0  0  0  0  0  0999 V2000
   -0.0342   48.9506   -1.0063 N   0  0  0  0  0  0  0  0  0  0  0  0
    0.3696   47.7374   -0.3204 C   0  0  2  0  0  0  0  0  0  0  0  0
   -0.7825   46.7731   -0.2261 C   0  0  0  0  0  0  0  0  0  0  0  0
   -1.9037   47.1988    0.1483 O   0  0  0  0  0  0  0  0  0  0  0  0
    0.8844   48.0878    1.0691 C   0  0  0  0  0  0  0  0  0  0  0  0
    1.2137   46.8823    1.7547 O   0  0  0  0  0  0  0  0  0  0  0  0
    1.7487   47.2400    3.0289 C   0  0  0  0  0  0  0  0  0  0  0  0
    2.0193   45.9573    3.8123 C   0  0  0  0  0  0  0  0  0  0  0  0
    2.8013   46.2543    4.9999 N   0  0  0  0  0  0  0  0  0  0  0  0
   -0.7122   45.7647   -0.9571 O   0  0  0  0  0  0  0  0  0  0  0  0
  2  1  1  1  0  0  0
  2  5  1  0  0  0  0
  2  3  1  0  0  0  0
  3  4  1  0  0  0  0
  3 10  1  0  0  0  0
  5  6  1  0  0  0  0
  6  7  1  0  0  0  0
  7  8  1  0  0  0  0
  8  9  1  0  0  0  0
M  END
>  <CHROM.1>
177.10905581,-46.69725908,177.45272771,176.26331162,168.86577435,0.52874439
47.06282621,1.21358099,-2.48685212,0.81964832,2.51698935

>  <Name>
ligand

>  <RI>
0

>  <Rbt.Current_Directory>
/home/itssahil/PROJECTS/Mol_Feturizer/New_Systems/rnas/3DJ0

>  <Rbt.Executable>
rbdock ($Id: //depot/dev/client3/rdock/2013.1/src/exe/rbdock.cxx#4 $)

>  <Rbt.Library>
libRbt.so (2013.1, Build901 2013/11/27)

>  <Rbt.Parameter_File>
/export/apps/rDock/src/rDock_2013.1_src/data/scripts/dock_solv.prm

>  <Rbt.Receptor>
prm/blind_docking_80.prm

>  <SCORE>
-5.3504

>  <SCORE.INTER>
-2.9495

>  <SCORE.INTER.CONST>
1

>  <SCORE.INTER.POLAR>
0

>  <SCORE.INTER.ROT>
5

>  <SCORE.INTER.SOLV>
16.4923

>  <SCORE.INTER.VDW>
-14.3971

>  <SCORE.INTER.norm>
-0.29495

>  <SCORE.INTRA>
-2.40091

>  <SCORE.INTRA.DIHEDRAL>
-3.40437

>  <SCORE.INTRA.DIHEDRAL.0>
6.00299

>  <SCORE.INTRA.POLAR>
0

>  <SCORE.INTRA.POLAR.0>
0

>  <SCORE.INTRA.REPUL>
0

>  <SCORE.INTRA.REPUL.0>
0

>  <SCORE.INTRA.SOLV>
-1.23931

>  <SCORE.INTRA.SOLV.lig_0>
-39.3257

>  <SCORE.INTRA.VDW>
-0.0790684

>  <SCORE.INTRA.VDW.0>
-0.734044

>  <SCORE.INTRA.norm>
-0.240091

>  <SCORE.RESTR>
0

>  <SCORE.RESTR.CAVITY>
0

>  <SCORE.RESTR.norm>
0

>  <SCORE.SYSTEM>
0

>  <SCORE.SYSTEM.CONST>
0

>  <SCORE.SYSTEM.DIHEDRAL>
0

>  <SCORE.SYSTEM.SOLV>
0

>  <SCORE.SYSTEM.norm>
0

>  <SCORE.heavy>
10

>  <SCORE.norm>
-0.53504

>  <RMSD>
48.144

$$$$
ligand
 OpenBabel11021811473D
libRbt.so/2013.1/901 2013/11/27
 10  9  0  0  0  0  0  0  0  0999 V2000
    2.5017   46.4622    3.7226 N   0  0  0  0  0  0  0  0  0  0  0  0
    1.9475   47.3727    2.7381 C   0  0  2  0  0  0  0  0  0  0  0  0
    1.7355   48.7370    3.3379 C   0  0  0  0  0  0  0  0  0  0  0  0
    1.4913   48.8306    4.5668 O   0  0  0  0  0  0  0  0  0  0  0  0
    0.6325   46.8128    2.2131 C   0  0  0  0  0  0  0  0  0  0  0  0
    0.1462   47.6704    1.1837 O   0  0  0  0  0  0  0  0  0  0  0  0
   -1.1082   47.1512    0.7427 C   0  0  0  0  0  0  0  0  0  0  0  0
   -1.6832   48.1076   -0.2997 C   0  0  0  0  0  0  0  0  0  0  0  0
   -3.0041   47.6632   -0.7091 N   0  0  0  0  0  0  0  0  0  0  0  0
    2.2737   49.6881    2.7363 O   0  0  0  0  0  0  0  0  0  0  0  0
  2  1  1  1  0  0  0
  2  5  1  0  0  0  0
  2  3  1  0  0  0  0
  3  4  1  0  0  0  0
  3 10  1  0  0  0  0
  5  6  1  0  0  0  0
  6  7  1  0  0  0  0
  7  8  1  0  0  0  0
  8  9  1  0  0  0  0
M  END
>  <CHROM.1>
-176.10556020,-29.38633430,-177.94150583,176.53108513,-176.13770378,0.50793585
47.88307801,2.04227558,-0.12260242,0.75034795,-3.11353964

>  <Name>
ligand

>  <RI>
0

>  <Rbt.Current_Directory>
/home/itssahil/PROJECTS/Mol_Feturizer/New_Systems/rnas/3DJ0

>  <Rbt.Executable>
rbdock ($Id: //depot/dev/client3/rdock/2013.1/src/exe/rbdock.cxx#4 $)

>  <Rbt.Library>
libRbt.so (2013.1, Build901 2013/11/27)

>  <Rbt.Parameter_File>
/export/apps/rDock/src/rDock_2013.1_src/data/scripts/dock_solv.prm

>  <Rbt.Receptor>
prm/blind_docking_100.prm

>  <SCORE>
-3.45996

>  <SCORE.INTER>
-0.827882

>  <SCORE.INTER.CONST>
1

>  <SCORE.INTER.POLAR>
0

>  <SCORE.INTER.ROT>
5

>  <SCORE.INTER.SOLV>
12.6861

>  <SCORE.INTER.VDW>
-11.714

>  <SCORE.INTER.norm>
-0.0827882

>  <SCORE.INTRA>
-2.63207

>  <SCORE.INTRA.DIHEDRAL>
-3.62798

>  <SCORE.INTRA.DIHEDRAL.0>
6.00299

>  <SCORE.INTRA.POLAR>
0

>  <SCORE.INTRA.POLAR.0>
0

>  <SCORE.INTRA.REPUL>
0

>  <SCORE.INTRA.REPUL.0>
0

>  <SCORE.INTRA.SOLV>
-1.29351

>  <SCORE.INTRA.SOLV.lig_0>
-39.3257

>  <SCORE.INTRA.VDW>
-0.171327

>  <SCORE.INTRA.VDW.0>
-0.734044

>  <SCORE.INTRA.norm>
-0.263207

>  <SCORE.RESTR>
0

>  <SCORE.RESTR.CAVITY>
0

>  <SCORE.RESTR.norm>
0

>  <SCORE.SYSTEM>
0

>  <SCORE.SYSTEM.CONST>
0

>  <SCORE.SYSTEM.DIHEDRAL>
0

>  <SCORE.SYSTEM.SOLV>
0

>  <SCORE.SYSTEM.norm>
0

>  <SCORE.heavy>
10

>  <SCORE.norm>
-0.345996

>  <RMSD>
48.172

$$$$
ligand
 OpenBabel11021811473D
libRbt.so/2013.1/901 2013/11/27
 10  9  0  0  0  0  0  0  0  0999 V2000
    2.5861   46.4133    3.5302 N   0  0  0  0  0  0  0  0  0  0  0  0
    1.9469   47.2942    2.5706 C   0  0  2  0  0  0  0  0  0  0  0  0
    1.8115   48.6834    3.1344 C   0  0  0  0  0  0  0  0  0  0  0  0
    1.6000   49.6411    2.3492 O   0  0  0  0  0  0  0  0  0  0  0  0
    0.5797   46.7349    2.2013 C   0  0  0  0  0  0  0  0  0  0  0  0
    0.0623   47.4763    1.0993 O   0  0  0  0  0  0  0  0  0  0  0  0
   -1.2318   46.9560    0.7954 C   0  0  0  0  0  0  0  0  0  0  0  0
   -1.8273   47.7853   -0.3403 C   0  0  0  0  0  0  0  0  0  0  0  0
   -3.1604   47.3060   -0.6615 N   0  0  0  0  0  0  0  0  0  0  0  0
    1.4348   48.7571    4.3213 O   0  0  0  0  0  0  0  0  0  0  0  0
  2  1  1  1  0  0  0
  2  5  1  0  0  0  0
  2  3  1  0  0  0  0
  3  4  1  0  0  0  0
  3 10  1  0  0  0  0
  5  6  1  0  0  0  0
  6  7  1  0  0  0  0
  7  8  1  0  0  0  0
  8  9  1  0  0  0  0
M  END
>  <CHROM.1>
-170.21949277,162.21475986,-178.53336780,177.30260400,-178.74683574,0.38618969
47.73879599,1.91512994,-0.18832209,0.70709546,-3.05114919

>  <Name>
ligand

>  <RI>
0

>  <Rbt.Current_Directory>
/home/itssahil/PROJECTS/Mol_Feturizer/New_Systems/rnas/3DJ0

>  <Rbt.Executable>
rbdock ($Id: //depot/dev/client3/rdock/2013.1/src/exe/rbdock.cxx#4 $)

>  <Rbt.Library>
libRbt.so (2013.1, Build901 2013/11/27)

>  <Rbt.Parameter_File>
/export/apps/rDock/src/rDock_2013.1_src/data/scripts/dock_solv.prm

>  <Rbt.Receptor>
prm/blind_docking_80.prm

>  <SCORE>
-3.06527

>  <SCORE.INTER>
-0.692265

>  <SCORE.INTER.CONST>
1

>  <SCORE.INTER.POLAR>
0

>  <SCORE.INTER.ROT>
5

>  <SCORE.INTER.SOLV>
12.981

>  <SCORE.INTER.VDW>
-11.7218

>  <SCORE.INTER.norm>
-0.0692265

>  <SCORE.INTRA>
-2.37301

>  <SCORE.INTRA.DIHEDRAL>
-3.19449

>  <SCORE.INTRA.DIHEDRAL.0>
6.00299

>  <SCORE.INTRA.POLAR>
0

>  <SCORE.INTRA.POLAR.0>
0

>  <SCORE.INTRA.REPUL>
0

>  <SCORE.INTRA.REPUL.0>
0

>  <SCORE.INTRA.SOLV>
-1.24642

>  <SCORE.INTRA.SOLV.lig_0>
-39.3257

>  <SCORE.INTRA.VDW>
-0.152554

>  <SCORE.INTRA.VDW.0>
-0.734044

>  <SCORE.INTRA.norm>
-0.237301

>  <SCORE.RESTR>
0

>  <SCORE.RESTR.CAVITY>
0

>  <SCORE.RESTR.norm>
0

>  <SCORE.SYSTEM>
0

>  <SCORE.SYSTEM.CONST>
0

>  <SCORE.SYSTEM.DIHEDRAL>
0

>  <SCORE.SYSTEM.SOLV>
0

>  <SCORE.SYSTEM.norm>
0

>  <SCORE.heavy>
10

>  <SCORE.norm>
-0.306527

>  <RMSD>
48.197

$$$$
ligand
 OpenBabel11021811473D
libRbt.so/2013.1/901 2013/11/27
 10  9  0  0  0  0  0  0  0  0999 V2000
    1.9274   49.0098    3.8248 N   0  0  0  0  0  0  0  0  0  0  0  0
    1.0305   47.9742    3.3468 C   0  0  2  0  0  0  0  0  0  0  0  0
    1.8006   46.7343    2.9784 C   0  0  0  0  0  0  0  0  0  0  0  0
    2.8703   46.8522    2.3301 O   0  0  0  0  0  0  0  0  0  0  0  0
    0.2517   48.4926    2.1455 C   0  0  0  0  0  0  0  0  0  0  0  0
   -0.7811   47.5621    1.8308 O   0  0  0  0  0  0  0  0  0  0  0  0
   -1.5098   48.0820    0.7190 C   0  0  0  0  0  0  0  0  0  0  0  0
   -2.7013   47.1639    0.4551 C   0  0  0  0  0  0  0  0  0  0  0  0
   -3.4923   47.6787   -0.6491 N   0  0  0  0  0  0  0  0  0  0  0  0
    1.6258   45.7434    3.7157 O   0  0  0  0  0  0  0  0  0  0  0  0
  2  1  1  6  0  0  0
  2  5  1  0  0  0  0
  2  3  1  0  0  0  0
  3  4  1  0  0  0  0
  3 10  1  0  0  0  0
  5  6  1  0  0  0  0
  6  7  1  0  0  0  0
  7  8  1  0  0  0  0
  8  9  1  0  0  0  0
M  END
>  <CHROM.1>
-170.07203621,-43.49256307,178.96865047,-174.62406690,178.45526742,0.13070563
47.49828376,2.07739046,0.01332562,-0.58908449,0.16228849

>  <Name>
ligand

>  <RI>
0

>  <Rbt.Current_Directory>
/home/itssahil/PROJECTS/Mol_Feturizer/New_Systems/rnas/3DJ0

>  <Rbt.Executable>
rbdock ($Id: //depot/dev/client3/rdock/2013.1/src/exe/rbdock.cxx#4 $)

>  <Rbt.Library>
libRbt.so (2013.1, Build901 2013/11/27)

>  <Rbt.Parameter_File>
/export/apps/rDock/src/rDock_2013.1_src/data/scripts/dock_solv.prm

>  <Rbt.Receptor>
prm/blind_docking_100.prm

>  <SCORE>
-4.56008

>  <SCORE.INTER>
-1.93095

>  <SCORE.INTER.CONST>
1

>  <SCORE.INTER.POLAR>
0

>  <SCORE.INTER.ROT>
5

>  <SCORE.INTER.SOLV>
12.9776

>  <SCORE.INTER.VDW>
-12.5465

>  <SCORE.INTER.norm>
-0.193095

>  <SCORE.INTRA>
-2.62914

>  <SCORE.INTRA.DIHEDRAL>
-3.47052

>  <SCORE.INTRA.DIHEDRAL.0>
6.00299

>  <SCORE.INTRA.POLAR>
0

>  <SCORE.INTRA.POLAR.0>
0

>  <SCORE.INTRA.REPUL>
0

>  <SCORE.INTRA.REPUL.0>
0

>  <SCORE.INTRA.SOLV>
-1.31306

>  <SCORE.INTRA.SOLV.lig_0>
-39.3257

>  <SCORE.INTRA.VDW>
-0.237344

>  <SCORE.INTRA.VDW.0>
-0.734044

>  <SCORE.INTRA.norm>
-0.262914

>  <SCORE.RESTR>
0

>  <SCORE.RESTR.CAVITY>
0

>  <SCORE.RESTR.norm>
0

>  <SCORE.SYSTEM>
0

>  <SCORE.SYSTEM.CONST>
0

>  <SCORE.SYSTEM.DIHEDRAL>
0

>  <SCORE.SYSTEM.SOLV>
0

>  <SCORE.SYSTEM.norm>
0

>  <SCORE.heavy>
10

>  <SCORE.norm>
-0.456008

>  <RMSD>
48.207

$$$$
ligand
 OpenBabel11021811473D
libRbt.so/2013.1/901 2013/11/27
 10  9  0  0  0  0  0  0  0  0999 V2000
    1.0147   50.6454    0.5672 N   0  0  0  0  0  0  0  0  0  0  0  0
    1.0808   49.2201    0.8314 C   0  0  2  0  0  0  0  0  0  0  0  0
    0.7472   48.4349   -0.4088 C   0  0  0  0  0  0  0  0  0  0  0  0
    0.9887   47.2022   -0.4323 O   0  0  0  0  0  0  0  0  0  0  0  0
    0.1190   48.8682    1.9581 C   0  0  0  0  0  0  0  0  0  0  0  0
    0.3625   47.5247    2.3674 O   0  0  0  0  0  0  0  0  0  0  0  0
    1.5148   47.5299    3.2100 C   0  0  0  0  0  0  0  0  0  0  0  0
    1.8129   46.0903    3.6233 C   0  0  0  0  0  0  0  0  0  0  0  0
    2.8924   46.0640    4.5949 N   0  0  0  0  0  0  0  0  0  0  0  0
   -0.1585   48.9053   -1.1261 O   0  0  0  0  0  0  0  0  0  0  0  0
  2  1  1  6  0  0  0
  2  5  1  0  0  0  0
  2  3  1  0  0  0  0
  3  4  1  0  0  0  0
  3 10  1  0  0  0  0
  5  6  1  0  0  0  0
  6  7  1  0  0  0  0
  7  8  1  0  0  0  0
  8  9  1  0  0  0  0
M  END
>  <CHROM.1>
-169.80240048,167.22094310,79.00208248,-178.33921086,-173.99164199,1.01263956
48.03048851,1.48521979,3.10659004,1.26043928,-2.55294649

>  <Name>
ligand

>  <RI>
0

>  <Rbt.Current_Directory>
/home/itssahil/PROJECTS/Mol_Feturizer/New_Systems/rnas/3DJ0

>  <Rbt.Executable>
rbdock ($Id: //depot/dev/client3/rdock/2013.1/src/exe/rbdock.cxx#4 $)

>  <Rbt.Library>
libRbt.so (2013.1, Build901 2013/11/27)

>  <Rbt.Parameter_File>
/export/apps/rDock/src/rDock_2013.1_src/data/scripts/dock_solv.prm

>  <Rbt.Receptor>
prm/blind_docking_80.prm

>  <SCORE>
-1.53208

>  <SCORE.INTER>
-1.063

>  <SCORE.INTER.CONST>
1

>  <SCORE.INTER.POLAR>
0

>  <SCORE.INTER.ROT>
5

>  <SCORE.INTER.SOLV>
13.2141

>  <SCORE.INTER.VDW>
-12.0467

>  <SCORE.INTER.norm>
-0.1063

>  <SCORE.INTRA>
-0.469078

>  <SCORE.INTRA.DIHEDRAL>
-1.53213

>  <SCORE.INTRA.DIHEDRAL.0>
6.00299

>  <SCORE.INTRA.POLAR>
0

>  <SCORE.INTRA.POLAR.0>
0

>  <SCORE.INTRA.REPUL>
0

>  <SCORE.INTRA.REPUL.0>
0

>  <SCORE.INTRA.SOLV>
-0.658582

>  <SCORE.INTRA.SOLV.lig_0>
-39.3257

>  <SCORE.INTRA.VDW>
0.626276

>  <SCORE.INTRA.VDW.0>
-0.734044

>  <SCORE.INTRA.norm>
-0.0469078

>  <SCORE.RESTR>
0

>  <SCORE.RESTR.CAVITY>
0

>  <SCORE.RESTR.norm>
0

>  <SCORE.SYSTEM>
0

>  <SCORE.SYSTEM.CONST>
0

>  <SCORE.SYSTEM.DIHEDRAL>
0

>  <SCORE.SYSTEM.SOLV>
0

>  <SCORE.SYSTEM.norm>
0

>  <SCORE.heavy>
10

>  <SCORE.norm>
-0.153208

>  <RMSD>
48.307

$$$$
ligand
 OpenBabel11021811473D
libRbt.so/2013.1/901 2013/11/27
 10  9  0  0  0  0  0  0  0  0999 V2000
    2.2208   49.1193    2.9122 N   0  0  0  0  0  0  0  0  0  0  0  0
    1.4047   47.9861    3.3064 C   0  0  2  0  0  0  0  0  0  0  0  0
    2.1510   46.6960    3.0950 C   0  0  0  0  0  0  0  0  0  0  0  0
    2.8970   46.5818    2.0906 O   0  0  0  0  0  0  0  0  0  0  0  0
    0.1109   47.9893    2.5036 C   0  0  0  0  0  0  0  0  0  0  0  0
   -0.6477   49.1425    2.8590 O   0  0  0  0  0  0  0  0  0  0  0  0
   -1.9143   49.0465    2.2076 C   0  0  0  0  0  0  0  0  0  0  0  0
   -2.7690   50.2344    2.6441 C   0  0  0  0  0  0  0  0  0  0  0  0
   -4.0828   50.1557    2.0294 N   0  0  0  0  0  0  0  0  0  0  0  0
    2.3803   46.0231    4.1200 O   0  0  0  0  0  0  0  0  0  0  0  0
  2  1  1  6  0  0  0
  2  5  1  0  0  0  0
  2  3  1  0  0  0  0
  3  4  1  0  0  0  0
  3 10  1  0  0  0  0
  5  6  1  0  0  0  0
  6  7  1  0  0  0  0
  7  8  1  0  0  0  0
  8  9  1  0  0  0  0
M  END
>  <CHROM.1>
-65.35670510,-37.34201553,-173.70676698,176.71887003,-178.51061439,0.20914845
48.26743421,2.78105315,-0.53028113,-0.03471752,-0.19201075

>  <Name>
ligand

>  <RI>
0

>  <Rbt.Current_Directory>
/home/itssahil/PROJECTS/Mol_Feturizer/New_Systems/rnas/3DJ0

>  <Rbt.Executable>
rbdock ($Id: //depot/dev/client3/rdock/2013.1/src/exe/rbdock.cxx#4 $)

>  <Rbt.Library>
libRbt.so (2013.1, Build901 2013/11/27)

>  <Rbt.Parameter_File>
/export/apps/rDock/src/rDock_2013.1_src/data/scripts/dock_solv.prm

>  <Rbt.Receptor>
prm/blind_docking_80.prm

>  <SCORE>
-6.34471

>  <SCORE.INTER>
-3.97912

>  <SCORE.INTER.CONST>
1

>  <SCORE.INTER.POLAR>
0

>  <SCORE.INTER.ROT>
5

>  <SCORE.INTER.SOLV>
11.1703

>  <SCORE.INTER.VDW>
-13.3095

>  <SCORE.INTER.norm>
-0.397912

>  <SCORE.INTRA>
-2.36558

>  <SCORE.INTRA.DIHEDRAL>
-3.57871

>  <SCORE.INTRA.DIHEDRAL.0>
6.00299

>  <SCORE.INTRA.POLAR>
0

>  <SCORE.INTRA.POLAR.0>
0

>  <SCORE.INTRA.REPUL>
0

>  <SCORE.INTRA.REPUL.0>
0

>  <SCORE.INTRA.SOLV>
-0.757832

>  <SCORE.INTRA.SOLV.lig_0>
-39.3257

>  <SCORE.INTRA.VDW>
-0.197311

>  <SCORE.INTRA.VDW.0>
-0.734044

>  <SCORE.INTRA.norm>
-0.236558

>  <SCORE.RESTR>
0

>  <SCORE.RESTR.CAVITY>
0

>  <SCORE.RESTR.norm>
0

>  <SCORE.SYSTEM>
0

>  <SCORE.SYSTEM.CONST>
0

>  <SCORE.SYSTEM.DIHEDRAL>
0

>  <SCORE.SYSTEM.SOLV>
0

>  <SCORE.SYSTEM.norm>
0

>  <SCORE.heavy>
10

>  <SCORE.norm>
-0.634471

>  <RMSD>
48.410

$$$$
ligand
 OpenBabel11021811473D
libRbt.so/2013.1/901 2013/11/27
 10  9  0  0  0  0  0  0  0  0999 V2000
    2.1809   46.7308    1.9190 N   0  0  0  0  0  0  0  0  0  0  0  0
    1.4856   47.8519    2.5233 C   0  0  2  0  0  0  0  0  0  0  0  0
    1.5933   47.7961    4.0237 C   0  0  0  0  0  0  0  0  0  0  0  0
    2.0451   46.7555    4.5635 O   0  0  0  0  0  0  0  0  0  0  0  0
    0.0248   47.8336    2.0942 C   0  0  0  0  0  0  0  0  0  0  0  0
   -0.6341   48.9648    2.6581 O   0  0  0  0  0  0  0  0  0  0  0  0
   -2.0070   48.9045    2.2720 C   0  0  0  0  0  0  0  0  0  0  0  0
   -2.7151   50.1394    2.8248 C   0  0  0  0  0  0  0  0  0  0  0  0
   -4.1242   50.1051    2.4736 N   0  0  0  0  0  0  0  0  0  0  0  0
    1.6989   48.8947    4.6051 O   0  0  0  0  0  0  0  0  0  0  0  0
  2  1  1  6  0  0  0
  2  5  1  0  0  0  0
  2  3  1  0  0  0  0
  3  4  1  0  0  0  0
  3 10  1  0  0  0  0
  5  6  1  0  0  0  0
  6  7  1  0  0  0  0
  7  8  1  0  0  0  0
  8  9  1  0  0  0  0
M  END
>  <CHROM.1>
-178.04975128,-10.83221916,-178.43989101,-177.86887910,-178.98387349,-0.02265974
48.39774797,3.03093983,0.01465660,0.48760471,-2.02066849

>  <Name>
ligand

>  <RI>
0

>  <Rbt.Current_Directory>
/home/itssahil/PROJECTS/Mol_Feturizer/New_Systems/rnas/3DJ0

>  <Rbt.Executable>
rbdock ($Id: //depot/dev/client3/rdock/2013.1/src/exe/rbdock.cxx#4 $)

>  <Rbt.Library>
libRbt.so (2013.1, Build901 2013/11/27)

>  <Rbt.Parameter_File>
/export/apps/rDock/src/rDock_2013.1_src/data/scripts/dock_solv.prm

>  <Rbt.Receptor>
prm/blind_docking_100.prm

>  <SCORE>
-4.98747

>  <SCORE.INTER>
-2.56993

>  <SCORE.INTER.CONST>
1

>  <SCORE.INTER.POLAR>
0

>  <SCORE.INTER.ROT>
5

>  <SCORE.INTER.SOLV>
13.4698

>  <SCORE.INTER.VDW>
-13.1365

>  <SCORE.INTER.norm>
-0.256993

>  <SCORE.INTRA>
-2.41754

>  <SCORE.INTRA.DIHEDRAL>
-3.40078

>  <SCORE.INTRA.DIHEDRAL.0>
6.00299

>  <SCORE.INTRA.POLAR>
0

>  <SCORE.INTRA.POLAR.0>
0

>  <SCORE.INTRA.REPUL>
0

>  <SCORE.INTRA.REPUL.0>
0

>  <SCORE.INTRA.SOLV>
-1.26216

>  <SCORE.INTRA.SOLV.lig_0>
-39.3257

>  <SCORE.INTRA.VDW>
-0.0860719

>  <SCORE.INTRA.VDW.0>
-0.734044

>  <SCORE.INTRA.norm>
-0.241754

>  <SCORE.RESTR>
0

>  <SCORE.RESTR.CAVITY>
0

>  <SCORE.RESTR.norm>
0

>  <SCORE.SYSTEM>
0

>  <SCORE.SYSTEM.CONST>
0

>  <SCORE.SYSTEM.DIHEDRAL>
0

>  <SCORE.SYSTEM.SOLV>
0

>  <SCORE.SYSTEM.norm>
0

>  <SCORE.heavy>
10

>  <SCORE.norm>
-0.498747

>  <RMSD>
48.512

$$$$
ligand
 OpenBabel11021811473D
libRbt.so/2013.1/901 2013/11/27
 10  9  0  0  0  0  0  0  0  0999 V2000
    2.1855   46.7326    1.8963 N   0  0  0  0  0  0  0  0  0  0  0  0
    1.4898   47.8492    2.5083 C   0  0  2  0  0  0  0  0  0  0  0  0
    1.5889   47.7776    4.0087 C   0  0  0  0  0  0  0  0  0  0  0  0
    2.0120   46.7213    4.5412 O   0  0  0  0  0  0  0  0  0  0  0  0
    0.0313   47.8391    2.0711 C   0  0  0  0  0  0  0  0  0  0  0  0
   -0.6258   48.9707    2.6361 O   0  0  0  0  0  0  0  0  0  0  0  0
   -1.9981   48.9148    2.2471 C   0  0  0  0  0  0  0  0  0  0  0  0
   -2.7177   50.1173    2.8539 C   0  0  0  0  0  0  0  0  0  0  0  0
   -4.1068   50.1333    2.4292 N   0  0  0  0  0  0  0  0  0  0  0  0
    1.7194   48.8681    4.6003 O   0  0  0  0  0  0  0  0  0  0  0  0
  2  1  1  6  0  0  0
  2  5  1  0  0  0  0
  2  3  1  0  0  0  0
  3  4  1  0  0  0  0
  3 10  1  0  0  0  0
  5  6  1  0  0  0  0
  6  7  1  0  0  0  0
  7  8  1  0  0  0  0
  8  9  1  0  0  0  0
M  END
>  <CHROM.1>
-177.68690243,-12.12625024,-178.18140199,179.61862739,177.30245070,-0.01976802
48.39204001,3.01441723,0.00993094,0.49206793,-2.00746489

>  <Name>
ligand

>  <RI>
0

>  <Rbt.Current_Directory>
/home/itssahil/PROJECTS/Mol_Feturizer/New_Systems/rnas/3DJ0

>  <Rbt.Executable>
rbdock ($Id: //depot/dev/client3/rdock/2013.1/src/exe/rbdock.cxx#4 $)

>  <Rbt.Library>
libRbt.so (2013.1, Build901 2013/11/27)

>  <Rbt.Parameter_File>
/export/apps/rDock/src/rDock_2013.1_src/data/scripts/dock_solv.prm

>  <Rbt.Receptor>
prm/blind_docking_80.prm

>  <SCORE>
-5.0142

>  <SCORE.INTER>
-2.57552

>  <SCORE.INTER.CONST>
1

>  <SCORE.INTER.POLAR>
0

>  <SCORE.INTER.ROT>
5

>  <SCORE.INTER.SOLV>
13.4621

>  <SCORE.INTER.VDW>
-13.1377

>  <SCORE.INTER.norm>
-0.257552

>  <SCORE.INTRA>
-2.43896

>  <SCORE.INTRA.DIHEDRAL>
-3.41424

>  <SCORE.INTRA.DIHEDRAL.0>
6.00299

>  <SCORE.INTRA.POLAR>
0

>  <SCORE.INTRA.POLAR.0>
0

>  <SCORE.INTRA.REPUL>
0

>  <SCORE.INTRA.REPUL.0>
0

>  <SCORE.INTRA.SOLV>
-1.2656

>  <SCORE.INTRA.SOLV.lig_0>
-39.3257

>  <SCORE.INTRA.VDW>
-0.0990376

>  <SCORE.INTRA.VDW.0>
-0.734044

>  <SCORE.INTRA.norm>
-0.243896

>  <SCORE.RESTR>
0.000279691

>  <SCORE.RESTR.CAVITY>
0.000279691

>  <SCORE.RESTR.norm>
2.79691e-05

>  <SCORE.SYSTEM>
0

>  <SCORE.SYSTEM.CONST>
0

>  <SCORE.SYSTEM.DIHEDRAL>
0

>  <SCORE.SYSTEM.SOLV>
0

>  <SCORE.SYSTEM.norm>
0

>  <SCORE.heavy>
10

>  <SCORE.norm>
-0.50142

>  <RMSD>
48.513

$$$$
ligand
 OpenBabel11021811473D
libRbt.so/2013.1/901 2013/11/27
 10  9  0  0  0  0  0  0  0  0999 V2000
    0.6220   47.0034    1.7359 N   0  0  0  0  0  0  0  0  0  0  0  0
    1.2976   48.1099    2.3875 C   0  0  2  0  0  0  0  0  0  0  0  0
    1.4860   47.8267    3.8539 C   0  0  0  0  0  0  0  0  0  0  0  0
    1.8955   46.6928    4.2073 O   0  0  0  0  0  0  0  0  0  0  0  0
    0.4877   49.3844    2.1921 C   0  0  0  0  0  0  0  0  0  0  0  0
   -0.8246   49.1788    2.7089 O   0  0  0  0  0  0  0  0  0  0  0  0
   -1.5609   50.3866    2.5171 C   0  0  0  0  0  0  0  0  0  0  0  0
   -2.9440   50.2089    3.1396 C   0  0  0  0  0  0  0  0  0  0  0  0
   -3.7055   49.2252    2.3895 N   0  0  0  0  0  0  0  0  0  0  0  0
    1.6994   48.8191    4.5790 O   0  0  0  0  0  0  0  0  0  0  0  0
  2  1  1  1  0  0  0
  2  5  1  0  0  0  0
  2  3  1  0  0  0  0
  3  4  1  0  0  0  0
  3 10  1  0  0  0  0
  5  6  1  0  0  0  0
  6  7  1  0  0  0  0
  7  8  1  0  0  0  0
  8  9  1  0  0  0  0
M  END
>  <CHROM.1>
57.21310182,44.79641549,179.85783632,-176.74097665,-67.52327391,-0.13164793
48.67512413,3.00458115,0.16038622,0.49154355,-2.32652231

>  <Name>
ligand

>  <RI>
0

>  <Rbt.Current_Directory>
/home/itssahil/PROJECTS/Mol_Feturizer/New_Systems/rnas/3DJ0

>  <Rbt.Executable>
rbdock ($Id: //depot/dev/client3/rdock/2013.1/src/exe/rbdock.cxx#4 $)

>  <Rbt.Library>
libRbt.so (2013.1, Build901 2013/11/27)

>  <Rbt.Parameter_File>
/export/apps/rDock/src/rDock_2013.1_src/data/scripts/dock_solv.prm

>  <Rbt.Receptor>
prm/blind_docking_80.prm

>  <SCORE>
-3.96057

>  <SCORE.INTER>
-3.08411

>  <SCORE.INTER.CONST>
1

>  <SCORE.INTER.POLAR>
0

>  <SCORE.INTER.ROT>
5

>  <SCORE.INTER.SOLV>
10.63

>  <SCORE.INTER.VDW>
-12.5328

>  <SCORE.INTER.norm>
-0.308411

>  <SCORE.INTRA>
-0.876466

>  <SCORE.INTRA.DIHEDRAL>
-3.35406

>  <SCORE.INTRA.DIHEDRAL.0>
6.00299

>  <SCORE.INTRA.POLAR>
0

>  <SCORE.INTRA.POLAR.0>
0

>  <SCORE.INTRA.REPUL>
0

>  <SCORE.INTRA.REPUL.0>
0

>  <SCORE.INTRA.SOLV>
0.612022

>  <SCORE.INTRA.SOLV.lig_0>
-39.3257

>  <SCORE.INTRA.VDW>
0.494554

>  <SCORE.INTRA.VDW.0>
-0.734044

>  <SCORE.INTRA.norm>
-0.0876466

>  <SCORE.RESTR>
0

>  <SCORE.RESTR.CAVITY>
0

>  <SCORE.RESTR.norm>
0

>  <SCORE.SYSTEM>
0

>  <SCORE.SYSTEM.CONST>
0

>  <SCORE.SYSTEM.DIHEDRAL>
0

>  <SCORE.SYSTEM.SOLV>
0

>  <SCORE.SYSTEM.norm>
0

>  <SCORE.heavy>
10

>  <SCORE.norm>
-0.396057

>  <RMSD>
48.783

$$$$
ligand
 OpenBabel11021811473D
libRbt.so/2013.1/901 2013/11/27
 10  9  0  0  0  0  0  0  0  0999 V2000
   -2.6944   47.5172    0.8203 N   0  0  0  0  0  0  0  0  0  0  0  0
   -1.3459   47.9789    0.5484 C   0  0  2  0  0  0  0  0  0  0  0  0
   -0.6052   46.9813   -0.3014 C   0  0  0  0  0  0  0  0  0  0  0  0
    0.5341   47.2807   -0.7382 O   0  0  0  0  0  0  0  0  0  0  0  0
   -0.6126   48.2050    1.8635 C   0  0  0  0  0  0  0  0  0  0  0  0
    0.6487   48.8093    1.5884 O   0  0  0  0  0  0  0  0  0  0  0  0
    1.2859   49.0723    2.8384 C   0  0  0  0  0  0  0  0  0  0  0  0
    2.5962   49.8069    2.5633 C   0  0  0  0  0  0  0  0  0  0  0  0
    2.3321   51.0524    1.8641 N   0  0  0  0  0  0  0  0  0  0  0  0
   -0.9113   45.7841   -0.1307 O   0  0  0  0  0  0  0  0  0  0  0  0
  2  1  1  1  0  0  0
  2  5  1  0  0  0  0
  2  3  1  0  0  0  0
  3  4  1  0  0  0  0
  3 10  1  0  0  0  0
  5  6  1  0  0  0  0
  6  7  1  0  0  0  0
  7  8  1  0  0  0  0
  8  9  1  0  0  0  0
M  END
>  <CHROM.1>
-173.06064168,173.25787122,177.11390103,-176.17492133,59.51612164,0.13689055
48.21995872,1.07011325,2.30513756,-0.27876457,-2.28556024

>  <Name>
ligand

>  <RI>
0

>  <Rbt.Current_Directory>
/home/itssahil/PROJECTS/Mol_Feturizer/New_Systems/rnas/3DJ0

>  <Rbt.Executable>
rbdock ($Id: //depot/dev/client3/rdock/2013.1/src/exe/rbdock.cxx#4 $)

>  <Rbt.Library>
libRbt.so (2013.1, Build901 2013/11/27)

>  <Rbt.Parameter_File>
/export/apps/rDock/src/rDock_2013.1_src/data/scripts/dock_solv.prm

>  <Rbt.Receptor>
prm/blind_docking_100.prm

>  <SCORE>
-1.29972

>  <SCORE.INTER>
0.486941

>  <SCORE.INTER.CONST>
1

>  <SCORE.INTER.POLAR>
0

>  <SCORE.INTER.ROT>
5

>  <SCORE.INTER.SOLV>
7.94026

>  <SCORE.INTER.VDW>
-9.25546

>  <SCORE.INTER.norm>
0.0486941

>  <SCORE.INTRA>
-1.78666

>  <SCORE.INTRA.DIHEDRAL>
-3.51757

>  <SCORE.INTRA.DIHEDRAL.0>
6.00299

>  <SCORE.INTRA.POLAR>
0

>  <SCORE.INTRA.POLAR.0>
0

>  <SCORE.INTRA.REPUL>
0

>  <SCORE.INTRA.REPUL.0>
0

>  <SCORE.INTRA.SOLV>
-0.0351904

>  <SCORE.INTRA.SOLV.lig_0>
-39.3257

>  <SCORE.INTRA.VDW>
-0.0102815

>  <SCORE.INTRA.VDW.0>
-0.734044

>  <SCORE.INTRA.norm>
-0.178666

>  <SCORE.RESTR>
0

>  <SCORE.RESTR.CAVITY>
0

>  <SCORE.RESTR.norm>
0

>  <SCORE.SYSTEM>
0

>  <SCORE.SYSTEM.CONST>
0

>  <SCORE.SYSTEM.DIHEDRAL>
0

>  <SCORE.SYSTEM.SOLV>
0

>  <SCORE.SYSTEM.norm>
0

>  <SCORE.heavy>
10

>  <SCORE.norm>
-0.129972

>  <RMSD>
49.245

$$$$
ligand
 OpenBabel11021811473D
libRbt.so/2013.1/901 2013/11/27
 10  9  0  0  0  0  0  0  0  0999 V2000
   -1.8221   48.5260   -0.6495 N   0  0  0  0  0  0  0  0  0  0  0  0
   -2.0237   47.1886   -0.1239 C   0  0  2  0  0  0  0  0  0  0  0  0
   -3.1313   47.1808    0.8955 C   0  0  0  0  0  0  0  0  0  0  0  0
   -3.1399   48.0610    1.7919 O   0  0  0  0  0  0  0  0  0  0  0  0
   -0.7269   46.6868    0.4966 C   0  0  0  0  0  0  0  0  0  0  0  0
   -0.3190   47.6010    1.5113 O   0  0  0  0  0  0  0  0  0  0  0  0
    0.8891   47.1018    2.0850 C   0  0  0  0  0  0  0  0  0  0  0  0
    1.3474   48.0805    3.1640 C   0  0  0  0  0  0  0  0  0  0  0  0
    1.6739   49.3638    2.5668 N   0  0  0  0  0  0  0  0  0  0  0  0
   -4.2006   46.6480    0.5364 O   0  0  0  0  0  0  0  0  0  0  0  0
  2  1  1  1  0  0  0
  2  5  1  0  0  0  0
  2  3  1  0  0  0  0
  3  4  1  0  0  0  0
  3 10  1  0  0  0  0
  5  6  1  0  0  0  0
  6  7  1  0  0  0  0
  7  8  1  0  0  0  0
  8  9  1  0  0  0  0
M  END
>  <CHROM.1>
57.43371320,-47.12750877,179.43433859,179.35421696,-63.95779800,-1.18338224
47.64137869,1.24141961,-2.70382178,0.15170765,1.41539611

>  <Name>
ligand

>  <RI>
0

>  <Rbt.Current_Directory>
/home/itssahil/PROJECTS/Mol_Feturizer/New_Systems/rnas/3DJ0

>  <Rbt.Executable>
rbdock ($Id: //depot/dev/client3/rdock/2013.1/src/exe/rbdock.cxx#4 $)

>  <Rbt.Library>
libRbt.so (2013.1, Build901 2013/11/27)

>  <Rbt.Parameter_File>
/export/apps/rDock/src/rDock_2013.1_src/data/scripts/dock_solv.prm

>  <Rbt.Receptor>
prm/blind_docking_80.prm

>  <SCORE>
-4.26198

>  <SCORE.INTER>
-2.42729

>  <SCORE.INTER.CONST>
1

>  <SCORE.INTER.POLAR>
0

>  <SCORE.INTER.ROT>
5

>  <SCORE.INTER.SOLV>
7.56977

>  <SCORE.INTER.VDW>
-11.0748

>  <SCORE.INTER.norm>
-0.242729

>  <SCORE.INTRA>
-1.83469

>  <SCORE.INTRA.DIHEDRAL>
-3.90473

>  <SCORE.INTRA.DIHEDRAL.0>
6.00299

>  <SCORE.INTRA.POLAR>
0

>  <SCORE.INTRA.POLAR.0>
0

>  <SCORE.INTRA.REPUL>
0

>  <SCORE.INTRA.REPUL.0>
0

>  <SCORE.INTRA.SOLV>
0.870925

>  <SCORE.INTRA.SOLV.lig_0>
-39.3257

>  <SCORE.INTRA.VDW>
-0.317789

>  <SCORE.INTRA.VDW.0>
-0.734044

>  <SCORE.INTRA.norm>
-0.183469

>  <SCORE.RESTR>
0

>  <SCORE.RESTR.CAVITY>
0

>  <SCORE.RESTR.norm>
0

>  <SCORE.SYSTEM>
0

>  <SCORE.SYSTEM.CONST>
0

>  <SCORE.SYSTEM.DIHEDRAL>
0

>  <SCORE.SYSTEM.SOLV>
0

>  <SCORE.SYSTEM.norm>
0

>  <SCORE.heavy>
10

>  <SCORE.norm>
-0.426198

>  <RMSD>
49.608

$$$$
ligand
 OpenBabel11021811473D
libRbt.so/2013.1/901 2013/11/27
 10  9  0  0  0  0  0  0  0  0999 V2000
    1.6174   47.6411    2.0885 N   0  0  0  0  0  0  0  0  0  0  0  0
    0.1844   47.4368    1.9878 C   0  0  2  0  0  0  0  0  0  0  0  0
   -0.1885   46.9661    0.6074 C   0  0  0  0  0  0  0  0  0  0  0  0
   -1.3575   46.5558    0.3992 O   0  0  0  0  0  0  0  0  0  0  0  0
   -0.5374   48.7358    2.3194 C   0  0  0  0  0  0  0  0  0  0  0  0
   -1.9312   48.4670    2.4489 O   0  0  0  0  0  0  0  0  0  0  0  0
   -2.5783   49.6898    2.8007 C   0  0  0  0  0  0  0  0  0  0  0  0
   -4.0622   49.4017    3.0178 C   0  0  0  0  0  0  0  0  0  0  0  0
   -4.7699   50.6335    3.3210 N   0  0  0  0  0  0  0  0  0  0  0  0
    0.4801   47.4429   -0.3316 O   0  0  0  0  0  0  0  0  0  0  0  0
  2  1  1  6  0  0  0
  2  5  1  0  0  0  0
  2  3  1  0  0  0  0
  3  4  1  0  0  0  0
  3 10  1  0  0  0  0
  5  6  1  0  0  0  0
  6  7  1  0  0  0  0
  7  8  1  0  0  0  0
  8  9  1  0  0  0  0
M  END
>  <CHROM.1>
-169.85345510,169.81006409,178.19704264,-176.94733504,-177.50511125,-1.31705721
48.27895889,1.83143546,-0.66365819,-0.17082339,0.91414065

>  <Name>
ligand

>  <RI>
0

>  <Rbt.Current_Directory>
/home/itssahil/PROJECTS/Mol_Feturizer/New_Systems/rnas/3DJ0

>  <Rbt.Executable>
rbdock ($Id: //depot/dev/client3/rdock/2013.1/src/exe/rbdock.cxx#4 $)

>  <Rbt.Library>
libRbt.so (2013.1, Build901 2013/11/27)

>  <Rbt.Parameter_File>
/export/apps/rDock/src/rDock_2013.1_src/data/scripts/dock_solv.prm

>  <Rbt.Receptor>
prm/blind_docking_80.prm

>  <SCORE>
-2.43331

>  <SCORE.INTER>
-0.114301

>  <SCORE.INTER.CONST>
1

>  <SCORE.INTER.POLAR>
0

>  <SCORE.INTER.ROT>
5

>  <SCORE.INTER.SOLV>
11.8108

>  <SCORE.INTER.VDW>
-10.9465

>  <SCORE.INTER.norm>
-0.0114301

>  <SCORE.INTRA>
-2.319

>  <SCORE.INTRA.DIHEDRAL>
-3.28992

>  <SCORE.INTRA.DIHEDRAL.0>
6.00299

>  <SCORE.INTRA.POLAR>
0

>  <SCORE.INTRA.POLAR.0>
0

>  <SCORE.INTRA.REPUL>
0

>  <SCORE.INTRA.REPUL.0>
0

>  <SCORE.INTRA.SOLV>
-1.21431

>  <SCORE.INTRA.SOLV.lig_0>
-39.3257

>  <SCORE.INTRA.VDW>
-0.0668907

>  <SCORE.INTRA.VDW.0>
-0.734044

>  <SCORE.INTRA.norm>
-0.2319

>  <SCORE.RESTR>
0

>  <SCORE.RESTR.CAVITY>
0

>  <SCORE.RESTR.norm>
0

>  <SCORE.SYSTEM>
0

>  <SCORE.SYSTEM.CONST>
0

>  <SCORE.SYSTEM.DIHEDRAL>
0

>  <SCORE.SYSTEM.SOLV>
0

>  <SCORE.SYSTEM.norm>
0

>  <SCORE.heavy>
10

>  <SCORE.norm>
-0.243331

>  <RMSD>
49.755

$$$$
ligand
 OpenBabel11021811473D
libRbt.so/2013.1/901 2013/11/27
 10  9  0  0  0  0  0  0  0  0999 V2000
   -0.9791   50.5005   11.5668 N   0  0  0  0  0  0  0  0  0  0  0  0
   -2.0499   51.3827   11.1419 C   0  0  2  0  0  0  0  0  0  0  0  0
   -2.5937   50.9514    9.8061 C   0  0  0  0  0  0  0  0  0  0  0  0
   -1.7895   50.6190    8.8999 O   0  0  0  0  0  0  0  0  0  0  0  0
   -1.5302   52.8119   11.0678 C   0  0  0  0  0  0  0  0  0  0  0  0
   -1.2707   53.2758   12.3903 O   0  0  0  0  0  0  0  0  0  0  0  0
   -0.7066   54.5831   12.2889 C   0  0  0  0  0  0  0  0  0  0  0  0
   -0.5304   55.1400   13.6999 C   0  0  0  0  0  0  0  0  0  0  0  0
    0.3220   54.2600   14.4802 N   0  0  0  0  0  0  0  0  0  0  0  0
   -3.7515   50.4869    9.8117 O   0  0  0  0  0  0  0  0  0  0  0  0
  2  1  1  6  0  0  0
  2  5  1  0  0  0  0
  2  3  1  0  0  0  0
  3  4  1  0  0  0  0
  3 10  1  0  0  0  0
  5  6  1  0  0  0  0
  6  7  1  0  0  0  0
  7  8  1  0  0  0  0
  8  9  1  0  0  0  0
M  END
>  <CHROM.1>
-69.29249971,-43.61028997,176.40545176,175.36945782,58.28509084,-1.50875912
52.37978065,11.48235804,-2.20641416,-0.87768938,0.25840485

>  <Name>
ligand

>  <RI>
0

>  <Rbt.Current_Directory>
/home/itssahil/PROJECTS/Mol_Feturizer/New_Systems/rnas/3DJ0

>  <Rbt.Executable>
rbdock ($Id: //depot/dev/client3/rdock/2013.1/src/exe/rbdock.cxx#4 $)

>  <Rbt.Library>
libRbt.so (2013.1, Build901 2013/11/27)

>  <Rbt.Parameter_File>
/export/apps/rDock/src/rDock_2013.1_src/data/scripts/dock_solv.prm

>  <Rbt.Receptor>
prm/blind_docking_100.prm

>  <SCORE>
-3.02645

>  <SCORE.INTER>
-1.2098

>  <SCORE.INTER.CONST>
1

>  <SCORE.INTER.POLAR>
0

>  <SCORE.INTER.ROT>
5

>  <SCORE.INTER.SOLV>
15.2794

>  <SCORE.INTER.VDW>
-12.833

>  <SCORE.INTER.norm>
-0.12098

>  <SCORE.INTRA>
-1.81679

>  <SCORE.INTRA.DIHEDRAL>
-3.5014

>  <SCORE.INTRA.DIHEDRAL.0>
6.00299

>  <SCORE.INTRA.POLAR>
0

>  <SCORE.INTRA.POLAR.0>
0

>  <SCORE.INTRA.REPUL>
0

>  <SCORE.INTRA.REPUL.0>
0

>  <SCORE.INTRA.SOLV>
0.369127

>  <SCORE.INTRA.SOLV.lig_0>
-39.3257

>  <SCORE.INTRA.VDW>
-0.250653

>  <SCORE.INTRA.VDW.0>
-0.734044

>  <SCORE.INTRA.norm>
-0.181679

>  <SCORE.RESTR>
0.000140124

>  <SCORE.RESTR.CAVITY>
0.000140124

>  <SCORE.RESTR.norm>
1.40124e-05

>  <SCORE.SYSTEM>
0

>  <SCORE.SYSTEM.CONST>
0

>  <SCORE.SYSTEM.DIHEDRAL>
0

>  <SCORE.SYSTEM.SOLV>
0

>  <SCORE.SYSTEM.norm>
0

>  <SCORE.heavy>
10

>  <SCORE.norm>
-0.302645

>  <RMSD>
49.982

$$$$
ligand
 OpenBabel11021811473D
libRbt.so/2013.1/901 2013/11/27
 10  9  0  0  0  0  0  0  0  0999 V2000
   -1.6468   52.8965    9.2695 N   0  0  0  0  0  0  0  0  0  0  0  0
   -1.6664   51.8686   10.2935 C   0  0  2  0  0  0  0  0  0  0  0  0
   -2.5328   50.7133    9.8685 C   0  0  0  0  0  0  0  0  0  0  0  0
   -3.6810   50.9476    9.4155 O   0  0  0  0  0  0  0  0  0  0  0  0
   -2.1766   52.4632   11.5991 C   0  0  0  0  0  0  0  0  0  0  0  0
   -1.2705   53.4767   12.0275 O   0  0  0  0  0  0  0  0  0  0  0  0
   -1.7305   53.9657   13.2873 C   0  0  0  0  0  0  0  0  0  0  0  0
   -0.7613   55.0448   13.7654 C   0  0  0  0  0  0  0  0  0  0  0  0
   -1.1415   55.5049   15.0898 N   0  0  0  0  0  0  0  0  0  0  0  0
   -1.9307   49.6742    9.5307 O   0  0  0  0  0  0  0  0  0  0  0  0
  2  1  1  6  0  0  0
  2  5  1  0  0  0  0
  2  3  1  0  0  0  0
  3  4  1  0  0  0  0
  3 10  1  0  0  0  0
  5  6  1  0  0  0  0
  6  7  1  0  0  0  0
  7  8  1  0  0  0  0
  8  9  1  0  0  0  0
M  END
>  <CHROM.1>
-62.82843482,-48.27639135,-176.85562555,179.49731657,-176.05762494,-1.86857508
52.62127219,11.38835629,-2.04401322,1.07445449,1.24985238

>  <Name>
ligand

>  <RI>
0

>  <Rbt.Current_Directory>
/home/itssahil/PROJECTS/Mol_Feturizer/New_Systems/rnas/3DJ0

>  <Rbt.Executable>
rbdock ($Id: //depot/dev/client3/rdock/2013.1/src/exe/rbdock.cxx#4 $)

>  <Rbt.Library>
libRbt.so (2013.1, Build901 2013/11/27)

>  <Rbt.Parameter_File>
/export/apps/rDock/src/rDock_2013.1_src/data/scripts/dock_solv.prm

>  <Rbt.Receptor>
prm/blind_docking_80.prm

>  <SCORE>
-3.39493

>  <SCORE.INTER>
-0.951915

>  <SCORE.INTER.CONST>
1

>  <SCORE.INTER.POLAR>
0

>  <SCORE.INTER.ROT>
5

>  <SCORE.INTER.SOLV>
15.5621

>  <SCORE.INTER.VDW>
-12.7553

>  <SCORE.INTER.norm>
-0.0951915

>  <SCORE.INTRA>
-2.44301

>  <SCORE.INTRA.DIHEDRAL>
-3.85394

>  <SCORE.INTRA.DIHEDRAL.0>
6.00299

>  <SCORE.INTRA.POLAR>
0

>  <SCORE.INTRA.POLAR.0>
0

>  <SCORE.INTRA.REPUL>
0

>  <SCORE.INTRA.REPUL.0>
0

>  <SCORE.INTRA.SOLV>
-0.703426

>  <SCORE.INTRA.SOLV.lig_0>
-39.3257

>  <SCORE.INTRA.VDW>
-0.164327

>  <SCORE.INTRA.VDW.0>
-0.734044

>  <SCORE.INTRA.norm>
-0.244301

>  <SCORE.RESTR>
0

>  <SCORE.RESTR.CAVITY>
0

>  <SCORE.RESTR.norm>
0

>  <SCORE.SYSTEM>
0

>  <SCORE.SYSTEM.CONST>
0

>  <SCORE.SYSTEM.DIHEDRAL>
0

>  <SCORE.SYSTEM.SOLV>
0

>  <SCORE.SYSTEM.norm>
0

>  <SCORE.heavy>
10

>  <SCORE.norm>
-0.339493

>  <RMSD>
50.417

$$$$
ligand
 OpenBabel11021811473D
libRbt.so/2013.1/901 2013/11/27
 10  9  0  0  0  0  0  0  0  0999 V2000
   -0.5830   55.8233   14.3211 N   0  0  0  0  0  0  0  0  0  0  0  0
   -1.4733   54.9003   13.6422 C   0  0  2  0  0  0  0  0  0  0  0  0
   -1.8416   53.7558   14.5481 C   0  0  0  0  0  0  0  0  0  0  0  0
   -0.9603   53.2630   15.2956 O   0  0  0  0  0  0  0  0  0  0  0  0
   -0.7995   54.3824   12.3788 C   0  0  0  0  0  0  0  0  0  0  0  0
   -1.7095   53.5291   11.6894 O   0  0  0  0  0  0  0  0  0  0  0  0
   -1.0505   53.0474   10.5184 C   0  0  0  0  0  0  0  0  0  0  0  0
   -1.9942   52.0868    9.7981 C   0  0  0  0  0  0  0  0  0  0  0  0
   -2.3132   50.9616   10.6597 N   0  0  0  0  0  0  0  0  0  0  0  0
   -3.0444   53.6788   14.8697 O   0  0  0  0  0  0  0  0  0  0  0  0
  2  1  1  1  0  0  0
  2  5  1  0  0  0  0
  2  3  1  0  0  0  0
  3  4  1  0  0  0  0
  3 10  1  0  0  0  0
  5  6  1  0  0  0  0
  6  7  1  0  0  0  0
  7  8  1  0  0  0  0
  8  9  1  0  0  0  0
M  END
>  <CHROM.1>
-177.19181792,-39.68846361,-179.42964230,177.76713953,-60.86048270,-1.58931917
53.52975260,12.80211591,-1.43091079,-1.00279806,-1.93731929

>  <Name>
ligand

>  <RI>
0

>  <Rbt.Current_Directory>
/home/itssahil/PROJECTS/Mol_Feturizer/New_Systems/rnas/3DJ0

>  <Rbt.Executable>
rbdock ($Id: //depot/dev/client3/rdock/2013.1/src/exe/rbdock.cxx#4 $)

>  <Rbt.Library>
libRbt.so (2013.1, Build901 2013/11/27)

>  <Rbt.Parameter_File>
/export/apps/rDock/src/rDock_2013.1_src/data/scripts/dock_solv.prm

>  <Rbt.Receptor>
prm/blind_docking_80.prm

>  <SCORE>
-0.828746

>  <SCORE.INTER>
1.4492

>  <SCORE.INTER.CONST>
1

>  <SCORE.INTER.POLAR>
0

>  <SCORE.INTER.ROT>
5

>  <SCORE.INTER.SOLV>
12.2489

>  <SCORE.INTER.VDW>
-10.0502

>  <SCORE.INTER.norm>
0.14492

>  <SCORE.INTRA>
-2.27794

>  <SCORE.INTRA.DIHEDRAL>
-3.89628

>  <SCORE.INTRA.DIHEDRAL.0>
6.00299

>  <SCORE.INTRA.POLAR>
0

>  <SCORE.INTRA.POLAR.0>
0

>  <SCORE.INTRA.REPUL>
0

>  <SCORE.INTRA.REPUL.0>
0

>  <SCORE.INTRA.SOLV>
-0.164303

>  <SCORE.INTRA.SOLV.lig_0>
-39.3257

>  <SCORE.INTRA.VDW>
-0.247651

>  <SCORE.INTRA.VDW.0>
-0.734044

>  <SCORE.INTRA.norm>
-0.227794

>  <SCORE.RESTR>
0

>  <SCORE.RESTR.CAVITY>
0

>  <SCORE.RESTR.norm>
0

>  <SCORE.SYSTEM>
0

>  <SCORE.SYSTEM.CONST>
0

>  <SCORE.SYSTEM.DIHEDRAL>
0

>  <SCORE.SYSTEM.SOLV>
0

>  <SCORE.SYSTEM.norm>
0

>  <SCORE.heavy>
10

>  <SCORE.norm>
-0.0828746

>  <RMSD>
50.506

$$$$
ligand
 OpenBabel11021811473D
libRbt.so/2013.1/901 2013/11/27
 10  9  0  0  0  0  0  0  0  0999 V2000
   -2.9024   48.4046    0.8862 N   0  0  0  0  0  0  0  0  0  0  0  0
   -2.7760   47.3240   -0.0738 C   0  0  2  0  0  0  0  0  0  0  0  0
   -1.3263   47.0221   -0.3447 C   0  0  0  0  0  0  0  0  0  0  0  0
   -0.5219   47.9767   -0.4869 O   0  0  0  0  0  0  0  0  0  0  0  0
   -3.4893   47.7056   -1.3638 C   0  0  0  0  0  0  0  0  0  0  0  0
   -4.8442   48.0291   -1.0613 O   0  0  0  0  0  0  0  0  0  0  0  0
   -5.4832   48.4053   -2.2811 C   0  0  0  0  0  0  0  0  0  0  0  0
   -6.9127   48.8363   -1.9602 C   0  0  0  0  0  0  0  0  0  0  0  0
   -7.5914   49.2554   -3.1742 N   0  0  0  0  0  0  0  0  0  0  0  0
   -0.9141   45.9158    0.0581 O   0  0  0  0  0  0  0  0  0  0  0  0
  2  1  1  1  0  0  0
  2  5  1  0  0  0  0
  2  3  1  0  0  0  0
  3  4  1  0  0  0  0
  3 10  1  0  0  0  0
  5  6  1  0  0  0  0
  6  7  1  0  0  0  0
  7  8  1  0  0  0  0
  8  9  1  0  0  0  0
M  END
>  <CHROM.1>
-55.96161575,-42.26242412,178.99812794,-176.61551422,178.79091081,-3.63345393
47.87338986,-0.97105183,0.24446781,-0.42786424,1.18575826

>  <Name>
ligand

>  <RI>
0

>  <Rbt.Current_Directory>
/home/itssahil/PROJECTS/Mol_Feturizer/New_Systems/rnas/3DJ0

>  <Rbt.Executable>
rbdock ($Id: //depot/dev/client3/rdock/2013.1/src/exe/rbdock.cxx#4 $)

>  <Rbt.Library>
libRbt.so (2013.1, Build901 2013/11/27)

>  <Rbt.Parameter_File>
/export/apps/rDock/src/rDock_2013.1_src/data/scripts/dock_solv.prm

>  <Rbt.Receptor>
prm/blind_docking_80.prm

>  <SCORE>
-1.87401

>  <SCORE.INTER>
0.504122

>  <SCORE.INTER.CONST>
1

>  <SCORE.INTER.POLAR>
0

>  <SCORE.INTER.ROT>
5

>  <SCORE.INTER.SOLV>
5.82557

>  <SCORE.INTER.VDW>
-8.53911

>  <SCORE.INTER.norm>
0.0504122

>  <SCORE.INTRA>
-2.37813

>  <SCORE.INTRA.DIHEDRAL>
-3.84573

>  <SCORE.INTRA.DIHEDRAL.0>
6.00299

>  <SCORE.INTRA.POLAR>
0

>  <SCORE.INTRA.POLAR.0>
0

>  <SCORE.INTRA.REPUL>
0

>  <SCORE.INTRA.REPUL.0>
0

>  <SCORE.INTRA.SOLV>
-0.617769

>  <SCORE.INTRA.SOLV.lig_0>
-39.3257

>  <SCORE.INTRA.VDW>
-0.146382

>  <SCORE.INTRA.VDW.0>
-0.734044

>  <SCORE.INTRA.norm>
-0.237813

>  <SCORE.RESTR>
0

>  <SCORE.RESTR.CAVITY>
0

>  <SCORE.RESTR.norm>
0

>  <SCORE.SYSTEM>
0

>  <SCORE.SYSTEM.CONST>
0

>  <SCORE.SYSTEM.DIHEDRAL>
0

>  <SCORE.SYSTEM.SOLV>
0

>  <SCORE.SYSTEM.norm>
0

>  <SCORE.heavy>
10

>  <SCORE.norm>
-0.187401

>  <RMSD>
52.172

$$$$
ligand
 OpenBabel11021811473D
libRbt.so/2013.1/901 2013/11/27
 10  9  0  0  0  0  0  0  0  0999 V2000
   -8.5647   53.3548   -0.0679 N   0  0  0  0  0  0  0  0  0  0  0  0
   -7.6250   53.3607    1.0377 C   0  0  2  0  0  0  0  0  0  0  0  0
   -7.6921   52.0629    1.7975 C   0  0  0  0  0  0  0  0  0  0  0  0
   -6.7266   51.7371    2.5325 O   0  0  0  0  0  0  0  0  0  0  0  0
   -7.9338   54.5327    1.9593 C   0  0  0  0  0  0  0  0  0  0  0  0
   -6.9539   54.5746    2.9936 O   0  0  0  0  0  0  0  0  0  0  0  0
   -7.2688   55.6759    3.8455 C   0  0  0  0  0  0  0  0  0  0  0  0
   -6.1412   55.8323    4.8634 C   0  0  0  0  0  0  0  0  0  0  0  0
   -6.3164   57.0622    5.6162 N   0  0  0  0  0  0  0  0  0  0  0  0
   -8.8368   51.6349    2.0479 O   0  0  0  0  0  0  0  0  0  0  0  0
  2  1  1  6  0  0  0
  2  5  1  0  0  0  0
  2  3  1  0  0  0  0
  3  4  1  0  0  0  0
  3 10  1  0  0  0  0
  5  6  1  0  0  0  0
  6  7  1  0  0  0  0
  7  8  1  0  0  0  0
  8  9  1  0  0  0  0
M  END
>  <CHROM.1>
-176.44822626,160.48410447,-179.73791131,-173.59026675,171.22744671,-7.40647097
53.94547669,2.67428134,2.27503412,1.10430164,-3.06073249

>  <Name>
ligand

>  <RI>
0

>  <Rbt.Current_Directory>
/home/itssahil/PROJECTS/Mol_Feturizer/New_Systems/rnas/3DJ0

>  <Rbt.Executable>
rbdock ($Id: //depot/dev/client3/rdock/2013.1/src/exe/rbdock.cxx#4 $)

>  <Rbt.Library>
libRbt.so (2013.1, Build901 2013/11/27)

>  <Rbt.Parameter_File>
/export/apps/rDock/src/rDock_2013.1_src/data/scripts/dock_solv.prm

>  <Rbt.Receptor>
prm/blind_docking_100.prm

>  <SCORE>
-2.93582

>  <SCORE.INTER>
-0.732678

>  <SCORE.INTER.CONST>
1

>  <SCORE.INTER.POLAR>
0

>  <SCORE.INTER.ROT>
5

>  <SCORE.INTER.SOLV>
14.9458

>  <SCORE.INTER.VDW>
-12.4037

>  <SCORE.INTER.norm>
-0.0732678

>  <SCORE.INTRA>
-2.20314

>  <SCORE.INTRA.DIHEDRAL>
-3.01964

>  <SCORE.INTRA.DIHEDRAL.0>
6.00299

>  <SCORE.INTRA.POLAR>
0

>  <SCORE.INTRA.POLAR.0>
0

>  <SCORE.INTRA.REPUL>
0

>  <SCORE.INTRA.REPUL.0>
0

>  <SCORE.INTRA.SOLV>
-1.21297

>  <SCORE.INTRA.SOLV.lig_0>
-39.3257

>  <SCORE.INTRA.VDW>
-0.0868343

>  <SCORE.INTRA.VDW.0>
-0.734044

>  <SCORE.INTRA.norm>
-0.220314

>  <SCORE.RESTR>
0

>  <SCORE.RESTR.CAVITY>
0

>  <SCORE.RESTR.norm>
0

>  <SCORE.SYSTEM>
0

>  <SCORE.SYSTEM.CONST>
0

>  <SCORE.SYSTEM.DIHEDRAL>
0

>  <SCORE.SYSTEM.SOLV>
0

>  <SCORE.SYSTEM.norm>
0

>  <SCORE.heavy>
10

>  <SCORE.norm>
-0.293582

>  <RMSD>
57.320

$$$$
ligand
 OpenBabel11021811473D
libRbt.so/2013.1/901 2013/11/27
 10  9  0  0  0  0  0  0  0  0999 V2000
   -8.3232   52.6590   -0.1596 N   0  0  0  0  0  0  0  0  0  0  0  0
   -8.2851   52.7600    1.2874 C   0  0  2  0  0  0  0  0  0  0  0  0
   -9.6295   52.4281    1.8776 C   0  0  0  0  0  0  0  0  0  0  0  0
  -10.6625   52.6319    1.1922 O   0  0  0  0  0  0  0  0  0  0  0  0
   -7.8622   54.1672    1.6865 C   0  0  0  0  0  0  0  0  0  0  0  0
   -7.7528   54.2290    3.1063 O   0  0  0  0  0  0  0  0  0  0  0  0
   -7.2408   55.5173    3.4465 C   0  0  0  0  0  0  0  0  0  0  0  0
   -7.0993   55.5911    4.9653 C   0  0  0  0  0  0  0  0  0  0  0  0
   -6.4467   56.8319    5.3454 N   0  0  0  0  0  0  0  0  0  0  0  0
   -9.6350   51.5524    2.7661 O   0  0  0  0  0  0  0  0  0  0  0  0
  2  1  1  6  0  0  0
  2  5  1  0  0  0  0
  2  3  1  0  0  0  0
  3  4  1  0  0  0  0
  3 10  1  0  0  0  0
  5  6  1  0  0  0  0
  6  7  1  0  0  0  0
  7  8  1  0  0  0  0
  8  9  1  0  0  0  0
M  END
>  <CHROM.1>
-176.61256723,-27.66582744,174.87442563,-179.20612406,173.89158050,-8.32805589
53.81152222,2.55682069,-2.27139846,0.76846356,1.27891030

>  <Name>
ligand

>  <RI>
0

>  <Rbt.Current_Directory>
/home/itssahil/PROJECTS/Mol_Feturizer/New_Systems/rnas/3DJ0

>  <Rbt.Executable>
rbdock ($Id: //depot/dev/client3/rdock/2013.1/src/exe/rbdock.cxx#4 $)

>  <Rbt.Library>
libRbt.so (2013.1, Build901 2013/11/27)

>  <Rbt.Parameter_File>
/export/apps/rDock/src/rDock_2013.1_src/data/scripts/dock_solv.prm

>  <Rbt.Receptor>
prm/blind_docking_100.prm

>  <SCORE>
-2.61564

>  <SCORE.INTER>
-0.0805375

>  <SCORE.INTER.CONST>
1

>  <SCORE.INTER.POLAR>
0

>  <SCORE.INTER.ROT>
5

>  <SCORE.INTER.SOLV>
15.0125

>  <SCORE.INTER.VDW>
-11.9912

>  <SCORE.INTER.norm>
-0.00805375

>  <SCORE.INTRA>
-2.5351

>  <SCORE.INTRA.DIHEDRAL>
-3.47585

>  <SCORE.INTRA.DIHEDRAL.0>
6.00299

>  <SCORE.INTRA.POLAR>
0

>  <SCORE.INTRA.POLAR.0>
0

>  <SCORE.INTRA.REPUL>
0

>  <SCORE.INTRA.REPUL.0>
0

>  <SCORE.INTRA.SOLV>
-1.2924

>  <SCORE.INTRA.SOLV.lig_0>
-39.3257

>  <SCORE.INTRA.VDW>
-0.150977

>  <SCORE.INTRA.VDW.0>
-0.734044

>  <SCORE.INTRA.norm>
-0.25351

>  <SCORE.RESTR>
0

>  <SCORE.RESTR.CAVITY>
0

>  <SCORE.RESTR.norm>
0

>  <SCORE.SYSTEM>
0

>  <SCORE.SYSTEM.CONST>
0

>  <SCORE.SYSTEM.DIHEDRAL>
0

>  <SCORE.SYSTEM.SOLV>
0

>  <SCORE.SYSTEM.norm>
0

>  <SCORE.heavy>
10

>  <SCORE.norm>
-0.261564

>  <RMSD>
57.881

$$$$
ligand
 OpenBabel11021811473D
libRbt.so/2013.1/901 2013/11/27
 10  9  0  0  0  0  0  0  0  0999 V2000
   -8.6422   51.9675    2.2545 N   0  0  0  0  0  0  0  0  0  0  0  0
   -8.8077   53.2416    1.5801 C   0  0  2  0  0  0  0  0  0  0  0  0
   -8.8167   53.0537    0.0865 C   0  0  0  0  0  0  0  0  0  0  0  0
   -9.0873   54.0357   -0.6490 O   0  0  0  0  0  0  0  0  0  0  0  0
   -7.6831   54.1824    1.9906 C   0  0  0  0  0  0  0  0  0  0  0  0
   -7.8399   54.5126    3.3683 O   0  0  0  0  0  0  0  0  0  0  0  0
   -6.7847   55.4060    3.7233 C   0  0  0  0  0  0  0  0  0  0  0  0
   -7.0022   55.8553    5.1666 C   0  0  0  0  0  0  0  0  0  0  0  0
   -5.9855   56.8205    5.5468 N   0  0  0  0  0  0  0  0  0  0  0  0
   -8.1091   52.1245   -0.3516 O   0  0  0  0  0  0  0  0  0  0  0  0
  2  1  1  1  0  0  0
  2  5  1  0  0  0  0
  2  3  1  0  0  0  0
  3  4  1  0  0  0  0
  3 10  1  0  0  0  0
  5  6  1  0  0  0  0
  6  7  1  0  0  0  0
  7  8  1  0  0  0  0
  8  9  1  0  0  0  0
M  END
>  <CHROM.1>
-67.56279042,172.81333988,-179.33079170,175.60619021,-177.12492981,-7.88218115
54.11039203,2.23039619,2.89017532,-1.21681207,-0.84946079

>  <Name>
ligand

>  <RI>
0

>  <Rbt.Current_Directory>
/home/itssahil/PROJECTS/Mol_Feturizer/New_Systems/rnas/3DJ0

>  <Rbt.Executable>
rbdock ($Id: //depot/dev/client3/rdock/2013.1/src/exe/rbdock.cxx#4 $)

>  <Rbt.Library>
libRbt.so (2013.1, Build901 2013/11/27)

>  <Rbt.Parameter_File>
/export/apps/rDock/src/rDock_2013.1_src/data/scripts/dock_solv.prm

>  <Rbt.Receptor>
prm/blind_docking_80.prm

>  <SCORE>
-0.809458

>  <SCORE.INTER>
1.28139

>  <SCORE.INTER.CONST>
1

>  <SCORE.INTER.POLAR>
0

>  <SCORE.INTER.ROT>
5

>  <SCORE.INTER.SOLV>
16.1801

>  <SCORE.INTER.VDW>
-11.4724

>  <SCORE.INTER.norm>
0.128139

>  <SCORE.INTRA>
-2.09085

>  <SCORE.INTRA.DIHEDRAL>
-3.47291

>  <SCORE.INTRA.DIHEDRAL.0>
6.00299

>  <SCORE.INTRA.POLAR>
0

>  <SCORE.INTRA.POLAR.0>
0

>  <SCORE.INTRA.REPUL>
0

>  <SCORE.INTRA.REPUL.0>
0

>  <SCORE.INTRA.SOLV>
-0.819946

>  <SCORE.INTRA.SOLV.lig_0>
-39.3257

>  <SCORE.INTRA.VDW>
0.0555752

>  <SCORE.INTRA.VDW.0>
-0.734044

>  <SCORE.INTRA.norm>
-0.209085

>  <SCORE.RESTR>
0

>  <SCORE.RESTR.CAVITY>
0

>  <SCORE.RESTR.norm>
0

>  <SCORE.SYSTEM>
0

>  <SCORE.SYSTEM.CONST>
0

>  <SCORE.SYSTEM.DIHEDRAL>
0

>  <SCORE.SYSTEM.SOLV>
0

>  <SCORE.SYSTEM.norm>
0

>  <SCORE.heavy>
10

>  <SCORE.norm>
-0.0809458

>  <RMSD>
57.882

$$$$
ligand
 OpenBabel11021811473D
libRbt.so/2013.1/901 2013/11/27
 10  9  0  0  0  0  0  0  0  0999 V2000
   -6.8921   53.8617    3.7310 N   0  0  0  0  0  0  0  0  0  0  0  0
   -6.7488   55.2952    3.5573 C   0  0  2  0  0  0  0  0  0  0  0  0
   -6.6177   55.9805    4.8912 C   0  0  0  0  0  0  0  0  0  0  0  0
   -7.4641   55.7362    5.7870 O   0  0  0  0  0  0  0  0  0  0  0  0
   -7.9521   55.8367    2.7976 C   0  0  0  0  0  0  0  0  0  0  0  0
   -8.0369   55.1740    1.5384 O   0  0  0  0  0  0  0  0  0  0  0  0
   -9.1821   55.6841    0.8558 C   0  0  0  0  0  0  0  0  0  0  0  0
   -9.3454   54.9105   -0.4507 C   0  0  0  0  0  0  0  0  0  0  0  0
  -10.5686   55.3164   -1.1208 N   0  0  0  0  0  0  0  0  0  0  0  0
   -5.4683   56.3496    5.2052 O   0  0  0  0  0  0  0  0  0  0  0  0
  2  1  1  1  0  0  0
  2  5  1  0  0  0  0
  2  3  1  0  0  0  0
  3  4  1  0  0  0  0
  3 10  1  0  0  0  0
  5  6  1  0  0  0  0
  6  7  1  0  0  0  0
  7  8  1  0  0  0  0
  8  9  1  0  0  0  0
M  END
>  <CHROM.1>
-58.47272974,-51.04632521,179.14353743,-175.88637263,174.93033723,-7.80894455
55.42549083,2.71946445,-0.73652047,0.80575758,-2.33845105

>  <Name>
ligand

>  <RI>
0

>  <Rbt.Current_Directory>
/home/itssahil/PROJECTS/Mol_Feturizer/New_Systems/rnas/3DJ0

>  <Rbt.Executable>
rbdock ($Id: //depot/dev/client3/rdock/2013.1/src/exe/rbdock.cxx#4 $)

>  <Rbt.Library>
libRbt.so (2013.1, Build901 2013/11/27)

>  <Rbt.Parameter_File>
/export/apps/rDock/src/rDock_2013.1_src/data/scripts/dock_solv.prm

>  <Rbt.Receptor>
prm/blind_docking_100.prm

>  <SCORE>
-5.40159

>  <SCORE.INTER>
-3.05066

>  <SCORE.INTER.CONST>
1

>  <SCORE.INTER.POLAR>
0

>  <SCORE.INTER.ROT>
5

>  <SCORE.INTER.SOLV>
15.1002

>  <SCORE.INTER.VDW>
-14.0005

>  <SCORE.INTER.norm>
-0.305066

>  <SCORE.INTRA>
-2.35093

>  <SCORE.INTRA.DIHEDRAL>
-3.7905

>  <SCORE.INTRA.DIHEDRAL.0>
6.00299

>  <SCORE.INTRA.POLAR>
0

>  <SCORE.INTRA.POLAR.0>
0

>  <SCORE.INTRA.REPUL>
0

>  <SCORE.INTRA.REPUL.0>
0

>  <SCORE.INTRA.SOLV>
-0.634018

>  <SCORE.INTRA.SOLV.lig_0>
-39.3257

>  <SCORE.INTRA.VDW>
-0.138669

>  <SCORE.INTRA.VDW.0>
-0.734044

>  <SCORE.INTRA.norm>
-0.235093

>  <SCORE.RESTR>
0

>  <SCORE.RESTR.CAVITY>
0

>  <SCORE.RESTR.norm>
0

>  <SCORE.SYSTEM>
0

>  <SCORE.SYSTEM.CONST>
0

>  <SCORE.SYSTEM.DIHEDRAL>
0

>  <SCORE.SYSTEM.SOLV>
0

>  <SCORE.SYSTEM.norm>
0

>  <SCORE.heavy>
10

>  <SCORE.norm>
-0.540159

>  <RMSD>
58.418

$$$$
ligand
 OpenBabel11021811473D
libRbt.so/2013.1/901 2013/11/27
 10  9  0  0  0  0  0  0  0  0999 V2000
   -6.9407   53.8061    3.7343 N   0  0  0  0  0  0  0  0  0  0  0  0
   -6.7498   55.2407    3.6291 C   0  0  2  0  0  0  0  0  0  0  0  0
   -6.5483   55.8501    4.9907 C   0  0  0  0  0  0  0  0  0  0  0  0
   -5.7394   56.8029    5.1177 O   0  0  0  0  0  0  0  0  0  0  0  0
   -7.9568   55.8638    2.9413 C   0  0  0  0  0  0  0  0  0  0  0  0
   -8.0406   55.3571    1.6117 O   0  0  0  0  0  0  0  0  0  0  0  0
   -9.1484   55.9925    0.9740 C   0  0  0  0  0  0  0  0  0  0  0  0
   -9.3397   55.3560   -0.4010 C   0  0  0  0  0  0  0  0  0  0  0  0
  -10.5673   55.8404   -1.0080 N   0  0  0  0  0  0  0  0  0  0  0  0
   -7.4996   55.7310    5.7888 O   0  0  0  0  0  0  0  0  0  0  0  0
  2  1  1  1  0  0  0
  2  5  1  0  0  0  0
  2  3  1  0  0  0  0
  3  4  1  0  0  0  0
  3 10  1  0  0  0  0
  5  6  1  0  0  0  0
  6  7  1  0  0  0  0
  7  8  1  0  0  0  0
  8  9  1  0  0  0  0
M  END
>  <CHROM.1>
-63.44913378,143.31631842,-177.89772449,-174.24652935,172.05687015,-7.83843425
55.60040640,2.77516584,-0.32291839,1.00595947,-2.79563138

>  <Name>
ligand

>  <RI>
0

>  <Rbt.Current_Directory>
/home/itssahil/PROJECTS/Mol_Feturizer/New_Systems/rnas/3DJ0

>  <Rbt.Executable>
rbdock ($Id: //depot/dev/client3/rdock/2013.1/src/exe/rbdock.cxx#4 $)

>  <Rbt.Library>
libRbt.so (2013.1, Build901 2013/11/27)

>  <Rbt.Parameter_File>
/export/apps/rDock/src/rDock_2013.1_src/data/scripts/dock_solv.prm

>  <Rbt.Receptor>
prm/blind_docking_60.prm

>  <SCORE>
-4.98858

>  <SCORE.INTER>
-3.19771

>  <SCORE.INTER.CONST>
1

>  <SCORE.INTER.POLAR>
0

>  <SCORE.INTER.ROT>
5

>  <SCORE.INTER.SOLV>
16.582

>  <SCORE.INTER.VDW>
-14.5925

>  <SCORE.INTER.norm>
-0.319771

>  <SCORE.INTRA>
-1.79086

>  <SCORE.INTRA.DIHEDRAL>
-2.80042

>  <SCORE.INTRA.DIHEDRAL.0>
6.00299

>  <SCORE.INTRA.POLAR>
0

>  <SCORE.INTRA.POLAR.0>
0

>  <SCORE.INTRA.REPUL>
0

>  <SCORE.INTRA.REPUL.0>
0

>  <SCORE.INTRA.SOLV>
-0.869452

>  <SCORE.INTRA.SOLV.lig_0>
-39.3257

>  <SCORE.INTRA.VDW>
0.0440754

>  <SCORE.INTRA.VDW.0>
-0.734044

>  <SCORE.INTRA.norm>
-0.179086

>  <SCORE.RESTR>
0

>  <SCORE.RESTR.CAVITY>
0

>  <SCORE.RESTR.norm>
0

>  <SCORE.SYSTEM>
0

>  <SCORE.SYSTEM.CONST>
0

>  <SCORE.SYSTEM.DIHEDRAL>
0

>  <SCORE.SYSTEM.SOLV>
0

>  <SCORE.SYSTEM.norm>
0

>  <SCORE.heavy>
10

>  <SCORE.norm>
-0.498858

>  <RMSD>
58.533

$$$$
ligand
 OpenBabel11021811473D
libRbt.so/2013.1/901 2013/11/27
 10  9  0  0  0  0  0  0  0  0999 V2000
   -8.7707   53.5842    0.1294 N   0  0  0  0  0  0  0  0  0  0  0  0
   -8.8683   54.4874    1.2608 C   0  0  2  0  0  0  0  0  0  0  0  0
   -9.1377   55.8934    0.7953 C   0  0  0  0  0  0  0  0  0  0  0  0
   -8.9438   56.8460    1.5911 O   0  0  0  0  0  0  0  0  0  0  0  0
   -7.5773   54.4325    2.0662 C   0  0  0  0  0  0  0  0  0  0  0  0
   -7.7343   55.2248    3.2407 O   0  0  0  0  0  0  0  0  0  0  0  0
   -6.4750   55.2600    3.9120 C   0  0  0  0  0  0  0  0  0  0  0  0
   -6.5889   56.2194    5.0947 C   0  0  0  0  0  0  0  0  0  0  0  0
   -5.2691   56.5196    5.6219 N   0  0  0  0  0  0  0  0  0  0  0  0
   -9.0627   56.0854   -0.4350 O   0  0  0  0  0  0  0  0  0  0  0  0
  2  1  1  6  0  0  0
  2  5  1  0  0  0  0
  2  3  1  0  0  0  0
  3  4  1  0  0  0  0
  3 10  1  0  0  0  0
  5  6  1  0  0  0  0
  6  7  1  0  0  0  0
  7  8  1  0  0  0  0
  8  9  1  0  0  0  0
M  END
>  <CHROM.1>
-174.54029933,-163.46964692,-174.62656695,174.33536782,-167.18727986,-7.85706332
55.48359979,2.31034059,-2.74021811,-0.96568141,0.29627145

>  <Name>
ligand

>  <RI>
0

>  <Rbt.Current_Directory>
/home/itssahil/PROJECTS/Mol_Feturizer/New_Systems/rnas/3DJ0

>  <Rbt.Executable>
rbdock ($Id: //depot/dev/client3/rdock/2013.1/src/exe/rbdock.cxx#4 $)

>  <Rbt.Library>
libRbt.so (2013.1, Build901 2013/11/27)

>  <Rbt.Parameter_File>
/export/apps/rDock/src/rDock_2013.1_src/data/scripts/dock_solv.prm

>  <Rbt.Receptor>
prm/blind_docking_100.prm

>  <SCORE>
-2.7242

>  <SCORE.INTER>
-1.4537

>  <SCORE.INTER.CONST>
1

>  <SCORE.INTER.POLAR>
0

>  <SCORE.INTER.ROT>
5

>  <SCORE.INTER.SOLV>
17.8111

>  <SCORE.INTER.VDW>
-13.8395

>  <SCORE.INTER.norm>
-0.14537

>  <SCORE.INTRA>
-1.27049

>  <SCORE.INTRA.DIHEDRAL>
-2.97287

>  <SCORE.INTRA.DIHEDRAL.0>
6.00299

>  <SCORE.INTRA.POLAR>
0

>  <SCORE.INTRA.POLAR.0>
0

>  <SCORE.INTRA.REPUL>
0

>  <SCORE.INTRA.REPUL.0>
0

>  <SCORE.INTRA.SOLV>
-1.00425

>  <SCORE.INTRA.SOLV.lig_0>
-39.3257

>  <SCORE.INTRA.VDW>
0.718068

>  <SCORE.INTRA.VDW.0>
-0.734044

>  <SCORE.INTRA.norm>
-0.127049

>  <SCORE.RESTR>
0

>  <SCORE.RESTR.CAVITY>
0

>  <SCORE.RESTR.norm>
0

>  <SCORE.SYSTEM>
0

>  <SCORE.SYSTEM.CONST>
0

>  <SCORE.SYSTEM.DIHEDRAL>
0

>  <SCORE.SYSTEM.SOLV>
0

>  <SCORE.SYSTEM.norm>
0

>  <SCORE.heavy>
10

>  <SCORE.norm>
-0.27242

>  <RMSD>
58.703

$$$$
ligand
 OpenBabel11021811473D
libRbt.so/2013.1/901 2013/11/27
 10  9  0  0  0  0  0  0  0  0999 V2000
   -7.6850   53.8362    3.3268 N   0  0  0  0  0  0  0  0  0  0  0  0
   -7.1867   55.1889    3.1608 C   0  0  2  0  0  0  0  0  0  0  0  0
   -6.8724   55.8059    4.4974 C   0  0  0  0  0  0  0  0  0  0  0  0
   -7.6256   55.5620    5.4729 O   0  0  0  0  0  0  0  0  0  0  0  0
   -8.2229   56.0237    2.4207 C   0  0  0  0  0  0  0  0  0  0  0  0
   -8.4587   55.4367    1.1433 O   0  0  0  0  0  0  0  0  0  0  0  0
   -9.4328   56.2354    0.4718 C   0  0  0  0  0  0  0  0  0  0  0  0
   -9.7486   55.5786   -0.8702 C   0  0  0  0  0  0  0  0  0  0  0  0
  -10.3073   54.2546   -0.6580 N   0  0  0  0  0  0  0  0  0  0  0  0
   -5.6773   56.1050    4.6936 O   0  0  0  0  0  0  0  0  0  0  0  0
  2  1  1  1  0  0  0
  2  5  1  0  0  0  0
  2  3  1  0  0  0  0
  3  4  1  0  0  0  0
  3 10  1  0  0  0  0
  5  6  1  0  0  0  0
  6  7  1  0  0  0  0
  7  8  1  0  0  0  0
  8  9  1  0  0  0  0
M  END
>  <CHROM.1>
-60.05373950,-37.85332166,179.92352720,-177.15111633,61.61954898,-8.10112178
55.41401219,2.40340822,0.41860808,0.97781591,2.57247375

>  <Name>
ligand

>  <RI>
0

>  <Rbt.Current_Directory>
/home/itssahil/PROJECTS/Mol_Feturizer/New_Systems/rnas/3DJ0

>  <Rbt.Executable>
rbdock ($Id: //depot/dev/client3/rdock/2013.1/src/exe/rbdock.cxx#4 $)

>  <Rbt.Library>
libRbt.so (2013.1, Build901 2013/11/27)

>  <Rbt.Parameter_File>
/export/apps/rDock/src/rDock_2013.1_src/data/scripts/dock_solv.prm

>  <Rbt.Receptor>
prm/blind_docking_100.prm

>  <SCORE>
-5.13802

>  <SCORE.INTER>
-3.17762

>  <SCORE.INTER.CONST>
1

>  <SCORE.INTER.POLAR>
0

>  <SCORE.INTER.ROT>
5

>  <SCORE.INTER.SOLV>
13.4378

>  <SCORE.INTER.VDW>
-13.531

>  <SCORE.INTER.norm>
-0.317762

>  <SCORE.INTRA>
-1.9604

>  <SCORE.INTRA.DIHEDRAL>
-3.88849

>  <SCORE.INTRA.DIHEDRAL.0>
6.00299

>  <SCORE.INTRA.POLAR>
0

>  <SCORE.INTRA.POLAR.0>
0

>  <SCORE.INTRA.REPUL>
0

>  <SCORE.INTRA.REPUL.0>
0

>  <SCORE.INTRA.SOLV>
0.443461

>  <SCORE.INTRA.SOLV.lig_0>
-39.3257

>  <SCORE.INTRA.VDW>
-0.237882

>  <SCORE.INTRA.VDW.0>
-0.734044

>  <SCORE.INTRA.norm>
-0.19604

>  <SCORE.RESTR>
0

>  <SCORE.RESTR.CAVITY>
0

>  <SCORE.RESTR.norm>
0

>  <SCORE.SYSTEM>
0

>  <SCORE.SYSTEM.CONST>
0

>  <SCORE.SYSTEM.DIHEDRAL>
0

>  <SCORE.SYSTEM.SOLV>
0

>  <SCORE.SYSTEM.norm>
0

>  <SCORE.heavy>
10

>  <SCORE.norm>
-0.513802

>  <RMSD>
58.705

$$$$
ligand
 OpenBabel11021811473D
libRbt.so/2013.1/901 2013/11/27
 10  9  0  0  0  0  0  0  0  0999 V2000
  -10.7110   53.4364   -0.3514 N   0  0  0  0  0  0  0  0  0  0  0  0
  -10.8555   52.9711    1.0154 C   0  0  2  0  0  0  0  0  0  0  0  0
   -9.9301   51.8142    1.2823 C   0  0  0  0  0  0  0  0  0  0  0  0
   -9.7353   51.4517    2.4694 O   0  0  0  0  0  0  0  0  0  0  0  0
  -12.3015   52.5628    1.2619 C   0  0  0  0  0  0  0  0  0  0  0  0
  -13.1293   53.7186    1.1597 O   0  0  0  0  0  0  0  0  0  0  0  0
  -14.4849   53.2958    1.3051 C   0  0  0  0  0  0  0  0  0  0  0  0
  -15.3876   54.5175    1.1476 C   0  0  0  0  0  0  0  0  0  0  0  0
  -16.7786   54.1043    1.0817 N   0  0  0  0  0  0  0  0  0  0  0  0
   -9.7981   50.9941    0.3517 O   0  0  0  0  0  0  0  0  0  0  0  0
  2  1  1  6  0  0  0
  2  5  1  0  0  0  0
  2  3  1  0  0  0  0
  3  4  1  0  0  0  0
  3 10  1  0  0  0  0
  5  6  1  0  0  0  0
  6  7  1  0  0  0  0
  7  8  1  0  0  0  0
  8  9  1  0  0  0  0
M  END
>  <CHROM.1>
-65.00546273,166.59352201,176.17825794,-177.99862635,171.21476814,-12.27916788
52.85917244,1.08190668,-0.21645868,0.32912251,-0.96949876

>  <Name>
ligand

>  <RI>
0

>  <Rbt.Current_Directory>
/home/itssahil/PROJECTS/Mol_Feturizer/New_Systems/rnas/3DJ0

>  <Rbt.Executable>
rbdock ($Id: //depot/dev/client3/rdock/2013.1/src/exe/rbdock.cxx#4 $)

>  <Rbt.Library>
libRbt.so (2013.1, Build901 2013/11/27)

>  <Rbt.Parameter_File>
/export/apps/rDock/src/rDock_2013.1_src/data/scripts/dock_solv.prm

>  <Rbt.Receptor>
prm/blind_docking_80.prm

>  <SCORE>
-1.62971

>  <SCORE.INTER>
0.366013

>  <SCORE.INTER.CONST>
1

>  <SCORE.INTER.POLAR>
0

>  <SCORE.INTER.ROT>
5

>  <SCORE.INTER.SOLV>
8.16661

>  <SCORE.INTER.VDW>
-9.41153

>  <SCORE.INTER.norm>
0.0366013

>  <SCORE.INTRA>
-1.99572

>  <SCORE.INTRA.DIHEDRAL>
-3.21567

>  <SCORE.INTRA.DIHEDRAL.0>
6.00299

>  <SCORE.INTRA.POLAR>
0

>  <SCORE.INTRA.POLAR.0>
0

>  <SCORE.INTRA.REPUL>
0

>  <SCORE.INTRA.REPUL.0>
0

>  <SCORE.INTRA.SOLV>
-0.78621

>  <SCORE.INTRA.SOLV.lig_0>
-39.3257

>  <SCORE.INTRA.VDW>
0.00522092

>  <SCORE.INTRA.VDW.0>
-0.734044

>  <SCORE.INTRA.norm>
-0.199572

>  <SCORE.RESTR>
0

>  <SCORE.RESTR.CAVITY>
0

>  <SCORE.RESTR.norm>
0

>  <SCORE.SYSTEM>
0

>  <SCORE.SYSTEM.CONST>
0

>  <SCORE.SYSTEM.DIHEDRAL>
0

>  <SCORE.SYSTEM.SOLV>
0

>  <SCORE.SYSTEM.norm>
0

>  <SCORE.heavy>
10

>  <SCORE.norm>
-0.162971

>  <RMSD>
60.422

$$$$
