@<TRIPOS>MOLECULE
3DJ0_rdock.pdb
 3728 4173 0 0 0
SMALL
GASTEIGER

@<TRIPOS>ATOM
      1  P         39.1280   -8.9040   15.9760 P.3     1  G1          0.1280
      2  C5'       39.5600   -8.7430   13.3780 C.3     1  G1          0.1795
      3  O5'       38.7720   -9.2600   14.4490 O.3     1  G1         -0.3259
      4  C4'       39.0110   -9.0940   12.0010 C.3     1  G1          0.1772
      5  O4'       38.9700  -10.5340   11.7940 O.3     1  G1         -0.3307
      6  C3'       37.5910   -8.6330   11.6930 C.3     1  G1          0.1860
      7  O3'       37.5780   -7.2520   11.3470 O.3     1  G1         -0.3112
      8  C2'       37.2610   -9.5420   10.5090 C.3     1  G1          0.2309
      9  O2'       37.8360   -9.1300    9.2820 O.3     1  G1         -0.2156
     10  C1'       37.8590  -10.8700   10.9760 C.3     1  G1          0.2408
     11  N1        33.3830  -13.3820   11.0970 N.ar    1  G1         -0.1709
     12  C2        33.9850  -12.7510   10.0340 C.ar    1  G1          0.2606
     13  N2        33.3090  -12.7910    8.8810 N.pl3   1  G1         -0.0859
     14  N3        35.1580  -12.1260   10.1040 N.ar    1  G1         -0.1918
     15  C4        35.6960  -12.1810   11.3540 C.ar    1  G1          0.1723
     16  C5        35.1670  -12.7880   12.4770 C.ar    1  G1          0.1748
     17  C6        33.9200  -13.4490   12.3830 C.ar    1  G1          0.3023
     18  O6        33.3100  -14.0380   13.2840 O.2     1  G1         -0.2633
     19  N7        36.0030  -12.6390   13.5740 N.ar    1  G1         -0.2173
     20  C8        37.0070  -11.9520   13.1060 C.ar    1  G1          0.1817
     21  N9        36.9000  -11.6410   11.7680 N.ar    1  G1         -0.2693
     22  OP1       39.0130   -7.4370   16.1880 O.3     1  G1         -0.1955
     23  OP2       38.3190   -9.8210   16.8140 O.co2   1  G1         -0.7863
     24  P         36.2810   -6.3240   11.5450 P.3     2  G2          0.2141
     25  C5'       35.4810   -6.3090    9.0550 C.3     2  G2          0.1812
     26  O5'       35.3150   -6.8110   10.3740 O.3     2  G2         -0.3114
     27  C4'       34.4080   -6.8600    8.1340 C.3     2  G2          0.1773
     28  O4'       34.3600   -8.3080    8.2180 O.3     2  G2         -0.3307
     29  C3'       32.9940   -6.4170    8.4720 C.3     2  G2          0.1860
     30  O3'       32.7460   -5.1260    7.9500 O.3     2  G2         -0.3112
     31  C2'       32.1780   -7.5070    7.7920 C.3     2  G2          0.2309
     32  O2'       32.0970   -7.3540    6.3840 O.3     2  G2         -0.2156
     33  C1'       33.0100   -8.7370    8.1520 C.3     2  G2          0.2408
     34  N1        29.5550  -11.5320   10.6890 N.ar    2  G2         -0.1709
     35  C2        29.5270  -11.0820    9.3900 C.ar    2  G2          0.2606
     36  N2        28.4560  -11.4190    8.6630 N.pl3   2  G2         -0.0859
     37  N3        30.4890  -10.3560    8.8350 N.ar    2  G2         -0.1918
     38  C4        31.5070  -10.1050    9.6990 C.ar    2  G2          0.1723
     39  C5        31.6260  -10.5090   11.0120 C.ar    2  G2          0.1748
     40  C6        30.5890  -11.2880   11.5930 C.ar    2  G2          0.3023
     41  O6        30.5190  -11.7360   12.7520 O.2     2  G2         -0.2633
     42  N7        32.8140  -10.0480   11.5620 N.ar    2  G2         -0.2173
     43  C8        33.3810   -9.3900   10.5870 C.ar    2  G2          0.1817
     44  N9        32.6490   -9.3790    9.4230 N.ar    2  G2         -0.2693
     45  OP1       36.6940   -4.9300   11.2610 O.2     2  G2         -0.5172
     46  OP2       35.6270   -6.6440   12.8350 O.co2   2  G2         -0.4373
     47  P         31.9560   -4.0500    8.8310 P.3     3  C3          0.2141
     48  C5'       29.6980   -4.7220    7.6990 C.3     3  C3          0.1812
     49  O5'       30.4640   -4.6180    8.8870 O.3     3  C3         -0.3114
     50  C4'       28.4810   -5.6030    7.9070 C.3     3  C3          0.1773
     51  O4'       28.8820   -6.9330    8.3150 O.3     3  C3         -0.3307
     52  C3'       27.5510   -5.1640    9.0240 C.3     3  C3          0.1860
     53  O3'       26.7320   -4.0720    8.6270 O.3     3  C3         -0.3112
     54  C2'       26.7570   -6.4430    9.2460 C.3     3  C3          0.2309
     55  O2'       25.7670   -6.6750    8.2610 O.3     3  C3         -0.2156
     56  C1'       27.8760   -7.4780    9.1510 C.3     3  C3          0.2420
     57  N1        28.4440   -7.8120   10.4970 N.ar    3  C3         -0.2535
     58  C2        27.7150   -8.6410   11.3620 C.ar    3  C3          0.3532
     59  O2        26.6210   -9.0890   11.0000 O.2     3  C3         -0.2443
     60  N3        28.2380   -8.9320   12.5800 N.ar    3  C3         -0.1739
     61  C4        29.4240   -8.4320   12.9430 C.ar    3  C3          0.1759
     62  N4        29.8990   -8.7490   14.1510 N.pl3   3  C3         -0.1070
     63  C5        30.1780   -7.5830   12.0800 C.ar    3  C3          0.0566
     64  C6        29.6550   -7.3040   10.8820 C.ar    3  C3          0.0850
     65  OP1       31.9710   -2.7840    8.0710 O.2     3  C3         -0.5172
     66  OP2       32.4680   -4.0940   10.2150 O.co2   3  C3         -0.4373
     67  P         26.4220   -2.9220    9.6970 P.3     4  C4          0.2141
     68  C5'       24.0550   -4.0140    9.9830 C.3     4  C4          0.1812
     69  O5'       25.2720   -3.5900   10.5900 O.3     4  C4         -0.3114
     70  C4'       23.2470   -4.8840   10.9230 C.3     4  C4          0.1773
     71  O4'       23.9670   -6.1090   11.2160 O.3     4  C4         -0.3307
     72  C3'       22.9970   -4.3070   12.3060 C.3     4  C4          0.1860
     73  O3'       21.9880   -3.3030   12.3060 O.3     4  C4         -0.3112
     74  C2'       22.5770   -5.5690   13.0510 C.3     4  C4          0.2309
     75  O2'       21.2580   -5.9830   12.7540 O.3     4  C4         -0.2156
     76  C1'       23.6100   -6.5600   12.5180 C.3     4  C4          0.2420
     77  N1        24.8300   -6.6500   13.4070 N.ar    4  C4         -0.2535
     78  C2        24.7710   -7.3570   14.6300 C.ar    4  C4          0.3532
     79  O2        23.7260   -7.9220   14.9800 O.2     4  C4         -0.2443
     80  N3        25.8820   -7.4160   15.4150 N.ar    4  C4         -0.1739
     81  C4        27.0080   -6.8100   15.0280 C.ar    4  C4          0.1759
     82  N4        28.0650   -6.9080   15.8330 N.pl3   4  C4         -0.1070
     83  C5        27.0950   -6.0800   13.8000 C.ar    4  C4          0.0566
     84  C6        25.9980   -6.0300   13.0320 C.ar    4  C4          0.0850
     85  OP1       25.8510   -1.7630    8.9650 O.2     4  C4         -0.5172
     86  OP2       27.6240   -2.7370   10.5400 O.co2   4  C4         -0.4373
     87  P         22.0230   -2.1200   13.3940 P.3     5  G5          0.2141
     88  C5'       20.5210   -3.3290   15.1540 C.3     5  G5          0.1812
     89  O5'       21.8160   -2.8570   14.7990 O.3     5  G5         -0.3114
     90  C4'       20.5690   -4.1150   16.4470 C.3     5  G5          0.1773
     91  O4'       21.5200   -5.2040   16.3380 O.3     5  G5         -0.3307
     92  C3'       21.0660   -3.3630   17.6730 C.3     5  G5          0.1860
     93  O3'       20.0730   -2.4980   18.1760 O.3     5  G5         -0.3112
     94  C2'       21.2880   -4.5510   18.5940 C.3     5  G5          0.2309
     95  O2'       20.0670   -5.1250   19.0360 O.3     5  G5         -0.2156
     96  C1'       22.0170   -5.4920   17.6360 C.3     5  G5          0.2408
     97  N1        26.3410   -6.2840   20.2160 N.ar    5  G5         -0.1709
     98  C2        25.0540   -6.6610   20.5250 C.ar    5  G5          0.2606
     99  N2        24.8980   -7.3330   21.6670 N.pl3   5  G5         -0.0859
    100  N3        23.9930   -6.3990   19.7650 N.ar    5  G5         -0.1918
    101  C4        24.3290   -5.7120   18.6480 C.ar    5  G5          0.1723
    102  C5        25.5790   -5.2870   18.2500 C.ar    5  G5          0.1748
    103  C6        26.7020   -5.5740   19.0680 C.ar    5  G5          0.3023
    104  O6        27.8890   -5.2770   18.8730 O.2     5  G5         -0.2633
    105  N7        25.5050   -4.6080   17.0440 N.ar    5  G5         -0.2173
    106  C8        24.2370   -4.6370   16.7390 C.ar    5  G5          0.1817
    107  N9        23.4630   -5.2930   17.6680 N.ar    5  G5         -0.2693
    108  OP1       20.8360   -1.2820   13.1250 O.2     5  G5         -0.5172
    109  OP2       23.3720   -1.5080   13.4210 O.co2   5  G5         -0.4373
    110  P         20.4670   -1.1880   19.0090 P.3     6  A6          0.2141
    111  C5'       19.6760   -2.3830   21.2130 C.3     6  A6          0.1812
    112  O5'       20.7050   -1.7320   20.4980 O.3     6  A6         -0.3114
    113  C4'       20.2680   -3.1290   22.3940 C.3     6  A6          0.1773
    114  O4'       21.2070   -4.1350   21.9390 O.3     6  A6         -0.3307
    115  C3'       21.0700   -2.2890   23.3780 C.3     6  A6          0.1860
    116  O3'       20.1940   -1.5880   24.2470 O.3     6  A6         -0.3112
    117  C2'       21.8440   -3.3920   24.0870 C.3     6  A6          0.2309
    118  O2'       21.0500   -4.1400   24.9910 O.3     6  A6         -0.2156
    119  C1'       22.2360   -4.2620   22.8950 C.3     6  A6          0.2408
    120  N1        27.3670   -4.2790   23.2840 N.ar    6  A6         -0.2040
    121  C2        26.4060   -4.7500   24.0930 C.ar    6  A6          0.2016
    122  N3        25.0810   -4.7130   23.9330 N.ar    6  A6         -0.2048
    123  C4        24.7580   -4.1040   22.7790 C.ar    6  A6          0.1692
    124  C5        25.6300   -3.5720   21.8480 C.ar    6  A6          0.1518
    125  C6        27.0060   -3.6810   22.1320 C.ar    6  A6          0.1919
    126  N6        27.9580   -3.2150   21.3180 N.pl3   6  A6         -0.1054
    127  N7        24.9440   -3.0280   20.7770 N.ar    6  A6         -0.2193
    128  C8        23.6880   -3.2360   21.0880 C.ar    6  A6          0.1816
    129  N9        23.5020   -3.8820   22.2780 N.ar    6  A6         -0.2693
    130  OP1       19.2680   -0.3210   18.9880 O.3     6  A6         -0.4373
    131  OP2       21.7750   -0.6690   18.5560 O.co2   6  A6         -0.5172
    132  P         20.5950   -0.1750   24.8800 P.3     7  C7          0.2141
    133  C5'       21.3360   -1.2240   27.1500 C.3     7  C7          0.1812
    134  O5'       21.7050   -0.5890   25.9440 O.3     7  C7         -0.3114
    135  C4'       22.5730   -1.7150   27.8760 C.3     7  C7          0.1773
    136  O4'       23.3450   -2.5900   27.0130 O.3     7  C7         -0.3307
    137  C3'       23.5780   -0.6340   28.2300 C.3     7  C7          0.1860
    138  O3'       23.2060    0.1060   29.3840 O.3     7  C7         -0.3112
    139  C2'       24.8460   -1.4620   28.4270 C.3     7  C7          0.2309
    140  O2'       24.8290   -2.2340   29.6070 O.3     7  C7         -0.2156
    141  C1'       24.7360   -2.3650   27.2130 C.3     7  C7          0.2420
    142  N1        25.4050   -1.7890   25.9780 N.ar    7  C7         -0.2535
    143  C2        26.8040   -1.8540   25.8590 C.ar    7  C7          0.3532
    144  O2        27.4730   -2.3770   26.7570 O.2     7  C7         -0.2443
    145  N3        27.4020   -1.3470   24.7500 N.ar    7  C7         -0.1739
    146  C4        26.6700   -0.7920   23.7850 C.ar    7  C7          0.1759
    147  N4        27.3150   -0.3090   22.7160 N.pl3   7  C7         -0.1070
    148  C5        25.2530   -0.7130   23.8790 C.ar    7  C7          0.0566
    149  C6        24.6720   -1.2180   24.9730 C.ar    7  C7          0.0850
    150  OP1       19.4050    0.3100   25.6220 O.3     7  C7         -0.4373
    151  OP2       21.2420    0.6880   23.8700 O.co2   7  C7         -0.5172
    152  P         23.7490    1.6120   29.5160 P.3     8  G8          0.2141
    153  C5'       25.7720    0.7710   31.0390 C.3     8  G8          0.1812
    154  O5'       25.3030    1.4170   29.8650 O.3     8  G8         -0.3114
    155  C4'       27.2860    0.8800   31.0890 C.3     8  G8          0.1773
    156  O4'       27.8720    0.2110   29.9490 O.3     8  G8         -0.3307
    157  C3'       27.8100    2.2990   30.9540 C.3     8  G8          0.1860
    158  O3'       27.7840    2.9370   32.2250 O.3     8  G8         -0.3112
    159  C2'       29.2330    2.0740   30.4600 C.3     8  G8          0.2309
    160  O2'       30.1010    1.7200   31.5150 O.3     8  G8         -0.2156
    161  C1'       29.0490    0.8880   29.5390 C.3     8  G8          0.2408
    162  N1        31.6420    2.2460   25.3470 N.ar    8  G8         -0.1709
    163  C2        32.1090    1.9930   26.6180 C.ar    8  G8          0.2606
    164  N2        33.4300    2.1120   26.8060 N.pl3   8  G8         -0.0859
    165  N3        31.3290    1.6500   27.6420 N.ar    8  G8         -0.1918
    166  C4        30.0180    1.5760   27.2950 C.ar    8  G8          0.1723
    167  C5        29.4620    1.8020   26.0550 C.ar    8  G8          0.1748
    168  C6        30.3030    2.1710   24.9780 C.ar    8  G8          0.3023
    169  O6        29.9820    2.4170   23.8130 O.2     8  G8         -0.2633
    170  N7        28.0850    1.6160   26.0960 N.ar    8  G8         -0.2173
    171  C8        27.8410    1.2830   27.3370 C.ar    8  G8          0.1817
    172  N9        28.9680    1.2380   28.1250 N.ar    8  G8         -0.2693
    173  OP1       23.0420    2.2550   30.6480 O.3     8  G8         -0.4373
    174  OP2       23.7050    2.2460   28.1780 O.co2   8  G8         -0.5172
    175  P         27.9660    4.5220   32.3150 P.3     9  G9          0.2141
    176  C5'       29.9010    5.8810   31.1140 C.3     9  G9          0.1812
    177  O5'       29.4600    4.7060   31.7660 O.3     9  G9         -0.3114
    178  C4'       31.3210    5.6470   30.6290 C.3     9  G9          0.1773
    179  O4'       31.3430    4.6230   29.5980 O.3     9  G9         -0.3307
    180  C3'       31.9570    6.8630   29.9840 C.3     9  G9          0.1860
    181  O3'       32.5640    7.6160   31.0010 O.3     9  G9         -0.3112
    182  C2'       32.9790    6.2230   29.0530 C.3     9  G9          0.2309
    183  O2'       34.1470    5.7860   29.7160 O.3     9  G9         -0.2156
    184  C1'       32.2260    4.9970   28.5550 C.3     9  G9          0.2408
    185  N1        32.4520    6.0670   23.5160 N.ar    9  G9         -0.1709
    186  C2        33.4760    5.9950   24.4230 C.ar    9  G9          0.2606
    187  N2        34.6880    6.2420   23.9040 N.pl3   9  G9         -0.0859
    188  N3        33.3170    5.7100   25.7280 N.ar    9  G9         -0.1918
    189  C4        32.0100    5.4990   26.0490 C.ar    9  G9          0.1723
    190  C5        30.9210    5.5600   25.1980 C.ar    9  G9          0.1748
    191  C6        31.1160    5.8630   23.8250 C.ar    9  G9          0.3023
    192  O6        30.2630    5.9560   22.9280 O.2     9  G9         -0.2633
    193  N7        29.7490    5.2940   25.8750 N.ar    9  G9         -0.2173
    194  C8        30.1380    5.0800   27.1050 C.ar    9  G9          0.1817
    195  N9        31.4960    5.1870   27.2970 N.ar    9  G9         -0.2693
    196  OP1       27.9780    4.8760   33.7570 O.3     9  G9         -0.4373
    197  OP2       26.9880    5.1720   31.4000 O.co2   9  G9         -0.5172
    198  P         32.4250    9.2090   31.0990 P.3    10  A10         0.2141
    199  C5'       34.9550    9.2450   30.4330 C.3    10  A10         0.1812
    200  O5'       33.6320    9.7090   30.1930 O.3    10  A10        -0.3114
    201  C4'       35.8400    9.6280   29.2720 C.3    10  A10         0.1773
    202  O4'       35.4130    8.8470   28.1370 O.3    10  A10        -0.3307
    203  C3'       35.6500   11.0690   28.8360 C.3    10  A10         0.1860
    204  O3'       36.4900   11.9510   29.6170 O.3    10  A10        -0.3112
    205  C2'       35.9570   11.0120   27.3350 C.3    10  A10         0.2309
    206  O2'       37.3300   11.1860   27.0320 O.3    10  A10        -0.2156
    207  C1'       35.5370    9.5950   26.9500 C.3    10  A10         0.2408
    208  N1        33.3670    9.6460   22.2660 N.ar   10  A10        -0.2040
    209  C2        34.6320    9.8120   22.6670 C.ar   10  A10         0.2016
    210  N3        35.1150    9.7890   23.9200 N.ar   10  A10        -0.2048
    211  C4        34.1500    9.5700   24.8290 C.ar   10  A10         0.1692
    212  C5        32.8080    9.3790   24.5640 C.ar   10  A10         0.1518
    213  C6        32.4190    9.4190   23.2050 C.ar   10  A10         0.1919
    214  N6        31.1510    9.2550   22.8090 N.pl3  10  A10        -0.1054
    215  N7        32.1000    9.1690   25.7330 N.ar   10  A10        -0.2193
    216  C8        33.0300    9.2330   26.6710 C.ar   10  A10         0.1816
    217  N9        34.2920    9.4730   26.1950 N.ar   10  A10        -0.2693
    218  OP1       32.6570    9.5470   32.5290 O.3    10  A10        -0.4373
    219  OP2       31.1910    9.6510   30.4070 O.co2  10  A10        -0.5172
    220  P         36.1660   13.5240   29.7360 P.3    11  G11         0.2141
    221  C5'       36.7340   15.2970   27.9100 C.3    11  G11         0.1812
    222  O5'       36.3580   13.9930   28.2180 O.3    11  G11        -0.3114
    223  C4'       37.4860   15.2920   26.5970 C.3    11  G11         0.1773
    224  O4'       36.9350   14.2950   25.6920 O.3    11  G11        -0.3307
    225  C3'       37.3740   16.6210   25.8730 C.3    11  G11         0.1860
    226  O3'       38.5880   16.9650   25.1910 O.3    11  G11        -0.3112
    227  C2'       36.2090   16.3640   24.9290 C.3    11  G11         0.2309
    228  O2'       36.2320   17.2650   23.8450 O.3    11  G11        -0.2156
    229  C1'       36.4610   14.9200   24.5110 C.3    11  G11         0.2408
    230  N1        31.9090   12.7300   25.5840 N.ar   11  G11        -0.1709
    231  C2        32.8570   13.2370   26.4520 C.ar   11  G11         0.2606
    232  N2        32.5860   13.1660   27.7640 N.pl3  11  G11        -0.0859
    233  N3        34.0080   13.7850   26.0650 N.ar   11  G11        -0.1918
    234  C4        34.1600   13.7950   24.7180 C.ar   11  G11         0.1723
    235  C5        33.2810   13.3150   23.7700 C.ar   11  G11         0.1748
    236  C6        32.0540   12.7380   24.1870 C.ar   11  G11         0.3023
    237  O6        31.1620   12.2700   23.4540 O.2    11  G11        -0.2633
    238  N7        33.7830   13.4950   22.4880 N.ar   11  G11        -0.2173
    239  C8        34.9380   14.0660   22.6800 C.ar   11  G11         0.1817
    240  N9        35.2450   14.2780   24.0080 N.ar   11  G11        -0.2693
    241  OP1       37.1820   14.1340   30.6250 O.3    11  G11        -0.4373
    242  OP2       34.7270   13.7590   30.0090 O.co2  11  G11        -0.5172
    243  P         39.7300   17.7560   25.9880 P.3    12  G12         0.2141
    244  C5'       38.5800   20.0280   25.4380 C.3    12  G12         0.1812
    245  O5'       39.0290   19.1150   26.4160 O.3    12  G12        -0.3114
    246  C4'       37.4200   20.7980   26.0250 C.3    12  G12         0.1773
    247  O4'       36.4340   19.8400   26.5160 O.3    12  G12        -0.3307
    248  C3'       37.7760   21.7110   27.1970 C.3    12  G12         0.1860
    249  O3'       37.1940   22.9980   26.9900 O.3    12  G12        -0.3112
    250  C2'       37.1860   20.9750   28.4020 C.3    12  G12         0.2309
    251  O2'       36.7580   21.8380   29.4340 O.3    12  G12        -0.2156
    252  C1'       35.9680   20.3300   27.7520 C.3    12  G12         0.2408
    253  N1        32.3900   16.6230   27.8270 N.ar   12  G12        -0.1709
    254  C2        32.8270   17.3890   26.7750 C.ar   12  G12         0.2606
    255  N2        32.2330   17.1580   25.5940 N.pl3  12  G12        -0.0859
    256  N3        33.7740   18.3220   26.8680 N.ar   12  G12        -0.1918
    257  C4        34.2720   18.4410   28.1210 C.ar   12  G12         0.1723
    258  C5        33.9010   17.7210   29.2350 C.ar   12  G12         0.1748
    259  C6        32.8900   16.7330   29.1180 C.ar   12  G12         0.3023
    260  O6        32.4360   15.9890   29.9870 O.2    12  G12        -0.2633
    261  N7        34.6350   18.1210   30.3380 N.ar   12  G12        -0.2173
    262  C8        35.4120   19.0630   29.8820 C.ar   12  G12         0.1817
    263  N9        35.2580   19.3140   28.5400 N.ar   12  G12        -0.2693
    264  OP1       40.8040   18.0750   25.0210 O.2    12  G12        -0.5172
    265  OP2       40.0380   17.0280   27.2430 O.co2  12  G12        -0.4373
    266  P         37.9970   24.2080   26.2850 P.3    13  C13         0.2141
    267  C5'       37.5250   25.2880   28.6270 C.3    13  C13         0.1812
    268  O5'       37.6090   25.4530   27.2020 O.3    13  C13        -0.3114
    269  C4'       36.2160   25.8370   29.1800 C.3    13  C13         0.1773
    270  O4'       36.1700   27.2890   29.0440 O.3    13  C13        -0.3307
    271  C3'       34.9590   25.3100   28.4910 C.3    13  C13         0.1860
    272  O3'       33.9240   25.0490   29.4430 O.3    13  C13        -0.3112
    273  C2'       34.5730   26.4540   27.5590 C.3    13  C13         0.2309
    274  O2'       33.1950   26.4670   27.2410 O.3    13  C13        -0.2156
    275  C1'       34.9500   27.6500   28.4290 C.3    13  C13         0.2420
    276  N1        35.1290   28.9030   27.6450 N.ar   13  C13        -0.2535
    277  C2        34.2700   29.9880   27.8820 C.ar   13  C13         0.3532
    278  O2        33.3910   29.8840   28.7510 O.2    13  C13        -0.2443
    279  N3        34.4370   31.1260   27.1470 N.ar   13  C13        -0.1739
    280  C4        35.4030   31.1940   26.2230 C.ar   13  C13         0.1759
    281  N4        35.5230   32.3300   25.5320 N.pl3  13  C13        -0.1070
    282  C5        36.2770   30.0970   25.9610 C.ar   13  C13         0.0566
    283  C6        36.1090   28.9850   26.6860 C.ar   13  C13         0.0850
    284  OP1       37.4170   24.3630   24.9360 O.2    13  C13        -0.5172
    285  OP2       39.4570   24.0200   26.4000 O.co2  13  C13        -0.4373
    286  P         33.1620   23.6430   29.4600 P.3    14  G14         0.2141
    287  C5'       33.0510   23.3100   26.8560 C.3    14  G14         0.1812
    288  O5'       32.3750   23.6230   28.0560 O.3    14  G14        -0.3114
    289  C4'       32.2090   22.5280   25.8650 C.3    14  G14         0.1773
    290  O4'       32.4660   21.1050   26.0210 O.3    14  G14        -0.3307
    291  C3'       30.7010   22.6590   25.9710 C.3    14  G14         0.1860
    292  O3'       30.2870   23.8380   25.2870 O.3    14  G14        -0.3112
    293  C2'       30.2820   21.3440   25.3120 C.3    14  G14         0.2309
    294  O2'       30.5140   21.2990   23.9190 O.3    14  G14        -0.2156
    295  C1'       31.2540   20.3820   25.9810 C.3    14  G14         0.2408
    296  N1        27.9380   17.9340   28.9800 N.ar   14  G14        -0.1709
    297  C2        27.9390   18.0660   27.5970 C.ar   14  G14         0.2606
    298  N2        26.9400   17.4960   26.8960 N.pl3  14  G14        -0.0859
    299  N3        28.8690   18.7310   26.9280 N.ar   14  G14        -0.1918
    300  C4        29.8180   19.2640   27.7430 C.ar   14  G14         0.1723
    301  C5        29.9050   19.1860   29.1140 C.ar   14  G14         0.1748
    302  C6        28.9130   18.4820   29.8240 C.ar   14  G14         0.3023
    303  O6        28.8630   18.3210   31.0490 O.2    14  G14        -0.2633
    304  N7        31.0240   19.8570   29.5790 N.ar   14  G14        -0.2173
    305  C8        31.5860   20.3260   28.4980 C.ar   14  G14         0.1817
    306  N9        30.9080   20.0060   27.3470 N.ar   14  G14        -0.2693
    307  OP1       32.1530   23.7300   30.5390 O.3    14  G14        -0.4373
    308  OP2       34.1710   22.5580   29.4680 O.co2  14  G14        -0.5172
    309  P         29.0210   24.6910   25.7700 P.3    15  C15         0.2141
    310  C5'       27.6120   23.4010   23.8920 C.3    15  C15         0.1812
    311  O5'       27.8520   23.7130   25.2690 O.3    15  C15        -0.3114
    312  C4'       26.4410   22.4330   23.8420 C.3    15  C15         0.1773
    313  O4'       26.7500   21.2500   24.6300 O.3    15  C15        -0.3307
    314  C3'       25.1590   22.9390   24.4920 C.3    15  C15         0.1860
    315  O3'       24.4630   23.8250   23.6280 O.3    15  C15        -0.3112
    316  C2'       24.4180   21.6270   24.7210 C.3    15  C15         0.2309
    317  O2'       23.7730   21.1370   23.5540 O.3    15  C15        -0.2156
    318  C1'       25.5600   20.7130   25.1860 C.3    15  C15         0.2420
    319  N1        25.6580   20.6700   26.6850 N.ar   15  C15        -0.2535
    320  C2        24.7620   19.8850   27.4270 C.ar   15  C15         0.3532
    321  O2        23.9160   19.2170   26.8270 O.2    15  C15        -0.2443
    322  N3        24.8410   19.8650   28.7870 N.ar   15  C15        -0.1739
    323  C4        25.7810   20.6000   29.4070 C.ar   15  C15         0.1759
    324  N4        25.8490   20.5740   30.7430 N.pl3  15  C15        -0.1070
    325  C5        26.7000   21.4080   28.6740 C.ar   15  C15         0.0566
    326  C6        26.6020   21.4120   27.3370 C.ar   15  C15         0.0850
    327  OP1       28.9940   25.9710   25.0340 O.2    15  C15        -0.5172
    328  OP2       28.9240   24.7160   27.2580 O.co2  15  C15        -0.4373
    329  P         23.8350   25.2000   24.1640 P.3    16  G16         0.2141
    330  C5'       21.4710   24.1410   23.8810 C.3    16  G16         0.1812
    331  O5'       22.4230   24.7570   24.7500 O.3    16  G16        -0.3114
    332  C4'       20.4980   23.2530   24.6330 C.3    16  G16         0.1773
    333  O4'       21.2070   22.2310   25.3770 O.3    16  G16        -0.3307
    334  C3'       19.6840   23.9500   25.7060 C.3    16  G16         0.1860
    335  O3'       18.6320   24.6680   25.0720 O.3    16  G16        -0.3112
    336  C2'       19.2080   22.7230   26.4830 C.3    16  G16         0.2309
    337  O2'       18.1680   22.0240   25.8320 O.3    16  G16        -0.2156
    338  C1'       20.4710   21.8660   26.5200 C.3    16  G16         0.2408
    339  N1        20.9190   21.2560   31.5840 N.ar   16  G16        -0.1709
    340  C2        19.9090   20.8540   30.7350 C.ar   16  G16         0.2606
    341  N2        18.8870   20.2100   31.3100 N.pl3  16  G16        -0.0859
    342  N3        19.9030   21.0630   29.4160 N.ar   16  G16        -0.1918
    343  C4        21.0070   21.7330   29.0020 C.ar   16  G16         0.1723
    344  C5        22.0620   22.1770   29.7610 C.ar   16  G16         0.1748
    345  C6        22.0580   21.9380   31.1610 C.ar   16  G16         0.3023
    346  O6        22.9120   22.2620   31.9870 O.2    16  G16        -0.2633
    347  N7        23.0010   22.8170   28.9700 N.ar   16  G16        -0.2173
    348  C8        22.5030   22.7580   27.7640 C.ar   16  G16         0.1817
    349  N9        21.2940   22.1070   27.7050 N.ar   16  G16        -0.2693
    350  OP1       23.6100   26.0540   22.9750 O.2    16  G16        -0.5172
    351  OP2       24.6400   25.6970   25.3020 O.co2  16  G16        -0.4373
    352  P         17.7350   25.7580   25.8140 P.3    17  C17         0.2141
    353  C5'       15.6500   24.4290   26.7090 C.3    17  C17         0.1812
    354  O5'       16.9740   24.8780   26.9000 O.3    17  C17        -0.3114
    355  C4'       15.1810   23.8780   28.0340 C.3    17  C17         0.1773
    356  O4'       16.2020   22.9900   28.5700 O.3    17  C17        -0.3307
    357  C3'       15.0320   24.9130   29.1350 C.3    17  C17         0.1860
    358  O3'       13.8160   25.6220   29.0000 O.3    17  C17        -0.3112
    359  C2'       15.0480   23.9890   30.3450 C.3    17  C17         0.2309
    360  O2'       13.8880   23.1960   30.4740 O.3    17  C17        -0.2156
    361  C1'       16.2100   23.0700   29.9850 C.3    17  C17         0.2420
    362  N1        17.5250   23.5630   30.5240 N.ar   17  C17        -0.2535
    363  C2        17.7940   23.4150   31.8950 C.ar   17  C17         0.3532
    364  O2        16.9520   22.8820   32.6260 O.2    17  C17        -0.2443
    365  N3        18.9750   23.8670   32.3850 N.ar   17  C17        -0.1739
    366  C4        19.8600   24.4450   31.5780 C.ar   17  C17         0.1759
    367  N4        21.0010   24.8630   32.1180 N.pl3  17  C17        -0.1070
    368  C5        19.6190   24.6180   30.1810 C.ar   17  C17         0.0566
    369  C6        18.4460   24.1670   29.7090 C.ar   17  C17         0.0850
    370  OP1       16.7640   26.2750   24.8260 O.2    17  C17        -0.5172
    371  OP2       18.5920   26.6710   26.5970 O.co2  17  C17        -0.4373
    372  P         13.6790   27.1490   29.4540 P.3    18  C18         0.2141
    373  C5'       12.5900   26.5620   31.6900 C.3    18  C18         0.1812
    374  O5'       13.7520   27.0260   31.0380 O.3    18  C18        -0.3114
    375  C4'       12.8890   26.3000   33.1400 C.3    18  C18         0.1773
    376  O4'       14.0810   25.4890   33.2680 O.3    18  C18        -0.3307
    377  C3'       13.2450   27.5310   33.9550 C.3    18  C18         0.1860
    378  O3'       12.0930   28.2900   34.2070 O.3    18  C18        -0.3112
    379  C2'       13.8000   26.8310   35.1890 C.3    18  C18         0.2309
    380  O2'       12.8010   26.1750   35.9370 O.3    18  C18        -0.2156
    381  C1'       14.7050   25.8080   34.5090 C.3    18  C18         0.2420
    382  N1        16.1070   26.2980   34.2310 N.ar   18  C18        -0.2535
    383  C2        17.0230   26.5310   35.2800 C.ar   18  C18         0.3532
    384  O2        16.6820   26.3350   36.4510 O.2    18  C18        -0.2443
    385  N3        18.2750   26.9670   34.9780 N.ar   18  C18        -0.1739
    386  C4        18.6160   27.1660   33.6980 C.ar   18  C18         0.1759
    387  N4        19.8490   27.5950   33.4200 N.pl3  18  C18        -0.1070
    388  C5        17.7040   26.9460   32.6250 C.ar   18  C18         0.0566
    389  C6        16.4800   26.5130   32.9310 C.ar   18  C18         0.0850
    390  OP1       12.3300   27.6000   29.0700 O.3    18  C18        -0.4373
    391  OP2       14.8660   27.9100   29.0110 O.co2  18  C18        -0.5172
    392  P         12.2040   29.8610   34.4240 P.3    19  C19         0.2141
    393  C5'       12.0630   29.5330   37.0270 C.3    19  C19         0.1812
    394  O5'       12.8160   29.9630   35.8960 O.3    19  C19        -0.3114
    395  C4'       12.9440   29.5990   38.2530 C.3    19  C19         0.1773
    396  O4'       14.1830   28.9070   37.9940 O.3    19  C19        -0.3307
    397  C3'       13.3940   31.0010   38.5940 C.3    19  C19         0.1860
    398  O3'       12.3990   31.5800   39.3730 O.3    19  C19        -0.3112
    399  C2'       14.6740   30.7730   39.3830 C.3    19  C19         0.2309
    400  O2'       14.4680   30.4580   40.7440 O.3    19  C19        -0.2156
    401  C1'       15.2500   29.5590   38.6680 C.3    19  C19         0.2420
    402  N1        16.3610   29.8640   37.6940 N.ar   19  C19        -0.2535
    403  C2        17.6590   30.0980   38.1740 C.ar   19  C19         0.3532
    404  O2        17.8800   30.0630   39.3960 O.2    19  C19        -0.2443
    405  N3        18.6460   30.3540   37.2760 N.ar   19  C19        -0.1739
    406  C4        18.3820   30.3760   35.9680 C.ar   19  C19         0.1759
    407  N4        19.3920   30.6330   35.1260 N.pl3  19  C19        -0.1070
    408  C5        17.0690   30.1410   35.4580 C.ar   19  C19         0.0566
    409  C6        16.1040   29.8920   36.3470 C.ar   19  C19         0.0850
    410  OP1       10.8280   30.4040   34.4150 O.3    19  C19        -0.4373
    411  OP2       13.2100   30.4080   33.4920 O.co2  19  C19        -0.5172
    412  P         11.9040   33.0630   39.0860 P.3    20  G20         0.2141
    413  C5'       13.5780   34.0000   40.8900 C.3    20  G20         0.1812
    414  O5'       13.1840   33.9310   39.5070 O.3    20  G20        -0.3114
    415  C4'       14.9310   34.6690   41.0200 C.3    20  G20         0.1773
    416  O4'       15.9200   33.8470   40.3520 O.3    20  G20        -0.3307
    417  C3'       15.0230   36.0250   40.3370 C.3    20  G20         0.1860
    418  O3'       14.6550   37.0260   41.2570 O.3    20  G20        -0.3112
    419  C2'       16.4980   36.1030   39.9470 C.3    20  G20         0.2309
    420  O2'       17.3410   36.5240   41.0050 O.3    20  G20        -0.2156
    421  C1'       16.8330   34.6510   39.6310 C.3    20  G20         0.2408
    422  N1        19.3280   33.8150   35.2370 N.ar   20  G20        -0.1709
    423  C2        19.8380   34.2030   36.4510 C.ar   20  G20         0.2606
    424  N2        21.1630   34.3800   36.4950 N.pl3  20  G20        -0.0859
    425  N3        19.1010   34.3990   37.5430 N.ar   20  G20        -0.1918
    426  C4        17.7780   34.1670   37.3140 C.ar   20  G20         0.1723
    427  C5        17.1810   33.7770   36.1300 C.ar   20  G20         0.1748
    428  C6        17.9790   33.5760   34.9780 C.ar   20  G20         0.3023
    429  O6        17.6130   33.2320   33.8350 O.2    20  G20        -0.2633
    430  N7        15.8130   33.6510   36.2870 N.ar   20  G20        -0.2173
    431  C8        15.6040   33.9540   37.5360 C.ar   20  G20         0.1817
    432  N9        16.7450   34.2850   38.2250 N.ar   20  G20        -0.2693
    433  OP1       10.8110   33.3230   40.0590 O.3    20  G20        -0.4373
    434  OP2       11.6990   33.2240   37.6300 O.co2  20  G20        -0.5172
    435  P         13.3630   37.9470   41.0370 P.3    21  A21         0.2141
    436  C5'       13.7240   39.8560   42.8120 C.3    21  A21         0.1812
    437  O5'       13.9020   39.3880   41.4710 O.3    21  A21        -0.3114
    438  C4'       14.9610   40.5780   43.3130 C.3    21  A21         0.1773
    439  O4'       16.1410   39.7640   43.0770 O.3    21  A21        -0.3307
    440  C3'       15.3090   41.8670   42.5930 C.3    21  A21         0.1860
    441  O3'       14.4810   42.9650   42.9960 O.3    21  A21        -0.3112
    442  C2'       16.7820   42.0320   42.9840 C.3    21  A21         0.2309
    443  O2'       16.9910   42.5360   44.2950 O.3    21  A21        -0.2156
    444  C1'       17.2710   40.5900   42.8530 C.3    21  A21         0.2408
    445  N1        21.2570   40.6530   39.5290 N.ar   21  A21        -0.2040
    446  C2        21.1560   41.0760   40.7970 C.ar   21  A21         0.2016
    447  N3        20.1040   41.0380   41.6200 N.ar   21  A21        -0.2048
    448  C4        19.0410   40.4880   41.0120 C.ar   21  A21         0.1692
    449  C5        18.9950   40.0090   39.7170 C.ar   21  A21         0.1518
    450  C6        20.1710   40.1010   38.9520 C.ar   21  A21         0.1919
    451  N6        20.2390   39.6770   37.6900 N.pl3  21  A21        -0.1054
    452  N7        17.7460   39.5080   39.4150 N.ar   21  A21        -0.2193
    453  C8        17.0640   39.6870   40.5110 C.ar   21  A21         0.1816
    454  N9        17.7790   40.2760   41.5220 N.ar   21  A21        -0.2693
    455  OP1       12.3620   37.4990   42.0330 O.3    21  A21        -0.4373
    456  OP2       13.0360   38.0300   39.5940 O.co2  21  A21        -0.5172
    457  P         13.8040   43.9060   41.8810 P.3    22  G22         0.2141
    458  C5'       16.0470   45.3030   41.6030 C.3    22  G22         0.1812
    459  O5'       15.0180   44.4990   41.0230 O.3    22  G22        -0.3114
    460  C4'       17.2900   45.2240   40.7330 C.3    22  G22         0.1773
    461  O4'       17.6610   43.8410   40.4600 O.3    22  G22        -0.3307
    462  C3'       17.1370   45.8160   39.3410 C.3    22  G22         0.1860
    463  O3'       17.2030   47.2280   39.3840 O.3    22  G22        -0.3112
    464  C2'       18.3220   45.1710   38.6300 C.3    22  G22         0.2309
    465  O2'       19.5620   45.7630   38.9720 O.3    22  G22        -0.2156
    466  C1'       18.2190   43.7330   39.1570 C.3    22  G22         0.2408
    467  N1        17.6150   41.1920   34.7400 N.ar   22  G22        -0.1709
    468  C2        18.7100   41.8910   35.1860 C.ar   22  G22         0.2606
    469  N2        19.7630   41.9120   34.3590 N.pl3  22  G22        -0.0859
    470  N3        18.7670   42.5130   36.3610 N.ar   22  G22        -0.1918
    471  C4        17.6140   42.3800   37.0670 C.ar   22  G22         0.1723
    472  C5        16.4720   41.7020   36.6960 C.ar   22  G22         0.1748
    473  C6        16.4260   41.0470   35.4480 C.ar   22  G22         0.3023
    474  O6        15.4890   40.3910   34.9660 O.2    22  G22        -0.2633
    475  N7        15.4990   41.7860   37.6760 N.ar   22  G22        -0.2173
    476  C8        16.0590   42.5060   38.6080 C.ar   22  G22         0.1817
    477  N9        17.3450   42.9060   38.3170 N.ar   22  G22        -0.2693
    478  OP1       13.1310   44.9990   42.6100 O.3    22  G22        -0.4373
    479  OP2       13.0560   43.0390   40.9440 O.co2  22  G22        -0.5172
    480  P         16.4000   48.0940   38.3050 P.3    23  A23         0.2141
    481  C5'       18.6850   48.6440   37.1340 C.3    23  A23         0.1812
    482  O5'       17.3860   48.0450   37.0410 O.3    23  A23        -0.3114
    483  C4'       19.5780   48.2690   35.9720 C.3    23  A23         0.1773
    484  O4'       19.7100   46.8290   35.9140 O.3    23  A23        -0.3307
    485  C3'       19.0170   48.6490   34.6090 C.3    23  A23         0.1860
    486  O3'       19.3450   49.9830   34.2720 O.3    23  A23        -0.3112
    487  C2'       19.6810   47.6340   33.6880 C.3    23  A23         0.2309
    488  O2'       20.9970   47.9770   33.3180 O.3    23  A23        -0.2156
    489  C1'       19.6570   46.3910   34.5660 C.3    23  A23         0.2408
    490  N1        17.3800   43.0690   31.3770 N.ar   23  A23        -0.2040
    491  C2        18.5630   43.6900   31.3310 C.ar   23  A23         0.2016
    492  N3        19.0780   44.5480   32.2130 N.ar   23  A23        -0.2048
    493  C4        18.2480   44.7560   33.2490 C.ar   23  A23         0.1692
    494  C5        17.0000   44.1900   33.4360 C.ar   23  A23         0.1518
    495  C6        16.5630   43.2980   32.4270 C.ar   23  A23         0.1919
    496  N6        15.3890   42.6690   32.4520 N.pl3  23  A23        -0.1054
    497  N7        16.4310   44.6480   34.6130 N.ar   23  A23        -0.2193
    498  C8        17.3360   45.4660   35.1050 C.ar   23  A23         0.1816
    499  N9        18.4600   45.5770   34.3310 N.ar   23  A23        -0.2693
    500  OP1       16.3160   49.4850   38.8140 O.3    23  A23        -0.4373
    501  OP2       15.1490   47.3790   37.9500 O.co2  23  A23        -0.5172
    502  P         18.3010   50.8320   33.4120 P.3    24  U24         0.2141
    503  C5'       19.5310   50.1080   31.2100 C.3    24  U24         0.1812
    504  O5'       18.3420   50.0570   32.0110 O.3    24  U24        -0.3114
    505  C4'       19.4720   49.0820   30.1000 C.3    24  U24         0.1773
    506  O4'       19.2150   47.7640   30.6470 O.3    24  U24        -0.3307
    507  C3'       18.3300   49.2970   29.1150 C.3    24  U24         0.1860
    508  O3'       18.6620   50.2950   28.1540 O.3    24  U24        -0.3112
    509  C2'       18.2030   47.9070   28.5130 C.3    24  U24         0.2309
    510  O2'       19.2290   47.6190   27.5890 O.3    24  U24        -0.2156
    511  C1'       18.3790   47.0400   29.7550 C.3    24  U24         0.2420
    512  N1        17.0550   46.6510   30.3910 N.ar   24  U24        -0.2534
    513  C2        16.3360   45.5970   29.8450 C.ar   24  U24         0.3546
    514  O2        16.7150   44.9410   28.8840 O.2    24  U24        -0.2443
    515  N3        15.1460   45.3190   30.4760 N.ar   24  U24        -0.1530
    516  C4        14.6130   45.9740   31.5700 C.ar   24  U24         0.2846
    517  O4        13.5380   45.6100   32.0270 O.2    24  U24        -0.2650
    518  C5        15.4070   47.0590   32.0820 C.ar   24  U24         0.0814
    519  C6        16.5660   47.3510   31.4830 C.ar   24  U24         0.0870
    520  OP1       18.8550   52.1900   33.2360 O.2    24  U24        -0.5172
    521  OP2       16.9580   50.6790   34.0040 O.co2  24  U24        -0.4373
    522  P         17.6210   51.4660   27.8120 P.3    25  G25         0.2141
    523  C5'       16.4280   50.0050   26.0270 C.3    25  G25         0.1812
    524  O5'       16.3390   50.6880   27.2630 O.3    25  G25        -0.3114
    525  C4'       15.3310   48.9680   25.8710 C.3    25  G25         0.1773
    526  O4'       15.1550   48.1390   27.0450 O.3    25  G25        -0.3307
    527  C3'       13.9670   49.5510   25.6020 C.3    25  G25         0.1860
    528  O3'       13.9410   49.8440   24.2140 O.3    25  G25        -0.3112
    529  C2'       13.0790   48.3690   25.9830 C.3    25  G25         0.2309
    530  O2'       13.0630   47.3760   24.9770 O.3    25  G25        -0.2156
    531  C1'       13.7940   47.7920   27.1960 C.3    25  G25         0.2408
    532  N1        10.7720   47.0330   31.3000 N.ar   25  G25        -0.1709
    533  C2        10.8350   46.3060   30.1310 C.ar   25  G25         0.2606
    534  N2         9.9990   45.2590   30.0520 N.pl3  25  G25        -0.0859
    535  N3        11.6560   46.5950   29.1180 N.ar   25  G25        -0.1918
    536  C4        12.4300   47.6840   29.3630 C.ar   25  G25         0.1723
    537  C5        12.4380   48.4700   30.4980 C.ar   25  G25         0.1748
    538  C6        11.5580   48.1530   31.5630 C.ar   25  G25         0.3023
    539  O6        11.4330   48.7410   32.6430 O.2    25  G25        -0.2633
    540  N7        13.3600   49.4980   30.3930 N.ar   25  G25        -0.2173
    541  C8        13.8900   49.3200   29.2190 C.ar   25  G25         0.1817
    542  N9        13.3730   48.2460   28.5250 N.ar   25  G25        -0.2693
    543  OP1       18.2380   52.2470   26.7200 O.2    25  G25        -0.5172
    544  OP2       17.1860   52.1340   29.0610 O.co2  25  G25        -0.4373
    545  P         13.4780   51.2770   23.6870 P.3    26  A26         0.2141
    546  C5'       14.1560   53.6950   24.3410 C.3    26  A26         0.1812
    547  O5'       14.3710   52.3070   24.5110 O.3    26  A26        -0.3114
    548  C4'       13.8310   54.3720   25.6640 C.3    26  A26         0.1773
    549  O4'       12.6050   53.8340   26.2240 O.3    26  A26        -0.3307
    550  C3'       14.8790   54.2780   26.7690 C.3    26  A26         0.1860
    551  O3'       14.9930   55.5450   27.3740 O.3    26  A26        -0.3112
    552  C2'       14.2380   53.3190   27.7690 C.3    26  A26         0.2309
    553  O2'       14.6580   53.5650   29.0970 O.3    26  A26        -0.2156
    554  C1'       12.7630   53.6670   27.6110 C.3    26  A26         0.2408
    555  N1         9.8690   51.8540   31.4830 N.ar   26  A26        -0.2040
    556  C2        10.6510   52.9400   31.3820 C.ar   26  A26         0.2016
    557  N3        11.3800   53.3490   30.3420 N.ar   26  A26        -0.2048
    558  C4        11.2540   52.5110   29.2980 C.ar   26  A26         0.1692
    559  C5        10.4890   51.3580   29.2500 C.ar   26  A26         0.1518
    560  C6         9.7650   51.0250   30.4180 C.ar   26  A26         0.1919
    561  N6         8.9860   49.9420   30.5290 N.pl3  26  A26        -0.1054
    562  N7        10.6040   50.7500   28.0110 N.ar   26  A26        -0.2193
    563  C8        11.4210   51.5330   27.3500 C.ar   26  A26         0.1816
    564  N9        11.8520   52.6180   28.0630 N.ar   26  A26        -0.2693
    565  OP1       12.0730   51.4270   24.1210 O.3    26  A26        -0.4373
    566  OP2       13.8590   51.3910   22.2580 O.co2  26  A26        -0.5172
    567  P         16.1990   56.5530   27.1090 P.3    27  G27         0.2141
    568  C5'       14.6960   58.7320   27.2620 C.3    27  G27         0.1812
    569  O5'       15.6040   57.8270   27.8710 O.3    27  G27        -0.3114
    570  C4'       13.2300   58.3390   27.3960 C.3    27  G27         0.1773
    571  O4'       12.7550   58.2960   28.7810 O.3    27  G27        -0.3307
    572  C3'       12.3050   59.3250   26.6860 C.3    27  G27         0.1860
    573  O3'       11.3380   58.6010   25.9300 O.3    27  G27        -0.3112
    574  C2'       11.7030   60.1030   27.8580 C.3    27  G27         0.2309
    575  O2'       10.4830   60.7360   27.5540 O.3    27  G27        -0.2156
    576  C1'       11.4880   58.9410   28.8140 C.3    27  G27         0.2408
    577  N1         8.6420   57.5640   32.8370 N.ar   27  G27        -0.1709
    578  C2         8.7930   56.9500   31.6140 C.ar   27  G27         0.2606
    579  N2         8.1000   55.8170   31.4260 N.pl3  27  G27        -0.0859
    580  N3         9.5690   57.4160   30.6370 N.ar   27  G27        -0.1918
    581  C4        10.2030   58.5680   30.9760 C.ar   27  G27         0.1723
    582  C5        10.1220   59.2550   32.1690 C.ar   27  G27         0.1748
    583  C6         9.2860   58.7470   33.2040 C.ar   27  G27         0.3023
    584  O6         9.0820   59.2190   34.3300 O.2    27  G27        -0.2633
    585  N7        10.9270   60.3860   32.1310 N.ar   27  G27        -0.2173
    586  C8        11.4650   60.3610   30.9430 C.ar   27  G27         0.1817
    587  N9        11.0740   59.2840   30.1820 N.ar   27  G27        -0.2693
    588  OP1       16.3230   56.7950   25.6550 O.2    27  G27        -0.5172
    589  OP2       17.3750   56.1020   27.8840 O.co2  27  G27        -0.4373
    590  P         10.4720   59.3420   24.8100 P.3    28  U28         0.2141
    591  C5'       11.0510   57.5530   22.9650 C.3    28  U28         0.1812
    592  O5'       10.0790   58.1350   23.8270 O.3    28  U28        -0.3114
    593  C4'       10.7740   56.0840   22.6700 C.3    28  U28         0.1773
    594  O4'       11.1880   55.2680   23.7950 O.3    28  U28        -0.3307
    595  C3'        9.3210   55.6850   22.4410 C.3    28  U28         0.1860
    596  O3'        8.9480   55.9260   21.1010 O.3    28  U28        -0.3112
    597  C2'        9.3460   54.1940   22.7550 C.3    28  U28         0.2309
    598  O2'        9.8690   53.3950   21.7090 O.3    28  U28        -0.2156
    599  C1'       10.3080   54.1600   23.9390 C.3    28  U28         0.2420
    600  N1         9.6730   54.1940   25.3100 N.ar   28  U28        -0.2534
    601  C2         8.8510   53.1600   25.7380 C.ar   28  U28         0.3546
    602  O2         8.5730   52.1820   25.0680 O.2    28  U28        -0.2443
    603  N3         8.3480   53.3150   27.0100 N.ar   28  U28        -0.1530
    604  C4         8.5770   54.3680   27.8840 C.ar   28  U28         0.2846
    605  O4         8.0600   54.3790   28.9970 O.2    28  U28        -0.2650
    606  C5         9.4400   55.3980   27.3680 C.ar   28  U28         0.0814
    607  C6         9.9390   55.2740   26.1330 C.ar   28  U28         0.0870
    608  OP1       11.3520   60.3180   24.1260 O.2    28  U28        -0.5172
    609  OP2        9.2280   59.8260   25.4480 O.co2  28  U28        -0.4373
    610  P          7.5330   56.6060   20.7800 P.3    29  A29         0.2141
    611  C5'        6.5870   54.2790   19.9560 C.3    29  A29         0.1812
    612  O5'        6.5350   55.3570   20.8960 O.3    29  A29        -0.3114
    613  C4'        5.8230   53.0630   20.4610 C.3    29  A29         0.1773
    614  O4'        6.3590   52.6690   21.7460 O.3    29  A29        -0.3307
    615  C3'        4.3370   53.2630   20.7460 C.3    29  A29         0.1860
    616  O3'        3.5310   53.1330   19.5700 O.3    29  A29        -0.3112
    617  C2'        4.0420   52.1620   21.7580 C.3    29  A29         0.2309
    618  O2'        3.8660   50.8900   21.1640 O.3    29  A29        -0.2156
    619  C1'        5.3210   52.1830   22.5850 C.3    29  A29         0.2408
    620  N1         3.2090   52.8620   27.2720 N.ar   29  A29        -0.2040
    621  C2         3.0200   51.9120   26.3430 C.ar   29  A29         0.2016
    622  N3         3.6010   51.7850   25.1430 N.ar   29  A29        -0.2048
    623  C4         4.4700   52.7910   24.9130 C.ar   29  A29         0.1692
    624  C5         4.7610   53.8360   25.7710 C.ar   29  A29         0.1518
    625  C6         4.0890   53.8530   27.0090 C.ar   29  A29         0.1919
    626  N6         4.2810   54.8060   27.9190 N.pl3  29  A29        -0.1054
    627  N7         5.6950   54.6890   25.2130 N.ar   29  A29        -0.2193
    628  C8         5.9490   54.1520   24.0450 C.ar   29  A29         0.1816
    629  N9         5.2450   53.0080   23.7940 N.ar   29  A29        -0.2693
    630  OP1        7.5930   57.0580   19.3740 O.2    29  A29        -0.5172
    631  OP2        7.1950   57.5860   21.8400 O.co2  29  A29        -0.4373
    632  P          2.3850   54.2160   19.2840 P.3    30  G30         0.2141
    633  C5'        0.5510   52.9410   20.6760 C.3    30  G30         0.1812
    634  O5'        1.4100   54.0730   20.5470 O.3    30  G30        -0.3114
    635  C4'       -0.0330   52.8790   22.0760 C.3    30  G30         0.1773
    636  O4'        1.0170   52.8880   23.0800 O.3    30  G30        -0.3307
    637  C3'       -0.8810   54.0700   22.4900 C.3    30  G30         0.1860
    638  O3'       -2.1500   54.0380   21.8580 O.3    30  G30        -0.3112
    639  C2'       -0.9270   53.8680   24.0020 C.3    30  G30         0.2309
    640  O2'       -1.7620   52.7990   24.4120 O.3    30  G30        -0.2156
    641  C1'        0.5440   53.5370   24.2520 C.3    30  G30         0.2408
    642  N1         1.8250   57.2150   27.5590 N.ar   30  G30        -0.1709
    643  C2         0.9510   56.1580   27.7280 C.ar   30  G30         0.2606
    644  N2         0.3390   56.0620   28.9160 N.pl3  30  G30        -0.0859
    645  N3         0.6950   55.2510   26.7890 N.ar   30  G30        -0.1918
    646  C4         1.3910   55.4870   25.6440 C.ar   30  G30         0.1723
    647  C5         2.2800   56.5090   25.3810 C.ar   30  G30         0.1748
    648  C6         2.5460   57.4690   26.3850 C.ar   30  G30         0.3023
    649  O6         3.3100   58.4430   26.3100 O.2    30  G30        -0.2633
    650  N7         2.7870   56.4080   24.0930 N.ar   30  G30        -0.2173
    651  C8         2.2080   55.3460   23.6070 C.ar   30  G30         0.1817
    652  N9         1.3510   54.7320   24.4910 N.ar   30  G30        -0.2693
    653  OP1        1.6710   53.7730   18.0620 O.2    30  G30        -0.5172
    654  OP2        2.9820   55.5730   19.3540 O.co2  30  G30        -0.4373
    655  P         -2.8630   55.4120   21.4440 P.3    31  G31         0.2141
    656  C5'       -4.3570   55.1990   23.5900 C.3    31  G31         0.1812
    657  O5'       -3.3960   55.9510   22.8540 O.3    31  G31        -0.3114
    658  C4'       -4.7150   55.9160   24.8740 C.3    31  G31         0.1773
    659  O4'       -3.5810   55.8950   25.7760 O.3    31  G31        -0.3307
    660  C3'       -5.0190   57.3900   24.6920 C.3    31  G31         0.1860
    661  O3'       -6.3670   57.5820   24.2690 O.3    31  G31        -0.3112
    662  C2'       -4.6980   57.9450   26.0800 C.3    31  G31         0.2309
    663  O2'       -5.6960   57.7040   27.0540 O.3    31  G31        -0.2156
    664  C1'       -3.4240   57.1610   26.3910 C.3    31  G31         0.2408
    665  N1        -0.0720   60.9840   26.9440 N.ar   31  G31        -0.1709
    666  C2        -1.1490   60.6530   27.7360 C.ar   31  G31         0.2606
    667  N2        -1.3630   61.4340   28.8040 N.pl3  31  G31        -0.0859
    668  N3        -1.9590   59.6260   27.4950 N.ar   31  G31        -0.1918
    669  C4        -1.6000   58.9390   26.3780 C.ar   31  G31         0.1723
    670  C5        -0.5440   59.1920   25.5260 C.ar   31  G31         0.1748
    671  C6         0.3110   60.2900   25.7950 C.ar   31  G31         0.3023
    672  O6         1.2980   60.6600   25.1430 O.2    31  G31        -0.2633
    673  N7        -0.5040   58.2670   24.4910 N.ar   31  G31        -0.2173
    674  C8        -1.5180   57.4850   24.7290 C.ar   31  G31         0.1817
    675  N9        -2.2300   57.8250   25.8590 N.ar   31  G31        -0.2693
    676  OP1       -4.0130   55.0400   20.5890 O.2    31  G31        -0.5172
    677  OP2       -1.8570   56.3810   20.9430 O.co2  31  G31        -0.4373
    678  P         -6.6960   58.6660   23.1320 P.3    32  C32         0.2141
    679  C5'       -7.5170   60.3050   25.0240 C.3    32  C32         0.1812
    680  O5'       -6.6230   60.0500   23.9430 O.3    32  C32        -0.3114
    681  C4'       -7.1150   61.5410   25.8100 C.3    32  C32         0.1773
    682  O4'       -5.8270   61.3390   26.4530 O.3    32  C32        -0.3307
    683  C3'       -6.8940   62.8090   24.9950 C.3    32  C32         0.1860
    684  O3'       -8.1140   63.4280   24.5820 O.3    32  C32        -0.3112
    685  C2'       -6.1020   63.6360   26.0070 C.3    32  C32         0.2309
    686  O2'       -6.8730   64.1490   27.0790 O.3    32  C32        -0.2156
    687  C1'       -5.1210   62.5720   26.4930 C.3    32  C32         0.2420
    688  N1        -3.8800   62.5240   25.6260 N.ar   32  C32        -0.2535
    689  C2        -2.8290   63.4450   25.8360 C.ar   32  C32         0.3532
    690  O2        -2.9060   64.2920   26.7390 O.2    32  C32        -0.2443
    691  N3        -1.7320   63.3830   25.0320 N.ar   32  C32        -0.1739
    692  C4        -1.6580   62.4680   24.0580 C.ar   32  C32         0.1759
    693  N4        -0.5620   62.4430   23.2970 N.pl3  32  C32        -0.1070
    694  C5        -2.7080   61.5290   23.8220 C.ar   32  C32         0.0566
    695  C6        -3.7820   61.5960   24.6180 C.ar   32  C32         0.0850
    696  OP1       -8.0800   58.4310   22.6610 O.3    32  C32        -0.4373
    697  OP2       -5.5940   58.6480   22.1420 O.co2  32  C32        -0.5172
    698  P         -8.2950   63.9620   23.0730 P.3    33  U33         0.2141
    699  C5'       -7.4510   66.3360   23.9160 C.3    33  U33         0.1812
    700  O5'       -7.3140   65.2350   23.0050 O.3    33  U33        -0.3114
    701  C4'       -6.1760   67.1580   24.0460 C.3    33  U33         0.1773
    702  O4'       -5.0370   66.3340   24.4090 O.3    33  U33        -0.3307
    703  C3'       -5.6950   67.8460   22.7770 C.3    33  U33         0.1860
    704  O3'       -6.4660   68.9970   22.4840 O.3    33  U33        -0.3112
    705  C2'       -4.2600   68.1800   23.1730 C.3    33  U33         0.2309
    706  O2'       -4.1660   69.2400   24.1090 O.3    33  U33        -0.2156
    707  C1'       -3.8560   66.8480   23.8030 C.3    33  U33         0.2420
    708  N1        -3.2810   65.8710   22.7910 N.ar   33  U33        -0.2534
    709  C2        -1.9510   65.9810   22.4170 C.ar   33  U33         0.3546
    710  O2        -1.1860   66.8220   22.8570 O.2    33  U33        -0.2443
    711  N3        -1.5320   65.0520   21.4900 N.ar   33  U33        -0.1530
    712  C4        -2.2830   64.0440   20.9050 C.ar   33  U33         0.2846
    713  O4        -1.7630   63.2890   20.0910 O.2    33  U33        -0.2650
    714  C5        -3.6560   63.9860   21.3360 C.ar   33  U33         0.0814
    715  C6        -4.0840   64.8790   22.2390 C.ar   33  U33         0.0870
    716  OP1       -9.6950   64.4260   22.9450 O.3    33  U33        -0.4373
    717  OP2       -7.7860   62.9280   22.1370 O.co2  33  U33        -0.5172
    718  P         -6.5410   69.5390   20.9790 P.3    34  G34         0.2141
    719  C5'       -5.1960   71.7370   21.6150 C.3    34  G34         0.1812
    720  O5'       -5.2520   70.4910   20.9050 O.3    34  G34        -0.3114
    721  C4'       -3.9740   72.5430   21.2040 C.3    34  G34         0.1773
    722  O4'       -2.7830   71.8150   21.6050 O.3    34  G34        -0.3307
    723  C3'       -3.8160   72.7640   19.6990 C.3    34  G34         0.1860
    724  O3'       -4.4780   73.9490   19.2570 O.3    34  G34        -0.3112
    725  C2'       -2.3020   72.8550   19.5200 C.3    34  G34         0.2309
    726  O2'       -1.7850   74.1590   19.7000 O.3    34  G34        -0.2156
    727  C1'       -1.7910   71.8930   20.5920 C.3    34  G34         0.2408
    728  N1         1.4280   69.0430   17.8440 N.ar   34  G34        -0.1709
    729  C2         1.5280   70.3650   18.2160 C.ar   34  G34         0.2606
    730  N2         2.6200   71.0210   17.8090 N.pl3  34  G34        -0.0859
    731  N3         0.6150   71.0030   18.9410 N.ar   34  G34        -0.1918
    732  C4        -0.4310   70.2030   19.2760 C.ar   34  G34         0.1723
    733  C5        -0.6240   68.8750   18.9530 C.ar   34  G34         0.1748
    734  C6         0.3610   68.2070   18.1790 C.ar   34  G34         0.3023
    735  O6         0.3610   67.0310   17.7930 O.2    34  G34        -0.2633
    736  N7        -1.8220   68.4100   19.4830 N.ar   34  G34        -0.2173
    737  C8        -2.3200   69.4460   20.1020 C.ar   34  G34         0.1817
    738  N9        -1.5280   70.5690   20.0260 N.ar   34  G34        -0.2693
    739  OP1       -7.7660   70.3700   20.8640 O.3    34  G34        -0.4373
    740  OP2       -6.3290   68.4000   20.0540 O.co2  34  G34        -0.5172
    741  P         -5.0940   74.0380   17.7790 P.3    35  U35         0.2141
    742  C5'       -3.1430   75.5310   16.8410 C.3    35  U35         0.1812
    743  O5'       -3.8230   74.2810   16.8440 O.3    35  U35        -0.3114
    744  C4'       -1.8310   75.4260   16.0840 C.3    35  U35         0.1773
    745  O4'       -0.9990   74.4080   16.7080 O.3    35  U35        -0.3307
    746  C3'       -1.9300   74.9480   14.6390 C.3    35  U35         0.1860
    747  O3'       -2.3300   75.9680   13.7220 O.3    35  U35        -0.3112
    748  C2'       -0.5020   74.4740   14.4000 C.3    35  U35         0.2309
    749  O2'        0.4020   75.5380   14.1570 O.3    35  U35        -0.2156
    750  C1'       -0.2030   73.7650   15.7220 C.3    35  U35         0.2420
    751  N1        -0.4800   72.2750   15.6710 N.ar   35  U35        -0.2534
    752  C2         0.4600   71.4280   15.0960 C.ar   35  U35         0.3546
    753  O2         1.5200   71.8030   14.6240 O.2    35  U35        -0.2443
    754  N3         0.1140   70.0950   15.0900 N.ar   35  U35        -0.1530
    755  C4        -1.0480   69.5270   15.5830 C.ar   35  U35         0.2846
    756  O4        -1.2060   68.3140   15.5010 O.2    35  U35        -0.2650
    757  C5        -1.9840   70.4610   16.1620 C.ar   35  U35         0.0814
    758  C6        -1.6670   71.7650   16.1810 C.ar   35  U35         0.0870
    759  OP1       -5.9580   75.2410   17.7400 O.3    35  U35        -0.4373
    760  OP2       -5.6580   72.7180   17.4240 O.co2  35  U35        -0.5172
    761  P         -3.1970   75.5570   12.4340 P.3    36  C36         0.2141
    762  C5'       -1.0220   75.6940   10.9440 C.3    36  C36         0.1812
    763  O5'       -2.1260   74.9360   11.4220 O.3    36  C36        -0.3114
    764  C4'        0.0760   74.7590   10.4810 C.3    36  C36         0.1773
    765  O4'        0.4140   73.8280   11.5410 O.3    36  C36        -0.3307
    766  C3'       -0.3260   73.8290    9.3520 C.3    36  C36         0.1860
    767  O3'       -0.2940   74.4810    8.0970 O.3    36  C36        -0.3112
    768  C2'        0.7290   72.7380    9.4770 C.3    36  C36         0.2309
    769  O2'        1.9980   73.1070    8.9740 O.3    36  C36        -0.2156
    770  C1'        0.7760   72.5690   10.9900 C.3    36  C36         0.2420
    771  N1        -0.1290   71.4570   11.4740 N.ar   36  C36        -0.2535
    772  C2         0.2500   70.1150   11.2780 C.ar   36  C36         0.3532
    773  O2         1.3200   69.8550   10.7130 O.2    36  C36        -0.2443
    774  N3        -0.5680   69.1200   11.7140 N.ar   36  C36        -0.1739
    775  C4        -1.7220   69.4150   12.3170 C.ar   36  C36         0.1759
    776  N4        -2.4900   68.4010   12.7250 N.pl3  36  C36        -0.1070
    777  C5        -2.1340   70.7680   12.5270 C.ar   36  C36         0.0566
    778  C6        -1.3190   71.7420   12.0940 C.ar   36  C36         0.0850
    779  OP1       -3.7620   76.7990   11.8590 O.2    36  C36        -0.5172
    780  OP2       -4.0920   74.4380   12.8140 O.co2  36  C36        -0.4373
    781  P         -1.2680   73.9590    6.9370 P.3    37  C37         0.2141
    782  C5'        0.6750   72.4370    6.0410 C.3    37  C37         0.1812
    783  O5'       -0.6500   72.5230    6.5680 O.3    37  C37        -0.3114
    784  C4'        1.1640   71.0080    5.9210 C.3    37  C37         0.1773
    785  O4'        1.1220   70.3030    7.1880 O.3    37  C37        -0.3307
    786  C3'        0.3110   70.1290    5.0310 C.3    37  C37         0.1860
    787  O3'        0.5320   70.4450    3.6730 O.3    37  C37        -0.3112
    788  C2'        0.8300   68.7520    5.4290 C.3    37  C37         0.2309
    789  O2'        2.1160   68.4490    4.9200 O.3    37  C37        -0.2156
    790  C1'        0.8820   68.9200    6.9460 C.3    37  C37         0.2420
    791  N1        -0.3760   68.4520    7.6550 N.ar   37  C37        -0.2535
    792  C2        -0.7090   67.0820    7.7020 C.ar   37  C37         0.3532
    793  O2         0.0280   66.2410    7.1700 O.2    37  C37        -0.2443
    794  N3        -1.8400   66.6990    8.3520 N.ar   37  C37        -0.1739
    795  C4        -2.6290   67.6100    8.9270 C.ar   37  C37         0.1759
    796  N4        -3.7330   67.1840    9.5490 N.pl3  37  C37        -0.1070
    797  C5        -2.3190   69.0020    8.8890 C.ar   37  C37         0.0566
    798  C6        -1.2000   69.3690    8.2520 C.ar   37  C37         0.0850
    799  OP1       -1.1220   74.8760    5.7810 O.2    37  C37        -0.5172
    800  OP2       -2.6090   73.7420    7.5290 O.co2  37  C37        -0.4373
    801  P         -0.6860   70.3430    2.6420 P.3    38  C38         0.2141
    802  C5'        0.4010   68.0290    1.9930 C.3    38  C38         0.1812
    803  O5'       -0.7610   68.7660    2.3790 O.3    38  C38        -0.3114
    804  C4'        0.1170   66.5400    2.0360 C.3    38  C38         0.1773
    805  O4'       -0.1780   66.1200    3.3910 O.3    38  C38        -0.3307
    806  C3'       -1.1040   66.1270    1.2330 C.3    38  C38         0.1860
    807  O3'       -0.7350   65.9290   -0.1300 O.3    38  C38        -0.3112
    808  C2'       -1.5370   64.8330    1.9120 C.3    38  C38         0.2309
    809  O2'       -0.9360   63.6920    1.3290 O.3    38  C38        -0.2156
    810  C1'       -1.0600   65.0100    3.3560 C.3    38  C38         0.2420
    811  N1        -2.1910   65.2090    4.3330 N.ar   38  C38        -0.2535
    812  C2        -2.9190   64.1010    4.8100 C.ar   38  C38         0.3532
    813  O2        -2.6320   62.9560    4.4400 O.2    38  C38        -0.2443
    814  N3        -3.9340   64.3090    5.6880 N.ar   38  C38        -0.1739
    815  C4        -4.2380   65.5460    6.0860 C.ar   38  C38         0.1759
    816  N4        -5.2470   65.6860    6.9500 N.pl3  38  C38        -0.1070
    817  C5        -3.5200   66.6870    5.6110 C.ar   38  C38         0.0566
    818  C6        -2.5180   66.4730    4.7480 C.ar   38  C38         0.0850
    819  OP1       -0.2830   71.0320    1.3980 O.2    38  C38        -0.5172
    820  OP2       -1.9380   70.7490    3.3180 O.co2  38  C38        -0.4373
    821  P         -1.6640   66.4720   -1.3160 P.3    39  A39         0.2141
    822  C5'       -3.3410   64.4250   -1.1910 C.3    39  A39         0.1812
    823  O5'       -3.0740   65.8050   -0.9740 O.3    39  A39        -0.3114
    824  C4'       -4.8210   64.1990   -0.9540 C.3    39  A39         0.1773
    825  O4'       -5.1630   64.6060    0.3950 O.3    39  A39        -0.3307
    826  C3'       -5.7360   64.9890   -1.8870 C.3    39  A39         0.1860
    827  O3'       -6.7460   64.1130   -2.3800 O.3    39  A39        -0.3112
    828  C2'       -6.2820   66.1290   -1.0200 C.3    39  A39         0.2309
    829  O2'       -7.5970   66.5260   -1.3630 O.3    39  A39        -0.2156
    830  C1'       -6.2420   65.5220    0.3830 C.3    39  A39         0.2408
    831  N1        -7.8590   67.3560    4.9580 N.ar   39  A39        -0.2040
    832  C2        -8.3470   66.3890    4.1640 C.ar   39  A39         0.2016
    833  N3        -7.8790   65.9610    2.9860 N.ar   39  A39        -0.2048
    834  C4        -6.7720   66.6400    2.6170 C.ar   39  A39         0.1692
    835  C5        -6.1560   67.6610    3.3300 C.ar   39  A39         0.1518
    836  C6        -6.7470   68.0240    4.5660 C.ar   39  A39         0.1919
    837  N6        -6.2620   68.9890    5.3590 N.pl3  39  A39        -0.1054
    838  N7        -5.0410   68.1290    2.6490 N.ar   39  A39        -0.2193
    839  C8        -5.0040   67.3970    1.5600 C.ar   39  A39         0.1816
    840  N9        -6.0180   66.4800    1.4690 N.ar   39  A39        -0.2693
    841  OP1       -1.1540   65.8900   -2.5790 O.2    39  A39        -0.5172
    842  OP2       -1.8130   67.9420   -1.1890 O.co2  39  A39        -0.4373
    843  P         -6.5300   63.3090   -3.7470 P.3    40  U40         0.2141
    844  C5'       -6.0610   60.8150   -3.0750 C.3    40  U40         0.1812
    845  O5'       -7.0160   61.8290   -3.3870 O.3    40  U40        -0.3114
    846  C4'       -6.5740   59.8870   -1.9870 C.3    40  U40         0.1773
    847  O4'       -7.0020   60.6580   -0.8330 O.3    40  U40        -0.3307
    848  C3'       -7.7590   59.0090   -2.3950 C.3    40  U40         0.1860
    849  O3'       -7.5530   57.6560   -1.9550 O.3    40  U40        -0.3112
    850  C2'       -8.9380   59.6770   -1.6870 C.3    40  U40         0.2309
    851  O2'       -9.9940   58.7790   -1.4040 O.3    40  U40        -0.2156
    852  C1'       -8.2570   60.1610   -0.4070 C.3    40  U40         0.2420
    853  N1        -9.0000   61.2150    0.3790 N.ar   40  U40        -0.2534
    854  C2        -9.7790   60.8370    1.4660 C.ar   40  U40         0.3546
    855  O2        -9.9100   59.6850    1.8410 O.2    40  U40        -0.2443
    856  N3       -10.4130   61.8690    2.1190 N.ar   40  U40        -0.1530
    857  C4       -10.3550   63.2160    1.8070 C.ar   40  U40         0.2846
    858  O4       -10.9820   64.0280    2.4850 O.2    40  U40        -0.2650
    859  C5        -9.5280   63.5350    0.6660 C.ar   40  U40         0.0814
    860  C6        -8.8960   62.5480    0.0120 C.ar   40  U40         0.0870
    861  OP1       -5.0810   63.2670   -4.0590 O.3    40  U40        -0.4373
    862  OP2       -7.4770   63.8740   -4.7330 O.co2  40  U40        -0.5172
    863  P         -6.6680   56.5920   -2.7710 P.3    41  C41         0.2141
    864  C5'       -5.7070   56.1060   -0.3670 C.3    41  C41         0.1812
    865  O5'       -5.4740   56.2470   -1.7620 O.3    41  C41        -0.3114
    866  C4'       -4.7050   56.9340    0.4160 C.3    41  C41         0.1773
    867  O4'       -5.2430   58.2480    0.6540 O.3    41  C41        -0.3307
    868  C3'       -4.3910   56.4270    1.8160 C.3    41  C41         0.1860
    869  O3'       -3.2560   55.5610    1.7680 O.3    41  C41        -0.3112
    870  C2'       -4.1540   57.6840    2.6660 C.3    41  C41         0.2309
    871  O2'       -2.8290   57.8260    3.1490 O.3    41  C41        -0.2156
    872  C1'       -4.5070   58.8240    1.7100 C.3    41  C41         0.2420
    873  N1        -5.3460   59.9140    2.2930 N.ar   41  C41        -0.2535
    874  C2        -6.5420   59.6400    2.9880 C.ar   41  C41         0.3532
    875  O2        -6.9270   58.4720    3.1450 O.2    41  C41        -0.2443
    876  N3        -7.2580   60.6870    3.4850 N.ar   41  C41        -0.1739
    877  C4        -6.8370   61.9450    3.3110 C.ar   41  C41         0.1759
    878  N4        -7.5810   62.9310    3.8220 N.pl3  41  C41        -0.1070
    879  C5        -5.6320   62.2400    2.6060 C.ar   41  C41         0.0566
    880  C6        -4.9310   61.2060    2.1190 C.ar   41  C41         0.0850
    881  OP1       -6.0710   57.2680   -3.9470 O.2    41  C41        -0.5172
    882  OP2       -7.4950   55.3800   -2.9650 O.co2  41  C41        -0.4373
    883  P         -3.3330   54.1400    2.4920 P.3    42  A42         0.2141
    884  C5'       -2.3470   54.9320    4.7910 C.3    42  A42         0.1812
    885  O5'       -3.4900   54.5820    4.0200 O.3    42  A42        -0.3114
    886  C4'       -2.3190   54.0720    6.0380 C.3    42  A42         0.1773
    887  O4'       -3.5780   54.2140    6.7410 O.3    42  A42        -0.3307
    888  C3'       -2.1440   52.5730    5.7830 C.3    42  A42         0.1860
    889  O3'       -1.0960   52.0560    6.6020 O.3    42  A42        -0.3112
    890  C2'       -3.4970   51.9700    6.1510 C.3    42  A42         0.2309
    891  O2'       -3.3920   50.6680    6.6900 O.3    42  A42        -0.2156
    892  C1'       -3.9580   52.9460    7.2260 C.3    42  A42         0.2408
    893  N1        -7.6480   52.8050   10.7940 N.ar   42  A42        -0.2040
    894  C2        -6.3140   52.8160   10.8900 C.ar   42  A42         0.2016
    895  N3        -5.4130   52.8550    9.9090 N.ar   42  A42        -0.2048
    896  C4        -6.0050   52.8840    8.7050 C.ar   42  A42         0.1692
    897  C5        -7.3600   52.8780    8.4440 C.ar   42  A42         0.1518
    898  C6        -8.2100   52.8350    9.5660 C.ar   42  A42         0.1919
    899  N6        -9.5400   52.8270    9.4690 N.pl3  42  A42        -0.1054
    900  N7        -7.6050   52.9210    7.0790 N.ar   42  A42        -0.2193
    901  C8        -6.4070   52.9490    6.5500 C.ar   42  A42         0.1816
    902  N9        -5.3970   52.9280    7.4750 N.ar   42  A42        -0.2693
    903  OP1       -2.0380   53.4410    2.3230 O.3    42  A42        -0.4373
    904  OP2       -4.5940   53.4860    2.0580 O.co2  42  A42        -0.5172
    905  P          0.3850   52.0050    6.0140 P.3    43  G43         0.2141
    906  C5'        1.3280   51.2060    8.3430 C.3    43  G43         0.1812
    907  O5'        1.1090   50.9460    6.9570 O.3    43  G43        -0.3114
    908  C4'        1.4980   49.8890    9.0810 C.3    43  G43         0.1773
    909  O4'        0.3420   49.0520    8.8080 O.3    43  G43        -0.3307
    910  C3'        2.7190   49.0660    8.6790 C.3    43  G43         0.1860
    911  O3'        3.2380   48.3570    9.7960 O.3    43  G43        -0.3112
    912  C2'        2.1560   48.1100    7.6320 C.3    43  G43         0.2309
    913  O2'        2.8330   46.8710    7.5630 O.3    43  G43        -0.2156
    914  C1'        0.7290   47.8830    8.1160 C.3    43  G43         0.2408
    915  N1        -0.9550   44.4560    4.7790 N.ar   43  G43        -0.1709
    916  C2        -0.0870   44.2960    5.8390 C.ar   43  G43         0.2606
    917  N2         0.4080   43.0670    6.0390 N.pl3  43  G43        -0.0859
    918  N3         0.2760   45.2790    6.6480 N.ar   43  G43        -0.1918
    919  C4        -0.3090   46.4570    6.3170 C.ar   43  G43         0.1723
    920  C5        -1.1810   46.7190    5.2860 C.ar   43  G43         0.1748
    921  C6        -1.5620   45.6610    4.4230 C.ar   43  G43         0.3023
    922  O6        -2.3310   45.7080    3.4530 O.2    43  G43        -0.2633
    923  N7        -1.5510   48.0570    5.2840 N.ar   43  G43        -0.2173
    924  C8        -0.9040   48.5680    6.2950 C.ar   43  G43         0.1817
    925  N9        -0.1380   47.6540    6.9700 N.ar   43  G43        -0.2693
    926  OP1        1.0040   53.3340    6.2240 O.3    43  G43        -0.4373
    927  OP2        0.2960   51.4320    4.6490 O.co2  43  G43        -0.5172
    928  P          4.8130   48.1610    9.9820 P.3    44  G44         0.2141
    929  C5'        6.4380   48.3760    7.9390 C.3    44  G44         0.1812
    930  O5'        5.3400   47.7050    8.5400 O.3    44  G44        -0.3114
    931  C4'        7.2370   47.4270    7.0760 C.3    44  G44         0.1773
    932  O4'        7.3770   46.1320    7.7180 O.3    44  G44        -0.3307
    933  C3'        6.5790   47.1140    5.7470 C.3    44  G44         0.1860
    934  O3'        6.8480   48.1300    4.7950 O.3    44  G44        -0.3112
    935  C2'        7.2750   45.8130    5.3840 C.3    44  G44         0.2309
    936  O2'        8.5610   46.0430    4.8360 O.3    44  G44        -0.2156
    937  C1'        7.3240   45.1090    6.7420 C.3    44  G44         0.2408
    938  N1         4.6070   41.0050    5.3320 N.ar   44  G44        -0.1709
    939  C2         5.7980   41.4680    4.8270 C.ar   44  G44         0.2606
    940  N2         6.3320   40.7630    3.8220 N.pl3  44  G44        -0.0859
    941  N3         6.4200   42.5540    5.2760 N.ar   44  G44        -0.1918
    942  C4         5.7500   43.1550    6.2950 C.ar   44  G44         0.1723
    943  C5         4.5580   42.7640    6.8670 C.ar   44  G44         0.1748
    944  C6         3.9080   41.6070    6.3760 C.ar   44  G44         0.3023
    945  O6         2.8450   41.1120    6.7630 O.2    44  G44        -0.2633
    946  N7         4.1860   43.6330    7.8820 N.ar   44  G44        -0.2173
    947  C8         5.1450   44.5170    7.9020 C.ar   44  G44         0.1817
    948  N9         6.1330   44.2940    6.9730 N.ar   44  G44        -0.2693
    949  OP1        4.9870   47.0280   10.9170 O.3    44  G44        -0.4373
    950  OP2        5.4010   49.4890   10.2740 O.co2  44  G44        -0.5172
    951  P          5.7290   48.4310    3.6950 P.3    45  G45         0.2141
    952  C5'        7.0790   47.1150    1.8500 C.3    45  G45         0.1812
    953  O5'        5.9040   47.2130    2.6660 O.3    45  G45        -0.3114
    954  C4'        6.9600   46.0000    0.8260 C.3    45  G45         0.1773
    955  O4'        7.0070   44.7080    1.4870 O.3    45  G45        -0.3307
    956  C3'        5.6540   45.9710    0.0420 C.3    45  G45         0.1860
    957  O3'        5.6730   46.8780   -1.0550 O.3    45  G45        -0.3112
    958  C2'        5.5940   44.5130   -0.4000 C.3    45  G45         0.2309
    959  O2'        6.4060   44.2240   -1.5220 O.3    45  G45        -0.2156
    960  C1'        6.1160   43.8080    0.8480 C.3    45  G45         0.2408
    961  N1         2.1230   40.7540    1.6910 N.ar   45  G45        -0.1709
    962  C2         3.0020   40.7790    0.6310 C.ar   45  G45         0.2606
    963  N2         2.8030   39.8800   -0.3390 N.pl3  45  G45        -0.0859
    964  N3         4.0150   41.6270    0.5240 N.ar   45  G45        -0.1918
    965  C4         4.0840   42.4750    1.5780 C.ar   45  G45         0.1723
    966  C5         3.2570   42.5340    2.6780 C.ar   45  G45         0.1748
    967  C6         2.1810   41.6190    2.7810 C.ar   45  G45         0.3023
    968  O6         1.3420   41.5250    3.6840 O.2    45  G45        -0.2633
    969  N7         3.6610   43.5420    3.5370 N.ar   45  G45        -0.2173
    970  C8         4.7020   44.0640    2.9510 C.ar   45  G45         0.1817
    971  N9         5.0230   43.4640    1.7570 N.ar   45  G45        -0.2693
    972  OP1        6.0730   49.6820    2.9770 O.2    45  G45        -0.5172
    973  OP2        4.4150   48.3070    4.3780 O.co2  45  G45        -0.4373
    974  P          4.3740   47.7710   -1.3390 P.3    46  G46         0.2141
    975  C5'        3.3760   46.3300   -3.3060 C.3    46  G46         0.1812
    976  O5'        3.3350   46.7060   -1.9300 O.3    46  G46        -0.3114
    977  C4'        2.6630   45.0100   -3.5320 C.3    46  G46         0.1773
    978  O4'        2.9530   44.0650   -2.4670 O.3    46  G46        -0.3307
    979  C3'        1.1470   45.0620   -3.4920 C.3    46  G46         0.1860
    980  O3'        0.5870   45.6930   -4.6380 O.3    46  G46        -0.3112
    981  C2'        0.8530   43.5670   -3.4000 C.3    46  G46         0.2309
    982  O2'        1.1160   42.8340   -4.5760 O.3    46  G46        -0.2156
    983  C1'        1.8510   43.1790   -2.3150 C.3    46  G46         0.2408
    984  N1        -1.6910   41.3940    0.9030 N.ar   46  G46        -0.1709
    985  C2        -1.3930   40.9870   -0.3770 C.ar   46  G46         0.2606
    986  N2        -2.1290   39.9780   -0.8690 N.pl3  46  G46        -0.0859
    987  N3        -0.4370   41.5330   -1.1200 N.ar   46  G46        -0.1918
    988  C4         0.2140   42.5400   -0.4790 C.ar   46  G46         0.1723
    989  C5        -0.0120   43.0190    0.7930 C.ar   46  G46         0.1748
    990  C6        -1.0350   42.4250    1.5780 C.ar   46  G46         0.3023
    991  O6        -1.3830   42.7140    2.7300 O.2    46  G46        -0.2633
    992  N7         0.8600   44.0580    1.0890 N.ar   46  G46        -0.2173
    993  C8         1.5830   44.1880    0.0120 C.ar   46  G46         0.1817
    994  N9         1.2530   43.2970   -0.9830 N.ar   46  G46        -0.2693
    995  OP1        4.7200   48.7550   -2.3920 O.2    46  G46        -0.5172
    996  OP2        3.8230   48.2320   -0.0420 O.co2  46  G46        -0.4373
    997  P         -0.8330   46.4270   -4.5240 P.3    47  A47         0.2141
    998  C5'       -2.0950   44.3870   -5.5300 C.3    47  A47         0.1812
    999  O5'       -1.8390   45.1960   -4.3900 O.3    47  A47        -0.3114
   1000  C4'       -3.2290   43.4180   -5.2730 C.3    47  A47         0.1773
   1001  O4'       -2.8900   42.5380   -4.1720 O.3    47  A47        -0.3307
   1002  C3'       -4.5300   44.0660   -4.8390 C.3    47  A47         0.1860
   1003  O3'       -5.2390   44.5520   -5.9630 O.3    47  A47        -0.3112
   1004  C2'       -5.2200   42.8890   -4.1680 C.3    47  A47         0.2309
   1005  O2'       -5.7330   41.9500   -5.0920 O.3    47  A47        -0.2156
   1006  C1'       -4.0460   42.3100   -3.3870 C.3    47  A47         0.2408
   1007  N1        -5.8680   42.7920    1.3960 N.ar   47  A47        -0.2040
   1008  C2        -6.2750   42.0550    0.3510 C.ar   47  A47         0.2016
   1009  N3        -5.7510   41.9780   -0.8770 N.ar   47  A47        -0.2048
   1010  C4        -4.6740   42.7750   -0.9800 C.ar   47  A47         0.1692
   1011  C5        -4.1320   43.5870    0.0030 C.ar   47  A47         0.1518
   1012  C6        -4.7780   43.5820    1.2530 C.ar   47  A47         0.1919
   1013  N6        -4.3540   44.3160    2.2880 N.pl3  47  A47        -0.1054
   1014  N7        -3.0200   44.2620   -0.4590 N.ar   47  A47        -0.2193
   1015  C8        -2.9150   43.8490   -1.6980 C.ar   47  A47         0.1816
   1016  N9        -3.8780   42.9500   -2.0810 N.ar   47  A47        -0.2693
   1017  OP1       -1.0900   47.1090   -5.8120 O.2    47  A47        -0.5172
   1018  OP2       -0.8950   47.2100   -3.2690 O.co2  47  A47        -0.4373
   1019  P         -6.0490   45.9230   -5.8300 P.3    48  G48         0.2141
   1020  C5'       -8.3020   44.6480   -5.5020 C.3    48  G48         0.1812
   1021  O5'       -7.3030   45.4970   -4.9330 O.3    48  G48        -0.3114
   1022  C4'       -9.2470   44.1070   -4.4500 C.3    48  G48         0.1773
   1023  O4'       -8.4950   43.4790   -3.3790 O.3    48  G48        -0.3307
   1024  C3'      -10.0850   45.1550   -3.7390 C.3    48  G48         0.1860
   1025  O3'      -11.1830   45.5830   -4.5430 O.3    48  G48        -0.3112
   1026  C2'      -10.4910   44.3720   -2.4930 C.3    48  G48         0.2309
   1027  O2'      -11.4970   43.4060   -2.7350 O.3    48  G48        -0.2156
   1028  C1'       -9.1610   43.7040   -2.1490 C.3    48  G48         0.2408
   1029  N1        -8.3720   45.2830    2.6310 N.ar   48  G48        -0.1709
   1030  C2        -9.3270   44.4210    2.1380 C.ar   48  G48         0.2606
   1031  N2       -10.1920   43.9040    3.0210 N.pl3  48  G48        -0.0859
   1032  N3        -9.4280   44.0850    0.8580 N.ar   48  G48        -0.1918
   1033  C4        -8.4850   44.6890    0.0910 C.ar   48  G48         0.1723
   1034  C5        -7.4920   45.5620    0.4890 C.ar   48  G48         0.1748
   1035  C6        -7.3930   45.9120    1.8620 C.ar   48  G48         0.3023
   1036  O6        -6.5840   46.6770    2.4090 O.2    48  G48        -0.2633
   1037  N7        -6.7280   45.9590   -0.6020 N.ar   48  G48        -0.2173
   1038  C8        -7.2610   45.3280   -1.6140 C.ar   48  G48         0.1817
   1039  N9        -8.3320   44.5330   -1.2710 N.ar   48  G48        -0.2693
   1040  OP1       -6.5160   46.2930   -7.1910 O.2    48  G48        -0.5172
   1041  OP2       -5.2360   46.8790   -5.0400 O.co2  48  G48        -0.4373
   1042  P        -11.9010   46.9920   -4.2510 P.3    49  G49         0.2141
   1043  C5'      -12.8740   47.5970   -1.8960 C.3    49  G49         0.1812
   1044  O5'      -12.7450   46.6610   -2.9370 O.3    49  G49        -0.3114
   1045  C4'      -13.4800   46.8930   -0.7080 C.3    49  G49         0.1773
   1046  O4'      -12.4750   46.0850   -0.0490 O.3    49  G49        -0.3307
   1047  C3'      -13.9540   47.8540    0.3560 C.3    49  G49         0.1860
   1048  O3'      -15.2920   48.2320    0.0740 O.3    49  G49        -0.3112
   1049  C2'      -13.7700   47.0420    1.6350 C.3    49  G49         0.2309
   1050  O2'      -14.7570   46.0490    1.8340 O.3    49  G49        -0.2156
   1051  C1'      -12.4300   46.3820    1.3350 C.3    49  G49         0.2408
   1052  N1        -9.5480   48.6220    4.9530 N.ar   49  G49        -0.1709
   1053  C2       -10.7010   47.8780    5.0970 C.ar   49  G49         0.2606
   1054  N2       -11.1480   47.7040    6.3510 N.pl3  49  G49        -0.0859
   1055  N3       -11.3720   47.3390    4.0800 N.ar   49  G49        -0.1918
   1056  C4       -10.7930   47.6110    2.8800 C.ar   49  G49         0.1723
   1057  C5        -9.6460   48.3460    2.6390 C.ar   49  G49         0.1748
   1058  C6        -8.9390   48.9090    3.7300 C.ar   49  G49         0.3023
   1059  O6        -7.9010   49.5840    3.6910 O.2    49  G49        -0.2633
   1060  N7        -9.3660   48.4020    1.2810 N.ar   49  G49        -0.2173
   1061  C8       -10.3310   47.7130    0.7380 C.ar   49  G49         0.1817
   1062  N9       -11.2420   47.2000    1.6380 N.ar   49  G49        -0.2693
   1063  OP1      -12.8670   47.2580   -5.3420 O.2    49  G49        -0.5172
   1064  OP2      -10.8700   48.0070   -3.9200 O.co2  49  G49        -0.4373
   1065  P        -15.6770   49.7850    0.1460 P.3    50  A50         0.2141
   1066  C5'      -17.0030   49.2160    2.3390 C.3    50  A50         0.1812
   1067  O5'      -15.9610   49.9640    1.7140 O.3    50  A50        -0.3114
   1068  C4'      -16.8410   49.1950    3.8470 C.3    50  A50         0.1773
   1069  O4'      -15.5140   48.7300    4.1970 O.3    50  A50        -0.3307
   1070  C3'      -16.9400   50.5540    4.5210 C.3    50  A50         0.1860
   1071  O3'      -18.2900   50.9180    4.7370 O.3    50  A50        -0.3112
   1072  C2'      -16.1990   50.3120    5.8280 C.3    50  A50         0.2309
   1073  O2'      -16.9970   49.6650    6.8020 O.3    50  A50        -0.2156
   1074  C1'      -15.0620   49.4010    5.3640 C.3    50  A50         0.2408
   1075  N1       -11.0010   51.9440    7.2990 N.ar   50  A50        -0.2040
   1076  C2       -12.0670   51.3860    7.8850 C.ar   50  A50         0.2016
   1077  N3       -13.0840   50.7380    7.3160 N.ar   50  A50        -0.2048
   1078  C4       -12.9500   50.6870    5.9790 C.ar   50  A50         0.1692
   1079  C5       -11.9120   51.2190    5.2350 C.ar   50  A50         0.1518
   1080  C6       -10.8890   51.8760    5.9540 C.ar   50  A50         0.1919
   1081  N6        -9.8220   52.4330    5.3740 N.pl3  50  A50        -0.1054
   1082  N7       -12.1050   50.9770    3.8880 N.ar   50  A50        -0.2193
   1083  C8       -13.2380   50.3180    3.8460 C.ar   50  A50         0.1816
   1084  N9       -13.8080   50.1060    5.0710 N.ar   50  A50        -0.2693
   1085  OP1      -16.9340   49.9910   -0.6100 O.2    50  A50        -0.5172
   1086  OP2      -14.4680   50.5730   -0.1990 O.co2  50  A50        -0.4373
   1087  P        -18.7830   52.3310    4.1750 P.3    51  A51         0.2141
   1088  C5'      -18.4920   53.3670    6.5890 C.3    51  A51         0.1812
   1089  O5'      -18.1270   53.3730    5.2020 O.3    51  A51        -0.3114
   1090  C4'      -17.4240   53.9810    7.4870 C.3    51  A51         0.1773
   1091  O4'      -16.1550   53.2880    7.3450 O.3    51  A51        -0.3307
   1092  C3'      -17.0620   55.4340    7.2070 C.3    51  A51         0.1860
   1093  O3'      -18.0480   56.3310    7.7020 O.3    51  A51        -0.3112
   1094  C2'      -15.7290   55.5380    7.9440 C.3    51  A51         0.2309
   1095  O2'      -15.8770   55.6520    9.3480 O.3    51  A51        -0.2156
   1096  C1'      -15.0910   54.1990    7.5670 C.3    51  A51         0.2408
   1097  N1       -10.4350   55.2590    5.5830 N.ar   51  A51        -0.2040
   1098  C2       -10.8860   55.2730    6.8470 C.ar   51  A51         0.2016
   1099  N3       -12.1110   54.9810    7.2920 N.ar   51  A51        -0.2048
   1100  C4       -12.9380   54.6450    6.2810 C.ar   51  A51         0.1692
   1101  C5       -12.6160   54.5880    4.9330 C.ar   51  A51         0.1518
   1102  C6       -11.2870   54.9190    4.5830 C.ar   51  A51         0.1919
   1103  N6       -10.8350   54.9010    3.3260 N.pl3  51  A51        -0.1054
   1104  N7       -13.7130   54.2050    4.1770 N.ar   51  A51        -0.2193
   1105  C8       -14.6600   54.0420    5.0700 C.ar   51  A51         0.1816
   1106  N9       -14.2670   54.2860    6.3610 N.ar   51  A51        -0.2693
   1107  OP1      -20.2590   52.3710    4.2880 O.3    51  A51        -0.4373
   1108  OP2      -18.1540   52.5600    2.8540 O.co2  51  A51        -0.5172
   1109  P        -18.6180   57.4640    6.7250 P.3    52  U52         0.2141
   1110  C5'      -16.9810   59.3530    7.5670 C.3    52  U52         0.1812
   1111  O5'      -17.3470   58.4220    6.5450 O.3    52  U52        -0.3114
   1112  C4'      -16.2910   60.5730    6.9820 C.3    52  U52         0.1773
   1113  O4'      -15.0040   60.1610    6.4610 O.3    52  U52        -0.3307
   1114  C3'      -17.0460   61.2760    5.8410 C.3    52  U52         0.1860
   1115  O3'      -17.6140   62.5880    6.1730 O.3    52  U52        -0.3112
   1116  C2'      -16.1000   61.2370    4.6280 C.3    52  U52         0.2309
   1117  O2'      -15.9110   62.4820    3.9810 O.3    52  U52        -0.2156
   1118  C1'      -14.7700   60.7260    5.1840 C.3    52  U52         0.2420
   1119  N1       -14.1150   59.6960    4.2950 N.ar   52  U52        -0.2534
   1120  C2       -12.8630   59.9450    3.7430 C.ar   52  U52         0.3546
   1121  O2       -12.2200   60.9630    3.9230 O.2    52  U52        -0.2443
   1122  N3       -12.3690   58.9380    2.9490 N.ar   52  U52        -0.1530
   1123  C4       -12.9840   57.7330    2.6520 C.ar   52  U52         0.2846
   1124  O4       -12.4160   56.9300    1.9210 O.2    52  U52        -0.2650
   1125  C5       -14.2800   57.5410    3.2560 C.ar   52  U52         0.0814
   1126  C6       -14.7830   58.5080    4.0360 C.ar   52  U52         0.0870
   1127  OP1      -19.6960   58.1900    7.4370 O.3    52  U52        -0.4373
   1128  OP2      -18.9130   56.8490    5.4150 O.co2  52  U52        -0.5172
   1129  P        -16.8810   63.8500    6.8530 P.3    53  C53         0.2141
   1130  C5'      -16.7680   64.3840    9.4310 C.3    53  C53         0.1812
   1131  O5'      -17.5100   63.8640    8.3270 O.3    53  C53        -0.3114
   1132  C4'      -17.1820   63.7180   10.7320 C.3    53  C53         0.1773
   1133  O4'      -18.6280   63.6160   10.7940 O.3    53  C53        -0.3307
   1134  C3'      -16.6420   62.3040   10.9270 C.3    53  C53         0.1860
   1135  O3'      -16.0670   62.1590   12.2240 O.3    53  C53        -0.3112
   1136  C2'      -17.8720   61.4160   10.7750 C.3    53  C53         0.2309
   1137  O2'      -17.8030   60.2260   11.5440 O.3    53  C53        -0.2156
   1138  C1'      -18.9660   62.3420   11.2940 C.3    53  C53         0.2420
   1139  N1       -20.3130   61.9100   10.8230 N.ar   53  C53        -0.2535
   1140  C2       -21.1910   61.2980   11.7330 C.ar   53  C53         0.3532
   1141  O2       -20.8460   61.1470   12.9130 O.2    53  C53        -0.2443
   1142  N3       -22.4070   60.8880   11.2870 N.ar   53  C53        -0.1739
   1143  C4       -22.7430   61.0640   10.0040 C.ar   53  C53         0.1759
   1144  N4       -23.9490   60.6470    9.6130 N.pl3  53  C53        -0.1070
   1145  C5       -21.8630   61.6770    9.0590 C.ar   53  C53         0.0566
   1146  C6       -20.6670   62.0790    9.5080 C.ar   53  C53         0.0850
   1147  OP1      -17.3680   65.0440    6.1300 O.2    53  C53        -0.5172
   1148  OP2      -15.4210   63.6190    6.9560 O.co2  53  C53        -0.4373
   1149  P        -14.4850   62.0610   12.3960 P.3    54  G54         0.2141
   1150  C5'      -14.4060   59.5000   11.8050 C.3    54  G54         0.1812
   1151  O5'      -14.0940   60.8410   11.4420 O.3    54  G54        -0.3114
   1152  C4'      -13.7960   58.5170   10.8240 C.3    54  G54         0.1773
   1153  O4'      -14.0410   58.9380    9.4560 O.3    54  G54        -0.3307
   1154  C3'      -12.2850   58.3840   10.8720 C.3    54  G54         0.1860
   1155  O3'      -11.8900   57.5860   11.9800 O.3    54  G54        -0.3112
   1156  C2'      -12.0720   57.6840    9.5370 C.3    54  G54         0.2309
   1157  O2'      -12.5480   56.3510    9.5410 O.3    54  G54        -0.2156
   1158  C1'      -12.9560   58.5380    8.6370 C.3    54  G54         0.2408
   1159  N1        -9.4410   60.3240    5.3550 N.ar   54  G54        -0.1709
   1160  C2        -9.8030   59.0210    5.6100 C.ar   54  G54         0.2606
   1161  N2        -9.1580   58.0730    4.9140 N.pl3  54  G54        -0.0859
   1162  N3       -10.7380   58.6790    6.4910 N.ar   54  G54        -0.1918
   1163  C4       -11.2970   59.7510    7.1120 C.ar   54  G54         0.1723
   1164  C5       -10.9990   61.0850    6.9230 C.ar   54  G54         0.1748
   1165  C6        -9.9990   61.4400    5.9800 C.ar   54  G54         0.3023
   1166  O6        -9.5980   62.5710    5.6750 O.2    54  G54        -0.2633
   1167  N7       -11.7830   61.8860    7.7430 N.ar   54  G54        -0.2173
   1168  C8       -12.5260   61.0380    8.3990 C.ar   54  G54         0.1817
   1169  N9       -12.2900   59.7210    8.0750 N.ar   54  G54        -0.2693
   1170  OP1      -14.1990   61.6940   13.8020 O.3    54  G54        -0.4373
   1171  OP2      -13.8970   63.2920   11.8220 O.co2  54  G54        -0.5172
   1172  P        -10.5140   57.8490   12.7560 P.3    55  G55         0.2141
   1173  C5'       -9.1130   56.3070   11.1570 C.3    55  G55         0.1812
   1174  O5'       -9.3970   57.6150   11.6350 O.3    55  G55        -0.3114
   1175  C4'       -8.1500   56.3560    9.9900 C.3    55  G55         0.1773
   1176  O4'       -8.6780   57.1870    8.9260 O.3    55  G55        -0.3307
   1177  C3'       -6.8060   56.9860   10.2950 C.3    55  G55         0.1860
   1178  O3'       -5.9790   56.0750   10.9820 O.3    55  G55        -0.3112
   1179  C2'       -6.3160   57.2890    8.8870 C.3    55  G55         0.2309
   1180  O2'       -5.8240   56.1680    8.1830 O.3    55  G55        -0.2156
   1181  C1'       -7.6000   57.8040    8.2410 C.3    55  G55         0.2408
   1182  N1        -5.7630   62.3030    6.6710 N.ar   55  G55        -0.1709
   1183  C2        -5.3670   61.0320    6.3190 C.ar   55  G55         0.2606
   1184  N2        -4.3580   60.9390    5.4420 N.pl3  55  G55        -0.0859
   1185  N3        -5.9300   59.9260    6.7970 N.ar   55  G55        -0.1918
   1186  C4        -6.9360   60.1920    7.6740 C.ar   55  G55         0.1723
   1187  C5        -7.3980   61.4230    8.0910 C.ar   55  G55         0.1748
   1188  C6        -6.7910   62.5960    7.5690 C.ar   55  G55         0.3023
   1189  O6        -7.0660   63.7770    7.8170 O.2    55  G55        -0.2633
   1190  N7        -8.4390   61.2760    8.9980 N.ar   55  G55        -0.2173
   1191  C8        -8.5840   59.9860    9.1140 C.ar   55  G55         0.1817
   1192  N9        -7.7090   59.2620    8.3380 N.ar   55  G55        -0.2693
   1193  OP1      -10.3960   56.8140   13.8050 O.3    55  G55        -0.4373
   1194  OP2      -10.4500   59.2760   13.1330 O.co2  55  G55        -0.5172
   1195  P         -4.9570   56.5930   12.1010 P.3    56  G56         0.2141
   1196  C5'       -3.0570   56.1300   10.3640 C.3    56  G56         0.1812
   1197  O5'       -3.7130   57.0670   11.2150 O.3    56  G56        -0.3114
   1198  C4'       -2.2480   56.8210    9.2800 C.3    56  G56         0.1773
   1199  O4'       -3.0970   57.6070    8.4000 O.3    56  G56        -0.3307
   1200  C3'       -1.2260   57.8320    9.7720 C.3    56  G56         0.1860
   1201  O3'       -0.0760   57.1900   10.2960 O.3    56  G56        -0.3112
   1202  C2'       -0.9700   58.5870    8.4740 C.3    56  G56         0.2309
   1203  O2'       -0.2750   57.8250    7.5090 O.3    56  G56        -0.2156
   1204  C1'       -2.4110   58.7900    8.0260 C.3    56  G56         0.2408
   1205  N1        -2.4640   63.8840    8.5340 N.ar   56  G56        -0.1709
   1206  C2        -1.6340   63.0940    7.7640 C.ar   56  G56         0.2606
   1207  N2        -0.6970   63.7220    7.0400 N.pl3  56  G56        -0.0859
   1208  N3        -1.7140   61.7700    7.7090 N.ar   56  G56        -0.1918
   1209  C4        -2.7070   61.2800    8.4980 C.ar   56  G56         0.1723
   1210  C5        -3.5820   61.9850    9.2980 C.ar   56  G56         0.1748
   1211  C6        -3.4910   63.3980    9.3510 C.ar   56  G56         0.3023
   1212  O6        -4.1950   64.1780   10.0120 O.2    56  G56        -0.2633
   1213  N7        -4.4550   61.1270    9.9510 N.ar   56  G56        -0.2173
   1214  C8        -4.0970   59.9440    9.5440 C.ar   56  G56         0.1817
   1215  N9        -3.0440   59.9510    8.6600 N.ar   56  G56        -0.2693
   1216  OP1       -4.5600   55.4290   12.9170 O.3    56  G56        -0.4373
   1217  OP2       -5.5270   57.7780   12.7760 O.co2  56  G56        -0.5172
   1218  P          0.6500   57.7740   11.6020 P.3    57  G57         0.2141
   1219  C5'        2.4600   58.7080    9.9580 C.3    57  G57         0.1812
   1220  O5'        1.4880   58.9840   10.9690 O.3    57  G57        -0.3114
   1221  C4'        2.9000   59.9720    9.2470 C.3    57  G57         0.1773
   1222  O4'        1.7590   60.6660    8.6860 O.3    57  G57        -0.3307
   1223  C3'        3.5540   61.0050   10.1460 C.3    57  G57         0.1860
   1224  O3'        4.9120   60.6700   10.3610 O.3    57  G57        -0.3112
   1225  C2'        3.3710   62.2710    9.3200 C.3    57  G57         0.2309
   1226  O2'        4.2680   62.3770    8.2300 O.3    57  G57        -0.2156
   1227  C1'        1.9370   62.0640    8.8340 C.3    57  G57         0.2408
   1228  N1        -0.0380   66.1660   11.1350 N.ar   57  G57        -0.1709
   1229  C2         0.9940   66.0850   10.2210 C.ar   57  G57         0.2606
   1230  N2         1.5860   67.2310    9.8620 N.pl3  57  G57        -0.0859
   1231  N3         1.4220   64.9520    9.6850 N.ar   57  G57        -0.1918
   1232  C4         0.7300   63.8790   10.1440 C.ar   57  G57         0.1723
   1233  C5        -0.3080   63.8550   11.0540 C.ar   57  G57         0.1748
   1234  C6        -0.7610   65.0720   11.6190 C.ar   57  G57         0.3023
   1235  O6        -1.6730   65.2360   12.4420 O.2    57  G57        -0.2633
   1236  N7        -0.7500   62.5580   11.2630 N.ar   57  G57        -0.2173
   1237  C8         0.0150   61.8360   10.4910 C.ar   57  G57         0.1817
   1238  N9         0.9370   62.5680    9.7770 N.ar   57  G57        -0.2693
   1239  OP1        1.5830   56.7450   12.1150 O.2    57  G57        -0.5172
   1240  OP2       -0.3700   58.3270   12.5220 O.co2  57  G57        -0.4373
   1241  P          5.5640   60.8950   11.8040 P.3    58  A58         0.2141
   1242  C5'        6.8570   62.8720   10.6360 C.3    58  A58         0.1812
   1243  O5'        5.9960   62.4350   11.6970 O.3    58  A58        -0.3114
   1244  C4'        7.1040   64.3730   10.6580 C.3    58  A58         0.1773
   1245  O4'        5.9200   65.0820   10.2010 O.3    58  A58        -0.3307
   1246  C3'        7.4140   64.9760   12.0240 C.3    58  A58         0.1860
   1247  O3'        8.8010   64.8730   12.3310 O.3    58  A58        -0.3112
   1248  C2'        6.9510   66.4200   11.8520 C.3    58  A58         0.2309
   1249  O2'        7.9020   67.2400   11.1940 O.3    58  A58        -0.2156
   1250  C1'        5.6880   66.2260   11.0090 C.3    58  A58         0.2408
   1251  N1         1.9440   68.4270   13.8380 N.ar   58  A58        -0.2040
   1252  C2         2.9940   68.9520   13.1870 C.ar   58  A58         0.2016
   1253  N3         3.9290   68.3250   12.4670 N.ar   58  A58        -0.2048
   1254  C4         3.7170   66.9950   12.4480 C.ar   58  A58         0.1692
   1255  C5         2.6820   66.3140   13.0730 C.ar   58  A58         0.1518
   1256  C6         1.7540   67.0900   13.8000 C.ar   58  A58         0.1919
   1257  N6         0.7110   66.5660   14.4490 N.pl3  58  A58        -0.1054
   1258  N7         2.7740   64.9540   12.8410 N.ar   58  A58        -0.2193
   1259  C8         3.8460   64.8400   12.0930 C.ar   58  A58         0.1816
   1260  N9         4.4700   66.0290   11.8110 N.ar   58  A58        -0.2693
   1261  OP1        6.7710   60.0480   11.8880 O.2    58  A58        -0.5172
   1262  OP2        4.5250   60.7490   12.8470 O.co2  58  A58        -0.4373
   1263  P          9.2660   64.5270   13.8280 P.3    59  C59         0.2141
   1264  C5'        9.8200   67.0940   14.0820 C.3    59  C59         0.1812
   1265  O5'        9.1260   65.9430   14.5610 O.3    59  C59        -0.3114
   1266  C4'        9.2510   68.3560   14.7030 C.3    59  C59         0.1773
   1267  O4'        7.9110   68.5960   14.1970 O.3    59  C59        -0.3307
   1268  C3'        9.0560   68.3030   16.2130 C.3    59  C59         0.1860
   1269  O3'       10.2660   68.5520   16.9080 O.3    59  C59        -0.3112
   1270  C2'        8.0250   69.4090   16.4110 C.3    59  C59         0.2309
   1271  O2'        8.5630   70.7160   16.3250 O.3    59  C59        -0.2156
   1272  C1'        7.0970   69.1290   15.2320 C.3    59  C59         0.2420
   1273  N1         5.9630   68.1900   15.5970 N.ar   59  C59        -0.2535
   1274  C2         4.8090   68.7090   16.2170 C.ar   59  C59         0.3532
   1275  O2         4.7250   69.9220   16.4480 O.2    59  C59        -0.2443
   1276  N3         3.7980   67.8610   16.5460 N.ar   59  C59        -0.1739
   1277  C4         3.9050   66.5550   16.2850 C.ar   59  C59         0.1759
   1278  N4         2.8820   65.7680   16.6290 N.pl3  59  C59        -0.1070
   1279  C5         5.0640   66.0010   15.6610 C.ar   59  C59         0.0566
   1280  C6         6.0540   66.8450   15.3420 C.ar   59  C59         0.0850
   1281  OP1       10.6910   64.1380   13.7810 O.2    59  C59        -0.5172
   1282  OP2        8.2880   63.6020   14.4490 O.co2  59  C59        -0.4373
   1283  P         10.5410   67.8560   18.3220 P.3    60  G60         0.2141
   1284  C5'        8.9800   68.1420   20.4460 C.3    60  G60         0.1812
   1285  O5'        9.1150   67.8750   19.0520 O.3    60  G60        -0.3114
   1286  C4'        8.1450   69.3870   20.6910 C.3    60  G60         0.1773
   1287  O4'        7.1640   69.5870   19.6340 O.3    60  G60        -0.3307
   1288  C3'        7.3170   69.3500   21.9660 C.3    60  G60         0.1860
   1289  O3'        8.0940   69.7610   23.0800 O.3    60  G60        -0.3112
   1290  C2'        6.2120   70.3450   21.6290 C.3    60  G60         0.2309
   1291  O2'        6.6380   71.6920   21.6770 O.3    60  G60        -0.2156
   1292  C1'        5.9060   69.9270   20.1930 C.3    60  G60         0.2408
   1293  N1         1.3360   67.8360   21.3390 N.ar   60  G60        -0.1709
   1294  C2         1.8110   69.0830   21.6720 C.ar   60  G60         0.2606
   1295  N2         0.9860   69.8580   22.3900 N.pl3  60  G60        -0.0859
   1296  N3         3.0170   69.5270   21.3220 N.ar   60  G60        -0.1918
   1297  C4         3.7310   68.6170   20.5960 C.ar   60  G60         0.1723
   1298  C5         3.3340   67.3500   20.2180 C.ar   60  G60         0.1748
   1299  C6         2.0480   66.8870   20.6000 C.ar   60  G60         0.3023
   1300  O6         1.5300   65.7910   20.3490 O.2    60  G60        -0.2633
   1301  N7         4.3280   66.7120   19.4890 N.ar   60  G60        -0.2173
   1302  C8         5.2900   67.5870   19.4360 C.ar   60  G60         0.1817
   1303  N9         5.0090   68.7700   20.0820 N.ar   60  G60        -0.2693
   1304  OP1       11.4770   68.7430   19.0540 O.3    60  G60        -0.4373
   1305  OP2       10.8800   66.4360   18.0720 O.co2  60  G60        -0.5172
   1306  P          8.0580   68.9290   24.4460 P.3    61  G61         0.2141
   1307  C5'        6.4270   70.6670   25.5790 C.3    61  G61         0.1812
   1308  O5'        6.6590   69.3410   25.1030 O.3    61  G61        -0.3114
   1309  C4'        4.9950   70.8120   26.0590 C.3    61  G61         0.1773
   1310  O4'        4.0910   70.4820   24.9740 O.3    61  G61        -0.3307
   1311  C3'        4.5780   69.8500   27.1630 C.3    61  G61         0.1860
   1312  O3'        4.9920   70.2860   28.4500 O.3    61  G61        -0.3112
   1313  C2'        3.0620   69.8330   27.0080 C.3    61  G61         0.2309
   1314  O2'        2.4290   70.9790   27.5490 O.3    61  G61        -0.2156
   1315  C1'        2.9480   69.8060   25.4840 C.3    61  G61         0.2408
   1316  N1         0.2720   65.4260   25.0160 N.ar   61  G61        -0.1709
   1317  C2        -0.0310   66.5470   25.7540 C.ar   61  G61         0.2606
   1318  N2        -1.1790   66.4990   26.4440 N.pl3  61  G61        -0.0859
   1319  N3         0.7370   67.6360   25.8060 N.ar   61  G61        -0.1918
   1320  C4         1.8610   67.5190   25.0470 C.ar   61  G61         0.1723
   1321  C5         2.2460   66.4380   24.2770 C.ar   61  G61         0.1748
   1322  C6         1.4150   65.2890   24.2300 C.ar   61  G61         0.3023
   1323  O6         1.5990   64.2400   23.6030 O.2    61  G61        -0.2633
   1324  N7         3.4550   66.6860   23.6440 N.ar   61  G61        -0.2173
   1325  C8         3.7750   67.8870   24.0370 C.ar   61  G61         0.1817
   1326  N9         2.8620   68.4640   24.8890 N.ar   61  G61        -0.2693
   1327  OP1        9.1570   69.4410   25.2970 O.3    61  G61        -0.4373
   1328  OP2        7.9820   67.4880   24.1160 O.co2  61  G61        -0.5172
   1329  P          5.5420   69.1830   29.4750 P.3    62  C62         0.2141
   1330  C5'        3.1900   69.0550   30.6520 C.3    62  C62         0.1812
   1331  O5'        4.2190   68.3930   29.9100 O.3    62  C62        -0.3114
   1332  C4'        1.9880   68.1500   30.8630 C.3    62  C62         0.1773
   1333  O4'        1.4050   67.7820   29.5860 O.3    62  C62        -0.3307
   1334  C3'        2.2850   66.8100   31.5210 C.3    62  C62         0.1860
   1335  O3'        2.3890   66.9450   32.9230 O.3    62  C62        -0.3112
   1336  C2'        1.0540   66.0070   31.1220 C.3    62  C62         0.2309
   1337  O2'       -0.0830   66.2830   31.9180 O.3    62  C62        -0.2156
   1338  C1'        0.8420   66.4820   29.6850 C.3    62  C62         0.2420
   1339  N1         1.4600   65.5470   28.6780 N.ar   62  C62        -0.2535
   1340  C2         0.7660   64.3860   28.2860 C.ar   62  C62         0.3532
   1341  O2        -0.3520   64.1420   28.7590 O.2    62  C62        -0.2443
   1342  N3         1.3450   63.5490   27.3830 N.ar   62  C62        -0.1739
   1343  C4         2.5530   63.8280   26.8810 C.ar   62  C62         0.1759
   1344  N4         3.0720   62.9770   25.9910 N.pl3  62  C62        -0.1070
   1345  C5         3.2780   64.9990   27.2640 C.ar   62  C62         0.0566
   1346  C6         2.7000   65.8150   28.1550 C.ar   62  C62         0.0850
   1347  OP1        6.0910   69.8820   30.6550 O.3    62  C62        -0.4373
   1348  OP2        6.3980   68.2430   28.7170 O.co2  62  C62        -0.5172
   1349  P          3.4140   66.0260   33.7360 P.3    63  U63         0.2141
   1350  C5'        2.5210   63.5270   33.9940 C.3    63  U63         0.1812
   1351  O5'        3.1280   64.5410   33.1820 O.3    63  U63        -0.3114
   1352  C4'        1.8600   62.4060   33.1940 C.3    63  U63         0.1773
   1353  O4'        1.7910   62.6800   31.7680 O.3    63  U63        -0.3307
   1354  C3'        2.5750   61.0650   33.2300 C.3    63  U63         0.1860
   1355  O3'        2.4010   60.4190   34.4860 O.3    63  U63        -0.3112
   1356  C2'        1.8710   60.3360   32.0890 C.3    63  U63         0.2309
   1357  O2'        0.5980   59.8200   32.4410 O.3    63  U63        -0.2156
   1358  C1'        1.7450   61.4500   31.0500 C.3    63  U63         0.2420
   1359  N1         2.8190   61.4120   29.9780 N.ar   63  U63        -0.2534
   1360  C2         2.7750   60.4680   28.9520 C.ar   63  U63         0.3546
   1361  O2         1.9090   59.6170   28.8210 O.2    63  U63        -0.2443
   1362  N3         3.8080   60.5430   28.0460 N.ar   63  U63        -0.1530
   1363  C4         4.8600   61.4420   28.0550 C.ar   63  U63         0.2846
   1364  O4         5.7110   61.3870   27.1740 O.2    63  U63        -0.2650
   1365  C5         4.8460   62.3900   29.1420 C.ar   63  U63         0.0814
   1366  C6         3.8500   62.3360   30.0370 C.ar   63  U63         0.0870
   1367  OP1        3.0310   66.1210   35.1670 O.3    63  U63        -0.4373
   1368  OP2        4.7880   66.4000   33.3210 O.co2  63  U63        -0.5172
   1369  P          3.6010   59.5710   35.1220 P.3    64  G64         0.2141
   1370  C5'        2.7950   57.3740   33.9580 C.3    64  G64         0.1812
   1371  O5'        3.7860   58.3810   34.0790 O.3    64  G64        -0.3114
   1372  C4'        3.0900   56.5450   32.7280 C.3    64  G64         0.1773
   1373  O4'        3.0620   57.3860   31.5440 O.3    64  G64        -0.3307
   1374  C3'        4.4870   55.9370   32.6950 C.3    64  G64         0.1860
   1375  O3'        4.6010   54.7860   33.5230 O.3    64  G64        -0.3112
   1376  C2'        4.6170   55.6450   31.2060 C.3    64  G64         0.2309
   1377  O2'        3.8600   54.5250   30.7930 O.3    64  G64        -0.2156
   1378  C1'        4.0450   56.9380   30.6260 C.3    64  G64         0.2408
   1379  N1         7.6830   59.0180   27.6500 N.ar   64  G64        -0.1709
   1380  C2         6.8430   57.9610   27.3700 C.ar   64  G64         0.2606
   1381  N2         6.9880   57.3940   26.1640 N.pl3  64  G64        -0.0859
   1382  N3         5.9250   57.4930   28.2210 N.ar   64  G64        -0.1918
   1383  C4         5.9040   58.1810   29.3980 C.ar   64  G64         0.1723
   1384  C5         6.7020   59.2440   29.7630 C.ar   64  G64         0.1748
   1385  C6         7.6770   59.7300   28.8560 C.ar   64  G64         0.3023
   1386  O6         8.4620   60.6720   29.0370 O.2    64  G64        -0.2633
   1387  N7         6.3890   59.6870   31.0370 N.ar   64  G64        -0.2173
   1388  C8         5.4280   58.8990   31.4180 C.ar   64  G64         0.1817
   1389  N9         5.0750   57.9630   30.4810 N.ar   64  G64        -0.2693
   1390  OP1        3.1170   59.0040   36.4010 O.3    64  G64        -0.4373
   1391  OP2        4.8430   60.3790   35.0770 O.co2  64  G64        -0.5172
   1392  P          6.0370   54.4100   34.1270 P.3    65  A65         0.2141
   1393  C5'        6.7820   52.1530   32.9940 C.3    65  A65         0.1812
   1394  O5'        6.6520   53.5640   32.9140 O.3    65  A65        -0.3114
   1395  C4'        5.4860   51.4710   32.6200 C.3    65  A65         0.1773
   1396  O4'        4.9310   52.0570   31.4150 O.3    65  A65        -0.3307
   1397  C3'        5.6510   50.0050   32.2670 C.3    65  A65         0.1860
   1398  O3'        5.6710   49.2190   33.4420 O.3    65  A65        -0.3112
   1399  C2'        4.4110   49.7520   31.4260 C.3    65  A65         0.2309
   1400  O2'        3.2340   49.6960   32.2010 O.3    65  A65        -0.2156
   1401  C1'        4.4150   51.0240   30.5880 C.3    65  A65         0.2408
   1402  N1         4.9780   48.7310   25.9810 N.ar   65  A65        -0.2040
   1403  C2         4.0910   48.5440   26.9710 C.ar   65  A65         0.2016
   1404  N3         4.0050   49.1740   28.1440 N.ar   65  A65        -0.2048
   1405  C4         4.9710   50.1020   28.2720 C.ar   65  A65         0.1692
   1406  C5         5.9450   50.4060   27.3400 C.ar   65  A65         0.1518
   1407  C6         5.9290   49.6700   26.1340 C.ar   65  A65         0.1919
   1408  N6         6.7990   49.8410   25.1390 N.pl3  65  A65        -0.1054
   1409  N7         6.7660   51.4130   27.8120 N.ar   65  A65        -0.2193
   1410  C8         6.2790   51.6970   28.9990 C.ar   65  A65         0.1816
   1411  N9         5.1940   50.9410   29.3450 N.ar   65  A65        -0.2693
   1412  OP1        5.8260   53.5390   35.3070 O.3    65  A65        -0.4373
   1413  OP2        6.8580   55.6340   34.2680 O.co2  65  A65        -0.5172
   1414  P          6.8560   48.1660   33.6500 P.3    66  A66         0.2141
   1415  C5'        5.2060   46.2990   32.8900 C.3    66  A66         0.1812
   1416  O5'        6.4060   47.0250   32.6230 O.3    66  A66        -0.3114
   1417  C4'        4.7640   45.5240   31.6690 C.3    66  A66         0.1773
   1418  O4'        4.6120   46.4460   30.5650 O.3    66  A66        -0.3307
   1419  C3'        5.7520   44.5040   31.1350 C.3    66  A66         0.1860
   1420  O3'        5.6670   43.2960   31.8860 O.3    66  A66        -0.3112
   1421  C2'        5.2470   44.3690   29.7000 C.3    66  A66         0.2309
   1422  O2'        4.0280   43.6560   29.6090 O.3    66  A66        -0.2156
   1423  C1'        4.9940   45.8250   29.3510 C.3    66  A66         0.2408
   1424  N1         7.9800   46.6470   25.2230 N.ar   66  A66        -0.2040
   1425  C2         6.9260   45.8450   25.4170 C.ar   66  A66         0.2016
   1426  N3         6.1970   45.6750   26.5200 N.ar   66  A66        -0.2048
   1427  C4         6.6480   46.4510   27.5200 C.ar   66  A66         0.1692
   1428  C5         7.7180   47.3300   27.4710 C.ar   66  A66         0.1518
   1429  C6         8.4120   47.4200   26.2450 C.ar   66  A66         0.1919
   1430  N6         9.4610   48.2260   26.0440 N.pl3  66  A66        -0.1054
   1431  N7         7.8830   47.9670   28.6870 N.ar   66  A66        -0.2193
   1432  C8         6.9250   47.4720   29.4360 C.ar   66  A66         0.1816
   1433  N9         6.1400   46.5480   28.7970 N.ar   66  A66        -0.2693
   1434  OP1        6.7730   47.6060   35.0200 O.3    66  A66        -0.4373
   1435  OP2        8.1160   48.7900   33.1830 O.co2  66  A66        -0.5172
   1436  P          6.8180   42.1780   31.8170 P.3    67  A67         0.2141
   1437  C5'        5.6200   40.7710   29.9470 C.3    67  A67         0.1812
   1438  O5'        6.6720   41.6370   30.3260 O.3    67  A67        -0.3114
   1439  C4'        5.8520   40.3660   28.5080 C.3    67  A67         0.1773
   1440  O4'        5.9040   41.5460   27.6650 O.3    67  A67        -0.3307
   1441  C3'        7.1980   39.7060   28.2490 C.3    67  A67         0.1860
   1442  O3'        7.2240   38.3510   28.6860 O.3    67  A67        -0.3112
   1443  C2'        7.3040   39.8950   26.7350 C.3    67  A67         0.2309
   1444  O2'        6.4390   39.0630   25.9880 O.3    67  A67        -0.2156
   1445  C1'        6.8370   41.3380   26.6130 C.3    67  A67         0.2408
   1446  N1        10.3910   44.1840   24.1440 N.ar   67  A67        -0.2040
   1447  C2         9.5040   43.2930   23.6760 C.ar   67  A67         0.2016
   1448  N3         8.6070   42.5850   24.3760 N.ar   67  A67        -0.2048
   1449  C4         8.6740   42.8540   25.7010 C.ar   67  A67         0.1692
   1450  C5         9.5390   43.7420   26.3170 C.ar   67  A67         0.1518
   1451  C6        10.4330   44.4350   25.4830 C.ar   67  A67         0.1919
   1452  N6        11.3120   45.3170   25.9660 N.pl3  67  A67        -0.1054
   1453  N7         9.3350   43.7760   27.6780 N.ar   67  A67        -0.2193
   1454  C8         8.3620   42.9210   27.8690 C.ar   67  A67         0.1816
   1455  N9         7.9100   42.3250   26.7210 N.ar   67  A67        -0.2693
   1456  OP1        6.4550   41.1000   32.7680 O.3    67  A67        -0.4373
   1457  OP2        8.1380   42.8500   31.9040 O.co2  67  A67        -0.5172
   1458  P          8.6120   37.6950   29.1410 P.3    68  G68         0.2141
   1459  C5'        8.9700   36.7420   26.7080 C.3    68  G68         0.1812
   1460  O5'        9.3950   37.6080   27.7470 O.3    68  G68        -0.3114
   1461  C4'        9.6710   37.0850   25.4050 C.3    68  G68         0.1773
   1462  O4'        9.5140   38.4900   25.1160 O.3    68  G68        -0.3307
   1463  C3'       11.1790   36.9270   25.4050 C.3    68  G68         0.1860
   1464  O3'       11.5490   35.5720   25.2920 O.3    68  G68        -0.3112
   1465  C2'       11.5530   37.7680   24.1860 C.3    68  G68         0.2309
   1466  O2'       11.3150   37.1580   22.9300 O.3    68  G68        -0.2156
   1467  C1'       10.6290   38.9630   24.3820 C.3    68  G68         0.2408
   1468  N1        13.7950   42.9730   24.2850 N.ar   68  G68        -0.1709
   1469  C2        13.3480   42.1910   23.2350 C.ar   68  G68         0.2606
   1470  N2        13.7990   42.5100   22.0100 N.pl3  68  G68        -0.0859
   1471  N3        12.5110   41.1640   23.3730 N.ar   68  G68        -0.1918
   1472  C4        12.1550   40.9740   24.6700 C.ar   68  G68         0.1723
   1473  C5        12.5440   41.6960   25.7840 C.ar   68  G68         0.1748
   1474  C6        13.4300   42.7870   25.6250 C.ar   68  G68         0.3023
   1475  O6        13.8740   43.5310   26.5150 O.2    68  G68        -0.2633
   1476  N7        11.9520   41.1970   26.9360 N.ar   68  G68        -0.2173
   1477  C8        11.2360   40.1950   26.5140 C.ar   68  G68         0.1817
   1478  N9        11.3040   40.0020   25.1500 N.ar   68  G68        -0.2693
   1479  OP1        8.3450   36.3310   29.6400 O.2    68  G68        -0.5172
   1480  OP2        9.3550   38.6440   29.9990 O.co2  68  G68        -0.4373
   1481  P         12.6720   34.9570   26.2470 P.3    69  G69         0.2141
   1482  C5'       14.6860   35.5850   24.6260 C.3    69  G69         0.1812
   1483  O5'       13.9640   35.8190   25.8460 O.3    69  G69        -0.3114
   1484  C4'       15.8450   36.5610   24.4330 C.3    69  G69         0.1773
   1485  O4'       15.3560   37.9190   24.2270 O.3    69  G69        -0.3307
   1486  C3'       16.7960   36.7060   25.6160 C.3    69  G69         0.1860
   1487  O3'       17.7580   35.6600   25.6980 O.3    69  G69        -0.3112
   1488  C2'       17.4100   38.0660   25.3100 C.3    69  G69         0.2309
   1489  O2'       18.3020   38.0540   24.2270 O.3    69  G69        -0.2156
   1490  C1'       16.1530   38.8460   24.9490 C.3    69  G69         0.2408
   1491  N1        16.3570   42.0260   28.9360 N.ar   69  G69        -0.1709
   1492  C2        17.1940   41.9410   27.8480 C.ar   69  G69         0.2606
   1493  N2        18.2240   42.7960   27.8080 N.pl3  69  G69        -0.0859
   1494  N3        17.0360   41.0710   26.8610 N.ar   69  G69        -0.1918
   1495  C4        15.9520   40.2760   27.0450 C.ar   69  G69         0.1723
   1496  C5        15.0610   40.2900   28.0910 C.ar   69  G69         0.1748
   1497  C6        15.2430   41.2170   29.1420 C.ar   69  G69         0.3023
   1498  O6        14.5250   41.3680   30.1410 O.2    69  G69        -0.2633
   1499  N7        14.0830   39.3270   27.9240 N.ar   69  G69        -0.2173
   1500  C8        14.3960   38.7550   26.8020 C.ar   69  G69         0.1817
   1501  N9        15.5150   39.2760   26.2010 N.ar   69  G69        -0.2693
   1502  OP1       12.8160   33.5550   25.8050 O.2    69  G69        -0.5172
   1503  OP2       12.4030   35.2560   27.6770 O.co2  69  G69        -0.4373
   1504  P         18.2120   35.1450   27.1440 P.3    70  C70         0.2141
   1505  C5'       20.3650   36.6700   27.2250 C.3    70  C70         0.1812
   1506  O5'       19.0710   36.3620   27.7260 O.3    70  C70        -0.3114
   1507  C4'       21.0010   37.8100   28.0010 C.3    70  C70         0.1773
   1508  O4'       20.0510   38.9020   28.1190 O.3    70  C70        -0.3307
   1509  C3'       21.4280   37.5280   29.4420 C.3    70  C70         0.1860
   1510  O3'       22.7270   36.9490   29.4820 O.3    70  C70        -0.3112
   1511  C2'       21.4960   38.9470   29.9740 C.3    70  C70         0.2309
   1512  O2'       22.6560   39.6150   29.5180 O.3    70  C70        -0.2156
   1513  C1'       20.2550   39.5790   29.3490 C.3    70  C70         0.2420
   1514  N1        19.0250   39.4590   30.2020 N.ar   70  C70        -0.2535
   1515  C2        18.9440   40.1050   31.4520 C.ar   70  C70         0.3532
   1516  O2        19.8940   40.7870   31.8690 O.2    70  C70        -0.2443
   1517  N3        17.8080   39.9630   32.1940 N.ar   70  C70        -0.1739
   1518  C4        16.7930   39.2270   31.7300 C.ar   70  C70         0.1759
   1519  N4        15.7020   39.1160   32.4840 N.pl3  70  C70        -0.1070
   1520  C5        16.8550   38.5680   30.4620 C.ar   70  C70         0.0566
   1521  C6        17.9740   38.7110   29.7450 C.ar   70  C70         0.0850
   1522  OP1       19.0850   33.9610   26.9560 O.2    70  C70        -0.5172
   1523  OP2       17.0100   35.0220   27.9800 O.co2  70  C70        -0.4373
   1524  P         23.0880   35.7300   30.4540 P.3    71  G71         0.2141
   1525  C5'       23.8430   37.4260   32.3360 C.3    71  G71         0.1812
   1526  O5'       22.9640   36.3930   31.9130 O.3    71  G71        -0.3114
   1527  C4'       23.2830   38.1090   33.5680 C.3    71  G71         0.1773
   1528  O4'       21.9460   38.5850   33.2800 O.3    71  G71        -0.3307
   1529  C3'       23.1010   37.1960   34.7730 C.3    71  G71         0.1860
   1530  O3'       24.2810   37.1640   35.5580 O.3    71  G71        -0.3112
   1531  C2'       21.9460   37.8390   35.5290 C.3    71  G71         0.2309
   1532  O2'       22.3790   38.8950   36.3550 O.3    71  G71        -0.2156
   1533  C1'       21.1010   38.4180   34.4070 C.3    71  G71         0.2408
   1534  N1        16.2160   36.9660   35.2510 N.ar   71  G71        -0.1709
   1535  C2        17.0160   37.7800   36.0230 C.ar   71  G71         0.2606
   1536  N2        16.4580   38.2720   37.1380 N.pl3  71  G71        -0.0859
   1537  N3        18.2760   38.0990   35.7220 N.ar   71  G71        -0.1918
   1538  C4        18.7000   37.5230   34.5640 C.ar   71  G71         0.1723
   1539  C5        17.9760   36.6970   33.7330 C.ar   71  G71         0.1748
   1540  C6        16.6380   36.3720   34.0570 C.ar   71  G71         0.3023
   1541  O6        15.8740   35.6390   33.4050 O.2    71  G71        -0.2633
   1542  N7        18.7320   36.2990   32.6470 N.ar   71  G71        -0.2173
   1543  C8        19.8840   36.8780   32.8260 C.ar   71  G71         0.1817
   1544  N9        19.9460   37.6320   33.9720 N.ar   71  G71        -0.2693
   1545  OP1       24.4970   35.3740   30.1760 O.2    71  G71        -0.5172
   1546  OP2       22.0330   34.6990   30.3600 O.co2  71  G71        -0.4373
   1547  P         25.4480   36.1120   35.2380 P.3    72  A72         0.2141
   1548  C5'       27.3310   36.5420   37.0190 C.3    72  A72         0.1812
   1549  O5'       26.1010   35.9070   36.6830 O.3    72  A72        -0.3114
   1550  C4'       27.4640   36.5860   38.5270 C.3    72  A72         0.1773
   1551  O4'       26.3080   37.2890   39.0200 O.3    72  A72        -0.3307
   1552  C3'       27.4250   35.2260   39.1960 C.3    72  A72         0.1860
   1553  O3'       28.7430   34.7520   39.4390 O.3    72  A72        -0.3112
   1554  C2'       26.6870   35.4790   40.5070 C.3    72  A72         0.2309
   1555  O2'       27.5490   35.8060   41.5850 O.3    72  A72        -0.2156
   1556  C1'       25.7990   36.6730   40.1870 C.3    72  A72         0.2408
   1557  N1        20.9280   37.5550   41.5990 N.ar   72  A72        -0.2040
   1558  C2        22.0900   37.9900   42.0970 C.ar   72  A72         0.2016
   1559  N3        23.3240   37.7160   41.6740 N.ar   72  A72        -0.2048
   1560  C4        23.3120   36.8840   40.6170 C.ar   72  A72         0.1692
   1561  C5        22.1990   36.3590   39.9910 C.ar   72  A72         0.1518
   1562  C6        20.9520   36.7290   40.5290 C.ar   72  A72         0.1919
   1563  N6        19.7980   36.2920   40.0290 N.pl3  72  A72        -0.1054
   1564  N7        22.5560   35.5490   38.9210 N.ar   72  A72        -0.2193
   1565  C8        23.8680   35.6040   38.9210 C.ar   72  A72         0.1816
   1566  N9        24.3920   36.3810   39.9270 N.ar   72  A72        -0.2693
   1567  OP1       26.4230   36.8110   34.3580 O.2    72  A72        -0.5172
   1568  OP2       24.8370   34.8200   34.8300 O.co2  72  A72        -0.4373
   1569  P         29.5850   33.8370   38.4160 P.3    73  G73         0.2141
   1570  C5'       29.2120   31.3650   39.3230 C.3    73  G73         0.1812
   1571  O5'       29.9830   32.5830   39.3310 O.3    73  G73        -0.3114
   1572  C4'       28.1970   31.3010   40.4560 C.3    73  G73         0.1773
   1573  O4'       27.1610   32.2880   40.2350 O.3    73  G73        -0.3307
   1574  C3'       27.4130   30.0020   40.5600 C.3    73  G73         0.1860
   1575  O3'       28.0910   29.0670   41.3780 O.3    73  G73        -0.3112
   1576  C2'       26.1080   30.4600   41.2040 C.3    73  G73         0.2309
   1577  O2'       26.2380   30.7850   42.5740 O.3    73  G73        -0.2156
   1578  C1'       25.8660   31.7380   40.4310 C.3    73  G73         0.2408
   1579  N1        21.4200   30.9410   37.9720 N.ar   73  G73        -0.1709
   1580  C2        21.6700   30.9730   39.3250 C.ar   73  G73         0.2606
   1581  N2        20.6190   30.7860   40.1300 N.pl3  73  G73        -0.0859
   1582  N3        22.8640   31.1870   39.8570 N.ar   73  G73        -0.1918
   1583  C4        23.8260   31.3690   38.9190 C.ar   73  G73         0.1723
   1584  C5        23.6720   31.3490   37.5470 C.ar   73  G73         0.1748
   1585  C6        22.3910   31.1170   36.9910 C.ar   73  G73         0.3023
   1586  O6        22.0760   31.0680   35.7930 O.2    73  G73        -0.2633
   1587  N7        24.8800   31.5750   36.9130 N.ar   73  G73        -0.2173
   1588  C8        25.7270   31.7200   37.8930 C.ar   73  G73         0.1817
   1589  N9        25.1690   31.6000   39.1460 N.ar   73  G73        -0.2693
   1590  OP1       30.7940   34.6240   38.1030 O.3    73  G73        -0.4373
   1591  OP2       28.7190   33.3410   37.3110 O.co2  73  G73        -0.5172
   1592  P         28.1790   27.5330   40.9490 P.3    74  G74         0.2141
   1593  C5'       26.2200   26.7620   42.5370 C.3    74  G74         0.1812
   1594  O5'       26.7040   26.9670   41.2020 O.3    74  G74        -0.3114
   1595  C4'       24.7040   26.6410   42.5880 C.3    74  G74         0.1773
   1596  O4'       24.0990   27.7540   41.8720 O.3    74  G74        -0.3307
   1597  C3'       24.0740   25.4190   41.9260 C.3    74  G74         0.1860
   1598  O3'       24.1730   24.2190   42.7170 O.3    74  G74        -0.3112
   1599  C2'       22.6320   25.9120   41.7840 C.3    74  G74         0.2309
   1600  O2'       21.9080   25.8940   42.9990 O.3    74  G74        -0.2156
   1601  C1'       22.8530   27.3520   41.3340 C.3    74  G74         0.2408
   1602  N1        20.2740   27.2770   36.9390 N.ar   74  G74        -0.1709
   1603  C2        19.8130   27.1040   38.2270 C.ar   74  G74         0.2606
   1604  N2        18.4990   26.8830   38.3790 N.pl3  74  G74        -0.0859
   1605  N3        20.5870   27.1510   39.3090 N.ar   74  G74        -0.1918
   1606  C4        21.8830   27.3790   38.9950 C.ar   74  G74         0.1723
   1607  C5        22.4400   27.5670   37.7490 C.ar   74  G74         0.1748
   1608  C6        21.6080   27.5230   36.5960 C.ar   74  G74         0.3023
   1609  O6        21.9460   27.6650   35.4040 O.2    74  G74        -0.2633
   1610  N7        23.8100   27.7690   37.8540 N.ar   74  G74        -0.2173
   1611  C8        24.0500   27.7150   39.1350 C.ar   74  G74         0.1817
   1612  N9        22.9250   27.4780   39.8860 N.ar   74  G74        -0.2693
   1613  OP1       29.1230   26.9090   41.8950 O.3    74  G74        -0.4373
   1614  OP2       28.4410   27.4440   39.4910 O.co2  74  G74        -0.5172
   1615  P         24.3740   22.7890   42.0020 P.3    75  G75         0.2141
   1616  C5'       21.8650   22.3660   42.6480 C.3    75  G75         0.1812
   1617  O5'       22.8800   22.3330   41.6410 O.3    75  G75        -0.3114
   1618  C4'       20.4670   22.3070   42.0570 C.3    75  G75         0.1773
   1619  O4'       20.1730   23.5060   41.2910 O.3    75  G75        -0.3307
   1620  C3'       20.2590   21.1740   41.0660 C.3    75  G75         0.1860
   1621  O3'       20.0130   19.9350   41.7450 O.3    75  G75        -0.3112
   1622  C2'       19.0770   21.6920   40.2520 C.3    75  G75         0.2309
   1623  O2'       17.8350   21.5120   40.8960 O.3    75  G75        -0.2156
   1624  C1'       19.4150   23.1770   40.1400 C.3    75  G75         0.2408
   1625  N1        19.3910   23.6840   35.0550 N.ar   75  G75        -0.1709
   1626  C2        18.3670   23.3340   35.9050 C.ar   75  G75         0.2606
   1627  N2        17.1730   23.0830   35.3450 N.pl3  75  G75        -0.0859
   1628  N3        18.5040   23.2370   37.2260 N.ar   75  G75        -0.1918
   1629  C4        19.7610   23.5180   37.6420 C.ar   75  G75         0.1723
   1630  C5        20.8500   23.8760   36.8770 C.ar   75  G75         0.1748
   1631  C6        20.6950   23.9830   35.4640 C.ar   75  G75         0.3023
   1632  O6        21.5580   24.2850   34.6230 O.2    75  G75        -0.2633
   1633  N7        21.9710   24.0780   37.6750 N.ar   75  G75        -0.2173
   1634  C8        21.5370   23.8470   38.8860 C.ar   75  G75         0.1817
   1635  N9        20.2030   23.5020   38.9450 N.ar   75  G75        -0.2693
   1636  OP1       24.9300   21.8690   43.0200 O.3    75  G75        -0.4373
   1637  OP2       25.1040   22.9780   40.7270 O.co2  75  G75        -0.5172
   1638  P         20.6330   18.6020   41.1090 P.3    76  C76         0.2141
   1639  C5'       18.3480   18.1590   39.8890 C.3    76  C76         0.1812
   1640  O5'       19.7540   18.4110   39.7790 O.3    76  C76        -0.3114
   1641  C4'       17.6510   18.2080   38.5450 C.3    76  C76         0.1773
   1642  O4'       17.8150   19.5260   37.9780 O.3    76  C76        -0.3307
   1643  C3'       18.2440   17.3050   37.4810 C.3    76  C76         0.1860
   1644  O3'       17.8210   15.9570   37.6450 O.3    76  C76        -0.3112
   1645  C2'       17.7100   17.9770   36.2220 C.3    76  C76         0.2309
   1646  O2'       16.3310   17.7860   35.9880 O.3    76  C76        -0.2156
   1647  C1'       17.9290   19.4390   36.5690 C.3    76  C76         0.2420
   1648  N1        19.2500   19.9490   36.0870 N.ar   76  C76        -0.2535
   1649  C2        19.4090   20.2260   34.7120 C.ar   76  C76         0.3532
   1650  O2        18.4660   20.0550   33.9360 O.2    76  C76        -0.2443
   1651  N3        20.6040   20.6770   34.2580 N.ar   76  C76        -0.1739
   1652  C4        21.6250   20.8580   35.1080 C.ar   76  C76         0.1759
   1653  N4        22.7790   21.3120   34.5990 N.pl3  76  C76        -0.1070
   1654  C5        21.4900   20.5780   36.5110 C.ar   76  C76         0.0566
   1655  C6        20.3030   20.1260   36.9480 C.ar   76  C76         0.0850
   1656  OP1       20.3540   17.4950   42.0460 O.3    76  C76        -0.4373
   1657  OP2       22.0210   18.8740   40.6850 O.co2  76  C76        -0.5172
   1658  P         18.7990   14.7580   37.2220 P.3    77  G77         0.2141
   1659  C5'       17.5660   14.5080   34.9510 C.3    77  G77         0.1812
   1660  O5'       18.7840   14.8140   35.6150 O.3    77  G77        -0.3114
   1661  C4'       17.6000   14.8970   33.4920 C.3    77  G77         0.1773
   1662  O4'       17.9510   16.2930   33.3350 O.3    77  G77        -0.3307
   1663  C3'       18.6460   14.1610   32.6810 C.3    77  G77         0.1860
   1664  O3'       18.1680   12.8650   32.3780 O.3    77  G77        -0.3112
   1665  C2'       18.7650   15.0800   31.4650 C.3    77  G77         0.2309
   1666  O2'       17.7400   14.9290   30.4910 O.3    77  G77        -0.2156
   1667  C1'       18.6750   16.4550   32.1290 C.3    77  G77         0.2408
   1668  N1        22.8650   18.6740   30.2340 N.ar   77  G77        -0.1709
   1669  C2        21.7230   18.2510   29.5820 C.ar   77  G77         0.2606
   1670  N2        21.6660   18.4130   28.2500 N.pl3  77  G77        -0.0859
   1671  N3        20.6900   17.6820   30.1990 N.ar   77  G77        -0.1918
   1672  C4        20.8770   17.5590   31.5340 C.ar   77  G77         0.1723
   1673  C5        21.9640   17.9520   32.2780 C.ar   77  G77         0.1748
   1674  C6        23.0660   18.5590   31.6210 C.ar   77  G77         0.3023
   1675  O6        24.1130   18.9660   32.1510 O.2    77  G77        -0.2633
   1676  N7        21.7700   17.6660   33.6220 N.ar   77  G77        -0.2173
   1677  C8        20.5920   17.1160   33.6580 C.ar   77  G77         0.1817
   1678  N9        19.9890   17.0180   32.4300 N.ar   77  G77        -0.2693
   1679  OP1       18.1430   13.5070   37.6530 O.2    77  G77        -0.5172
   1680  OP2       20.1760   15.0760   37.6600 O.co2  77  G77        -0.4373
   1681  P         19.2040   11.6910   32.0640 P.3    78  C78         0.2141
   1682  C5'       21.2120   11.9470   30.3600 C.3    78  C78         0.1812
   1683  O5'       19.8710   12.2200   30.7080 O.3    78  C78        -0.3114
   1684  C4'       21.6350   12.9790   29.3350 C.3    78  C78         0.1773
   1685  O4'       21.8850   14.2310   30.0170 O.3    78  C78        -0.3307
   1686  C3'       22.9370   12.7080   28.6060 C.3    78  C78         0.1860
   1687  O3'       22.7420   11.7980   27.5210 O.3    78  C78        -0.3112
   1688  C2'       23.2870   14.1120   28.1140 C.3    78  C78         0.2309
   1689  O2'       22.6360   14.4670   26.9100 O.3    78  C78        -0.2156
   1690  C1'       22.8050   14.9980   29.2640 C.3    78  C78         0.2420
   1691  N1        23.8990   15.4770   30.1700 N.ar   78  C78        -0.2535
   1692  C2        24.9330   16.2850   29.6660 C.ar   78  C78         0.3532
   1693  O2        24.9420   16.6050   28.4730 O.2    78  C78        -0.2443
   1694  N3        25.9110   16.7060   30.5030 N.ar   78  C78        -0.1739
   1695  C4        25.8890   16.3570   31.7900 C.ar   78  C78         0.1759
   1696  N4        26.8850   16.8030   32.5640 N.pl3  78  C78        -0.1070
   1697  C5        24.8510   15.5410   32.3340 C.ar   78  C78         0.0566
   1698  C6        23.8900   15.1290   31.4970 C.ar   78  C78         0.0850
   1699  OP1       18.4190   10.4790   31.7330 O.2    78  C78        -0.5172
   1700  OP2       20.2290   11.6360   33.1340 O.co2  78  C78        -0.4373
   1701  P         23.9380   10.8260   27.0750 P.3    79  C79         0.2141
   1702  C5'       24.6100   12.3050   25.0050 C.3    79  C79         0.1812
   1703  O5'       24.9320   11.8080   26.3060 O.3    79  C79        -0.3114
   1704  C4'       25.8640   12.7910   24.2880 C.3    79  C79         0.1773
   1705  O4'       26.4580   13.8640   25.0740 O.3    79  C79        -0.3307
   1706  C3'       26.9520   11.7330   24.1090 C.3    79  C79         0.1860
   1707  O3'       27.6000   11.8510   22.8510 O.3    79  C79        -0.3112
   1708  C2'       27.9010   12.0580   25.2590 C.3    79  C79         0.2309
   1709  O2'       29.2270   11.6340   25.0390 O.3    79  C79        -0.2156
   1710  C1'       27.8160   13.5810   25.3130 C.3    79  C79         0.2420
   1711  N1        28.2490   14.0960   26.6400 N.ar   79  C79        -0.2535
   1712  C2        29.4080   14.8780   26.7640 C.ar   79  C79         0.3532
   1713  O2        30.0570   15.1700   25.7500 O.2    79  C79        -0.2443
   1714  N3        29.7800   15.2990   28.0120 N.ar   79  C79        -0.1739
   1715  C4        29.0560   14.9660   29.0890 C.ar   79  C79         0.1759
   1716  N4        29.4390   15.3910   30.2990 N.pl3  79  C79        -0.1070
   1717  C5        27.8840   14.1690   28.9720 C.ar   79  C79         0.0566
   1718  C6        27.5290   13.7590   27.7520 C.ar   79  C79         0.0850
   1719  OP1       23.4240    9.8210   26.1240 O.2    79  C79        -0.5172
   1720  OP2       24.6010   10.3990   28.3380 O.co2  79  C79        -0.4373
   1721  P         27.0050   11.1710   21.5260 P.3    80  G80         0.2141
   1722  C5'       24.6930   11.6790   20.3660 C.3    80  G80         0.1812
   1723  O5'       25.7280   12.0820   21.2440 O.3    80  G80        -0.3114
   1724  C4'       23.8940   12.9110   19.9910 C.3    80  G80         0.1773
   1725  O4'       24.7380   13.6870   19.1040 O.3    80  G80        -0.3307
   1726  C3'       22.5860   12.6580   19.2400 C.3    80  G80         0.1860
   1727  O3'       21.5320   13.4360   19.7980 O.3    80  G80        -0.3112
   1728  C2'       22.9050   13.1220   17.8140 C.3    80  G80         0.2309
   1729  O2'       21.8060   13.7070   17.1520 O.3    80  G80        -0.2156
   1730  C1'       23.9190   14.2170   18.0980 C.3    80  G80         0.2408
   1731  N1        27.1480   17.7450   16.3160 N.ar   80  G80        -0.1709
   1732  C2        26.5400   17.6500   17.5540 C.ar   80  G80         0.2606
   1733  N2        26.8050   18.6170   18.4420 N.pl3  80  G80        -0.0859
   1734  N3        25.7090   16.6730   17.9010 N.ar   80  G80        -0.1918
   1735  C4        25.5280   15.7650   16.9080 C.ar   80  G80         0.1723
   1736  C5        26.0860   15.7640   15.6480 C.ar   80  G80         0.1748
   1737  C6        26.9630   16.8160   15.2820 C.ar   80  G80         0.3023
   1738  O6        27.5470   16.9660   14.1990 O.2    80  G80        -0.2633
   1739  N7        25.6540   14.6590   14.9290 N.ar   80  G80        -0.2173
   1740  C8        24.8520   14.0300   15.7430 C.ar   80  G80         0.1817
   1741  N9        24.7310   14.6410   16.9660 N.ar   80  G80        -0.2693
   1742  OP1       26.5770    9.7920   21.8410 O.3    80  G80        -0.4373
   1743  OP2       27.9600   11.4160   20.4320 O.co2  80  G80        -0.5172
   1744  P         20.6280   12.9620   21.0340 P.3    81  A81         0.2141
   1745  C5'       21.4040   14.9810   22.4650 C.3    81  A81         0.1812
   1746  O5'       21.3910   13.5830   22.3020 O.3    81  A81        -0.3114
   1747  C4'       22.4070   15.3640   23.5270 C.3    81  A81         0.1773
   1748  O4'       23.7370   15.3730   22.9670 O.3    81  A81        -0.3307
   1749  C3'       22.2260   16.7680   24.0620 C.3    81  A81         0.1860
   1750  O3'       21.2700   16.7170   25.1040 O.3    81  A81        -0.3112
   1751  C2'       23.6190   17.0570   24.6020 C.3    81  A81         0.2309
   1752  O2'       23.7870   16.6530   25.9470 O.3    81  A81        -0.2156
   1753  C1'       24.5490   16.2780   23.6780 C.3    81  A81         0.2408
   1754  N1        28.4990   19.4680   22.8140 N.ar   81  A81        -0.2040
   1755  C2        28.2200   18.6640   23.8490 C.ar   81  A81         0.2016
   1756  N3        27.1680   17.8570   24.0110 N.ar   81  A81        -0.2048
   1757  C4        26.3440   17.9140   22.9510 C.ar   81  A81         0.1692
   1758  C5        26.5110   18.6830   21.8110 C.ar   81  A81         0.1518
   1759  C6        27.6500   19.5030   21.7670 C.ar   81  A81         0.1919
   1760  N6        27.9340   20.3060   20.7470 N.pl3  81  A81        -0.1054
   1761  N7        25.4710   18.4810   20.9240 N.ar   81  A81        -0.2193
   1762  C8        24.7050   17.6060   21.5300 C.ar   81  A81         0.1816
   1763  N9        25.1770   17.2090   22.7540 N.ar   81  A81        -0.2693
   1764  OP1       20.6770   11.4870   21.1640 O.3    81  A81        -0.4373
   1765  OP2       19.3280   13.6630   20.8870 O.co2  81  A81        -0.5172
   1766  P         19.8530   17.4650   25.0700 P.3    82  A82         0.2141
   1767  C5'       19.6520   19.2270   23.1280 C.3    82  A82         0.1812
   1768  O5'       20.1650   18.8740   24.4030 O.3    82  A82        -0.3114
   1769  C4'       20.6920   20.0980   22.4580 C.3    82  A82         0.1773
   1770  O4'       21.7140   19.2540   21.8870 O.3    82  A82        -0.3307
   1771  C3'       20.2160   20.8830   21.2570 C.3    82  A82         0.1860
   1772  O3'       19.4440   22.0300   21.6240 O.3    82  A82        -0.3112
   1773  C2'       21.5450   21.2140   20.5940 C.3    82  A82         0.2309
   1774  O2'       22.2240   22.2900   21.2150 O.3    82  A82        -0.2156
   1775  C1'       22.2980   19.8970   20.7760 C.3    82  A82         0.2408
   1776  N1        23.7650   18.8190   15.9190 N.ar   82  A82        -0.2040
   1777  C2        24.1250   19.8000   16.7640 C.ar   82  A82         0.2016
   1778  N3        23.7110   20.0200   18.0300 N.ar   82  A82        -0.2048
   1779  C4        22.8110   19.1000   18.4180 C.ar   82  A82         0.1692
   1780  C5        22.3400   18.0380   17.6610 C.ar   82  A82         0.1518
   1781  C6        22.8570   17.9090   16.3490 C.ar   82  A82         0.1919
   1782  N6        22.4910   16.9260   15.5330 N.pl3  82  A82        -0.1054
   1783  N7        21.4270   17.2850   18.3840 N.ar   82  A82        -0.2193
   1784  C8        21.3570   17.9020   19.5370 C.ar   82  A82         0.1816
   1785  N9        22.1650   19.0050   19.6280 N.ar   82  A82        -0.2693
   1786  OP1       19.5060   17.7610   26.4790 O.3    82  A82        -0.4373
   1787  OP2       18.9420   16.6600   24.2210 O.co2  82  A82        -0.5172
   1788  P         18.3290   22.5000   20.5840 P.3    83  G83         0.2141
   1789  C5'       19.9930   24.3720   19.7690 C.3    83  G83         0.1812
   1790  O5'       19.2040   23.2220   19.4600 O.3    83  G83        -0.3114
   1791  C4'       20.8500   24.7320   18.5770 C.3    83  G83         0.1773
   1792  O4'       21.7250   23.6170   18.2740 O.3    83  G83        -0.3307
   1793  C3'       20.1060   24.9270   17.2610 C.3    83  G83         0.1860
   1794  O3'       19.4820   26.1950   17.1850 O.3    83  G83        -0.3112
   1795  C2'       21.2470   24.7760   16.2610 C.3    83  G83         0.2309
   1796  O2'       22.0940   25.9050   16.1620 O.3    83  G83        -0.2156
   1797  C1'       21.9850   23.5990   16.8730 C.3    83  G83         0.2408
   1798  N1        22.3240   20.4820   12.8800 N.ar   83  G83        -0.1709
   1799  C2        22.9890   21.6560   13.1510 C.ar   83  G83         0.2606
   1800  N2        23.8640   22.0710   12.2360 N.pl3  83  G83        -0.0859
   1801  N3        22.8120   22.3840   14.2450 N.ar   83  G83        -0.1918
   1802  C4        21.8940   21.8420   15.0720 C.ar   83  G83         0.1723
   1803  C5        21.1780   20.6840   14.9060 C.ar   83  G83         0.1748
   1804  C6        21.3750   19.9130   13.7270 C.ar   83  G83         0.3023
   1805  O6        20.8250   18.8520   13.3980 O.2    83  G83        -0.2633
   1806  N7        20.3420   20.4780   15.9920 N.ar   83  G83        -0.2173
   1807  C8        20.5620   21.4940   16.7710 C.ar   83  G83         0.1817
   1808  N9        21.4960   22.3610   16.2710 N.ar   83  G83        -0.2693
   1809  OP1       17.4450   23.4640   21.2600 O.3    83  G83        -0.4373
   1810  OP2       17.7440   21.3110   19.9340 O.co2  83  G83        -0.5172
   1811  P         18.1180   26.3800   16.3670 P.3    84  G84         0.2141
   1812  C5'       19.3000   27.3510   14.2680 C.3    84  G84         0.1812
   1813  O5'       18.5880   26.2750   14.8370 O.3    84  G84        -0.3114
   1814  C4'       19.9560   26.9200   12.9790 C.3    84  G84         0.1773
   1815  O4'       20.6770   25.6810   13.1870 O.3    84  G84        -0.3307
   1816  C3'       18.9870   26.5660   11.8610 C.3    84  G84         0.1860
   1817  O3'       18.4590   27.7150   11.2610 O.3    84  G84        -0.3112
   1818  C2'       19.9210   25.7980   10.9370 C.3    84  G84         0.2309
   1819  O2'       20.7620   26.6240   10.1600 O.3    84  G84        -0.2156
   1820  C1'       20.6980   24.9640   11.9620 C.3    84  G84         0.2408
   1821  N1        19.6300   20.5230    9.7480 N.ar   84  G84        -0.1709
   1822  C2        20.3710   21.5830    9.2750 C.ar   84  G84         0.2606
   1823  N2        20.9100   21.4630    8.0520 N.pl3  84  G84        -0.0859
   1824  N3        20.5760   22.6990    9.9710 N.ar   84  G84        -0.1918
   1825  C4        19.9810   22.6760   11.1870 C.ar   84  G84         0.1723
   1826  C5        19.2220   21.6740   11.7450 C.ar   84  G84         0.1748
   1827  C6        19.0080   20.4890   10.9990 C.ar   84  G84         0.3023
   1828  O6        18.3590   19.4920   11.3330 O.2    84  G84        -0.2633
   1829  N7        18.7850   22.0400   13.0110 N.ar   84  G84        -0.2173
   1830  C8        19.2790   23.2370   13.1880 C.ar   84  G84         0.1817
   1831  N9        20.0300   23.6800   12.1240 N.ar   84  G84        -0.2693
   1832  OP1       17.6740   27.7630   16.6510 O.3    84  G84        -0.4373
   1833  OP2       17.2220   25.2230   16.6000 O.co2  84  G84        -0.5172
   1834  P         17.0300   27.6660   10.5340 P.3    85  G85         0.2141
   1835  C5'       18.1010   27.3320    8.1450 C.3    85  G85         0.1812
   1836  O5'       17.3000   26.8120    9.2030 O.3    85  G85        -0.3114
   1837  C4'       18.3350   26.2510    7.1080 C.3    85  G85         0.1773
   1838  O4'       18.8670   25.0480    7.7220 O.3    85  G85        -0.3307
   1839  C3'       17.0750   25.7480    6.4310 C.3    85  G85         0.1860
   1840  O3'       16.6490   26.6570    5.4330 O.3    85  G85        -0.3112
   1841  C2'       17.5540   24.4080    5.8780 C.3    85  G85         0.2309
   1842  O2'       18.4430   24.5170    4.7840 O.3    85  G85        -0.2156
   1843  C1'       18.3440   23.8970    7.0690 C.3    85  G85         0.2408
   1844  N1        15.7710   19.5490    8.1220 N.ar   85  G85        -0.1709
   1845  C2        16.3740   19.9110    6.9470 C.ar   85  G85         0.2606
   1846  N2        16.2850   19.0150    5.9600 N.pl3  85  G85        -0.0859
   1847  N3        17.0190   21.0670    6.7690 N.ar   85  G85        -0.1918
   1848  C4        17.0180   21.8530    7.8810 C.ar   85  G85         0.1723
   1849  C5        16.4390   21.5650    9.0950 C.ar   85  G85         0.1748
   1850  C6        15.7650   20.3380    9.2610 C.ar   85  G85         0.3023
   1851  O6        15.1890   19.9270   10.2640 O.2    85  G85        -0.2633
   1852  N7        16.6260   22.6020    9.9960 N.ar   85  G85        -0.2173
   1853  C8        17.3090   23.4850    9.3300 C.ar   85  G85         0.1817
   1854  N9        17.5830   23.1070    8.0350 N.ar   85  G85        -0.2693
   1855  OP1       16.7390   29.0650   10.1670 O.2    85  G85        -0.5172
   1856  OP2       16.0580   26.8990   11.3470 O.co2  85  G85        -0.4373
   1857  P         15.0880   26.9660    5.2300 P.3    86  U86         0.2141
   1858  C5'       14.6980   25.0810    3.4610 C.3    86  U86         0.1812
   1859  O5'       14.5090   25.5450    4.7940 O.3    86  U86        -0.3114
   1860  C4'       14.1870   23.6620    3.3210 C.3    86  U86         0.1773
   1861  O4'       14.8340   22.8260    4.3110 O.3    86  U86        -0.3307
   1862  C3'       12.7200   23.4810    3.6550 C.3    86  U86         0.1860
   1863  O3'       11.9010   23.8870    2.5790 O.3    86  U86        -0.3112
   1864  C2'       12.6790   21.9820    3.9190 C.3    86  U86         0.2309
   1865  O2'       12.8740   21.2090    2.7550 O.3    86  U86        -0.2156
   1866  C1'       13.9130   21.8620    4.8010 C.3    86  U86         0.2420
   1867  N1        13.6400   22.0380    6.2810 N.ar   86  U86        -0.2534
   1868  C2        13.0750   20.9850    6.9760 C.ar   86  U86         0.3546
   1869  O2        12.7840   19.9190    6.4650 O.2    86  U86        -0.2443
   1870  N3        12.8550   21.2140    8.3130 N.ar   86  U86        -0.1530
   1871  C4        13.1390   22.3700    9.0130 C.ar   86  U86         0.2846
   1872  O4        12.8870   22.4170   10.2070 O.2    86  U86        -0.2650
   1873  C5        13.7230   23.4330    8.2280 C.ar   86  U86         0.0814
   1874  C6        13.9480   23.2280    6.9220 C.ar   86  U86         0.0870
   1875  OP1       14.9720   27.9140    4.0900 O.2    86  U86        -0.5172
   1876  OP2       14.4980   27.2860    6.5420 O.co2  86  U86        -0.4373
   1877  P         10.5170   24.6210    2.8920 P.3    87  G87         0.2141
   1878  C5'        9.3400   22.3550    2.2530 C.3    87  G87         0.1812
   1879  O5'        9.5490   23.3880    3.2200 O.3    87  G87        -0.3114
   1880  C4'        8.6160   21.1570    2.8470 C.3    87  G87         0.1773
   1881  O4'        9.4460   20.5040    3.8440 O.3    87  G87        -0.3307
   1882  C3'        7.3310   21.4700    3.6020 C.3    87  G87         0.1860
   1883  O3'        6.2510   21.6060    2.7080 O.3    87  G87        -0.3112
   1884  C2'        7.1900   20.2380    4.4860 C.3    87  G87         0.2309
   1885  O2'        6.7610   19.1130    3.7480 O.3    87  G87        -0.2156
   1886  C1'        8.6330   20.0500    4.9230 C.3    87  G87         0.2408
   1887  N1         8.3690   20.1130   10.0370 N.ar   87  G87        -0.1709
   1888  C2         7.8650   19.1940    9.1480 C.ar   87  G87         0.2606
   1889  N2         7.2180   18.1540    9.6710 N.pl3  87  G87        -0.0859
   1890  N3         7.9990   19.2770    7.8290 N.ar   87  G87        -0.1918
   1891  C4         8.6810   20.3860    7.4530 C.ar   87  G87         0.1723
   1892  C5         9.2180   21.3620    8.2630 C.ar   87  G87         0.1748
   1893  C6         9.0780   21.2590    9.6680 C.ar   87  G87         0.3023
   1894  O6         9.5000   22.0460   10.5330 O.2    87  G87        -0.2633
   1895  N7         9.8430   22.3370    7.5100 N.ar   87  G87        -0.2173
   1896  C8         9.6750   21.9370    6.2820 C.ar   87  G87         0.1817
   1897  N9         8.9780   20.7600    6.1640 N.ar   87  G87        -0.2693
   1898  OP1       10.0710   25.2890    1.6470 O.2    87  G87        -0.5172
   1899  OP2       10.6820   25.4290    4.1160 O.co2  87  G87        -0.4373
   1900  P          5.0720   22.6360    3.0380 P.3    88  C88         0.2141
   1901  C5'        3.5750   20.7410    4.0550 C.3    88  C88         0.1812
   1902  O5'        4.3570   21.9240    4.2850 O.3    88  C88        -0.3114
   1903  C4'        3.0070   20.1840    5.3380 C.3    88  C88         0.1773
   1904  O4'        4.1000   19.8050    6.2030 O.3    88  C88        -0.3307
   1905  C3'        2.2500   21.1700    6.2070 C.3    88  C88         0.1860
   1906  O3'        0.9500   21.3830    5.7490 O.3    88  C88        -0.3112
   1907  C2'        2.2430   20.4010    7.5110 C.3    88  C88         0.2309
   1908  O2'        1.4150   19.2550    7.4580 O.3    88  C88        -0.2156
   1909  C1'        3.7060   19.9810    7.5520 C.3    88  C88         0.2420
   1910  N1         4.5790   20.9800    8.2610 N.ar   88  C88        -0.2535
   1911  C2         4.5940   20.9720    9.6650 C.ar   88  C88         0.3532
   1912  O2         3.8960   20.1440   10.2700 O.2    88  C88        -0.2443
   1913  N3         5.3750   21.8730   10.3220 N.ar   88  C88        -0.1739
   1914  C4         6.1210   22.7520    9.6450 C.ar   88  C88         0.1759
   1915  N4         6.8730   23.6160   10.3470 N.pl3  88  C88        -0.1070
   1916  C5         6.1120   22.7840    8.2130 C.ar   88  C88         0.0566
   1917  C6         5.3390   21.8930    7.5740 C.ar   88  C88         0.0850
   1918  OP1        4.1870   22.6330    1.8400 O.2    88  C88        -0.5172
   1919  OP2        5.5980   23.9240    3.5400 O.co2  88  C88        -0.4373
   1920  P          0.3110   22.8290    5.9580 P.3    89  A89         0.2141
   1921  C5'       -0.9940   22.1390    8.1220 C.3    89  A89         0.1812
   1922  O5'        0.0350   22.9160    7.5390 O.3    89  A89        -0.3114
   1923  C4'       -0.9490   22.1640    9.6370 C.3    89  A89         0.1773
   1924  O4'        0.3540   21.7560   10.1240 O.3    89  A89        -0.3307
   1925  C3'       -1.1520   23.5180   10.2950 C.3    89  A89         0.1860
   1926  O3'       -2.5140   23.9110   10.2950 O.3    89  A89        -0.3112
   1927  C2'       -0.6300   23.2080   11.6920 C.3    89  A89         0.2309
   1928  O2'       -1.5270   22.4090   12.4350 O.3    89  A89        -0.2156
   1929  C1'        0.6380   22.4360   11.3350 C.3    89  A89         0.2408
   1930  N1         4.2420   25.4210   13.5280 N.ar   89  A89        -0.2040
   1931  C2         3.2730   24.6530   14.0520 C.ar   89  A89         0.2016
   1932  N3         2.3660   23.8970   13.4200 N.ar   89  A89        -0.2048
   1933  C4         2.5140   23.9720   12.0840 C.ar   89  A89         0.1692
   1934  C5         3.4590   24.7120   11.3970 C.ar   89  A89         0.1518
   1935  C6         4.3630   25.4700   12.1770 C.ar   89  A89         0.1919
   1936  N6         5.3240   26.2250   11.6360 N.pl3  89  A89        -0.1054
   1937  N7         3.3200   24.5480   10.0290 N.ar   89  A89        -0.2193
   1938  C8         2.3080   23.7220    9.9190 C.ar   89  A89         0.1816
   1939  N9         1.7730   23.3320   11.1190 N.ar   89  A89        -0.2693
   1940  OP1       -0.9700   22.8360    5.2210 O.2    89  A89        -0.5172
   1941  OP2        1.3470   23.8400    5.6540 O.co2  89  A89        -0.4373
   1942  P         -2.8670   25.4700   10.3270 P.3    90  G90         0.2141
   1943  C5'       -3.4700   25.4850   12.8510 C.3    90  G90         0.1812
   1944  O5'       -2.5700   25.9050   11.8360 O.3    90  G90        -0.3114
   1945  C4'       -2.9750   25.8570   14.2370 C.3    90  G90         0.1773
   1946  O4'       -1.6610   25.2740   14.4540 O.3    90  G90        -0.3307
   1947  C3'       -2.7790   27.3470   14.5010 C.3    90  G90         0.1860
   1948  O3'       -4.0020   27.9640   14.8620 O.3    90  G90        -0.3112
   1949  C2'       -1.8160   27.2850   15.6750 C.3    90  G90         0.2309
   1950  O2'       -2.4620   26.9570   16.8940 O.3    90  G90        -0.2156
   1951  C1'       -0.8660   26.1770   15.2040 C.3    90  G90         0.2408
   1952  N1         3.4050   28.9530   15.0540 N.ar   90  G90        -0.1709
   1953  C2         2.6310   28.5840   16.1400 C.ar   90  G90         0.2606
   1954  N2         3.0200   29.0050   17.3540 N.pl3  90  G90        -0.0859
   1955  N3         1.5300   27.8450   16.0490 N.ar   90  G90        -0.1918
   1956  C4         1.2530   27.4950   14.7640 C.ar   90  G90         0.1723
   1957  C5         1.9590   27.8090   13.6210 C.ar   90  G90         0.1748
   1958  C6         3.1330   28.5990   13.7260 C.ar   90  G90         0.3023
   1959  O6         3.8850   28.9740   12.8100 O.2    90  G90        -0.2633
   1960  N7         1.3480   27.2480   12.5060 N.ar   90  G90        -0.2173
   1961  C8         0.3020   26.6310   12.9830 C.ar   90  G90         0.1817
   1962  N9         0.1840   26.7300   14.3500 N.ar   90  G90        -0.2693
   1963  OP1       -4.3180   25.5740   10.0760 O.3    90  G90        -0.4373
   1964  OP2       -1.9140   26.1890    9.4480 O.co2  90  G90        -0.5172
   1965  P         -4.3760   29.4450   14.3820 P.3    91  A91         0.2141
   1966  C5'       -3.7540   30.3080   16.7930 C.3    91  A91         0.1812
   1967  O5'       -3.5250   30.3690   15.3730 O.3    91  A91        -0.3114
   1968  C4'       -2.6750   31.0520   17.5620 C.3    91  A91         0.1773
   1969  O4'       -1.4050   30.3600   17.4390 O.3    91  A91        -0.3307
   1970  C3'       -2.3690   32.4520   17.0550 C.3    91  A91         0.1860
   1971  O3'       -3.2920   33.4100   17.5460 O.3    91  A91        -0.3112
   1972  C2'       -0.9740   32.6630   17.6240 C.3    91  A91         0.2309
   1973  O2'       -0.9960   32.9560   19.0080 O.3    91  A91        -0.2156
   1974  C1'       -0.3490   31.3030   17.3180 C.3    91  A91         0.2408
   1975  N1         3.6670   32.6530   14.3620 N.ar   91  A91        -0.2040
   1976  C2         3.4220   32.7940   15.6720 C.ar   91  A91         0.2016
   1977  N3         2.3560   32.4130   16.3760 N.ar   91  A91        -0.2048
   1978  C4         1.4490   31.8180   15.5870 C.ar   91  A91         0.1692
   1979  C5         1.5540   31.6100   14.2180 C.ar   91  A91         0.1518
   1980  C6         2.7350   32.0600   13.5930 C.ar   91  A91         0.1919
   1981  N6         2.9840   31.9290   12.2940 N.pl3  91  A91        -0.1054
   1982  N7         0.4260   30.9760   13.7340 N.ar   91  A91        -0.2193
   1983  C8        -0.3250   30.8220   14.8050 C.ar   91  A91         0.1816
   1984  N9         0.2300   31.2970   15.9670 N.ar   91  A91        -0.2693
   1985  OP1       -5.8130   29.6360   14.6750 O.3    91  A91        -0.4373
   1986  OP2       -3.8840   29.6590   12.9960 O.co2  91  A91        -0.5172
   1987  P         -3.5950   34.7300   16.6840 P.3    92  G92         0.2141
   1988  C5'       -1.9270   36.2840   17.9880 C.3    92  G92         0.1812
   1989  O5'       -2.2350   35.5760   16.7920 O.3    92  G92        -0.3114
   1990  C4'       -0.5580   36.9390   17.9120 C.3    92  G92         0.1773
   1991  O4'        0.4260   35.9710   17.4770 O.3    92  G92        -0.3307
   1992  C3'       -0.4060   38.0630   16.8960 C.3    92  G92         0.1860
   1993  O3'       -1.0200   39.2830   17.3410 O.3    92  G92        -0.3112
   1994  C2'        1.1200   38.1170   16.7640 C.3    92  G92         0.2309
   1995  O2'        1.8270   38.7290   17.8240 O.3    92  G92        -0.2156
   1996  C1'        1.4540   36.6330   16.7570 C.3    92  G92         0.2408
   1997  N1         4.2280   36.4560   12.5100 N.ar   92  G92        -0.1709
   1998  C2         4.5150   37.0620   13.7150 C.ar   92  G92         0.2606
   1999  N2         5.6890   37.7050   13.8000 N.pl3  92  G92        -0.0859
   2000  N3         3.6990   37.0350   14.7640 N.ar   92  G92        -0.1918
   2001  C4         2.5560   36.3450   14.5060 C.ar   92  G92         0.1723
   2002  C5         2.1810   35.7120   13.3420 C.ar   92  G92         0.1748
   2003  C6         3.0590   35.7490   12.2340 C.ar   92  G92         0.3023
   2004  O6         2.9010   35.2440   11.1180 O.2    92  G92        -0.2633
   2005  N7         0.9340   35.1210   13.4800 N.ar   92  G92        -0.2173
   2006  C8         0.5820   35.4030   14.7020 C.ar   92  G92         0.1817
   2007  N9         1.5240   36.1350   15.3870 N.ar   92  G92        -0.2693
   2008  OP1       -4.6850   35.4450   17.3790 O.3    92  G92        -0.4373
   2009  OP2       -3.7590   34.3370   15.2630 O.co2  92  G92        -0.5172
   2010  P         -1.8230   40.2080   16.3000 P.3    93  U93         0.2141
   2011  C5'        0.3630   41.6570   15.9640 C.3    93  U93         0.1812
   2012  O5'       -0.6460   40.8170   15.4010 O.3    93  U93        -0.3114
   2013  C4'        1.4510   41.9070   14.9460 C.3    93  U93         0.1773
   2014  O4'        2.0680   40.6500   14.5810 O.3    93  U93        -0.3307
   2015  C3'        0.9280   42.4410   13.6260 C.3    93  U93         0.1860
   2016  O3'        0.6800   43.8360   13.7040 O.3    93  U93        -0.3112
   2017  C2'        2.0640   42.0690   12.6820 C.3    93  U93         0.2309
   2018  O2'        3.1490   42.9690   12.7270 O.3    93  U93        -0.2156
   2019  C1'        2.4630   40.6930   13.2200 C.3    93  U93         0.2420
   2020  N1         1.7980   39.6010   12.4300 N.ar   93  U93        -0.2534
   2021  C2         2.3960   39.1540   11.2630 C.ar   93  U93         0.3546
   2022  O2         3.4560   39.5810   10.8410 O.2    93  U93        -0.2443
   2023  N3         1.7030   38.1630   10.6000 N.ar   93  U93        -0.1530
   2024  C4         0.4970   37.5920   10.9700 C.ar   93  U93         0.2846
   2025  O4         0.0020   36.7130   10.2760 O.2    93  U93        -0.2650
   2026  C5        -0.0720   38.1110   12.1870 C.ar   93  U93         0.0814
   2027  C6         0.5840   39.0730   12.8490 C.ar   93  U93         0.0870
   2028  OP1       -2.4410   41.3280   17.0430 O.3    93  U93        -0.4373
   2029  OP2       -2.6600   39.3440   15.4280 O.co2  93  U93        -0.5172
   2030  P         -0.8190   44.4110   13.6970 P.3    94  U94         0.2141
   2031  C5'       -0.3520   46.5190   12.1610 C.3    94  U94         0.1812
   2032  O5'       -0.8060   45.1750   12.2890 O.3    94  U94        -0.3114
   2033  C4'       -1.3650   47.3430   11.3840 C.3    94  U94         0.1773
   2034  O4'       -1.4950   46.8310   10.0290 O.3    94  U94        -0.3307
   2035  C3'       -2.7670   47.3600   11.9850 C.3    94  U94         0.1860
   2036  O3'       -3.2450   48.6990   12.0210 O.3    94  U94        -0.3112
   2037  C2'       -3.5820   46.4690   11.0480 C.3    94  U94         0.2309
   2038  O2'       -4.9400   46.8440   10.9370 O.3    94  U94        -0.2156
   2039  C1'       -2.8570   46.6380    9.7120 C.3    94  U94         0.2420
   2040  N1        -3.0250   45.4300    8.8400 N.ar   94  U94        -0.2534
   2041  C2        -3.7540   45.5170    7.6640 C.ar   94  U94         0.3546
   2042  O2        -4.2720   46.5400    7.2590 O.2    94  U94        -0.2443
   2043  N3        -3.8580   44.3390    6.9570 N.ar   94  U94        -0.1530
   2044  C4        -3.3220   43.1050    7.3090 C.ar   94  U94         0.2846
   2045  O4        -3.4920   42.1280    6.5820 O.2    94  U94        -0.2650
   2046  C5        -2.5840   43.0920    8.5470 C.ar   94  U94         0.0814
   2047  C6        -2.4690   44.2270    9.2470 C.ar   94  U94         0.0870
   2048  OP1       -0.9240   45.3550   14.8350 O.3    94  U94        -0.4373
   2049  OP2       -1.8180   43.3280   13.5720 O.co2  94  U94        -0.5172
   2050  P         -4.0060   49.2720   13.3100 P.3    95  C95         0.2141
   2051  C5'       -6.5450   48.9700   13.8830 C.3    95  C95         0.1812
   2052  O5'       -5.5230   48.9800   12.9060 O.3    95  C95        -0.3114
   2053  C4'       -7.8720   48.6530   13.2290 C.3    95  C95         0.1773
   2054  O4'       -8.1550   49.6570   12.2220 O.3    95  C95        -0.3307
   2055  C3'       -7.9160   47.3520   12.4430 C.3    95  C95         0.1860
   2056  O3'       -8.1410   46.2470   13.2890 O.3    95  C95        -0.3112
   2057  C2'       -9.1150   47.6030   11.5410 C.3    95  C95         0.2309
   2058  O2'      -10.3390   47.4170   12.2250 O.3    95  C95        -0.2156
   2059  C1'       -8.9040   49.0670   11.1730 C.3    95  C95         0.2420
   2060  N1        -8.2010   49.2410    9.8570 N.ar   95  C95        -0.2535
   2061  C2        -8.9530   49.2070    8.6670 C.ar   95  C95         0.3532
   2062  O2       -10.1760   49.0330    8.7280 O.2    95  C95        -0.2443
   2063  N3        -8.3150   49.3640    7.4730 N.ar   95  C95        -0.1739
   2064  C4        -6.9880   49.5480    7.4380 C.ar   95  C95         0.1759
   2065  N4        -6.4020   49.6980    6.2440 N.pl3  95  C95        -0.1070
   2066  C5        -6.2050   49.5800    8.6350 C.ar   95  C95         0.0566
   2067  C6        -6.8430   49.4260    9.8050 C.ar   95  C95         0.0850
   2068  OP1       -3.8060   50.7400   13.3330 O.2    95  C95        -0.5172
   2069  OP2       -3.6570   48.4610   14.5050 O.co2  95  C95        -0.4373
   2070  P         -7.7610   44.7750   12.8000 P.3    96  C96         0.2141
   2071  C5'      -10.0850   44.0210   11.8450 C.3    96  C96         0.1812
   2072  O5'       -8.7680   44.4970   11.5820 O.3    96  C96        -0.3114
   2073  C4'      -10.8140   43.6150   10.5790 C.3    96  C96         0.1773
   2074  O4'      -10.8820   44.7400    9.6680 O.3    96  C96        -0.3307
   2075  C3'      -10.1470   42.5230    9.7570 C.3    96  C96         0.1860
   2076  O3'      -10.4140   41.2400   10.2860 O.3    96  C96        -0.3112
   2077  C2'      -10.7940   42.7370    8.3920 C.3    96  C96         0.2309
   2078  O2'      -12.0990   42.2040    8.2630 O.3    96  C96        -0.2156
   2079  C1'      -10.8520   44.2610    8.3310 C.3    96  C96         0.2420
   2080  N1        -9.7040   44.8790    7.5760 N.ar   96  C96        -0.2535
   2081  C2        -9.7210   44.8720    6.1690 C.ar   96  C96         0.3532
   2082  O2       -10.6720   44.3570    5.5690 O.2    96  C96        -0.2443
   2083  N3        -8.6890   45.4420    5.4950 N.ar   96  C96        -0.1739
   2084  C4        -7.6750   45.9960    6.1670 C.ar   96  C96         0.1759
   2085  N4        -6.6830   46.5390    5.4560 N.pl3  96  C96        -0.1070
   2086  C5        -7.6290   46.0130    7.5970 C.ar   96  C96         0.0566
   2087  C6        -8.6540   45.4490    8.2510 C.ar   96  C96         0.0850
   2088  OP1       -8.0850   43.8650   13.9240 O.3    96  C96        -0.4373
   2089  OP2       -6.3850   44.8120   12.2510 O.co2  96  C96        -0.5172
   2090  P         -9.2700   40.1190   10.2570 P.3    97  U97         0.2141
   2091  C5'      -10.6160   38.9320    8.3270 C.3    97  U97         0.1812
   2092  O5'       -9.3990   39.5150    8.7840 O.3    97  U97        -0.3114
   2093  C4'      -10.6130   38.7830    6.8180 C.3    97  U97         0.1773
   2094  O4'      -10.6190   40.0920    6.1970 O.3    97  U97        -0.3307
   2095  C3'       -9.3670   38.1540    6.2120 C.3    97  U97         0.1860
   2096  O3'       -9.3000   36.7460    6.3730 O.3    97  U97        -0.3112
   2097  C2'       -9.5070   38.5850    4.7600 C.3    97  U97         0.2309
   2098  O2'      -10.5170   37.8740    4.0720 O.3    97  U97        -0.2156
   2099  C1'       -9.9210   40.0370    4.9600 C.3    97  U97         0.2420
   2100  N1        -8.7730   41.0320    4.9420 N.ar   97  U97        -0.2534
   2101  C2        -8.2190   41.4120    3.7290 C.ar   97  U97         0.3546
   2102  O2        -8.5950   40.9830    2.6570 O.2    97  U97        -0.2443
   2103  N3        -7.1940   42.3240    3.8050 N.ar   97  U97        -0.1530
   2104  C4        -6.6710   42.8930    4.9530 C.ar   97  U97         0.2846
   2105  O4        -5.7490   43.7000    4.8700 O.2    97  U97        -0.2650
   2106  C5        -7.2920   42.4580    6.1820 C.ar   97  U97         0.0814
   2107  C6        -8.2940   41.5680    6.1290 C.ar   97  U97         0.0870
   2108  OP1       -9.6270   39.0810   11.2510 O.3    97  U97        -0.4373
   2109  OP2       -7.9520   40.7890   10.3300 O.co2  97  U97        -0.5172
   2110  P         -7.8410   36.1120    6.5680 P.3    98  C98         0.2141
   2111  C5'       -7.9660   35.2800    4.0600 C.3    98  C98         0.1812
   2112  O5'       -7.2740   36.0160    5.0740 O.3    98  C98        -0.3114
   2113  C4'       -7.2800   35.4220    2.7130 C.3    98  C98         0.1773
   2114  O4'       -7.3580   36.8000    2.2700 O.3    98  C98        -0.3307
   2115  C3'       -5.7850   35.1340    2.7000 C.3    98  C98         0.1860
   2116  O3'       -5.4960   33.7420    2.6570 O.3    98  C98        -0.3112
   2117  C2'       -5.3580   35.8650    1.4340 C.3    98  C98         0.2309
   2118  O2'       -5.6590   35.1550    0.2470 O.3    98  C98        -0.2156
   2119  C1'       -6.1960   37.1370    1.5300 C.3    98  C98         0.2420
   2120  N1        -5.4640   38.2930    2.1770 N.ar   98  C98        -0.2535
   2121  C2        -4.4610   38.9810    1.4640 C.ar   98  C98         0.3532
   2122  O2        -4.1710   38.6390    0.3090 O.2    98  C98        -0.2443
   2123  N3        -3.8150   40.0160    2.0660 N.ar   98  C98        -0.1739
   2124  C4        -4.1230   40.3750    3.3160 C.ar   98  C98         0.1759
   2125  N4        -3.4540   41.4000    3.8540 N.pl3  98  C98        -0.1070
   2126  C5        -5.1340   39.6920    4.0620 C.ar   98  C98         0.0566
   2127  C6        -5.7670   38.6730    3.4610 C.ar   98  C98         0.0850
   2128  OP1       -8.0120   34.7470    7.1220 O.2    98  C98        -0.5172
   2129  OP2       -7.0000   37.1090    7.2810 O.co2  98  C98        -0.4373
   2130  P         -4.1160   33.2080    3.2710 P.3    99  C99         0.2141
   2131  C5'       -2.9440   33.1130    0.9210 C.3    99  C99         0.1812
   2132  O5'       -3.0560   33.7320    2.1970 O.3    99  C99        -0.3114
   2133  C4'       -1.9220   33.8390    0.0700 C.3    99  C99         0.1773
   2134  O4'       -2.2700   35.2410    0.0080 O.3    99  C99        -0.3307
   2135  C3'       -0.5020   33.8610    0.6150 C.3    99  C99         0.1860
   2136  O3'        0.1780   32.6410    0.3620 O.3    99  C99        -0.3112
   2137  C2'        0.0890   35.0400   -0.1550 C.3    99  C99         0.2309
   2138  O2'        0.4730   34.7600   -1.4910 O.3    99  C99        -0.2156
   2139  C1'       -1.0900   36.0100   -0.1410 C.3    99  C99         0.2420
   2140  N1        -0.9640   36.9820    0.9750 N.ar   99  C99        -0.2535
   2141  C2        -0.0480   38.0370    0.8570 C.ar   99  C99         0.3532
   2142  O2         0.6260   38.1470   -0.1750 O.2    99  C99        -0.2443
   2143  N3         0.0690   38.9150    1.8870 N.ar   99  C99        -0.1739
   2144  C4        -0.6790   38.7630    2.9870 C.ar   99  C99         0.1759
   2145  N4        -0.5320   39.6500    3.9720 N.pl3  99  C99        -0.1070
   2146  C5        -1.6130   37.6930    3.1320 C.ar   99  C99         0.0566
   2147  C6        -1.7180   36.8360    2.1100 C.ar   99  C99         0.0850
   2148  OP1       -4.1470   31.7290    3.2480 O.2    99  C99        -0.5172
   2149  OP2       -3.8280   33.8960    4.5470 O.co2  99  C99        -0.4373
   2150  P          1.2290   32.0420    1.4170 P.3   100  C100        0.2141
   2151  C5'        3.3060   33.1970    0.2810 C.3   100  C100        0.1812
   2152  O5'        2.4340   33.1020    1.4110 O.3   100  C100       -0.3114
   2153  C4'        4.1920   34.4360    0.3170 C.3   100  C100        0.1773
   2154  O4'        3.3930   35.6550    0.3830 O.3   100  C100       -0.3307
   2155  C3'        5.1380   34.5660    1.5090 C.3   100  C100        0.1860
   2156  O3'        6.2720   33.7180    1.3960 O.3   100  C100       -0.3112
   2157  C2'        5.4960   36.0470    1.3830 C.3   100  C100        0.2309
   2158  O2'        6.3770   36.3500    0.3160 O.3   100  C100       -0.2156
   2159  C1'        4.1160   36.6470    1.1050 C.3   100  C100        0.2420
   2160  N1         3.4130   37.0600    2.3840 N.ar  100  C100       -0.2535
   2161  C2         3.8060   38.2370    3.0460 C.ar  100  C100        0.3532
   2162  O2         4.7150   38.9300    2.5800 O.2   100  C100       -0.2443
   2163  N3         3.1750   38.5920    4.1940 N.ar  100  C100       -0.1739
   2164  C4         2.1940   37.8280    4.6840 C.ar  100  C100        0.1759
   2165  N4         1.6040   38.2190    5.8180 N.pl3 100  C100       -0.1070
   2166  C5         1.7780   36.6250    4.0360 C.ar  100  C100        0.0566
   2167  C6         2.4080   36.2860    2.9060 C.ar  100  C100        0.0850
   2168  OP1        1.7270   30.7740    0.8250 O.2   100  C100       -0.5172
   2169  OP2        0.5940   32.0300    2.7600 O.co2 100  C100       -0.4373
   2170  P          7.0340   33.1510    2.6930 P.3   101  G101        0.2141
   2171  C5'        8.8160   35.0690    2.6320 C.3   101  G101        0.1812
   2172  O5'        7.7570   34.4310    3.3100 O.3   101  G101       -0.3114
   2173  C4'        9.1860   36.3170    3.3990 C.3   101  G101        0.1773
   2174  O4'        8.0520   37.2230    3.4410 O.3   101  G101       -0.3307
   2175  C3'        9.5330   36.0510    4.8580 C.3   101  G101        0.1860
   2176  O3'       10.8900   35.6820    4.9840 O.3   101  G101       -0.3112
   2177  C2'        9.2390   37.4000    5.5070 C.3   101  G101        0.2309
   2178  O2'       10.3090   38.3220    5.4050 O.3   101  G101       -0.2156
   2179  C1'        8.0070   37.8510    4.7160 C.3   101  G101        0.2408
   2180  N1         4.8440   38.9810    8.5450 N.ar  101  G101       -0.1709
   2181  C2         6.0130   39.5940    8.1630 C.ar  101  G101        0.2606
   2182  N2         6.4010   40.6500    8.8900 N.pl3 101  G101       -0.0859
   2183  N3         6.7510   39.2000    7.1350 N.ar  101  G101       -0.1918
   2184  C4         6.2260   38.1250    6.5040 C.ar  101  G101        0.1723
   2185  C5         5.0700   37.4390    6.8070 C.ar  101  G101        0.1748
   2186  C6         4.2830   37.8730    7.9080 C.ar  101  G101        0.3023
   2187  O6         3.2180   37.4010    8.3360 O.2   101  G101       -0.2633
   2188  N7         4.8800   36.3870    5.9190 N.ar  101  G101       -0.2173
   2189  C8         5.9040   36.4620    5.1140 C.ar  101  G101        0.1817
   2190  N9         6.7640   37.4950    5.4060 N.ar  101  G101       -0.2693
   2191  OP1        8.0780   32.2110    2.2220 O.2   101  G101       -0.5172
   2192  OP2        6.0300   32.7010    3.6840 O.co2 101  G101       -0.4373
   2193  P         11.3290   34.6160    6.0950 P.3   102  C102        0.2141
   2194  C5'       12.0570   36.5740    7.7110 C.3   102  C102        0.1812
   2195  O5'       11.2540   35.4180    7.4740 O.3   102  C102       -0.3114
   2196  C4'       11.5310   37.3730    8.8950 C.3   102  C102        0.1773
   2197  O4'       10.2260   37.9570    8.6170 O.3   102  C102       -0.3307
   2198  C3'       11.2930   36.5350   10.1360 C.3   102  C102        0.1860
   2199  O3'       12.5240   36.3170   10.7740 O.3   102  C102       -0.3112
   2200  C2'       10.3320   37.4340   10.9100 C.3   102  C102        0.2309
   2201  O2'       10.9490   38.5310   11.5570 O.3   102  C102       -0.2156
   2202  C1'        9.4210   37.9150    9.7820 C.3   102  C102        0.2420
   2203  N1         8.2230   37.0140    9.6040 N.ar  102  C102       -0.2535
   2204  C2         7.1090   37.1960   10.4400 C.ar  102  C102        0.3532
   2205  O2         7.1220   38.0910   11.2880 O.2   102  C102       -0.2443
   2206  N3         6.0300   36.3870   10.3040 N.ar  102  C102       -0.1739
   2207  C4         6.0290   35.4220    9.3870 C.ar  102  C102        0.1759
   2208  N4         4.9340   34.6690    9.3030 N.pl3 102  C102       -0.1070
   2209  C5         7.1470   35.2000    8.5220 C.ar  102  C102        0.0566
   2210  C6         8.2090   36.0090    8.6680 C.ar  102  C102        0.0850
   2211  OP1       12.7290   34.2540    5.8060 O.2   102  C102       -0.5172
   2212  OP2       10.3080   33.5480    6.1660 O.co2 102  C102       -0.4373
   2213  P         12.7650   35.0710   11.7350 P.3   103  U103        0.2141
   2214  C5'       12.2170   36.2780   13.9920 C.3   103  U103        0.1812
   2215  O5'       11.8140   35.3680   12.9880 O.3   103  U103       -0.3114
   2216  C4'       11.1420   36.3810   15.0430 C.3   103  U103        0.1773
   2217  O4'        9.8870   36.7150   14.4080 O.3   103  U103       -0.3307
   2218  C3'       10.8180   35.0770   15.7440 C.3   103  U103        0.1860
   2219  O3'       11.7520   34.7940   16.7630 O.3   103  U103       -0.3112
   2220  C2'        9.4390   35.3800   16.3090 C.3   103  U103        0.2309
   2221  O2'        9.4850   36.2080   17.4520 O.3   103  U103       -0.2156
   2222  C1'        8.8170   36.1090   15.1210 C.3   103  U103        0.2420
   2223  N1         8.0120   35.2170   14.2070 N.ar  103  U103       -0.2534
   2224  C2         6.7800   34.7420   14.6270 C.ar  103  U103        0.3546
   2225  O2         6.2860   34.9960   15.7100 O.2   103  U103       -0.2443
   2226  N3         6.1210   33.9460   13.7190 N.ar  103  U103       -0.1530
   2227  C4         6.5590   33.5720   12.4600 C.ar  103  U103        0.2846
   2228  O4         5.8530   32.8470   11.7700 O.2   103  U103       -0.2650
   2229  C5         7.8500   34.0950   12.0840 C.ar  103  U103        0.0814
   2230  C6         8.5070   34.8810   12.9520 C.ar  103  U103        0.0870
   2231  OP1       14.1790   35.1500   12.1620 O.3   103  U103       -0.4373
   2232  OP2       12.2730   33.8400   11.0850 O.co2 103  U103       -0.5172
   2233  P         12.1380   33.2720   17.0570 P.3   104  C104        0.2141
   2234  C5'       10.7120   33.1630   19.2770 C.3   104  C104        0.1812
   2235  O5'       10.9040   32.7330   17.9210 O.3   104  C104       -0.3114
   2236  C4'        9.3690   32.6750   19.7870 C.3   104  C104        0.1773
   2237  O4'        8.3210   33.1660   18.9130 O.3   104  C104       -0.3307
   2238  C3'        9.1870   31.1690   19.7090 C.3   104  C104        0.1860
   2239  O3'        9.7940   30.4910   20.7960 O.3   104  C104       -0.3112
   2240  C2'        7.6690   31.0410   19.7020 C.3   104  C104        0.2309
   2241  O2'        7.0800   31.2290   20.9750 O.3   104  C104       -0.2156
   2242  C1'        7.3110   32.1810   18.7530 C.3   104  C104        0.2420
   2243  N1         7.1760   31.7300   17.3110 N.ar  104  C104       -0.2535
   2244  C2         5.9930   31.0970   16.8920 C.ar  104  C104        0.3532
   2245  O2         5.0780   30.9260   17.7050 O.2   104  C104       -0.2443
   2246  N3         5.8750   30.6860   15.5990 N.ar  104  C104       -0.1739
   2247  C4         6.8730   30.8810   14.7330 C.ar  104  C104        0.1759
   2248  N4         6.7100   30.4620   13.4740 N.pl3 104  C104       -0.1070
   2249  C5         8.0860   31.5160   15.1300 C.ar  104  C104        0.0566
   2250  C6         8.1900   31.9160   16.4090 C.ar  104  C104        0.0850
   2251  OP1       13.3290   33.3230   17.9320 O.3   104  C104       -0.4373
   2252  OP2       12.1580   32.5180   15.7810 O.co2 104  C104       -0.5172
   2253  P         10.4400   29.0560   20.5030 P.3   105  U105        0.2141
   2254  C5'        8.3390   27.8360   21.5170 C.3   105  U105        0.1812
   2255  O5'        9.1660   28.0910   20.3960 O.3   105  U105       -0.3114
   2256  C4'        7.0660   27.1530   21.0670 C.3   105  U105        0.1773
   2257  O4'        6.4130   27.9210   20.0280 O.3   105  U105       -0.3307
   2258  C3'        7.2390   25.8040   20.4000 C.3   105  U105        0.1860
   2259  O3'        7.5540   24.7980   21.3530 O.3   105  U105       -0.3112
   2260  C2'        5.8560   25.6520   19.7740 C.3   105  U105        0.2309
   2261  O2'        4.8120   25.4010   20.6920 O.3   105  U105       -0.2156
   2262  C1'        5.6640   27.0500   19.1960 C.3   105  U105        0.2420
   2263  N1         6.1100   27.1350   17.7520 N.ar  105  U105       -0.2534
   2264  C2         5.3310   26.5270   16.7830 C.ar  105  U105        0.3546
   2265  O2         4.2940   25.9360   17.0350 O.2   105  U105       -0.2443
   2266  N3         5.8060   26.6390   15.4940 N.ar  105  U105       -0.1530
   2267  C4         6.9650   27.2810   15.0980 C.ar  105  U105        0.2846
   2268  O4         7.2660   27.3000   13.9140 O.2   105  U105       -0.2650
   2269  C5         7.7300   27.8870   16.1600 C.ar  105  U105        0.0814
   2270  C6         7.2820   27.7950   17.4180 C.ar  105  U105        0.0870
   2271  OP1       11.2220   28.6960   21.7080 O.3   105  U105       -0.4373
   2272  OP2       11.0790   29.0800   19.1600 O.co2 105  U105       -0.5172
   2273  P          8.4710   23.5640   20.9220 P.3   106  G106        0.2141
   2274  C5'        6.3590   22.0310   21.1680 C.3   106  G106        0.1812
   2275  O5'        7.3740   22.5720   20.3340 O.3   106  G106       -0.3114
   2276  C4'        5.3900   21.2540   20.3080 C.3   106  G106        0.1773
   2277  O4'        4.7980   22.1860   19.3720 O.3   106  G106       -0.3307
   2278  C3'        6.0080   20.2160   19.3770 C.3   106  G106        0.1860
   2279  O3'        6.2760   18.9930   20.0400 O.3   106  G106       -0.3112
   2280  C2'        4.8920   20.0830   18.3520 C.3   106  G106        0.2309
   2281  O2'        3.7290   19.4700   18.8740 O.3   106  G106       -0.2156
   2282  C1'        4.5940   21.5520   18.1240 C.3   106  G106        0.2408
   2283  N1         5.3450   21.9810   13.1300 N.ar  106  G106       -0.1709
   2284  C2         4.3960   21.2690   13.8220 C.ar  106  G106        0.2606
   2285  N2         3.5260   20.5710   13.0860 N.pl3 106  G106       -0.0859
   2286  N3         4.3100   21.2450   15.1470 N.ar  106  G106       -0.1918
   2287  C4         5.2640   22.0010   15.7420 C.ar  106  G106        0.1723
   2288  C5         6.2530   22.7510   15.1460 C.ar  106  G106        0.1748
   2289  C6         6.3290   22.7670   13.7220 C.ar  106  G106        0.3023
   2290  O6         7.1280   23.3610   12.9900 O.2   106  G106       -0.2633
   2291  N7         7.0370   23.3780   16.1130 N.ar  106  G106       -0.2173
   2292  C8         6.5060   23.0030   17.2490 C.ar  106  G106        0.1817
   2293  N9         5.4270   22.1610   17.0950 N.ar  106  G106       -0.2693
   2294  OP1        9.0570   22.9430   22.1340 O.3   106  G106       -0.4373
   2295  OP2        9.3450   23.9880   19.8090 O.co2 106  G106       -0.5172
   2296  P          7.5300   18.0860   19.6310 P.3   107  C107        0.2141
   2297  C5'        5.9450   16.5880   18.1860 C.3   107  C107        0.1812
   2298  O5'        7.0740   17.4340   18.2530 O.3   107  C107       -0.3114
   2299  C4'        5.6640   16.2900   16.7250 C.3   107  C107        0.1773
   2300  O4'        5.3840   17.5180   16.0090 O.3   107  C107       -0.3307
   2301  C3'        6.8470   15.7460   15.9400 C.3   107  C107        0.1860
   2302  O3'        7.1140   14.3950   16.2500 O.3   107  C107       -0.3112
   2303  C2'        6.3450   15.9640   14.5190 C.3   107  C107        0.2309
   2304  O2'        5.3190   15.0630   14.1510 O.3   107  C107       -0.2156
   2305  C1'        5.7740   17.3680   14.6550 C.3   107  C107        0.2420
   2306  N1         6.7520   18.4340   14.2830 N.ar  107  C107       -0.2535
   2307  C2         6.9520   18.7500   12.9300 C.ar  107  C107        0.3532
   2308  O2         6.3150   18.1450   12.0560 O.2   107  C107       -0.2443
   2309  N3         7.8490   19.7230   12.6120 N.ar  107  C107       -0.1739
   2310  C4         8.5230   20.3590   13.5790 C.ar  107  C107        0.1759
   2311  N4         9.3900   21.3120   13.2240 N.pl3 107  C107       -0.1070
   2312  C5         8.3320   20.0510   14.9570 C.ar  107  C107        0.0566
   2313  C6         7.4480   19.0970   15.2560 C.ar  107  C107        0.0850
   2314  OP1        7.6610   17.0340   20.6580 O.3   107  C107       -0.4373
   2315  OP2        8.6910   18.9490   19.3130 O.co2 107  C107       -0.5172
   2316  P          8.6010   13.8170   16.1170 P.3   108  A108        0.2141
   2317  C5'        7.9920   12.9790   13.6720 C.3   108  A108        0.1812
   2318  O5'        8.8330   13.7770   14.5230 O.3   108  A108       -0.3114
   2319  C4'        8.2430   13.2030   12.1830 C.3   108  A108        0.1773
   2320  O4'        7.9190   14.5550   11.7750 O.3   108  A108       -0.3307
   2321  C3'        9.6830   13.0250   11.7340 C.3   108  A108        0.1860
   2322  O3'        9.9300   11.6660   11.5050 O.3   108  A108       -0.3112
   2323  C2'        9.7260   13.8280   10.4350 C.3   108  A108        0.2309
   2324  O2'        9.2620   13.1160    9.2950 O.3   108  A108       -0.2156
   2325  C1'        8.8240   15.0050   10.7780 C.3   108  A108        0.2408
   2326  N1        11.6410   19.2260    9.7780 N.ar  108  A108       -0.2040
   2327  C2        11.0170   18.3630    8.9640 C.ar  108  A108        0.2016
   2328  N3        10.2960   17.2830    9.2800 N.ar  108  A108       -0.2048
   2329  C4        10.2440   17.1090   10.6090 C.ar  108  A108        0.1692
   2330  C5        10.8470   17.9070   11.5670 C.ar  108  A108        0.1518
   2331  C6        11.5740   19.0190   11.1090 C.ar  108  A108        0.1919
   2332  N6        12.1870   19.8660   11.9330 N.pl3 108  A108       -0.1054
   2333  N7        10.5920   17.4390   12.8400 N.ar  108  A108       -0.2193
   2334  C8         9.8550   16.3740   12.6300 C.ar  108  A108        0.1816
   2335  N9         9.6000   16.1170   11.3090 N.ar  108  A108       -0.2693
   2336  OP1        8.5470   12.4410   16.6550 O.2   108  A108       -0.5172
   2337  OP2        9.5520   14.7770   16.7120 O.co2 108  A108       -0.4373
   2338  P         11.3760   11.0620   11.7660 P.3   109  U109        0.2141
   2339  C5'       12.1160   11.3810    9.2560 C.3   109  U109        0.1812
   2340  O5'       12.2730   11.7470   10.6340 O.3   109  U109       -0.3114
   2341  C4'       12.8680   12.3540    8.3680 C.3   109  U109        0.1773
   2342  O4'       12.4120   13.7020    8.6330 O.3   109  U109       -0.3307
   2343  C3'       14.3630   12.4390    8.6240 C.3   109  U109        0.1860
   2344  O3'       15.0310   11.3820    7.9430 O.3   109  U109       -0.3112
   2345  C2'       14.6850   13.8110    8.0380 C.3   109  U109        0.2309
   2346  O2'       14.7170   13.8240    6.6200 O.3   109  U109       -0.2156
   2347  C1'       13.4820   14.6210    8.5090 C.3   109  U109        0.2420
   2348  N1        13.6790   15.4070    9.7910 N.ar  109  U109       -0.2534
   2349  C2        14.2300   16.6760    9.7250 C.ar  109  U109        0.3546
   2350  O2        14.5790   17.2060    8.6860 O.2   109  U109       -0.2443
   2351  N3        14.3720   17.3200   10.9320 N.ar  109  U109       -0.1530
   2352  C4        14.0240   16.8440   12.1860 C.ar  109  U109        0.2846
   2353  O4        14.2060   17.5450   13.1810 O.2   109  U109       -0.2650
   2354  C5        13.4510   15.5200   12.1820 C.ar  109  U109        0.0814
   2355  C6        13.3050   14.8710   11.0140 C.ar  109  U109        0.0870
   2356  OP1       11.2550    9.6170   11.4630 O.2   109  U109       -0.5172
   2357  OP2       11.8640   11.5090   13.0930 O.co2 109  U109       -0.4373
   2358  P         15.7800   10.1810    8.7060 P.3   110  G110        0.2141
   2359  C5'       18.0030   10.7690    7.4510 C.3   110  G110        0.1812
   2360  O5'       17.3180   10.5990    8.6800 O.3   110  G110       -0.3114
   2361  C4'       19.1680   11.6980    7.7000 C.3   110  G110        0.1773
   2362  O4'       19.7540   11.3150    8.9720 O.3   110  G110       -0.3307
   2363  C3'       20.2790   11.6760    6.6570 C.3   110  G110        0.1860
   2364  O3'       20.1050   12.7560    5.7240 O.3   110  G110       -0.3112
   2365  C2'       21.5350   11.8810    7.5100 C.3   110  G110        0.2309
   2366  O2'       21.8960   13.2460    7.6480 O.3   110  G110       -0.2156
   2367  C1'       21.1620   11.3630    8.9040 C.3   110  G110        0.2408
   2368  N1        21.4840    6.2930    8.0130 N.ar  110  G110       -0.1709
   2369  C2        20.7620    7.2440    7.3190 C.ar  110  G110        0.2606
   2370  N2        20.0480    6.8110    6.2680 N.pl3 110  G110       -0.0859
   2371  N3        20.7520    8.5370    7.6290 N.ar  110  G110       -0.1918
   2372  C4        21.5220    8.8170    8.7130 C.ar  110  G110        0.1723
   2373  C5        22.2710    7.9340    9.4680 C.ar  110  G110        0.1748
   2374  C6        22.2830    6.5590    9.1290 C.ar  110  G110        0.3023
   2375  O6        22.8970    5.6390    9.6940 O.2   110  G110       -0.2633
   2376  N7        22.9220    8.5960   10.4980 N.ar  110  G110       -0.2173
   2377  C8        22.5620    9.8420   10.3540 C.ar  110  G110        0.1817
   2378  N9        21.7170   10.0590    9.2910 N.ar  110  G110       -0.2693
   2379  OP1       15.5810    8.9970    7.8360 O.2   110  G110       -0.5172
   2380  OP2       15.4100   10.1640   10.1420 O.co2 110  G110       -0.4373
   2381  P         19.1340   12.6890    4.4420 P.3   111  C111        0.2141
   2382  C5'       20.3760   14.4430    2.8820 C.3   111  C111        0.1812
   2383  O5'       19.3160   14.1310    3.7750 O.3   111  C111       -0.3114
   2384  C4'       20.7490   15.9120    3.0010 C.3   111  C111        0.1773
   2385  O4'       19.6160   16.6900    3.4660 O.3   111  C111       -0.3307
   2386  C3'       21.8280   16.2130    4.0270 C.3   111  C111        0.1860
   2387  O3'       23.0990   15.9850    3.4610 O.3   111  C111       -0.3112
   2388  C2'       21.5790   17.6910    4.2990 C.3   111  C111        0.2309
   2389  O2'       22.0850   18.5520    3.2990 O.3   111  C111       -0.2156
   2390  C1'       20.0560   17.7410    4.3070 C.3   111  C111        0.2420
   2391  N1        19.4890   17.5960    5.6860 N.ar  111  C111       -0.2535
   2392  C2        19.6140   18.6690    6.5810 C.ar  111  C111        0.3532
   2393  O2        20.1800   19.7010    6.1960 O.2   111  C111       -0.2443
   2394  N3        19.1080   18.5490    7.8400 N.ar  111  C111       -0.1739
   2395  C4        18.5040   17.4170    8.2140 C.ar  111  C111        0.1759
   2396  N4        18.0220   17.3380    9.4590 N.pl3 111  C111       -0.1070
   2397  C5        18.3730   16.3110    7.3180 C.ar  111  C111        0.0566
   2398  C6        18.8720   16.4420    6.0810 C.ar  111  C111        0.0850
   2399  OP1       17.7220   12.6260    4.8860 O.3   111  C111       -0.4373
   2400  OP2       19.6740   11.6560    3.5320 O.co2 111  C111       -0.5172
   2401  P         24.2970   15.4420    4.3670 P.3   112  C112        0.2141
   2402  C5'       25.2160   17.9160    4.5180 C.3   112  C112        0.1812
   2403  O5'       24.7480   16.7370    5.1850 O.3   112  C112       -0.3114
   2404  C4'       25.4620   19.0470    5.5040 C.3   112  C112        0.1773
   2405  O4'       24.2070   19.4830    6.0760 O.3   112  C112       -0.3307
   2406  C3'       26.2870   18.6710    6.7210 C.3   112  C112        0.1860
   2407  O3'       27.6580   18.6900    6.4110 O.3   112  C112       -0.3112
   2408  C2'       25.9140   19.7650    7.7160 C.3   112  C112        0.2309
   2409  O2'       26.5880   20.9990    7.5230 O.3   112  C112       -0.2156
   2410  C1'       24.4320   19.9250    7.4120 C.3   112  C112        0.2420
   2411  N1        23.5470   19.1890    8.3840 N.ar  112  C112       -0.2535
   2412  C2        23.3350   19.7270    9.6620 C.ar  112  C112        0.3532
   2413  O2        23.8870   20.7840    9.9780 O.2   112  C112       -0.2443
   2414  N3        22.5260   19.0670   10.5310 N.ar  112  C112       -0.1739
   2415  C4        21.9470   17.9190   10.1690 C.ar  112  C112        0.1759
   2416  N4        21.1600   17.3130   11.0620 N.pl3 112  C112       -0.1070
   2417  C5        22.1460   17.3480    8.8740 C.ar  112  C112        0.0566
   2418  C6        22.9440   18.0110    8.0280 C.ar  112  C112        0.0850
   2419  OP1       25.3760   15.0390    3.4430 O.2   112  C112       -0.5172
   2420  OP2       23.7720   14.4710    5.3470 O.co2 112  C112       -0.4373
   2421  P         28.6610   17.7690    7.2400 P.3   113  U113        0.2141
   2422  C5'       29.6390   19.6160    8.8490 C.3   113  U113        0.1812
   2423  O5'       28.8010   18.4970    8.6540 O.3   113  U113       -0.3114
   2424  C4'       29.3430   20.1880   10.2150 C.3   113  U113        0.1773
   2425  O4'       27.9180   20.3280   10.3980 O.3   113  U113       -0.3307
   2426  C3'       29.7120   19.2970   11.3910 C.3   113  U113        0.1860
   2427  O3'       31.1020   19.3380   11.6320 O.3   113  U113       -0.3112
   2428  C2'       28.9470   20.0050   12.5000 C.3   113  U113        0.2309
   2429  O2'       29.5730   21.2190   12.8670 O.3   113  U113       -0.2156
   2430  C1'       27.6350   20.3120   11.7850 C.3   113  U113        0.2420
   2431  N1        26.5200   19.3450   12.0910 N.ar  113  U113       -0.2534
   2432  C2        25.7960   19.5220   13.2530 C.ar  113  U113        0.3546
   2433  O2        26.0190   20.4140   14.0360 O.2   113  U113       -0.2443
   2434  N3        24.7920   18.6160   13.4760 N.ar  113  U113       -0.1530
   2435  C4        24.4320   17.5520   12.6680 C.ar  113  U113        0.2846
   2436  O4        23.4990   16.8240   13.0060 O.2   113  U113       -0.2650
   2437  C5        25.2300   17.4180   11.4670 C.ar  113  U113        0.0814
   2438  C6        26.2190   18.2990   11.2280 C.ar  113  U113        0.0870
   2439  OP1       29.9450   17.8180    6.5060 O.2   113  U113       -0.5172
   2440  OP2       27.9820   16.4890    7.5500 O.co2 113  U113       -0.4373
   2441  P         32.0160   18.0370   11.5460 P.3   114  G114        0.2141
   2442  C5'       30.9990   16.5930   13.4840 C.3   114  G114        0.1812
   2443  O5'       31.9870   17.5050   13.0590 O.3   114  G114       -0.3114
   2444  C4'       31.1140   16.3540   14.9760 C.3   114  G114        0.1773
   2445  O4'       32.2700   15.5180   15.2460 O.3   114  G114       -0.3307
   2446  C3'       31.3370   17.5960   15.8230 C.3   114  G114        0.1860
   2447  O3'       30.1140   18.2410   16.1280 O.3   114  G114       -0.3112
   2448  C2'       31.9990   16.9880   17.0550 C.3   114  G114        0.2309
   2449  O2'       31.1090   16.3030   17.9170 O.3   114  G114       -0.2156
   2450  C1'       32.9480   16.0010   16.3900 C.3   114  G114        0.2408
   2451  N1        37.2550   18.1490   18.0480 N.ar  114  G114       -0.1709
   2452  C2        36.1980   17.6610   18.7840 C.ar  114  G114        0.2606
   2453  N2        36.2880   17.7570   20.1210 N.pl3 114  G114       -0.0859
   2454  N3        35.1240   17.1190   18.2310 N.ar  114  G114       -0.1918
   2455  C4        35.1860   17.0960   16.8670 C.ar  114  G114        0.1723
   2456  C5        36.1950   17.5510   16.0510 C.ar  114  G114        0.1748
   2457  C6        37.3340   18.1270   16.6540 C.ar  114  G114        0.3023
   2458  O6        38.3280   18.5800   16.0830 O.2   114  G114       -0.2633
   2459  N7        35.8930   17.3510   14.7080 N.ar  114  G114       -0.2173
   2460  C8        34.7200   16.7860   14.7320 C.ar  114  G114        0.1817
   2461  N9        34.2260   16.6010   16.0050 N.ar  114  G114       -0.2693
   2462  OP1       33.3880   18.5350   11.3040 O.3   114  G114       -0.4373
   2463  OP2       31.4010   17.0370   10.6300 O.co2 114  G114       -0.5172
   2464  P         30.0520   19.8380   16.2490 P.3   115  G115        0.2141
   2465  C5'       30.4970   19.6050   18.8020 C.3   115  G115        0.1812
   2466  O5'       30.9020   20.1640   17.5560 O.3   115  G115       -0.3114
   2467  C4'       31.4240   20.0290   19.9230 C.3   115  G115        0.1773
   2468  O4'       32.7300   19.4060   19.7800 O.3   115  G115       -0.3307
   2469  C3'       31.7200   21.5120   19.9700 C.3   115  G115        0.1860
   2470  O3'       30.6550   22.1690   20.6310 O.3   115  G115       -0.3112
   2471  C2'       33.0140   21.4960   20.7620 C.3   115  G115        0.2309
   2472  O2'       32.7990   21.1580   22.1170 O.3   115  G115       -0.2156
   2473  C1'       33.7460   20.3360   20.1010 C.3   115  G115        0.2408
   2474  N1        37.9900   22.4310   18.0670 N.ar  115  G115       -0.1709
   2475  C2        37.6440   22.2980   19.3960 C.ar  115  G115        0.2606
   2476  N2        38.5260   22.7750   20.2730 N.pl3 115  G115       -0.0859
   2477  N3        36.5180   21.7330   19.8290 N.ar  115  G115       -0.1918
   2478  C4        35.7340   21.3020   18.8020 C.ar  115  G115        0.1723
   2479  C5        36.0000   21.3930   17.4480 C.ar  115  G115        0.1748
   2480  C6        37.1990   21.9920   17.0100 C.ar  115  G115        0.3023
   2481  O6        37.5820   22.1460   15.8480 O.2   115  G115       -0.2633
   2482  N7        34.9720   20.8480   16.7030 N.ar  115  G115       -0.2173
   2483  C8        34.1170   20.4380   17.5940 C.ar  115  G115        0.1817
   2484  N9        34.5020   20.6830   18.8920 N.ar  115  G115       -0.2693
   2485  OP1       28.6270   20.1750   16.4740 O.3   115  G115       -0.4373
   2486  OP2       30.7770   20.4240   15.0990 O.co2 115  G115       -0.5172
   2487  P         30.1800   23.6180   20.1520 P.3   116  G116        0.2141
   2488  C5'       31.2740   24.7830   22.2640 C.3   116  G116        0.1812
   2489  O5'       31.2350   24.5870   20.8530 O.3   116  G116       -0.3114
   2490  C4'       32.6230   25.3700   22.6590 C.3   116  G116        0.1773
   2491  O4'       33.6940   24.4940   22.2080 O.3   116  G116       -0.3307
   2492  C3'       33.0180   26.6910   22.0110 C.3   116  G116        0.1860
   2493  O3'       32.3380   27.8260   22.5600 O.3   116  G116       -0.3112
   2494  C2'       34.5130   26.6800   22.3220 C.3   116  G116        0.2309
   2495  O2'       34.8170   26.9560   23.6820 O.3   116  G116       -0.2156
   2496  C1'       34.8630   25.2410   21.9440 C.3   116  G116        0.2408
   2497  N1        38.2900   26.1230   18.2390 N.ar  116  G116       -0.1709
   2498  C2        38.3900   26.3670   19.5970 C.ar  116  G116        0.2606
   2499  N2        39.5300   26.9200   20.0330 N.pl3 116  G116       -0.0859
   2500  N3        37.4290   26.0940   20.4770 N.ar  116  G116       -0.1918
   2501  C4        36.3350   25.5380   19.8900 C.ar  116  G116        0.1723
   2502  C5        36.1410   25.2580   18.5570 C.ar  116  G116        0.1748
   2503  C6        37.1670   25.5520   17.6280 C.ar  116  G116        0.3023
   2504  O6        37.1450   25.3600   16.4040 O.2   116  G116       -0.2633
   2505  N7        34.8920   24.6990   18.3500 N.ar  116  G116       -0.2173
   2506  C8        34.3580   24.6510   19.5310 C.ar  116  G116        0.1817
   2507  N9        35.1760   25.1360   20.5230 N.ar  116  G116       -0.2693
   2508  OP1       28.8470   23.8440   20.7290 O.3   116  G116       -0.4373
   2509  OP2       30.3950   23.7650   18.6970 O.co2 116  G116       -0.5172
   2510  P         32.0220   29.0830   21.6230 P.3   117  G117        0.2141
   2511  C5'       34.2070   30.3160   22.4460 C.3   117  G117        0.1812
   2512  O5'       33.4650   29.7340   21.3610 O.3   117  G117       -0.3114
   2513  C4'       35.6790   30.4980   22.1050 C.3   117  G117        0.1773
   2514  O4'       36.1770   29.3250   21.4190 O.3   117  G117       -0.3307
   2515  C3'       35.9690   31.6250   21.1300 C.3   117  G117        0.1860
   2516  O3'       36.0260   32.8610   21.7980 O.3   117  G117       -0.3112
   2517  C2'       37.3340   31.2260   20.6030 C.3   117  G117        0.2309
   2518  O2'       38.3840   31.5240   21.5000 O.3   117  G117       -0.2156
   2519  C1'       37.1530   29.7170   20.4750 C.3   117  G117        0.2408
   2520  N1        38.3450   29.3200   15.5130 N.ar  117  G117       -0.1709
   2521  C2        39.0690   29.8880   16.5290 C.ar  117  G117        0.2606
   2522  N2        40.2540   30.4090   16.1810 N.pl3 117  G117       -0.0859
   2523  N3        38.6520   29.9440   17.7860 N.ar  117  G117       -0.1918
   2524  C4        37.4390   29.3660   17.9590 C.ar  117  G117        0.1723
   2525  C5        36.6420   28.7730   17.0060 C.ar  117  G117        0.1748
   2526  C6        37.0960   28.7270   15.6630 C.ar  117  G117        0.3023
   2527  O6        36.5410   28.2380   14.6730 O.2   117  G117       -0.2633
   2528  N7        35.4680   28.2930   17.5730 N.ar  117  G117       -0.2173
   2529  C8        35.5710   28.6060   18.8340 C.ar  117  G117        0.1817
   2530  N9        36.7410   29.2560   19.1450 N.ar  117  G117       -0.2693
   2531  OP1       31.1900   30.0330   22.3920 O.3   117  G117       -0.4373
   2532  OP2       31.5440   28.5730   20.3200 O.co2 117  G117       -0.5172
   2533  P         35.5670   34.2010   21.0460 P.3   118  G118        0.2141
   2534  C5'       37.9910   35.0790   20.5570 C.3   118  G118        0.1812
   2535  O5'       36.7910   34.5080   20.0670 O.3   118  G118       -0.3114
   2536  C4'       38.9520   35.2200   19.3990 C.3   118  G118        0.1773
   2537  O4'       39.1550   33.9330   18.7660 O.3   118  G118       -0.3307
   2538  C3'       38.4410   36.0830   18.2600 C.3   118  G118        0.1860
   2539  O3'       38.5960   37.4570   18.5730 O.3   118  G118       -0.3112
   2540  C2'       39.3420   35.6220   17.1210 C.3   118  G118        0.2309
   2541  O2'       40.6640   36.1280   17.1860 O.3   118  G118       -0.2156
   2542  C1'       39.3460   34.1230   17.3730 C.3   118  G118        0.2408
   2543  N1        37.9460   32.2480   12.8400 N.ar  118  G118       -0.1709
   2544  C2        39.0830   32.9530   13.1820 C.ar  118  G118        0.2606
   2545  N2        39.9730   33.1950   12.2040 N.pl3 118  G118       -0.0859
   2546  N3        39.3350   33.3880   14.4180 N.ar  118  G118       -0.1918
   2547  C4        38.3460   33.0720   15.2940 C.ar  118  G118        0.1723
   2548  C5        37.1820   32.3790   15.0480 C.ar  118  G118        0.1748
   2549  C6        36.9220   31.9090   13.7360 C.ar  118  G118        0.3023
   2550  O6        35.9320   31.2740   13.3400 O.2   118  G118       -0.2633
   2551  N7        36.4290   32.2650   16.2050 N.ar  118  G118       -0.2173
   2552  C8        37.1410   32.8740   17.1120 C.ar  118  G118        0.1817
   2553  N9        38.3180   33.3940   16.6300 N.ar  118  G118       -0.2693
   2554  OP1       35.5060   35.2340   22.1110 O.3   118  G118       -0.4373
   2555  OP2       34.4140   33.9410   20.1500 O.co2 118  G118       -0.5172
   2556  P         37.4340   38.4840   18.1920 P.3   119  U119        0.2141
   2557  C5'       38.7140   39.2470   16.0400 C.3   119  U119        0.1812
   2558  O5'       37.5750   38.5950   16.5980 O.3   119  U119       -0.3114
   2559  C4'       38.8750   38.9310   14.5680 C.3   119  U119        0.1773
   2560  O4'       38.9350   37.4980   14.3780 O.3   119  U119       -0.3307
   2561  C3'       37.7290   39.3500   13.6570 C.3   119  U119        0.1860
   2562  O3'       37.7040   40.7540   13.4180 O.3   119  U119       -0.3112
   2563  C2'       38.0720   38.5160   12.4260 C.3   119  U119        0.2309
   2564  O2'       39.1940   38.9830   11.6990 O.3   119  U119       -0.2156
   2565  C1'       38.3990   37.1830   13.1000 C.3   119  U119        0.2420
   2566  N1        37.2060   36.2660   13.2450 N.ar  119  U119       -0.2534
   2567  C2        36.7170   35.5950   12.1330 C.ar  119  U119        0.3546
   2568  O2        37.2000   35.6940   11.0160 O.2   119  U119       -0.2443
   2569  N3        35.6250   34.7880   12.3760 N.ar  119  U119       -0.1530
   2570  C4        34.9860   34.5890   13.5910 C.ar  119  U119        0.2846
   2571  O4        34.0220   33.8330   13.6580 O.2   119  U119       -0.2650
   2572  C5        35.5450   35.3210   14.7030 C.ar  119  U119        0.0814
   2573  C6        36.6080   36.1100   14.4890 C.ar  119  U119        0.0870
   2574  OP1       37.7790   39.7790   18.8230 O.3   119  U119       -0.4373
   2575  OP2       36.1210   37.8570   18.4690 O.co2 119  U119       -0.5172
   2576  P         36.3020   41.5320   13.3760 P.3   120  A120        0.2141
   2577  C5'       36.4170   41.5190   10.7510 C.3   120  A120        0.1812
   2578  O5'       35.7150   41.1550   11.9380 O.3   120  A120       -0.3114
   2579  C4'       35.8980   40.7260    9.5700 C.3   120  A120        0.1773
   2580  O4'       35.9630   39.3130    9.8770 O.3   120  A120       -0.3307
   2581  C3'       34.4220   40.9080    9.2500 C.3   120  A120        0.1860
   2582  O3'       34.1750   42.1110    8.5610 O.3   120  A120       -0.3112
   2583  C2'       34.1740   39.6930    8.3680 C.3   120  A120        0.2309
   2584  O2'       34.6460   39.8750    7.0440 O.3   120  A120       -0.2156
   2585  C1'       34.9910   38.6320    9.1020 C.3   120  A120        0.2408
   2586  N1        31.6870   34.6970    9.5460 N.ar  120  A120       -0.2040
   2587  C2        32.3210   35.1990    8.4740 C.ar  120  A120        0.2016
   2588  N3        33.1730   36.2260    8.4300 N.ar  120  A120       -0.2048
   2589  C4        33.3610   36.7680    9.6500 C.ar  120  A120        0.1692
   2590  C5        32.7790   36.3580   10.8350 C.ar  120  A120        0.1518
   2591  C6        31.9000   35.2610   10.7570 C.ar  120  A120        0.1919
   2592  N6        31.2710   34.7690   11.8210 N.pl3 120  A120       -0.1054
   2593  N7        33.1950   37.1440   11.8960 N.ar  120  A120       -0.2193
   2594  C8        34.0110   38.0050   11.3430 C.ar  120  A120        0.1816
   2595  N9        34.1630   37.8330    9.9920 N.ar  120  A120       -0.2693
   2596  OP1       36.5530   42.9930   13.4010 O.2   120  A120       -0.5172
   2597  OP2       35.4150   40.9240   14.3860 O.co2 120  A120       -0.4373
   2598  P         32.8290   42.9180    8.8650 P.3   121  U121        0.2141
   2599  C5'       31.8870   42.1770    6.5130 C.3   121  U121        0.1812
   2600  O5'       31.7300   42.2100    7.9360 O.3   121  U121       -0.3114
   2601  C4'       31.0580   41.0820    5.8580 C.3   121  U121        0.1773
   2602  O4'       31.5010   39.7740    6.3120 O.3   121  U121       -0.3307
   2603  C3'       29.5710   41.0970    6.1860 C.3   121  U121        0.1860
   2604  O3'       28.8560   42.0110    5.3770 O.3   121  U121       -0.3112
   2605  C2'       29.1810   39.6490    5.9070 C.3   121  U121        0.2309
   2606  O2'       29.0480   39.3600    4.5310 O.3   121  U121       -0.2156
   2607  C1'       30.3850   38.9170    6.4910 C.3   121  U121        0.2420
   2608  N1        30.1840   38.5400    7.9440 N.ar  121  U121       -0.2534
   2609  C2        29.5590   37.3370    8.2410 C.ar  121  U121        0.3546
   2610  O2        29.1680   36.5510    7.3920 O.2   121  U121       -0.2443
   2611  N3        29.4070   37.0700    9.5840 N.ar  121  U121       -0.1530
   2612  C4        29.7980   37.8670   10.6450 C.ar  121  U121        0.2846
   2613  O4        29.5970   37.4990   11.7980 O.2   121  U121       -0.2650
   2614  C5        30.4350   39.1010   10.2630 C.ar  121  U121        0.0814
   2615  C6        30.5990   39.3830    8.9600 C.ar  121  U121        0.0870
   2616  OP1       33.0680   44.2910    8.3630 O.2   121  U121       -0.5172
   2617  OP2       32.4240   42.7050   10.2770 O.co2 121  U121       -0.4373
   2618  P         27.6570   42.8460    6.0320 P.3   122  G122        0.2141
   2619  C5'       25.6380   41.3380    5.2280 C.3   122  G122        0.1812
   2620  O5'       26.5130   41.7510    6.2760 O.3   122  G122       -0.3114
   2621  C4'       24.9260   40.0530    5.6090 C.3   122  G122        0.1773
   2622  O4'       25.8600   39.1440    6.2540 O.3   122  G122       -0.3307
   2623  C3'       23.8270   40.1960    6.6540 C.3   122  G122        0.1860
   2624  O3'       22.6240   40.7140    6.1210 O.3   122  G122       -0.3112
   2625  C2'       23.6750   38.7430    7.0880 C.3   122  G122        0.2309
   2626  O2'       22.9750   37.9300    6.1630 O.3   122  G122       -0.2156
   2627  C1'       25.1420   38.3270    7.1640 C.3   122  G122        0.2408
   2628  N1        24.9810   36.2920   11.7880 N.ar  122  G122       -0.1709
   2629  C2        24.3570   35.9010   10.6170 C.ar  122  G122        0.2606
   2630  N2        23.5710   34.8160   10.6600 N.pl3 122  G122       -0.0859
   2631  N3        24.4950   36.5350    9.4610 N.ar  122  G122       -0.1918
   2632  C4        25.3170   37.6120    9.5620 C.ar  122  G122        0.1723
   2633  C5        25.9840   38.0880   10.6690 C.ar  122  G122        0.1748
   2634  C6        25.8290   37.3970   11.9030 C.ar  122  G122        0.3023
   2635  O6        26.3380   37.6650   12.9990 O.2   122  G122       -0.2633
   2636  N7        26.7190   39.2200   10.3420 N.ar  122  G122       -0.2173
   2637  C8        26.4830   39.4010    9.0700 C.ar  122  G122        0.1817
   2638  N9        25.6410   38.4590    8.5300 N.ar  122  G122       -0.2693
   2639  OP1       27.2010   43.8310    5.0210 O.2   122  G122       -0.5172
   2640  OP2       28.0830   43.2990    7.3780 O.co2 122  G122       -0.4373
   2641  P         21.6390   41.5530    7.0710 P.3   123  G123        0.2141
   2642  C5'       19.9140   39.5870    7.1960 C.3   123  G123        0.1812
   2643  O5'       20.8320   40.4320    7.8810 O.3   123  G123       -0.3114
   2644  C4'       19.4030   38.4970    8.1140 C.3   123  G123        0.1773
   2645  O4'       20.4990   37.6610    8.5600 O.3   123  G123       -0.3307
   2646  C3'       18.7940   38.9820    9.4160 C.3   123  G123        0.1860
   2647  O3'       17.4910   39.5250    9.2040 O.3   123  G123       -0.3112
   2648  C2'       18.8200   37.6780   10.2080 C.3   123  G123        0.2309
   2649  O2'       17.8560   36.7260    9.8050 O.3   123  G123       -0.2156
   2650  C1'       20.2210   37.1830    9.8610 C.3   123  G123        0.2408
   2651  N1        22.0030   37.0050   14.6290 N.ar  123  G123       -0.1709
   2652  C2        20.9470   36.3230   14.0550 C.ar  123  G123        0.2606
   2653  N2        20.2630   35.4770   14.8340 N.pl3 123  G123       -0.0859
   2654  N3        20.5800   36.4520   12.7840 N.ar  123  G123       -0.1918
   2655  C4        21.3600   37.3370   12.1180 C.ar  123  G123        0.1723
   2656  C5        22.4260   38.0640   12.5970 C.ar  123  G123        0.1748
   2657  C6        22.8160   37.9200   13.9510 C.ar  123  G123        0.3023
   2658  O6        23.7500   38.4920   14.5330 O.2   123  G123       -0.2633
   2659  N7        22.9590   38.8620   11.6000 N.ar  123  G123       -0.2173
   2660  C8        22.2200   38.6060   10.5560 C.ar  123  G123        0.1817
   2661  N9        21.2280   37.6870   10.7970 N.ar  123  G123       -0.2693
   2662  OP1       20.7180   42.2720    6.1560 O.2   123  G123       -0.5172
   2663  OP2       22.4010   42.2850    8.1140 O.co2 123  G123       -0.4373
   2664  P         16.8970   40.5910   10.2450 P.3   124  G124        0.2141
   2665  C5'       15.6400   38.7600   11.6250 C.3   124  G124        0.1812
   2666  O5'       16.6740   39.7250   11.5640 O.3   124  G124       -0.3114
   2667  C4'       15.6620   38.0660   12.9710 C.3   124  G124        0.1773
   2668  O4'       16.9850   37.5320   13.2280 O.3   124  G124       -0.3307
   2669  C3'       15.4160   38.9780   14.1580 C.3   124  G124        0.1860
   2670  O3'       14.0370   39.2130   14.3440 O.3   124  G124       -0.3112
   2671  C2'       16.0000   38.1480   15.2870 C.3   124  G124        0.2309
   2672  O2'       15.1490   37.0920   15.6840 O.3   124  G124       -0.2156
   2673  C1'       17.2530   37.5890   14.6190 C.3   124  G124        0.2408
   2674  N1        20.5840   39.0830   18.1770 N.ar  124  G124       -0.1709
   2675  C2        19.4900   38.2520   18.2830 C.ar  124  G124        0.2606
   2676  N2        19.2380   37.7410   19.4910 N.pl3 124  G124       -0.0859
   2677  N3        18.6950   37.9410   17.2680 N.ar  124  G124       -0.1918
   2678  C4        19.0760   38.5340   16.1070 C.ar  124  G124        0.1723
   2679  C5        20.1440   39.3760   15.8940 C.ar  124  G124        0.1748
   2680  C6        20.9880   39.7000   16.9950 C.ar  124  G124        0.3023
   2681  O6        21.9890   40.4280   17.0200 O.2   124  G124       -0.2633
   2682  N7        20.1890   39.7690   14.5590 N.ar  124  G124       -0.2173
   2683  C8        19.1680   39.1700   14.0070 C.ar  124  G124        0.1817
   2684  N9        18.4490   38.3950   14.8870 N.ar  124  G124       -0.2693
   2685  OP1       15.5920   41.0430    9.7230 O.2   124  G124       -0.5172
   2686  OP2       17.9440   41.5940   10.5470 O.co2 124  G124       -0.4373
   2687  P         13.5460   40.6950   14.7080 P.3   125  G125        0.2141
   2688  C5'       13.8630   40.5650   17.3250 C.3   125  G125        0.1812
   2689  O5'       14.3270   41.0400   16.0660 O.3   125  G125       -0.3114
   2690  C4'       14.7670   41.0360   18.4520 C.3   125  G125        0.1773
   2691  O4'       16.1140   40.5550   18.2380 O.3   125  G125       -0.3307
   2692  C3'       14.9180   42.5460   18.5680 C.3   125  G125        0.1860
   2693  O3'       13.8490   43.0920   19.3240 O.3   125  G125       -0.3112
   2694  C2'       16.2660   42.6850   19.2710 C.3   125  G125        0.2309
   2695  O2'       16.1910   42.5700   20.6810 O.3   125  G125       -0.2156
   2696  C1'       17.0520   41.5240   18.6680 C.3   125  G125        0.2408
   2697  N1        21.5030   43.5290   17.2990 N.ar  125  G125       -0.1709
   2698  C2        21.0530   43.1450   18.5460 C.ar  125  G125        0.2606
   2699  N2        21.8960   43.3150   19.5780 N.pl3 125  G125       -0.0859
   2700  N3        19.8530   42.6260   18.7700 N.ar  125  G125       -0.1918
   2701  C4        19.1250   42.5120   17.6330 C.ar  125  G125        0.1723
   2702  C5        19.4770   42.8620   16.3470 C.ar  125  G125        0.1748
   2703  C6        20.7580   43.4230   16.1210 C.ar  125  G125        0.3023
   2704  O6        21.2490   43.7890   15.0420 O.2   125  G125       -0.2633
   2705  N7        18.4450   42.5860   15.4630 N.ar  125  G125       -0.2173
   2706  C8        17.5070   42.0820   16.2150 C.ar  125  G125        0.1817
   2707  N9        17.8520   42.0030   17.5450 N.ar  125  G125       -0.2693
   2708  OP1       12.0950   40.6510   15.0170 O.3   125  G125       -0.4373
   2709  OP2       14.0450   41.5820   13.6290 O.co2 125  G125       -0.5172
   2710  P         12.9760   44.2880   18.7230 P.3   126  A126        0.2141
   2711  C5'       13.7390   46.7790   18.3760 C.3   126  A126        0.1812
   2712  O5'       13.8870   45.5500   19.0750 O.3   126  A126       -0.3114
   2713  C4'       14.7620   47.7650   18.8900 C.3   126  A126        0.1773
   2714  O4'       14.5100   47.9710   20.2980 O.3   126  A126       -0.3307
   2715  C3'       16.1890   47.2490   18.8520 C.3   126  A126        0.1860
   2716  O3'       16.7870   47.5550   17.6060 O.3   126  A126       -0.3112
   2717  C2'       16.8490   48.0290   19.9750 C.3   126  A126        0.2309
   2718  O2'       17.2020   49.3370   19.5730 O.3   126  A126       -0.2156
   2719  C1'       15.7280   48.1160   20.9910 C.3   126  A126        0.2408
   2720  N1        18.1040   46.6730   25.3170 N.ar  126  A126       -0.2040
   2721  C2        18.3520   47.6730   24.4570 C.ar  126  A126        0.2016
   2722  N3        17.6880   47.9900   23.3390 N.ar  126  A126       -0.2048
   2723  C4        16.6640   47.1380   23.1250 C.ar  126  A126        0.1692
   2724  C5        16.2910   46.0640   23.9150 C.ar  126  A126        0.1518
   2725  C6        17.0680   45.8420   25.0760 C.ar  126  A126        0.1919
   2726  N6        16.8230   44.8520   25.9320 N.pl3 126  A126       -0.1054
   2727  N7        15.1880   45.4130   23.3870 N.ar  126  A126       -0.2193
   2728  C8        14.9170   46.0980   22.3040 C.ar  126  A126        0.1816
   2729  N9        15.7700   47.1480   22.0820 N.ar  126  A126       -0.2693
   2730  OP1       11.7440   44.3890   19.5260 O.3   126  A126       -0.4373
   2731  OP2       12.8940   44.1710   17.2420 O.co2 126  A126       -0.5172
   2732  P         17.9010   46.5790   17.0020 P.3   127  A127        0.2141
   2733  C5'       19.7590   47.9310   18.2660 C.3   127  A127        0.1812
   2734  O5'       19.1190   46.6770   18.0350 O.3   127  A127       -0.3114
   2735  C4'       20.7470   47.8670   19.4180 C.3   127  A127        0.1773
   2736  O4'       20.0900   47.5880   20.6730 O.3   127  A127       -0.3307
   2737  C3'       21.7980   46.7830   19.2660 C.3   127  A127        0.1860
   2738  O3'       22.8210   47.3530   18.4430 O.3   127  A127       -0.3112
   2739  C2'       22.1870   46.4860   20.7220 C.3   127  A127        0.2309
   2740  O2'       23.1580   47.3790   21.2380 O.3   127  A127       -0.2156
   2741  C1'       20.8860   46.7340   21.4790 C.3   127  A127        0.2408
   2742  N1        19.3550   43.4300   25.1570 N.ar  127  A127       -0.2040
   2743  C2        20.2800   44.3930   25.1540 C.ar  127  A127        0.2016
   2744  N3        20.6320   45.2070   24.1610 N.ar  127  A127       -0.2048
   2745  C4        19.9180   44.9670   23.0520 C.ar  127  A127        0.1692
   2746  C5        18.9320   44.0070   22.9030 C.ar  127  A127        0.1518
   2747  C6        18.6500   43.2050   24.0320 C.ar  127  A127        0.1919
   2748  N6        17.7290   42.2400   24.0560 N.pl3 127  A127       -0.1054
   2749  N7        18.4120   44.0380   21.6220 N.ar  127  A127       -0.2193
   2750  C8        19.0820   45.0030   21.0370 C.ar  127  A127        0.1816
   2751  N9        20.0200   45.6020   21.8330 N.ar  127  A127       -0.2693
   2752  OP1       18.3420   47.1320   15.7010 O.2   127  A127       -0.5172
   2753  OP2       17.3460   45.2130   17.0560 O.co2 127  A127       -0.4373
   2754  P         24.0840   46.5380   17.9130 P.3   128  U128        0.2141
   2755  C5'       26.3920   46.3870   19.2040 C.3   128  U128        0.1812
   2756  O5'       25.0200   46.6890   19.1960 O.3   128  U128       -0.3114
   2757  C4'       26.8570   46.4310   20.6460 C.3   128  U128        0.1773
   2758  O4'       26.0760   47.3830   21.4090 O.3   128  U128       -0.3307
   2759  C3'       26.6180   45.1610   21.4390 C.3   128  U128        0.1860
   2760  O3'       27.5460   44.1560   21.0600 O.3   128  U128       -0.3112
   2761  C2'       26.8210   45.6690   22.8680 C.3   128  U128        0.2309
   2762  O2'       28.1710   45.6610   23.2710 O.3   128  U128       -0.2156
   2763  C1'       26.3230   47.1160   22.7830 C.3   128  U128        0.2420
   2764  N1        25.0910   47.4760   23.5980 N.ar  128  U128       -0.2534
   2765  C2        24.0590   46.5750   23.7870 C.ar  128  U128        0.3546
   2766  O2        24.0590   45.4570   23.3200 O.2   128  U128       -0.2443
   2767  N3        22.9970   47.0290   24.5360 N.ar  128  U128       -0.1530
   2768  C4        22.8520   48.2750   25.1160 C.ar  128  U128        0.2846
   2769  O4        21.8350   48.5360   25.7630 O.2   128  U128       -0.2650
   2770  C5        23.9690   49.1660   24.8850 C.ar  128  U128        0.0814
   2771  C6        25.0170   48.7450   24.1550 C.ar  128  U128        0.0870
   2772  OP1       24.6860   47.2900   16.7870 O.2   128  U128       -0.5172
   2773  OP2       23.7170   45.1140   17.7520 O.co2 128  U128       -0.4373
   2774  P         27.0920   42.6370   20.8100 P.3   129  A129        0.2141
   2775  C5'       27.5390   42.0880   23.3670 C.3   129  A129        0.1812
   2776  O5'       26.6410   42.1080   22.2560 O.3   129  A129       -0.3114
   2777  C4'       26.7830   42.0390   24.6860 C.3   129  A129        0.1773
   2778  O4'       25.6630   42.9710   24.7000 O.3   129  A129       -0.3307
   2779  C3'       26.1520   40.6910   24.9770 C.3   129  A129        0.1860
   2780  O3'       27.1040   39.7790   25.5320 O.3   129  A129       -0.3112
   2781  C2'       25.0110   41.0690   25.9220 C.3   129  A129        0.2309
   2782  O2'       25.4070   41.2650   27.2680 O.3   129  A129       -0.2156
   2783  C1'       24.5210   42.3770   25.3010 C.3   129  A129        0.2408
   2784  N1        19.8950   40.3010   24.0940 N.ar  129  A129       -0.2040
   2785  C2        20.5710   40.3330   25.2520 C.ar  129  A129        0.2016
   2786  N3        21.7600   40.8910   25.5140 N.ar  129  A129       -0.2048
   2787  C4        22.2880   41.4730   24.4130 C.ar  129  A129        0.1692
   2788  C5        21.7030   41.5240   23.1560 C.ar  129  A129        0.1518
   2789  C6        20.4440   40.8970   23.0030 C.ar  129  A129        0.1919
   2790  N6        19.7780   40.8850   21.8420 N.pl3 129  A129       -0.1054
   2791  N7        22.5090   42.2080   22.2650 N.ar  129  A129       -0.2193
   2792  C8        23.5510   42.5510   22.9760 C.ar  129  A129        0.1816
   2793  N9        23.4950   42.1460   24.2820 N.ar  129  A129       -0.2693
   2794  OP1       28.3090   41.9140   20.3880 O.3   129  A129       -0.4373
   2795  OP2       25.8810   42.6270   19.9620 O.co2 129  A129       -0.5172
   2796  P         27.4090   38.3870   24.7870 P.3   130  C130        0.2141
   2797  C5'       25.3730   37.1320   25.8380 C.3   130  C130        0.1812
   2798  O5'       25.9670   37.7200   24.6900 O.3   130  C130       -0.3114
   2799  C4'       24.0450   36.5210   25.4550 C.3   130  C130        0.1773
   2800  O4'       23.1730   37.6200   25.0840 O.3   130  C130       -0.3307
   2801  C3'       24.0880   35.6590   24.2030 C.3   130  C130        0.1860
   2802  O3'       24.4740   34.3180   24.4620 O.3   130  C130       -0.3112
   2803  C2'       22.6460   35.7860   23.7260 C.3   130  C130        0.2309
   2804  O2'       21.7530   35.0130   24.5040 O.3   130  C130       -0.2156
   2805  C1'       22.4170   37.2800   23.9370 C.3   130  C130        0.2420
   2806  N1        22.8250   38.1150   22.7420 N.ar  130  C130       -0.2535
   2807  C2        21.9690   38.1920   21.6340 C.ar  130  C130        0.3532
   2808  O2        20.8950   37.5830   21.6600 O.2   130  C130       -0.2443
   2809  N3        22.3350   38.9360   20.5580 N.ar  130  C130       -0.1739
   2810  C4        23.5020   39.5850   20.5470 C.ar  130  C130        0.1759
   2811  N4        23.8110   40.3070   19.4650 N.pl3 130  C130       -0.1070
   2812  C5        24.3950   39.5230   21.6560 C.ar  130  C130        0.0566
   2813  C6        24.0170   38.7880   22.7130 C.ar  130  C130        0.0850
   2814  OP1       28.2540   37.5820   25.7020 O.3   130  C130       -0.4373
   2815  OP2       27.8560   38.6200   23.3920 O.co2 130  C130       -0.5172
   2816  P         25.1150   33.4310   23.2830 P.3   131  C131        0.2141
   2817  C5'       22.7660   32.5310   22.5870 C.3   131  C131        0.1812
   2818  O5'       23.9310   33.2490   22.2180 O.3   131  C131       -0.3114
   2819  C4'       21.7470   32.4890   21.4780 C.3   131  C131        0.1773
   2820  O4'       21.2750   33.8260   21.1660 O.3   131  C131       -0.3307
   2821  C3'       22.3120   31.9690   20.1770 C.3   131  C131        0.1860
   2822  O3'       22.3400   30.5470   20.1940 O.3   131  C131       -0.3112
   2823  C2'       21.3040   32.5300   19.1890 C.3   131  C131        0.2309
   2824  O2'       20.1100   31.7820   19.1500 O.3   131  C131       -0.2156
   2825  C1'       21.0220   33.9090   19.7730 C.3   131  C131        0.2420
   2826  N1        21.8670   34.9590   19.1240 N.ar  131  C131       -0.2535
   2827  C2        21.5180   35.4130   17.8350 C.ar  131  C131        0.3532
   2828  O2        20.5210   34.9500   17.2770 O.2   131  C131       -0.2443
   2829  N3        22.2800   36.3630   17.2380 N.ar  131  C131       -0.1739
   2830  C4        23.3500   36.8480   17.8770 C.ar  131  C131        0.1759
   2831  N4        24.0710   37.7850   17.2550 N.pl3 131  C131       -0.1070
   2832  C5        23.7340   36.3960   19.1810 C.ar  131  C131        0.0566
   2833  C6        22.9710   35.4620   19.7590 C.ar  131  C131        0.0850
   2834  OP1       25.4270   32.1080   23.8670 O.3   131  C131       -0.4373
   2835  OP2       26.1790   34.2180   22.6260 O.co2 131  C131       -0.5172
   2836  P         23.4970   29.8040   19.3770 P.3   132  C132        0.2141
   2837  C5'       21.8530   29.4130   17.3280 C.3   132  C132        0.1812
   2838  O5'       23.0090   30.0350   17.8610 O.3   132  C132       -0.3114
   2839  C4'       21.5440   29.9790   15.9560 C.3   132  C132        0.1773
   2840  O4'       21.3920   31.4200   16.0200 O.3   132  C132       -0.3307
   2841  C3'       22.6390   29.8500   14.9120 C.3   132  C132        0.1860
   2842  O3'       22.7460   28.5500   14.4210 O.3   132  C132       -0.3112
   2843  C2'       22.1150   30.8140   13.8600 C.3   132  C132        0.2309
   2844  O2'       20.9840   30.3400   13.1560 O.3   132  C132       -0.2156
   2845  C1'       21.7290   31.9870   14.7570 C.3   132  C132        0.2420
   2846  N1        22.8650   32.9660   14.8830 N.ar  132  C132       -0.2535
   2847  C2        23.1790   33.8200   13.8120 C.ar  132  C132        0.3532
   2848  O2        22.5010   33.7730   12.7710 O.2   132  C132       -0.2443
   2849  N3        24.2180   34.6890   13.9430 N.ar  132  C132       -0.1739
   2850  C4        24.9310   34.7240   15.0720 C.ar  132  C132        0.1759
   2851  N4        25.9410   35.5970   15.1580 N.pl3 132  C132       -0.1070
   2852  C5        24.6350   33.8670   16.1760 C.ar  132  C132        0.0566
   2853  C6        23.6100   33.0140   16.0350 C.ar  132  C132        0.0850
   2854  OP1       23.4920   28.3600   19.7240 O.3   132  C132       -0.4373
   2855  OP2       24.7460   30.5750   19.5320 O.co2 132  C132       -0.5172
   2856  P         24.1900   27.9290   14.1520 P.3   133  A133        0.2141
   2857  C5'       23.4050   27.9560   11.6790 C.3   133  A133        0.1812
   2858  O5'       24.4320   28.2380   12.6010 O.3   133  A133       -0.3114
   2859  C4'       23.5830   28.7720   10.4220 C.3   133  A133        0.1773
   2860  O4'       23.4460   30.1760   10.7300 O.3   133  A133       -0.3307
   2861  C3'       24.9590   28.6650    9.7750 C.3   133  A133        0.1860
   2862  O3'       25.0120   27.5100    8.9750 O.3   133  A133       -0.3112
   2863  C2'       25.0110   29.9430    8.9500 C.3   133  A133        0.2309
   2864  O2'       24.2350   29.8700    7.7750 O.3   133  A133       -0.2156
   2865  C1'       24.3430   30.9150    9.9130 C.3   133  A133        0.2408
   2866  N1        27.7130   34.7800   10.2200 N.ar  133  A133       -0.2040
   2867  C2        26.9730   34.3300    9.1970 C.ar  133  A133        0.2016
   2868  N3        26.1130   33.3100    9.1950 N.ar  133  A133       -0.2048
   2869  C4        26.0510   32.7170   10.4030 C.ar  133  A133        0.1692
   2870  C5        26.7530   33.0660   11.5450 C.ar  133  A133        0.1518
   2871  C6        27.6220   34.1640   11.4260 C.ar  133  A133        0.1919
   2872  N6        28.3550   34.6050   12.4450 N.pl3 133  A133       -0.1054
   2873  N7        26.4370   32.2360   12.6120 N.ar  133  A133       -0.2193
   2874  C8        25.5570   31.4080   12.0930 C.ar  133  A133        0.1816
   2875  N9        25.2780   31.6430   10.7690 N.ar  133  A133       -0.2693
   2876  OP1       24.0250   26.4770   14.3700 O.2   133  A133       -0.5172
   2877  OP2       25.2340   28.6560   14.9090 O.co2 133  A133       -0.4373
   2878  P         26.2920   26.5630    8.9950 P.3   134  U134        0.2141
   2879  C5'       27.1120   27.3010    6.6410 C.3   134  U134        0.1812
   2880  O5'       27.3210   27.3270    8.0460 O.3   134  U134       -0.3114
   2881  C4'       27.8170   28.4810    6.0080 C.3   134  U134        0.1773
   2882  O4'       27.4760   29.7060    6.7120 O.3   134  U134       -0.3307
   2883  C3'       29.3340   28.4530    6.1030 C.3   134  U134        0.1860
   2884  O3'       29.8690   27.5730    5.1420 O.3   134  U134       -0.3112
   2885  C2'       29.6550   29.9160    5.8070 C.3   134  U134        0.2309
   2886  O2'       29.5280   30.2590    4.4410 O.3   134  U134       -0.2156
   2887  C1'       28.5650   30.6160    6.6180 C.3   134  U134        0.2420
   2888  N1        29.0050   31.0310    7.9960 N.ar  134  U134       -0.2534
   2889  C2        29.6790   32.2330    8.1660 C.ar  134  U134        0.3546
   2890  O2        29.9460   32.9970    7.2510 O.2   134  U134       -0.2443
   2891  N3        30.0300   32.5140    9.4720 N.ar  134  U134       -0.1530
   2892  C4        29.7860   31.7360   10.5890 C.ar  134  U134        0.2846
   2893  O4        30.1590   32.1140   11.6900 O.2   134  U134       -0.2650
   2894  C5        29.0920   30.5020   10.3310 C.ar  134  U134        0.0814
   2895  C6        28.7360   30.2040    9.0750 C.ar  134  U134        0.0870
   2896  OP1       25.8640   25.3060    8.3380 O.2   134  U134       -0.5172
   2897  OP2       26.9010   26.5440   10.3410 O.co2 134  U134       -0.4373
   2898  P         31.2530   26.8260    5.4290 P.3   135  A135        0.2141
   2899  C5'       32.5510   28.5870    3.9510 C.3   135  A135        0.1812
   2900  O5'       32.3480   27.9780    5.2310 O.3   135  A135       -0.3114
   2901  C4'       33.5490   29.7370    4.0210 C.3   135  A135        0.1773
   2902  O4'       32.9880   30.8560    4.7590 O.3   135  A135       -0.3307
   2903  C3'       34.8590   29.4320    4.7370 C.3   135  A135        0.1860
   2904  O3'       35.7690   28.7410    3.8670 O.3   135  A135       -0.3112
   2905  C2'       35.3070   30.8440    5.1120 C.3   135  A135        0.2309
   2906  O2'       35.8310   31.5760    4.0220 O.3   135  A135       -0.2156
   2907  C1'       33.9890   31.4660    5.5550 C.3   135  A135        0.2408
   2908  N1        34.6490   33.1750   10.4270 N.ar  135  A135       -0.2040
   2909  C2        35.1540   33.5990    9.2570 C.ar  135  A135        0.2016
   2910  N3        34.9410   33.1140    8.0290 N.ar  135  A135       -0.2048
   2911  C4        34.1070   32.0550    8.0470 C.ar  135  A135        0.1692
   2912  C5        33.5140   31.5040    9.1750 C.ar  135  A135        0.1518
   2913  C6        33.8130   32.1120   10.4180 C.ar  135  A135        0.1919
   2914  N6        33.3090   31.6830   11.5770 N.pl3 135  A135       -0.1054
   2915  N7        32.7150   30.4250    8.8350 N.ar  135  A135       -0.2193
   2916  C8        32.8380   30.3500    7.5290 C.ar  135  A135        0.1816
   2917  N9        33.6640   31.2960    6.9780 N.ar  135  A135       -0.2693
   2918  OP1       31.4180   25.8250    4.3490 O.2   135  A135       -0.5172
   2919  OP2       31.2780   26.4000    6.8460 O.co2 135  A135       -0.4373
   2920  P         36.8500   27.6890    4.4270 P.3   136  C136        0.2141
   2921  C5'       38.7770   29.4570    4.3430 C.3   136  C136        0.1812
   2922  O5'       37.8960   28.6640    5.1410 O.3   136  C136       -0.3114
   2923  C4'       39.4250   30.5370    5.1840 C.3   136  C136        0.1773
   2924  O4'       38.4070   31.2940    5.8800 O.3   136  C136       -0.3307
   2925  C3'       40.2980   30.0200    6.3120 C.3   136  C136        0.1860
   2926  O3'       41.5700   29.6570    5.8140 O.3   136  C136       -0.3112
   2927  C2'       40.3290   31.2300    7.2390 C.3   136  C136        0.2309
   2928  O2'       41.1370   32.2930    6.7720 O.3   136  C136       -0.2156
   2929  C1'       38.8670   31.6530    7.1730 C.3   136  C136        0.2420
   2930  N1        37.9960   31.0440    8.2420 N.ar  136  C136       -0.2535
   2931  C2        38.0250   31.5540    9.5550 C.ar  136  C136        0.3532
   2932  O2        38.7630   32.5050    9.8320 O.2   136  C136       -0.2443
   2933  N3        37.2300   30.9930   10.5010 N.ar  136  C136       -0.1739
   2934  C4        36.4370   29.9630   10.1800 C.ar  136  C136        0.1759
   2935  N4        35.6730   29.4370   11.1340 N.pl3 136  C136       -0.1070
   2936  C5        36.3900   29.4230    8.8590 C.ar  136  C136        0.0566
   2937  C6        37.1750   29.9920    7.9370 C.ar  136  C136        0.0850
   2938  OP1       37.5060   27.0510    3.2640 O.2   136  C136       -0.5172
   2939  OP2       36.2340   26.8120    5.4470 O.co2 136  C136       -0.4373
   2940  P         42.2860   28.3180    6.3170 P.3   137  C137        0.2141
   2941  C5'       43.8220   29.7690    7.9050 C.3   137  C137        0.1812
   2942  O5'       42.8020   28.7570    7.7720 O.3   137  C137       -0.3114
   2943  C4'       43.9230   30.3460    9.3110 C.3   137  C137        0.1773
   2944  O4'       42.6620   30.9430    9.7050 O.3   137  C137       -0.3307
   2945  C3'       44.1800   29.3600   10.4420 C.3   137  C137        0.1860
   2946  O3'       45.5340   28.9270   10.4900 O.3   137  C137       -0.3112
   2947  C2'       43.7630   30.1990   11.6450 C.3   137  C137        0.2309
   2948  O2'       44.6860   31.2240   11.9630 O.3   137  C137       -0.2156
   2949  C1'       42.4620   30.7880   11.1060 C.3   137  C137        0.2420
   2950  N1        41.2430   29.9260   11.3890 N.ar  137  C137       -0.2535
   2951  C2        40.6740   29.8960   12.6800 C.ar  137  C137        0.3532
   2952  O2        41.1620   30.5740   13.5920 O.2   137  C137       -0.2443
   2953  N3        39.5830   29.1160   12.9090 N.ar  137  C137       -0.1739
   2954  C4        39.0540   28.3860   11.9220 C.ar  137  C137        0.1759
   2955  N4        37.9840   27.6380   12.2050 N.pl3 137  C137       -0.1070
   2956  C5        39.6100   28.3930   10.6050 C.ar  137  C137        0.0566
   2957  C6        40.6850   29.1680   10.3880 C.ar  137  C137        0.0850
   2958  OP1       43.4470   28.0950    5.4290 O.2   137  C137       -0.5172
   2959  OP2       41.2810   27.2410    6.4620 O.co2 137  C137       -0.4373
   2960  P         45.8960   27.4860    9.9020 P.3   138  A138        0.2141
   2961  C5'       46.5680   26.1520   12.0580 C.3   138  A138        0.1812
   2962  O5'       46.9680   26.9340   10.9480 O.3   138  A138       -0.3114
   2963  C4'       46.6690   26.9660   13.3280 C.3   138  A138        0.1773
   2964  O4'       45.7070   28.0510   13.2930 O.3   138  A138       -0.3307
   2965  C3'       46.3320   26.1800   14.5840 C.3   138  A138        0.1860
   2966  O3'       47.5140   25.6390   15.1010 O.3   138  A138       -0.3112
   2967  C2'       45.7780   27.2720   15.4950 C.3   138  A138        0.2309
   2968  O2'       46.7990   28.0800   16.0600 O.3   138  A138       -0.2156
   2969  C1'       44.9440   28.0610   14.4910 C.3   138  A138        0.2408
   2970  N1        40.3030   26.8060   16.4470 N.ar  138  A138       -0.2040
   2971  C2        41.3840   27.3700   17.0040 C.ar  138  A138        0.2016
   2972  N3        42.5590   27.6700   16.4410 N.ar  138  A138       -0.2048
   2973  C4        42.5790   27.3320   15.1380 C.ar  138  A138        0.1692
   2974  C5        41.5450   26.7460   14.4270 C.ar  138  A138        0.1518
   2975  C6        40.3560   26.4760   15.1380 C.ar  138  A138        0.1919
   2976  N6        39.2800   25.9160   14.5740 N.pl3 138  A138       -0.1054
   2977  N7        41.9110   26.5350   13.1040 N.ar  138  A138       -0.2193
   2978  C8        43.1430   26.9910   13.0480 C.ar  138  A138        0.1816
   2979  N9        43.6150   27.4880   14.2370 N.ar  138  A138       -0.2693
   2980  OP1       46.5760   27.6960    8.6010 O.2   138  A138       -0.5172
   2981  OP2       44.6720   26.6520    9.9700 O.co2 138  A138       -0.4373
   2982  P         47.5540   24.1740   15.7110 P.3   139  C139        0.2141
   2983  C5'       46.9040   25.0070   18.1040 C.3   139  C139        0.1812
   2984  O5'       46.5550   24.2720   16.9510 O.3   139  C139       -0.3114
   2985  C4'       45.7280   25.0120   19.0540 C.3   139  C139        0.1773
   2986  O4'       44.5590   25.5700   18.4100 O.3   139  C139       -0.3307
   2987  C3'       45.2430   23.6440   19.4830 C.3   139  C139        0.1860
   2988  O3'       46.1120   23.1120   20.4700 O.3   139  C139       -0.3112
   2989  C2'       43.8880   24.0300   20.0490 C.3   139  C139        0.2309
   2990  O2'       44.0050   24.6930   21.2910 O.3   139  C139       -0.2156
   2991  C1'       43.3930   25.0040   18.9830 C.3   139  C139        0.2420
   2992  N1        42.5480   24.3590   17.9070 N.ar  139  C139       -0.2535
   2993  C2        41.2250   23.9660   18.1760 C.ar  139  C139        0.3532
   2994  O2        40.7440   24.1550   19.3000 O.2   139  C139       -0.2443
   2995  N3        40.4910   23.3860   17.1860 N.ar  139  C139       -0.1739
   2996  C4        41.0160   23.1900   15.9740 C.ar  139  C139        0.1759
   2997  N4        40.2500   22.6130   15.0450 N.pl3 139  C139       -0.1070
   2998  C5        42.3550   23.5770   15.6710 C.ar  139  C139        0.0566
   2999  C6        43.0680   24.1490   16.6540 C.ar  139  C139        0.0850
   3000  OP1       48.9340   23.9690   16.1940 O.3   139  C139       -0.4373
   3001  OP2       46.9700   23.2200   14.7420 O.co2 139  C139       -0.5172
   3002  P         46.5130   21.5660   20.4180 P.3   140  U140        0.2141
   3003  C5'       44.6540   21.0000   22.1660 C.3   140  U140        0.1812
   3004  O5'       45.1320   20.8720   20.8230 O.3   140  U140       -0.3114
   3005  C4'       43.2100   20.5590   22.2870 C.3   140  U140        0.1773
   3006  O4'       42.4100   21.2840   21.3310 O.3   140  U140       -0.3307
   3007  C3'       42.9380   19.1090   21.9290 C.3   140  U140        0.1860
   3008  O3'       43.3240   18.2480   22.9990 O.3   140  U140       -0.3112
   3009  C2'       41.4340   19.1650   21.6830 C.3   140  U140        0.2309
   3010  O2'       40.6600   19.2890   22.8600 O.3   140  U140       -0.2156
   3011  C1'       41.3330   20.4700   20.8970 C.3   140  U140        0.2420
   3012  N1        41.4090   20.2830   19.4180 N.ar  140  U140       -0.2534
   3013  C2        40.3280   19.7350   18.7540 C.ar  140  U140        0.3546
   3014  O2        39.2910   19.3960   19.3040 O.2   140  U140       -0.2443
   3015  N3        40.5000   19.6000   17.3970 N.ar  140  U140       -0.1530
   3016  C4        41.6180   19.9440   16.6600 C.ar  140  U140        0.2846
   3017  O4        41.6250   19.7630   15.4500 O.2   140  U140       -0.2650
   3018  C5        42.7040   20.5040   17.4250 C.ar  140  U140        0.0814
   3019  C6        42.5590   20.6510   18.7440 C.ar  140  U140        0.0870
   3020  OP1       47.5250   21.3230   21.4690 O.3   140  U140       -0.4373
   3021  OP2       46.8030   21.1530   19.0320 O.co2 140  U140       -0.5172
   3022  P         44.1690   16.9160   22.7240 P.3   141  G141        0.2141
   3023  C5'       42.0840   15.6210   23.6380 C.3   141  G141        0.1812
   3024  O5'       43.0140   15.8290   22.5850 O.3   141  G141       -0.3114
   3025  C4'       40.8130   15.0100   23.0940 C.3   141  G141        0.1773
   3026  O4'       40.1780   15.9420   22.1800 O.3   141  G141       -0.3307
   3027  C3'       41.0220   13.7800   22.2300 C.3   141  G141        0.1860
   3028  O3'       41.3060   12.6170   23.0080 O.3   141  G141       -0.3112
   3029  C2'       39.6990   13.7320   21.4720 C.3   141  G141        0.2309
   3030  O2'       38.6150   13.1950   22.2060 O.3   141  G141       -0.2156
   3031  C1'       39.4690   15.2150   21.1970 C.3   141  G141        0.2408
   3032  N1        38.3760   15.0720   16.2270 N.ar  141  G141       -0.1709
   3033  C2        37.6500   14.6070   17.3010 C.ar  141  G141        0.2606
   3034  N2        36.4740   14.0150   17.0380 N.pl3 141  G141       -0.0859
   3035  N3        38.0530   14.7120   18.5620 N.ar  141  G141       -0.1918
   3036  C4        39.2560   15.3220   18.6800 C.ar  141  G141        0.1723
   3037  C5        40.0500   15.8190   17.6800 C.ar  141  G141        0.1748
   3038  C6        39.6120   15.7000   16.3390 C.ar  141  G141        0.3023
   3039  O6        40.1880   16.0830   15.3220 O.2   141  G141       -0.2633
   3040  N7        41.2090   16.3710   18.2100 N.ar  141  G141       -0.2173
   3041  C8        41.0980   16.2040   19.5010 C.ar  141  G141        0.1817
   3042  N9        39.9290   15.5760   19.8570 N.ar  141  G141       -0.2693
   3043  OP1       44.9560   16.6570   23.9490 O.3   141  G141       -0.4373
   3044  OP2       44.8690   16.9870   21.4230 O.co2 141  G141       -0.5172
   3045  P         42.2850   11.4980   22.4050 P.3   142  U142        0.2141
   3046  C5'       40.2630   10.0720   21.4960 C.3   142  U142        0.1812
   3047  O5'       41.4020   10.8740   21.2310 O.3   142  U142       -0.3114
   3048  C4'       39.6000    9.7540   20.1760 C.3   142  U142        0.1773
   3049  O4'       39.2910   10.9950   19.5030 O.3   142  U142       -0.3307
   3050  C3'       40.4840    9.0520   19.1600 C.3   142  U142        0.1860
   3051  O3'       40.5710    7.6680   19.4380 O.3   142  U142       -0.3112
   3052  C2'       39.7130    9.3400   17.8790 C.3   142  U142        0.2309
   3053  O2'       38.5440    8.5560   17.7390 O.3   142  U142       -0.2156
   3054  C1'       39.3400   10.8000   18.1030 C.3   142  U142        0.2420
   3055  N1        40.3180   11.7490   17.4980 N.ar  142  U142       -0.2534
   3056  C2        40.2700   11.9980   16.1330 C.ar  142  U142        0.3546
   3057  O2        39.4640   11.4690   15.3840 O.2   142  U142       -0.2443
   3058  N3        41.2130   12.8930   15.6660 N.ar  142  U142       -0.1530
   3059  C4        42.1820   13.5430   16.4170 C.ar  142  U142        0.2846
   3060  O4        42.9720   14.3160   15.8750 O.2   142  U142       -0.2650
   3061  C5        42.1630   13.2300   17.8300 C.ar  142  U142        0.0814
   3062  C6        41.2560   12.3700   18.3080 C.ar  142  U142        0.0870
   3063  OP1       42.5520   10.4630   23.4230 O.3   142  U142       -0.4373
   3064  OP2       43.4250   12.2020   21.7610 O.co2 142  U142       -0.5172
   3065  P         41.9910    6.9490   19.5280 P.3   143  C143        0.2141
   3066  C5'       41.3240    5.2260   17.6820 C.3   143  C143        0.1812
   3067  O5'       42.1540    6.2900   18.0870 O.3   143  C143       -0.3114
   3068  C4'       40.8940    5.4090   16.2410 C.3   143  C143        0.1773
   3069  O4'       40.5060    6.7840   16.0500 O.3   143  C143       -0.3307
   3070  C3'       41.9700    5.2020   15.1930 C.3   143  C143        0.1860
   3071  O3'       42.1180    3.8310   14.8920 O.3   143  C143       -0.3112
   3072  C2'       41.4170    5.9920   14.0110 C.3   143  C143        0.2309
   3073  O2'       40.4070    5.3250   13.2820 O.3   143  C143       -0.2156
   3074  C1'       40.7950    7.1830   14.7200 C.3   143  C143        0.2420
   3075  N1        41.6830    8.3780   14.7270 N.ar  143  C143       -0.2535
   3076  C2        41.6900    9.2390   13.6180 C.ar  143  C143        0.3532
   3077  O2        40.9620    9.0060   12.6390 O.2   143  C143       -0.2443
   3078  N3        42.5050   10.3240   13.6480 N.ar  143  C143       -0.1739
   3079  C4        43.2840   10.5630   14.7000 C.ar  143  C143        0.1759
   3080  N4        44.0660   11.6490   14.6640 N.pl3 143  C143       -0.1070
   3081  C5        43.2970    9.6960   15.8310 C.ar  143  C143        0.0566
   3082  C6        42.4920    8.6280   15.8010 C.ar  143  C143        0.0850
   3083  OP1       41.8720    5.9110   20.5700 O.3   143  C143       -0.4373
   3084  OP2       43.0540    7.9690   19.6300 O.co2 143  C143       -0.5172
   3085  P         43.5580    3.2760   14.4470 P.3   144  A144        0.2141
   3086  C5'       42.9110    3.3380   11.8910 C.3   144  A144        0.1812
   3087  O5'       43.7100    3.8410   12.9560 O.3   144  A144       -0.3114
   3088  C4'       43.1290    4.1340   10.6180 C.3   144  A144        0.1773
   3089  O4'       42.6930    5.5010   10.8070 O.3   144  A144       -0.3307
   3090  C3'       44.5710    4.2940   10.1740 C.3   144  A144        0.1860
   3091  O3'       45.0210    3.1160    9.5360 O.3   144  A144       -0.3112
   3092  C2'       44.4370    5.4800    9.2220 C.3   144  A144        0.2309
   3093  O2'       43.8770    5.1570    7.9600 O.3   144  A144       -0.2156
   3094  C1'       43.4840    6.3700   10.0150 C.3   144  A144        0.2408
   3095  N1        46.2020   10.7570   10.5370 N.ar  144  A144       -0.2040
   3096  C2        45.6920   10.1580    9.4500 C.ar  144  A144        0.2016
   3097  N3        44.9920    9.0250    9.3740 N.ar  144  A144       -0.2048
   3098  C4        44.8260    8.4710   10.5870 C.ar  144  A144        0.1692
   3099  C5        45.2980    8.9720   11.7940 C.ar  144  A144        0.1518
   3100  C6        46.0200   10.1800   11.7480 C.ar  144  A144        0.1919
   3101  N6        46.5240   10.7630   12.8390 N.pl3 144  A144       -0.1054
   3102  N7        44.9510    8.1450   12.8490 N.ar  144  A144       -0.2193
   3103  C8        44.2850    7.1780   12.2690 C.ar  144  A144        0.1816
   3104  N9        44.1680    7.3030   10.9070 N.ar  144  A144       -0.2693
   3105  OP1       43.4560    1.7980   14.4170 O.2   144  A144       -0.5172
   3106  OP2       44.5940    3.9170   15.2790 O.co2 144  A144       -0.4373
   3107  P         46.4910    2.5330    9.8020 P.3   145  C145        0.2141
   3108  C5'       47.0450    3.4470    7.3830 C.3   145  C145        0.1812
   3109  O5'       47.3630    3.3990    8.7800 O.3   145  C145       -0.3114
   3110  C4'       47.6960    4.6580    6.7350 C.3   145  C145        0.1773
   3111  O4'       47.0780    5.8800    7.2270 O.3   145  C145       -0.3307
   3112  C3'       49.1660    4.8850    7.0670 C.3   145  C145        0.1860
   3113  O3'       50.0290    3.9760    6.4050 O.3   145  C145       -0.3112
   3114  C2'       49.3210    6.3410    6.6340 C.3   145  C145        0.2309
   3115  O2'       49.3090    6.5420    5.2340 O.3   145  C145       -0.2156
   3116  C1'       48.0510    6.9200    7.2600 C.3   145  C145        0.2420
   3117  N1        48.2740    7.3930    8.6740 N.ar  145  C145       -0.2535
   3118  C2        48.8870    8.6350    8.9000 C.ar  145  C145        0.3532
   3119  O2        49.2280    9.3300    7.9360 O.2   145  C145       -0.2443
   3120  N3        49.0880    9.0490   10.1800 N.ar  145  C145       -0.1739
   3121  C4        48.7160    8.2730   11.2090 C.ar  145  C145        0.1759
   3122  N4        48.9350    8.7150   12.4510 N.pl3 145  C145       -0.1070
   3123  C5        48.0950    7.0020   11.0040 C.ar  145  C145        0.0566
   3124  C6        47.9000    6.6130    9.7370 C.ar  145  C145        0.0850
   3125  OP1       46.4920    1.1200    9.3690 O.2   145  C145       -0.5172
   3126  OP2       46.9380    2.8800   11.1720 O.co2 145  C145       -0.4373
   3127  P         51.3220    3.4020    7.1630 P.3   146  G146        0.2141
   3128  C5'       52.9050    5.0620    5.8520 C.3   146  G146        0.1812
   3129  O5'       52.3510    4.6270    7.1000 O.3   146  G146       -0.3114
   3130  C4'       53.7450    6.3250    5.9980 C.3   146  G146        0.1773
   3131  O4'       52.9280    7.4460    6.4320 O.3   146  G146       -0.3307
   3132  C3'       54.8470    6.2830    7.0440 C.3   146  G146        0.1860
   3133  O3'       55.9880    5.5700    6.5930 O.3   146  G146       -0.3112
   3134  C2'       55.1300    7.7690    7.2090 C.3   146  G146        0.2309
   3135  O2'       55.9080    8.3200    6.1650 O.3   146  G146       -0.2156
   3136  C1'       53.7120    8.3350    7.2120 C.3   146  G146        0.2408
   3137  N1        53.8550   10.8300   11.6640 N.ar  146  G146       -0.1709
   3138  C2        54.5400   11.0930   10.4940 C.ar  146  G146        0.2606
   3139  N2        55.3660   12.1470   10.4980 N.pl3 146  G146       -0.0859
   3140  N3        54.4210   10.3650    9.3890 N.ar  146  G146       -0.1918
   3141  C4        53.5430    9.3380    9.5430 C.ar  146  G146        0.1723
   3142  C5        52.8150    8.9990   10.6660 C.ar  146  G146        0.1748
   3143  C6        52.9510    9.7770   11.8410 C.ar  146  G146        0.3023
   3144  O6        52.3800    9.6140   12.9300 O.2   146  G146       -0.2633
   3145  N7        52.0310    7.8790   10.4330 N.ar  146  G146       -0.2173
   3146  C8        52.2910    7.5710    9.1910 C.ar  146  G146        0.1817
   3147  N9        53.1940    8.4140    8.5800 N.ar  146  G146       -0.2693
   3148  OP1       51.8220    2.2750    6.3500 O.2   146  G146       -0.5172
   3149  OP2       51.0030    3.1760    8.5920 O.co2 146  G146       -0.4373
   3150  P         56.7820    4.6170    7.6110 P.3   147  G147        0.2141
   3151  C5'       58.5340    6.4680    8.0730 C.3   147  G147        0.1812
   3152  O5'       57.4830    5.6650    8.5870 O.3   147  G147       -0.3114
   3153  C4'       58.7950    7.6560    8.9760 C.3   147  G147        0.1773
   3154  O4'       57.5450    8.2860    9.3390 O.3   147  G147       -0.3307
   3155  C3'       59.3980    7.3390   10.3340 C.3   147  G147        0.1860
   3156  O3'       60.7720    7.0160   10.2280 O.3   147  G147       -0.3112
   3157  C2'       59.1590    8.6790   11.0190 C.3   147  G147        0.2309
   3158  O2'       60.0420    9.6990   10.5840 O.3   147  G147       -0.2156
   3159  C1'       57.7210    8.9580   10.5740 C.3   147  G147        0.2408
   3160  N1        55.7410    9.6520   15.2000 N.ar  147  G147       -0.1709
   3161  C2        56.7560   10.3290   14.5600 C.ar  147  G147        0.2606
   3162  N2        57.3440   11.3320   15.2310 N.pl3 147  G147       -0.0859
   3163  N3        57.1740   10.0400   13.3380 N.ar  147  G147       -0.1918
   3164  C4        56.4910    9.0060   12.7870 C.ar  147  G147        0.1723
   3165  C5        55.4640    8.2640   13.3340 C.ar  147  G147        0.1748
   3166  C6        55.0230    8.5880   14.6500 C.ar  147  G147        0.3023
   3167  O6        54.1240    8.0620   15.3180 O.2   147  G147       -0.2633
   3168  N7        55.0360    7.2900   12.4370 N.ar  147  G147       -0.2173
   3169  C8        55.8000    7.4610   11.3910 C.ar  147  G147        0.1817
   3170  N9        56.7120    8.4870   11.5320 N.ar  147  G147       -0.2693
   3171  OP1       57.8070    3.9040    6.8140 O.2   147  G147       -0.5172
   3172  OP2       55.8160    3.8390    8.4150 O.co2 147  G147       -0.4373
   3173  P         61.4730    6.0550   11.2990 P.3   148  A148        0.2141
   3174  C5'       62.8720    8.0060   12.3980 C.3   148  A148        0.1812
   3175  O5'       61.8240    7.0480   12.5060 O.3   148  A148       -0.3114
   3176  C4'       62.9790    8.8410   13.6610 C.3   148  A148        0.1773
   3177  O4'       61.7720    9.6240   13.8600 O.3   148  A148       -0.3307
   3178  C3'       63.1080    8.0530   14.9540 C.3   148  A148        0.1860
   3179  O3'       64.4390    7.6260   15.1710 O.3   148  A148       -0.3112
   3180  C2'       62.6450    9.0770   15.9840 C.3   148  A148        0.2309
   3181  O2'       63.6400   10.0370   16.2800 O.3   148  A148       -0.2156
   3182  C1'       61.4560    9.6830   15.2450 C.3   148  A148        0.2408
   3183  N1        57.6850    8.5320   18.6190 N.ar  148  A148       -0.2040
   3184  C2        58.7430    9.3530   18.7160 C.ar  148  A148        0.2016
   3185  N3        59.6860    9.6060   17.8030 N.ar  148  A148       -0.2048
   3186  C4        59.4710    8.9160   16.6630 C.ar  148  A148        0.1692
   3187  C5        58.4270    8.0400   16.4190 C.ar  148  A148        0.1518
   3188  C6        57.4960    7.8540   17.4620 C.ar  148  A148        0.1919
   3189  N6        56.4450    7.0380   17.3540 N.pl3 148  A148       -0.1054
   3190  N7        58.5140    7.5110   15.1470 N.ar  148  A148       -0.2193
   3191  C8        59.5920    8.0610   14.6490 C.ar  148  A148        0.1816
   3192  N9        60.2240    8.9270   15.5040 N.ar  148  A148       -0.2693
   3193  OP1       62.7050    5.5630   10.6470 O.2   148  A148       -0.5172
   3194  OP2       60.4930    5.0960   11.8530 O.co2 148  A148       -0.4373
   3195  P         64.6710    6.2430   15.9310 P.3   149  G149        0.2141
   3196  C5'       65.1660    7.3290   18.2440 C.3   149  G149        0.1812
   3197  O5'       64.2680    6.5680   17.4450 O.3   149  G149       -0.3114
   3198  C4'       64.5100    7.7950   19.5260 C.3   149  G149        0.1773
   3199  O4'       63.2050    8.3520   19.2310 O.3   149  G149       -0.3307
   3200  C3'       64.2090    6.7060   20.5430 C.3   149  G149        0.1860
   3201  O3'       65.3720    6.3520   21.2770 O.3   149  G149       -0.3112
   3202  C2'       63.1390    7.3990   21.3850 C.3   149  G149        0.2309
   3203  O2'       63.6230    8.3990   22.2640 O.3   149  G149       -0.2156
   3204  C1'       62.3060    8.0390   20.2790 C.3   149  G149        0.2408
   3205  N1        57.8870    5.7610   21.3730 N.ar  149  G149       -0.1709
   3206  C2        58.6630    6.5990   22.1490 C.ar  149  G149        0.2606
   3207  N2        58.2310    6.8800   23.3820 N.pl3 149  G149       -0.0859
   3208  N3        59.8050    7.1310   21.7440 N.ar  149  G149       -0.1918
   3209  C4        60.1270    6.7620   20.4780 C.ar  149  G149        0.1723
   3210  C5        59.4290    5.9400   19.6210 C.ar  149  G149        0.1748
   3211  C6        58.2050    5.3750   20.0620 C.ar  149  G149        0.3023
   3212  O6        57.4540    4.6180   19.4270 O.2   149  G149       -0.2633
   3213  N7        60.0920    5.8140   18.4040 N.ar  149  G149       -0.2173
   3214  C8        61.1570    6.5480   18.5510 C.ar  149  G149        0.1817
   3215  N9        61.2460    7.1570   19.7830 N.ar  149  G149       -0.2693
   3216  OP1       66.1210    5.9410   15.8830 O.3   149  G149       -0.4373
   3217  OP2       63.6830    5.2840   15.3860 O.co2 149  G149       -0.5172
   3218  P         65.7290    4.8130   21.5340 P.3   150  G150        0.2141
   3219  C5'       64.5600    4.8170   23.9080 C.3   150  G150        0.1812
   3220  O5'       64.5960    4.3480   22.5600 O.3   150  G150       -0.3114
   3221  C4'       63.2000    4.5440   24.5310 C.3   150  G150        0.1773
   3222  O4'       62.1580    5.0680   23.6690 O.3   150  G150       -0.3307
   3223  C3'       62.8440    3.0730   24.6920 C.3   150  G150        0.1860
   3224  O3'       63.3420    2.5600   25.9200 O.3   150  G150       -0.3112
   3225  C2'       61.3190    3.0980   24.6540 C.3   150  G150        0.2309
   3226  O2'       60.7340    3.5010   25.8750 O.3   150  G150       -0.2156
   3227  C1'       61.0610    4.1650   23.6030 C.3   150  G150        0.2408
   3228  N1        58.1390    1.6110   20.2090 N.ar  150  G150       -0.1709
   3229  C2        57.8940    1.8730   21.5410 C.ar  150  G150        0.2606
   3230  N2        56.7360    1.4030   22.0210 N.pl3 150  G150       -0.0859
   3231  N3        58.7230    2.5460   22.3430 N.ar  150  G150       -0.1918
   3232  C4        59.8480    2.9480   21.6960 C.ar  150  G150        0.1723
   3233  C5        60.1800    2.7310   20.3700 C.ar  150  G150        0.1748
   3234  C6        59.2870    2.0170   19.5260 C.ar  150  G150        0.3023
   3235  O6        59.4220    1.7370   18.3240 O.2   150  G150       -0.2633
   3236  N7        61.4120    3.2960   20.0770 N.ar  150  G150       -0.2173
   3237  C8        61.7950    3.8330   21.1990 C.ar  150  G150        0.1817
   3238  N9        60.9030    3.6640   22.2320 N.ar  150  G150       -0.2693
   3239  OP1       67.0400    4.7700   22.2090 O.3   150  G150       -0.4373
   3240  OP2       65.5230    4.0520   20.2830 O.co2 150  G150       -0.5172
   3241  P         64.0950    1.1460   25.9650 P.3   151  U151        0.2141
   3242  C5'       61.7330    0.1760   26.7820 C.3   151  U151        0.1812
   3243  O5'       62.9270    0.0440   25.9970 O.3   151  U151       -0.3114
   3244  C4'       60.5350   -0.4660   26.0850 C.3   151  U151        0.1773
   3245  O4'       60.4130    0.0140   24.7170 O.3   151  U151       -0.3307
   3246  C3'       60.5720   -1.9970   26.0020 C.3   151  U151        0.1860
   3247  O3'       59.2910   -2.5700   26.2970 O.3   151  U151       -0.3112
   3248  C2'       60.9630   -2.2480   24.5430 C.3   151  U151        0.2309
   3249  O2'       60.5040   -3.4830   24.0270 O.3   151  U151       -0.2156
   3250  C1'       60.2560   -1.0900   23.8460 C.3   151  U151        0.2420
   3251  N1        60.8080   -0.7870   22.4800 N.ar  151  U151       -0.2534
   3252  C2        60.0230   -1.0260   21.3590 C.ar  151  U151        0.3546
   3253  O2        58.8860   -1.4710   21.4050 O.2   151  U151       -0.2443
   3254  N3        60.6280   -0.7220   20.1570 N.ar  151  U151       -0.1530
   3255  C4        61.9060   -0.2140   19.9630 C.ar  151  U151        0.2846
   3256  O4        62.3120    0.0130   18.8240 O.2   151  U151       -0.2650
   3257  C5        62.6600    0.0040   21.1750 C.ar  151  U151        0.0814
   3258  C6        62.0950   -0.2850   22.3570 C.ar  151  U151        0.0870
   3259  OP1       64.8320    1.1100   27.2460 O.3   151  U151       -0.4373
   3260  OP2       64.8250    0.9580   24.6890 O.co2 151  U151       -0.5172
   3261  P         58.6910   -2.7280   27.7770 P.3   152  C152        0.2141
   3262  C5'       56.1330   -2.2190   28.2940 C.3   152  C152        0.1812
   3263  O5'       57.3430   -1.8690   27.6190 O.3   152  C152       -0.3114
   3264  C4'       54.9680   -2.5560   27.3620 C.3   152  C152        0.1773
   3265  O4'       55.3910   -2.9010   26.0060 O.3   152  C152       -0.3307
   3266  C3'       54.1250   -3.7450   27.8270 C.3   152  C152        0.1860
   3267  O3'       52.7620   -3.5620   27.4380 O.3   152  C152       -0.3112
   3268  C2'       54.7700   -4.8810   27.0430 C.3   152  C152        0.2309
   3269  O2'       53.9710   -6.0460   26.9890 O.3   152  C152       -0.2156
   3270  C1'       54.8650   -4.1830   25.6860 C.3   152  C152        0.2420
   3271  N1        55.7030   -4.9130   24.6630 N.ar  152  C152       -0.2535
   3272  C2        55.1390   -5.9440   23.8760 C.ar  152  C152        0.3532
   3273  O2        53.9490   -6.2600   24.0010 O.2   152  C152       -0.2443
   3274  N3        55.9230   -6.5790   22.9670 N.ar  152  C152       -0.1739
   3275  C4        57.2080   -6.2370   22.8290 C.ar  152  C152        0.1759
   3276  N4        57.9380   -6.8920   21.9210 N.pl3 152  C152       -0.1070
   3277  C5        57.8020   -5.2010   23.6140 C.ar  152  C152        0.0566
   3278  C6        57.0220   -4.5750   24.5060 C.ar  152  C152        0.0850
   3279  OP1       59.5770   -2.0480   28.7530 O.3   152  C152       -0.4373
   3280  OP2       58.3640   -4.1600   27.9720 O.co2 152  C152       -0.5172
   3281  P         51.6660   -2.8990   28.4000 P.3   153  U153        0.2141
   3282  C5'       51.2860   -0.3950   27.5620 C.3   153  U153        0.1812
   3283  O5'       50.9850   -1.7910   27.4530 O.3   153  U153       -0.3114
   3284  C4'       51.7600    0.1840   26.2370 C.3   153  U153        0.1773
   3285  O4'       52.8010   -0.6460   25.6510 O.3   153  U153       -0.3307
   3286  C3'       50.6940    0.3550   25.1450 C.3   153  U153        0.1860
   3287  O3'       50.6620    1.7190   24.7210 O.3   153  U153       -0.3112
   3288  C2'       51.1950   -0.5330   24.0090 C.3   153  U153        0.2309
   3289  O2'       50.8910   -0.0230   22.7250 O.3   153  U153       -0.2156
   3290  C1'       52.6960   -0.4360   24.2590 C.3   153  U153        0.2420
   3291  N1        53.5830   -1.3620   23.4670 N.ar  153  U153       -0.2534
   3292  C2        54.9310   -1.0580   23.3520 C.ar  153  U153        0.3546
   3293  O2        55.4460   -0.0810   23.8700 O.2   153  U153       -0.2443
   3294  N3        55.6710   -1.9480   22.6050 N.ar  153  U153       -0.1530
   3295  C4        55.2080   -3.0870   21.9670 C.ar  153  U153        0.2846
   3296  O4        55.9850   -3.7900   21.3290 O.2   153  U153       -0.2650
   3297  C5        53.7970   -3.3360   22.1300 C.ar  153  U153        0.0814
   3298  C6        53.0540   -2.4860   22.8520 C.ar  153  U153        0.0870
   3299  OP1       52.3590   -2.2680   29.5510 O.3   153  U153       -0.4373
   3300  OP2       50.6400   -3.9350   28.6540 O.co2 153  U153       -0.5172
   3301  P         49.3310    2.6140   24.7500 P.3   154  C154        0.2141
   3302  C5'       50.3370    4.1030   26.6640 C.3   154  C154        0.1812
   3303  O5'       49.8960    4.0080   25.3070 O.3   154  C154       -0.3114
   3304  C4'       51.6680    4.8230   26.8000 C.3   154  C154        0.1773
   3305  O4'       52.7870    3.9830   26.4030 O.3   154  C154       -0.3307
   3306  C3'       51.8530    6.0550   25.9320 C.3   154  C154        0.1860
   3307  O3'       51.1090    7.1290   26.4530 O.3   154  C154       -0.3112
   3308  C2'       53.3560    6.2450   26.0940 C.3   154  C154        0.2309
   3309  O2'       53.7270    6.7080   27.3830 O.3   154  C154       -0.2156
   3310  C1'       53.8210    4.8060   25.8770 C.3   154  C154        0.2420
   3311  N1        54.1040    4.4700   24.4180 N.ar  154  C154       -0.2535
   3312  C2        55.3160    4.8560   23.8090 C.ar  154  C154        0.3532
   3313  O2        56.1730    5.4720   24.4510 O.2   154  C154       -0.2443
   3314  N3        55.5300    4.5400   22.5050 N.ar  154  C154       -0.1739
   3315  C4        54.6050    3.8730   21.8090 C.ar  154  C154        0.1759
   3316  N4        54.8630    3.5830   20.5320 N.pl3 154  C154       -0.1070
   3317  C5        53.3700    3.4700   22.3950 C.ar  154  C154        0.0566
   3318  C6        53.1690    3.7870   23.6820 C.ar  154  C154        0.0850
   3319  OP1       48.3900    2.0220   25.7390 O.3   154  C154       -0.4373
   3320  OP2       48.8980    2.8360   23.3500 O.co2 154  C154       -0.5172
   3321  P         50.6080    8.3090   25.5000 P.3   155  U155        0.2141
   3322  C5'       52.5250    9.9520   26.2120 C.3   155  U155        0.1812
   3323  O5'       51.9540    9.1240   25.2010 O.3   155  U155       -0.3114
   3324  C4'       53.8980   10.4590   25.8180 C.3   155  U155        0.1773
   3325  O4'       54.7240    9.3520   25.3760 O.3   155  U155       -0.3307
   3326  C3'       53.9290   11.4010   24.6260 C.3   155  U155        0.1860
   3327  O3'       53.5310   12.7180   24.9700 O.3   155  U155       -0.3112
   3328  C2'       55.3990   11.2980   24.2230 C.3   155  U155        0.2309
   3329  O2'       56.3010   11.9780   25.0820 O.3   155  U155       -0.2156
   3330  C1'       55.5980    9.7910   24.3450 C.3   155  U155        0.2420
   3331  N1        55.3580    9.0240   23.0630 N.ar  155  U155       -0.2534
   3332  C2        56.2980    9.0970   22.0470 C.ar  155  U155        0.3546
   3333  O2        57.3190    9.7550   22.1290 O.2   155  U155       -0.2443
   3334  N3        56.0070    8.3620   20.9170 N.ar  155  U155       -0.1530
   3335  C4        54.8870    7.5730   20.7060 C.ar  155  U155        0.2846
   3336  O4        54.7510    6.9680   19.6450 O.2   155  U155       -0.2650
   3337  C5        53.9530    7.5480   21.8050 C.ar  155  U155        0.0814
   3338  C6        54.2170    8.2550   22.9120 C.ar  155  U155        0.0870
   3339  OP1       49.7110    9.1490   26.3260 O.3   155  U155       -0.4373
   3340  OP2       50.1180    7.7390   24.2220 O.co2 155  U155       -0.5172
   3341  P         52.5610   13.5260   23.9800 P.3   156  C156        0.2141
   3342  C5'       54.6630   14.7290   22.9800 C.3   156  C156        0.1812
   3343  O5'       53.5010   13.9370   22.7600 O.3   156  C156       -0.3114
   3344  C4'       55.6170   14.5900   21.8100 C.3   156  C156        0.1773
   3345  O4'       55.9540   13.1940   21.6030 O.3   156  C156       -0.3307
   3346  C3'       55.0640   15.0030   20.4530 C.3   156  C156        0.1860
   3347  O3'       55.0280   16.4190   20.3260 O.3   156  C156       -0.3112
   3348  C2'       56.1030   14.3490   19.5490 C.3   156  C156        0.2309
   3349  O2'       57.3500   15.0190   19.5460 O.3   156  C156       -0.2156
   3350  C1'       56.2580   12.9910   20.2320 C.3   156  C156        0.2420
   3351  N1        55.3710   11.9500   19.6300 N.ar  156  C156       -0.2535
   3352  C2        55.7290   11.3880   18.3930 C.ar  156  C156        0.3532
   3353  O2        56.7660   11.7500   17.8280 O.2   156  C156       -0.2443
   3354  N3        54.9290   10.4470   17.8350 N.ar  156  C156       -0.1739
   3355  C4        53.8130   10.0670   18.4570 C.ar  156  C156        0.1759
   3356  N4        53.0710    9.1350   17.8530 N.pl3 156  C156       -0.1070
   3357  C5        53.4190   10.6230   19.7180 C.ar  156  C156        0.0566
   3358  C6        54.2220   11.5510   20.2620 C.ar  156  C156        0.0850
   3359  OP1       52.1420   14.7480   24.7010 O.3   156  C156       -0.4373
   3360  OP2       51.5540   12.5960   23.4280 O.co2 156  C156       -0.5172
   3361  P         54.0200   17.1410   19.3070 P.3   157  C157        0.2141
   3362  C5'       55.8370   17.5660   17.5100 C.3   157  C157        0.1812
   3363  O5'       54.6770   16.8590   17.8790 O.3   157  C157       -0.3114
   3364  C4'       56.3200   17.1390   16.1420 C.3   157  C157        0.1773
   3365  O4'       56.6590   15.7320   16.1420 O.3   157  C157       -0.3307
   3366  C3'       55.3060   17.2510   15.0190 C.3   157  C157        0.1860
   3367  O3'       55.2160   18.5760   14.5820 O.3   157  C157       -0.3112
   3368  C2'       55.9710   16.3760   13.9720 C.3   157  C157        0.2309
   3369  O2'       57.0430   17.0280   13.3140 O.3   157  C157       -0.2156
   3370  C1'       56.4410   15.2080   14.8450 C.3   157  C157        0.2420
   3371  N1        55.3990   14.1380   14.9270 N.ar  157  C157       -0.2535
   3372  C2        55.1580   13.3350   13.8070 C.ar  157  C157        0.3532
   3373  O2        55.8280   13.5130   12.7850 O.2   157  C157       -0.2443
   3374  N3        54.2030   12.3740   13.8800 N.ar  157  C157       -0.1739
   3375  C4        53.5040   12.2100   15.0050 C.ar  157  C157        0.1759
   3376  N4        52.5740   11.2550   15.0250 N.pl3 157  C157       -0.1070
   3377  C5        53.7220   13.0230   16.1590 C.ar  157  C157        0.0566
   3378  C6        54.6690   13.9620   16.0750 C.ar  157  C157        0.0850
   3379  OP1       54.0940   18.5920   19.6040 O.3   157  C157       -0.4373
   3380  OP2       52.7100   16.4510   19.3490 O.co2 157  C157       -0.5172
   3381  P         53.8100   19.1840   14.1360 P.3   158  G158        0.2141
   3382  C5'       54.2780   18.8080   11.5980 C.3   158  G158        0.1812
   3383  O5'       53.5090   18.4720   12.7350 O.3   158  G158       -0.3114
   3384  C4'       54.0640   17.7980   10.4910 C.3   158  G158        0.1773
   3385  O4'       54.3430   16.4570   10.9660 O.3   158  G158       -0.3307
   3386  C3'       52.6390   17.6710    9.9770 C.3   158  G158        0.1860
   3387  O3'       52.2970   18.7940    9.1710 O.3   158  G158       -0.3112
   3388  C2'       52.7830   16.3630    9.2040 C.3   158  G158        0.2309
   3389  O2'       53.5470   16.4640    8.0200 O.3   158  G158       -0.2156
   3390  C1'       53.5740   15.5400   10.2080 C.3   158  G158        0.2408
   3391  N1        50.5710   11.4370   10.6020 N.ar  158  G158       -0.1709
   3392  C2        51.2610   11.9150    9.5090 C.ar  158  G158        0.2606
   3393  N2        51.1410   11.2150    8.3760 N.pl3 158  G158       -0.0859
   3394  N3        52.0150   13.0100    9.5270 N.ar  158  G158       -0.1918
   3395  C4        52.0380   13.6020   10.7510 C.ar  158  G158        0.1723
   3396  C5        51.3940   13.2060   11.9010 C.ar  158  G158        0.1748
   3397  C6        50.5900   12.0380   11.8630 C.ar  158  G158        0.3023
   3398  O6        49.9470   11.5350   12.7890 O.2   158  G158       -0.2633
   3399  N7        51.6630   14.0810   12.9500 N.ar  158  G158       -0.2173
   3400  C8        52.4560   14.9720   12.4230 C.ar  158  G158        0.1817
   3401  N9        52.7280   14.7430   11.0940 N.ar  158  G158       -0.2693
   3402  OP1       54.0930   20.6210   13.9320 O.2   158  G158       -0.5172
   3403  OP2       52.7430   18.7620   15.0770 O.co2 158  G158       -0.4373
   3404  P         50.7790   19.2100    8.8900 P.3   159  U159        0.2141
   3405  C5'       50.5640   17.7670    6.6790 C.3   159  U159        0.1812
   3406  O5'       50.2200   17.9640    8.0590 O.3   159  U159       -0.3114
   3407  C4'       49.8940   16.5000    6.1850 C.3   159  U159        0.1773
   3408  O4'       50.2810   15.3860    7.0330 O.3   159  U159       -0.3307
   3409  C3'       48.3800   16.4770    6.2980 C.3   159  U159        0.1860
   3410  O3'       47.7630   17.2740    5.2870 O.3   159  U159       -0.3112
   3411  C2'       48.1540   14.9770    6.1420 C.3   159  U159        0.2309
   3412  O2'       48.4040   14.4930    4.8450 O.3   159  U159       -0.2156
   3413  C1'       49.2330   14.4340    7.0690 C.3   159  U159        0.2420
   3414  N1        48.7210   14.2380    8.4650 N.ar  159  U159       -0.2534
   3415  C2        47.9130   13.1440    8.7400 C.ar  159  U159        0.3546
   3416  O2        47.5990   12.3020    7.9150 O.2   159  U159       -0.2443
   3417  N3        47.4840   13.0580   10.0470 N.ar  159  U159       -0.1530
   3418  C4        47.7680   13.9390   11.0800 C.ar  159  U159        0.2846
   3419  O4        47.3100   13.7350   12.1970 O.2   159  U159       -0.2650
   3420  C5        48.6040   15.0540   10.7140 C.ar  159  U159        0.0814
   3421  C6        49.0390   15.1550    9.4520 C.ar  159  U159        0.0870
   3422  OP1       50.8070   20.3890    7.9940 O.2   159  U159       -0.5172
   3423  OP2       50.0290   19.2420   10.1660 O.co2 159  U159       -0.4373
   3424  P         46.3580   18.0320    5.5120 P.3   160  G160        0.2141
   3425  C5'       44.8890   16.1260    4.4570 C.3   160  G160        0.1812
   3426  O5'       45.2880   16.8490    5.6100 O.3   160  G160       -0.3114
   3427  C4'       44.1530   14.8630    4.8600 C.3   160  G160        0.1773
   3428  O4'       44.8910   14.1720    5.8940 O.3   160  G160       -0.3307
   3429  C3'       42.7980   15.0520    5.5190 C.3   160  G160        0.1860
   3430  O3'       41.7810   15.4520    4.5860 O.3   160  G160       -0.3112
   3431  C2'       42.6100   13.6430    6.0780 C.3   160  G160        0.2309
   3432  O2'       42.3860   12.6440    5.1050 O.3   160  G160       -0.2156
   3433  C1'       43.9880   13.4000    6.6630 C.3   160  G160        0.2408
   3434  N1        42.8970   11.9520   11.4270 N.ar  160  G160       -0.1709
   3435  C2        42.5850   11.3360   10.2280 C.ar  160  G160        0.2606
   3436  N2        41.8960   10.1860   10.2970 N.pl3 160  G160       -0.0859
   3437  N3        42.9250   11.8230    9.0380 N.ar  160  G160       -0.1918
   3438  C4        43.6130   12.9910    9.1370 C.ar  160  G160        0.1723
   3439  C5        43.9660   13.6780   10.2800 C.ar  160  G160        0.1748
   3440  C6        43.5990   13.1500   11.5500 C.ar  160  G160        0.3023
   3441  O6        43.8200   13.6160   12.6780 O.2   160  G160       -0.2633
   3442  N7        44.6660   14.8320    9.9500 N.ar  160  G160       -0.2173
   3443  C8        44.7220   14.8230    8.6450 C.ar  160  G160        0.1817
   3444  N9        44.1040   13.7320    8.0830 N.ar  160  G160       -0.2693
   3445  OP1       46.1390   18.8270    4.2820 O.2   160  G160       -0.5172
   3446  OP2       46.3260   18.6750    6.8470 O.co2 160  G160       -0.4373
   3447  P         40.4280   16.1380    5.1110 P.3   161  G161        0.2141
   3448  C5'       39.2110   13.8360    4.6770 C.3   161  G161        0.1812
   3449  O5'       39.5600   14.8850    5.5810 O.3   161  G161       -0.3114
   3450  C4'       38.5090   12.7110    5.4170 C.3   161  G161        0.1773
   3451  O4'       39.4040   12.1680    6.4150 O.3   161  G161       -0.3307
   3452  C3'       37.3170   13.1510    6.2440 C.3   161  G161        0.1860
   3453  O3'       36.1570   13.2420    5.4480 O.3   161  G161       -0.3112
   3454  C2'       37.2170   12.0610    7.3050 C.3   161  G161        0.2309
   3455  O2'       36.6190   10.8740    6.8270 O.3   161  G161       -0.2156
   3456  C1'       38.6830   11.7980    7.5790 C.3   161  G161        0.2408
   3457  N1        39.2500   11.6800   12.6490 N.ar  161  G161       -0.1709
   3458  C2        38.5800   10.8040   11.8130 C.ar  161  G161        0.2606
   3459  N2        37.9780    9.7480   12.3810 N.pl3 161  G161       -0.0859
   3460  N3        38.5070   10.9550   10.4910 N.ar  161  G161       -0.1918
   3461  C4        39.1550   12.0660   10.0520 C.ar  161  G161        0.1723
   3462  C5        39.8450   13.0000   10.7970 C.ar  161  G161        0.1748
   3463  C6        39.9300   12.8260   12.2060 C.ar  161  G161        0.3023
   3464  O6        40.5050   13.5570   13.0250 O.2   161  G161       -0.2633
   3465  N7        40.3690   13.9890    9.9710 N.ar  161  G161       -0.2173
   3466  C8        39.9900   13.6420    8.7670 C.ar  161  G161        0.1817
   3467  N9        39.2430   12.4860    8.7430 N.ar  161  G161       -0.2693
   3468  OP1       39.7460   16.7980    3.9720 O.2   161  G161       -0.5172
   3469  OP2       40.7640   16.9320    6.3140 O.co2 161  G161       -0.4373
   3470  P         35.1050   14.4080    5.7570 P.3   162  A162        0.2141
   3471  C5'       33.6460   12.4830    6.7680 C.3   162  A162        0.1812
   3472  O5'       34.2150   13.7830    6.9280 O.3   162  A162       -0.3114
   3473  C4'       33.3950   11.8340    8.1210 C.3   162  A162        0.1773
   3474  O4'       34.5130   12.0350    9.0340 O.3   162  A162       -0.3307
   3475  C3'       32.1780   12.3640    8.8600 C.3   162  A162        0.1860
   3476  O3'       31.6830   11.3180    9.6610 O.3   162  A162       -0.3112
   3477  C2'       32.8010   13.4600    9.7090 C.3   162  A162        0.2309
   3478  O2'       31.9610   13.8270   10.7780 O.3   162  A162       -0.2156
   3479  C1'       34.0800   12.7570   10.1680 C.3   162  A162        0.2408
   3480  N1        37.4030   14.1450   13.8810 N.ar  162  A162       -0.2040
   3481  C2        36.4690   13.1850   13.8460 C.ar  162  A162        0.2016
   3482  N3        35.6400   12.8750   12.8450 N.ar  162  A162       -0.2048
   3483  C4        35.8330   13.6720   11.7760 C.ar  162  A162        0.1692
   3484  C5        36.7550   14.6950   11.6710 C.ar  162  A162        0.1518
   3485  C6        37.5710   14.9330   12.7910 C.ar  162  A162        0.1919
   3486  N6        38.5030   15.8870   12.8130 N.pl3 162  A162       -0.1054
   3487  N7        36.6800   15.3070   10.4360 N.ar  162  A162       -0.2193
   3488  C8        35.7230   14.6510    9.8230 C.ar  162  A162        0.1816
   3489  N9        35.1610   13.6530   10.5750 N.ar  162  A162       -0.2693
   3490  OP1       34.2430   14.5740    4.5550 O.2   162  A162       -0.5172
   3491  OP2       35.8320   15.5770    6.3140 O.co2 162  A162       -0.4373
   3492  P         30.1280   10.9760    9.7620 P.3   163  G163        0.2141
   3493  C5'       30.5690   11.1030   12.3180 C.3   163  G163        0.1812
   3494  O5'       30.0120   10.3920   11.2460 O.3   163  G163       -0.3114
   3495  C4'       29.8420   10.7270   13.5890 C.3   163  G163        0.1773
   3496  O4'       30.7860   10.6450   14.6810 O.3   163  G163       -0.3307
   3497  C3'       28.8060   11.7390   14.0470 C.3   163  G163        0.1860
   3498  O3'       27.7970   11.0780   14.7890 O.3   163  G163       -0.3112
   3499  C2'       29.6190   12.6500   14.9550 C.3   163  G163        0.2309
   3500  O2'       28.7830   13.3550   15.8400 O.3   163  G163       -0.2156
   3501  C1'       30.4440   11.5960   15.6730 C.3   163  G163        0.2408
   3502  N1        32.6880   12.5720   20.1020 N.ar  163  G163       -0.1709
   3503  C2        31.4110   12.1300   19.8270 C.ar  163  G163        0.2606
   3504  N2        30.6060   11.9130   20.8740 N.pl3 163  G163       -0.0859
   3505  N3        30.9530   11.9160   18.5940 N.ar  163  G163       -0.1918
   3506  C4        31.8770   12.1770   17.6530 C.ar  163  G163        0.1723
   3507  C5        33.1650   12.6230   17.8150 C.ar  163  G163        0.1748
   3508  C6        33.6530   12.8470   19.1280 C.ar  163  G163        0.3023
   3509  O6        34.7780   13.2410   19.4680 O.2   163  G163       -0.2633
   3510  N7        33.7870   12.7710   16.5860 N.ar  163  G163       -0.2173
   3511  C8        32.8700   12.4210   15.7190 C.ar  163  G163        0.1817
   3512  N9        31.6780   12.0580   16.3060 N.ar  163  G163       -0.2693
   3513  OP1       29.8450    9.8530    8.8430 O.2   163  G163       -0.5172
   3514  OP2       29.3620   12.2390    9.6740 O.co2 163  G163       -0.4373
   3515  P         26.3990   10.7200   14.1010 P.3   164  A164        0.2141
   3516  C5'       26.5120    8.0700   14.0160 C.3   164  A164        0.1812
   3517  O5'       26.7360    9.3290   13.4020 O.3   164  A164       -0.3114
   3518  C4'       26.6410    7.0130   12.9310 C.3   164  A164        0.1773
   3519  O4'       25.7880    7.3400   11.7960 O.3   164  A164       -0.3307
   3520  C3'       28.0490    6.8770   12.3630 C.3   164  A164        0.1860
   3521  O3'       28.3580    5.4990   12.1460 O.3   164  A164       -0.3112
   3522  C2'       27.9820    7.6950   11.0680 C.3   164  A164        0.2309
   3523  O2'       28.9130    7.3300   10.0690 O.3   164  A164       -0.2156
   3524  C1'       26.5570    7.4280   10.6090 C.3   164  A164        0.2408
   3525  N1        25.1280    8.9810    5.8710 N.ar  164  A164       -0.2040
   3526  C2        25.5330    7.7880    6.3400 C.ar  164  A164        0.2016
   3527  N3        25.8830    7.4470    7.5900 N.ar  164  A164       -0.2048
   3528  C4        25.8030    8.4990    8.4220 C.ar  164  A164        0.1692
   3529  C5        25.4120    9.7870    8.0850 C.ar  164  A164        0.1518
   3530  C6        25.0620   10.0230    6.7360 C.ar  164  A164        0.1919
   3531  N6        24.6740   11.2220    6.2900 N.pl3 164  A164       -0.1054
   3532  N7        25.4470   10.6180    9.1870 N.ar  164  A164       -0.2193
   3533  C8        25.8590    9.8260   10.1560 C.ar  164  A164        0.1816
   3534  N9        26.0830    8.5280    9.7700 N.ar  164  A164       -0.2693
   3535  OP1       26.1340   11.7080   13.0370 O.2   164  A164       -0.5172
   3536  OP2       25.4280   10.4910   15.1990 O.co2 164  A164       -0.4373
   3537  P         29.2870    4.6890   13.1660 P.3   165  G165        0.2141
   3538  C5'       31.4720    5.9090   12.2730 C.3   165  G165        0.1812
   3539  O5'       30.5520    5.6500   13.3350 O.3   165  G165       -0.3114
   3540  C4'       32.5940    6.8010   12.7820 C.3   165  G165        0.1773
   3541  O4'       32.0450    7.9660   13.4540 O.3   165  G165       -0.3307
   3542  C3'       33.4410    6.1550   13.8630 C.3   165  G165        0.1860
   3543  O3'       34.4220    5.3060   13.2930 O.3   165  G165       -0.3112
   3544  C2'       34.0250    7.3640   14.5910 C.3   165  G165        0.2309
   3545  O2'       35.1090    7.9700   13.9170 O.3   165  G165       -0.2156
   3546  C1'       32.8280    8.3050   14.5820 C.3   165  G165        0.2408
   3547  N1        32.7400    9.1600   19.6110 N.ar  165  G165       -0.1709
   3548  C2        33.7460    9.3590   18.6950 C.ar  165  G165        0.2606
   3549  N2        34.9020    9.8520   19.1620 N.pl3 165  G165       -0.0859
   3550  N3        33.6340    9.0950   17.3960 N.ar  165  G165       -0.1918
   3551  C4        32.4220    8.6010   17.0660 C.ar  165  G165        0.1723
   3552  C5        31.3550    8.3650   17.9040 C.ar  165  G165        0.1748
   3553  C6        31.4850    8.6560   19.2950 C.ar  165  G165        0.3023
   3554  O6        30.6510    8.5220   20.1990 O.2   165  G165       -0.2633
   3555  N7        30.2880    7.8490   17.1790 N.ar  165  G165       -0.2173
   3556  C8        30.7280    7.7910   15.9400 C.ar  165  G165        0.1817
   3557  N9        32.0230    8.2290   15.8010 N.ar  165  G165       -0.2693
   3558  OP1       29.6940    3.4490   12.4750 O.2   165  G165       -0.5172
   3559  OP2       28.6370    4.6100   14.4940 O.co2 165  G165       -0.4373
   3560  P         34.8140    3.9620   14.0650 P.3   166  C166        0.2141
   3561  C5'       36.7740    5.0660   15.3830 C.3   166  C166        0.1812
   3562  O5'       35.4760    4.5020   15.4120 O.3   166  C166       -0.3114
   3563  C4'       37.1360    5.5950   16.7520 C.3   166  C166        0.1773
   3564  O4'       36.1480    6.5520   17.2150 O.3   166  C166       -0.3307
   3565  C3'       37.1450    4.5340   17.8360 C.3   166  C166        0.1860
   3566  O3'       38.3520    3.8010   17.7590 O.3   166  C166       -0.3112
   3567  C2'       37.0710    5.4130   19.0700 C.3   166  C166        0.2309
   3568  O2'       38.3150    6.0050   19.3810 O.3   166  C166       -0.2156
   3569  C1'       36.0560    6.4680   18.6280 C.3   166  C166        0.2420
   3570  N1        34.6440    6.1420   19.0570 N.ar  166  C166       -0.2535
   3571  C2        34.2580    6.3450   20.4060 C.ar  166  C166        0.3532
   3572  O2        35.0710    6.8040   21.2240 O.2   166  C166       -0.2443
   3573  N3        32.9870    6.0430   20.7910 N.ar  166  C166       -0.1739
   3574  C4        32.1190    5.5470   19.9020 C.ar  166  C166        0.1759
   3575  N4        30.8840    5.2670   20.3310 N.pl3 166  C166       -0.1070
   3576  C5        32.4890    5.3210   18.5340 C.ar  166  C166        0.0566
   3577  C6        33.7440    5.6280   18.1630 C.ar  166  C166        0.0850
   3578  OP1       35.8250    3.2540   13.2470 O.2   166  C166       -0.5172
   3579  OP2       33.5820    3.2610   14.4800 O.co2 166  C166       -0.4373
   3580  P         38.4330    2.2570   18.1520 P.3   167  C167        0.2141
   3581  C5'       39.5720    2.8320   20.4320 C.3   167  C167        0.1812
   3582  O5'       38.4240    2.3970   19.7400 O.3   167  C167       -0.3114
   3583  C4'       39.2050    2.9890   21.8840 C.3   167  C167        0.1773
   3584  O4'       38.0400    3.8330   21.9770 O.3   167  C167       -0.3307
   3585  C3'       38.7080    1.7140   22.5160 C.3   167  C167        0.1860
   3586  O3'       39.7800    0.8520   22.8550 O.3   167  C167       -0.3112
   3587  C2'       37.9720    2.2580   23.7260 C.3   167  C167        0.2309
   3588  O2'       38.8190    2.7170   24.7550 O.3   167  C167       -0.2156
   3589  C1'       37.2570    3.4400   23.0940 C.3   167  C167        0.2420
   3590  N1        35.8180    3.1390   22.7090 N.ar  167  C167       -0.2535
   3591  C2        34.8320    3.0560   23.7080 C.ar  167  C167        0.3532
   3592  O2        35.1370    3.2280   24.8900 O.2   167  C167       -0.2443
   3593  N3        33.5490    2.7910   23.3600 N.ar  167  C167       -0.1739
   3594  C4        33.2300    2.6060   22.0750 C.ar  167  C167        0.1759
   3595  N4        31.9510    2.3440   21.7870 N.pl3 167  C167       -0.1070
   3596  C5        34.2080    2.6770   21.0390 C.ar  167  C167        0.0566
   3597  C6        35.4710    2.9400   21.3980 C.ar  167  C167        0.0850
   3598  OP1       39.7420    1.7600   17.6750 O.2   167  C167       -0.5172
   3599  OP2       37.1870    1.5580   17.7610 O.co2 167  C167       -0.4373
   3600  P         39.5870   -0.7200   22.6230 P.3   168  G168        0.2141
   3601  C5'       38.6710   -1.4970   24.9300 C.3   168  G168        0.1812
   3602  O5'       38.3890   -1.1090   23.6060 O.3   168  G168       -0.3114
   3603  C4'       37.4220   -1.4730   25.7820 C.3   168  G168        0.1773
   3604  O4'       36.4930   -0.4650   25.3500 O.3   168  G168       -0.3307
   3605  C3'       36.5570   -2.7150   25.7830 C.3   168  G168        0.1860
   3606  O3'       37.1930   -3.7090   26.5460 O.3   168  G168       -0.3112
   3607  C2'       35.3570   -2.1610   26.5330 C.3   168  G168        0.2309
   3608  O2'       35.5890   -1.9810   27.9220 O.3   168  G168       -0.2156
   3609  C1'       35.2200   -0.8010   25.8720 C.3   168  G168        0.2408
   3610  N1        30.2700   -1.2260   24.6170 N.ar  168  G168       -0.1709
   3611  C2        30.8730   -1.3710   25.8510 C.ar  168  G168        0.2606
   3612  N2        30.0800   -1.6630   26.8940 N.pl3 168  G168       -0.0859
   3613  N3        32.1800   -1.2310   26.0620 N.ar  168  G168       -0.1918
   3614  C4        32.8610   -0.9430   24.9250 C.ar  168  G168        0.1723
   3615  C5        32.3550   -0.7860   23.6580 C.ar  168  G168        0.1748
   3616  C6        30.9640   -0.9250   23.4410 C.ar  168  G168        0.3023
   3617  O6        30.3600   -0.8070   22.3650 O.2   168  G168       -0.2633
   3618  N7        33.3700   -0.4950   22.7630 N.ar  168  G168       -0.2173
   3619  C8        34.4500   -0.4790   23.4820 C.ar  168  G168        0.1817
   3620  N9        34.2200   -0.7510   24.8060 N.ar  168  G168       -0.2693
   3621  OP1       40.8470   -1.3600   23.0590 O.3   168  G168       -0.4373
   3622  OP2       39.0350   -0.9470   21.2610 O.co2 168  G168       -0.5172
   3623  P         37.0290   -5.2420   26.1540 P.3   169  U169        0.2141
   3624  C5'       35.3540   -5.5050   28.1210 C.3   169  U169        0.1812
   3625  O5'       35.5760   -5.5610   26.7240 O.3   169  U169       -0.3114
   3626  C4'       33.8950   -5.7600   28.3950 C.3   169  U169        0.1773
   3627  O4'       33.1080   -4.6630   27.8780 O.3   169  U169       -0.3307
   3628  C3'       33.3400   -6.9640   27.6610 C.3   169  U169        0.1860
   3629  O3'       33.6820   -8.1550   28.3460 O.3   169  U169       -0.3112
   3630  C2'       31.8560   -6.6620   27.7430 C.3   169  U169        0.2309
   3631  O2'       31.3350   -6.9520   29.0230 O.3   169  U169       -0.2156
   3632  C1'       31.8400   -5.1610   27.4780 C.3   169  U169        0.2420
   3633  N1        31.5460   -4.8280   26.0340 N.ar  169  U169       -0.2534
   3634  C2        30.2260   -4.7610   25.6190 C.ar  169  U169        0.3546
   3635  O2        29.2840   -4.9560   26.3710 O.2   169  U169       -0.2443
   3636  N3        30.0400   -4.4560   24.2880 N.ar  169  U169       -0.1530
   3637  C4        31.0340   -4.2230   23.3460 C.ar  169  U169        0.2846
   3638  O4        30.7360   -3.9650   22.1870 O.2   169  U169       -0.2650
   3639  C5        32.3820   -4.3130   23.8490 C.ar  169  U169        0.0814
   3640  C6        32.5820   -4.6040   25.1420 C.ar  169  U169        0.0870
   3641  OP1       38.0100   -6.0120   26.9650 O.3   169  U169       -0.4373
   3642  OP2       36.9840   -5.3410   24.6730 O.co2 169  U169       -0.5172
   3643  P         33.8610   -9.4890   27.4950 P.3   170  C170        0.2141
   3644  C5'       31.7170  -10.2120   26.0760 C.3   170  C170        0.1812
   3645  O5'       32.3450   -9.9880   27.3490 O.3   170  C170       -0.3114
   3646  C4'       30.2140  -10.0770   26.2450 C.3   170  C170        0.1773
   3647  O4'       29.8380   -8.6700   26.1420 O.3   170  C170       -0.3307
   3648  C3'       29.3430  -10.7780   25.2110 C.3   170  C170        0.1860
   3649  O3'       29.1290  -12.1400   25.5500 O.3   170  C170       -0.3112
   3650  C2'       28.0810   -9.9220   25.3060 C.3   170  C170        0.2309
   3651  O2'       27.3430  -10.1140   26.4940 O.3   170  C170       -0.2156
   3652  C1'       28.6900   -8.5260   25.3310 C.3   170  C170        0.2420
   3653  N1        29.0710   -7.9940   23.9660 N.ar  170  C170       -0.2535
   3654  C2        28.0670   -7.6260   23.0490 C.ar  170  C170        0.3532
   3655  O2        26.8770   -7.7440   23.3660 O.2   170  C170       -0.2443
   3656  N3        28.4210   -7.1410   21.8230 N.ar  170  C170       -0.1739
   3657  C4        29.7100   -7.0250   21.4880 C.ar  170  C170        0.1759
   3658  N4        30.0050   -6.5550   20.2710 N.pl3 170  C170       -0.1070
   3659  C5        30.7500   -7.3920   22.3990 C.ar  170  C170        0.0566
   3660  C6        30.3880   -7.8580   23.6070 C.ar  170  C170        0.0850
   3661  OP1       34.6130  -10.4500   28.3210 O.3   170  C170       -0.4373
   3662  OP2       34.3650   -9.1360   26.1440 O.co2 170  C170       -0.5172
   3663  P         28.9420  -13.2970   24.4500 P.3   171  G171        0.2141
   3664  C5'       26.2820  -13.5000   24.4440 C.3   171  G171        0.1812
   3665  O5'       27.4880  -13.0050   23.8570 O.3   171  G171       -0.3114
   3666  C4'       25.0760  -13.0440   23.6330 C.3   171  G171        0.1773
   3667  O4'       25.1200  -11.6000   23.4460 O.3   171  G171       -0.3307
   3668  C3'       25.0090  -13.5720   22.2040 C.3   171  G171        0.1860
   3669  O3'       24.4980  -14.9010   22.1200 O.3   171  G171       -0.3112
   3670  C2'       24.0960  -12.5400   21.5460 C.3   171  G171        0.2309
   3671  O2'       22.7360  -12.6980   21.8830 O.3   171  G171       -0.2156
   3672  C1'       24.6450  -11.2560   22.1520 C.3   171  G171        0.2408
   3673  N1        25.8620   -8.8320   17.8330 N.ar  171  G171       -0.1709
   3674  C2        24.6320   -9.2270   18.3000 C.ar  171  G171        0.2606
   3675  N2        23.5700   -8.9520   17.5350 N.pl3 171  G171       -0.0859
   3676  N3        24.4470   -9.8530   19.4500 N.ar  171  G171       -0.1918
   3677  C4        25.6040  -10.0690   20.1180 C.ar  171  G171        0.1723
   3678  C5        26.8750   -9.7180   19.7390 C.ar  171  G171        0.1748
   3679  C6        27.0640   -9.0460   18.5070 C.ar  171  G171        0.3023
   3680  O6        28.1280   -8.6550   18.0080 O.2   171  G171       -0.2633
   3681  N7        27.7960  -10.1110   20.6970 N.ar  171  G171       -0.2173
   3682  C8        27.0750  -10.6850   21.6230 C.ar  171  G171        0.1817
   3683  N9        25.7280  -10.6920   21.3400 N.ar  171  G171       -0.2693
   3684  OP1       28.9710  -14.5960   25.1560 O.3   171  G171       -0.4373
   3685  OP2       29.8960  -13.0780   23.3470 O.co2 171  G171       -0.5172
   3686  P         25.0630  -15.8760   20.9830 P.3   172  G172        0.2141
   3687  C5'       22.9360  -15.4180   19.5220 C.3   172  G172        0.1812
   3688  O5'       24.3550  -15.3520   19.6440 O.3   172  G172       -0.3114
   3689  C4'       22.4350  -14.5860   18.3610 C.3   172  G172        0.1773
   3690  O4'       22.8920  -13.2150   18.4930 O.3   172  G172       -0.3307
   3691  C3'       22.9700  -15.0220   17.0030 C.3   172  G172        0.1860
   3692  O3'       22.2550  -16.1350   16.4870 O.3   172  G172       -0.3112
   3693  C2'       22.7730  -13.7570   16.1830 C.3   172  G172        0.2309
   3694  O2'       21.4370  -13.5780   15.7540 O.3   172  G172       -0.2156
   3695  C1'       23.1900  -12.6960   17.2060 C.3   172  G172        0.2408
   3696  N1        26.9220  -10.5650   14.4340 N.ar  172  G172       -0.1709
   3697  C2        25.5710  -10.6380   14.1650 C.ar  172  G172        0.2606
   3698  N2        25.1500  -10.0820   13.0230 N.pl3 172  G172       -0.0859
   3699  N3        24.6880  -11.2200   14.9670 N.ar  172  G172       -0.1918
   3700  C4        25.2650  -11.7380   16.0840 C.ar  172  G172        0.1723
   3701  C5        26.5970  -11.7180   16.4360 C.ar  172  G172        0.1748
   3702  C6        27.5310  -11.0920   15.5750 C.ar  172  G172        0.3023
   3703  O6        28.7570  -10.9890   15.7320 O.2   172  G172       -0.2633
   3704  N7        26.7940  -12.3550   17.6490 N.ar  172  G172       -0.2173
   3705  C8        25.6020  -12.7430   18.0060 C.ar  172  G172        0.1817
   3706  N9        24.6190  -12.3990   17.1100 N.ar  172  G172       -0.2693
   3707  OP1       24.5780  -17.2400   21.2730 O.3   172  G172       -0.4373
   3708  OP2       26.5190  -15.6360   20.8540 O.co2 172  G172       -0.5172
   3709  P         23.0590  -17.3420   15.8020 P.3   173  U173        0.2141
   3710  C5'       22.6500  -16.5030   13.3140 C.3   173  U173        0.1813
   3711  O5'       23.5460  -16.7170   14.4070 O.3   173  U173       -0.3114
   3712  C4'       23.1750  -15.4300   12.3720 C.3   173  U173        0.1801
   3713  O4'       23.7560  -14.3390   13.1340 O.3   173  U173       -0.3306
   3714  C3'       24.3040  -15.8490   11.4410 C.3   173  U173        0.2161
   3715  O3'       23.8220  -16.5240   10.2940 O.3   173  U173       -0.2175
   3716  C2'       24.9150  -14.5010   11.0810 C.3   173  U173        0.2338
   3717  O2'       24.1520  -13.7900   10.1260 O.3   173  U173       -0.2155
   3718  C1'       24.8600  -13.7920   12.4320 C.3   173  U173        0.2421
   3719  N1        26.1210  -13.9010   13.2670 N.ar  173  U173       -0.2534
   3720  C2        27.2850  -13.2530   12.8660 C.ar  173  U173        0.3546
   3721  O2        27.3830  -12.5820   11.8560 O.2   173  U173       -0.2443
   3722  N3        28.3650  -13.4140   13.7040 N.ar  173  U173       -0.1530
   3723  C4        28.4090  -14.1400   14.8830 C.ar  173  U173        0.2846
   3724  O4        29.4540  -14.1880   15.5260 O.2   173  U173       -0.2650
   3725  C5        27.1680  -14.7860   15.2420 C.ar  173  U173        0.0814
   3726  C6        26.1000  -14.6430   14.4410 C.ar  173  U173        0.0870
   3727  OP1       22.0720  -18.4220   15.5610 O.2   173  U173       -0.5172
   3728  OP2       24.2800  -17.6240   16.5880 O.co2 173  U173       -0.4373
@<TRIPOS>BOND
     1  1040  1019    2
     2  1003  1019    1
     3  1003  1002    1
     4  1019  1041    1
     5  1019  1021    1
     6  1017   997    2
     7   998  1000    1
     8   998   999    1
     9  1020  1021    1
    10  1020  1022    1
    11  1063  1042    2
    12  1000  1002    1
    13  1000  1001    1
    14  1005  1004    1
    15  1002  1004    1
    16   862   843    2
    17   980   997    1
    18   980   979    1
    19   982   981    1
    20  1025  1042    1
    21  1025  1024    1
    22   997   999    1
    23   997  1018    1
    24  1022  1024    1
    25  1022  1023    1
    26  1042  1064    1
    27  1042  1044    1
    28  1001  1006    1
    29  1004  1006    1
    30   861   843    1
    31   881   863    2
    32   843   845    1
    33   843   827    1
    34  1024  1026    1
    35   977   979    1
    36   977   975    1
    37   977   978    1
    38   979   981    1
    39   981   983    1
    40  1006  1016    1
    41   845   844    1
    42  1023  1028    1
    43   975   976    1
    44   844   846    1
    45   882   863    1
    46  1044  1043    1
    47   863   849    1
    48   863   865    1
    49  1027  1026    1
    50   841   821    2
    51  1026  1028    1
    52   978   983    1
    53   848   846    1
    54   848   849    1
    55   848   850    1
    56   995   974    2
    57   827   826    1
    58   983   994    1
    59  1028  1039    1
    60  1016  1015   ar
    61  1016  1010   ar
    62   846   847    1
    63   976   974    1
    64  1043  1045    1
    65   826   828    1
    66   826   824    1
    67   865   864    1
    68  1015  1014   ar
    69   850   851    1
    70   850   852    1
    71  1038  1039   ar
    72  1038  1037   ar
    73   959   958    1
    74  2138  2137    1
    75   829   828    1
    76   974   957    1
    77   974   996    1
    78   821   842    1
    79   821   823    1
    80   821   807    1
    81  1039  1033   ar
    82   822   823    1
    83   822   824    1
    84   987   988   ar
    85   987   985   ar
    86   957   956    1
    87   828   830    1
    88   994   988   ar
    89   994   993   ar
    90  1010  1009   ar
    91  1010  1011   ar
    92   824   825    1
    93  1009  1008   ar
    94   986   985    1
    95   847   852    1
    96  1045  1046    1
    97  1045  1047    1
    98  1085  1065    2
    99  1037  1034   ar
   100   988   989   ar
   101  1014  1011   ar
   102   852   853    1
   103   958   956    1
   104   958   960    1
   105   985   984   ar
   106   864   866    1
   107   963   962    1
   108  1086  1065    1
   109  2142  2141    2
   110  2137  2139    1
   111  2137  2135    1
   112  2139  2134    1
   113  2139  2140    1
   114   807   806    1
   115  1046  1051    1
   116  1011  1012   ar
   117  2134  2133    1
   118   860   853   ar
   119   860   859   ar
   120   993   992   ar
   121   956   954    1
   122  2133  2135    1
   123  2133  2131    1
   124  1048  1065    1
   125  1048  1047    1
   126  1033  1034   ar
   127  1033  1032   ar
   128  1065  1067    1
   129  2118  2117    1
   130  2151  2153    1
   131  2151  2152    1
   132  2122  2121    2
   133  2158  2157    1
   134  2153  2154    1
   135  2153  2155    1
   136  1008  1007   ar
   137  1047  1049    1
   138  2136  2135    1
   139  2136  2150    1
   140   853   854   ar
   141  2154  2159    1
   142   830   825    1
   143   830   840    1
   144   866   867    1
   145   866   868    1
   146  1034  1035   ar
   147   964   962   ar
   148   964   965   ar
   149   962   961   ar
   150   867   872    1
   151   859   857   ar
   152  1061  1060   ar
   153  1061  1062   ar
   154   989   992   ar
   155   989   990   ar
   156  2168  2150    2
   157   954   955    1
   158   954   952    1
   159   960   955    1
   160   960   971    1
   161  2141  2140   ar
   162  2141  2143   ar
   163  1032  1030   ar
   164   984   990   ar
   165  2131  2132    1
   166  2140  2147   ar
   167  2159  2157    1
   168  2159  2160    1
   169   806   808    1
   170   806   804    1
   171  1012  1007   ar
   172  1012  1013    1
   173  1060  1057   ar
   174   809   808    1
   175  1051  1049    1
   176  1051  1062    1
   177  2157  2155    1
   178  2156  2155    1
   179  2156  2170    1
   180   819   801    2
   181  2152  2150    1
   182  2150  2169    1
   183  2117  2119    1
   184  2117  2115    1
   185  2121  2123   ar
   186  2121  2120   ar
   187   854   855    2
   188   854   856   ar
   189   840   839   ar
   190   840   834   ar
   191  2119  2120    1
   192  2119  2114    1
   193   839   838   ar
   194   990   991    2
   195   965   971   ar
   196   965   966   ar
   197  1049  1050    1
   198  1062  1056   ar
   199  1898  1877    2
   200   961   967   ar
   201   872   873    1
   202   872   870    1
   203  1067  1066    1
   204   971   970   ar
   205   869   868    1
   206   869   883    1
   207   857   856   ar
   208   857   858    2
   209   868   870    1
   210  1918  1900    2
   211   952   953    1
   212  1035  1036    2
   213  1035  1029   ar
   214  2143  2144   ar
   215   808   810    1
   216  1124  1123    2
   217   802   804    1
   218   802   803    1
   219   804   805    1
   220   904   883    2
   221  2123  2124   ar
   222  2147  2146   ar
   223   880   873   ar
   224   880   879   ar
   225  1030  1029   ar
   226  1030  1031    1
   227  2120  2127   ar
   228  2132  2130    1
   229  2191  2170    2
   230  1878  1880    1
   231  1878  1879    1
   232  2114  2113    1
   233   873   874   ar
   234   903   883    1
   235  1066  1068    1
   236   803   801    1
   237  2160  2167   ar
   238  2160  2161   ar
   239   883   885    1
   240  1863  1877    1
   241  1863  1862    1
   242  2162  2161    2
   243   879   877   ar
   244   834   833   ar
   245   834   835   ar
   246  2171  2172    1
   247  2171  2173    1
   248  1057  1056   ar
   249  1057  1058   ar
   250   801   820    1
   251   801   787    1
   252   838   835   ar
   253  1123  1122   ar
   254  1123  1125   ar
   255  2116  2115    1
   256  2116  2130    1
   257  2102  2101    2
   258   953   951    1
   259   870   871    1
   260   966   967   ar
   261   966   969   ar
   262  2170  2172    1
   263  2170  2192    1
   264  2115  2113    1
   265  1883  1900    1
   266  1883  1882    1
   267  2113  2111    1
   268  1865  1864    1
   269   967   968    2
   270  1880  1882    1
   271  1880  1881    1
   272  1108  1087    2
   273  1056  1055   ar
   274  2382  2384    1
   275  2382  2383    1
   276  1877  1879    1
   277  1877  1899    1
   278  2167  2166   ar
   279  1122  1120   ar
   280   970   969   ar
   281   972   951    2
   282   833   832   ar
   283  2144  2146   ar
   284  2144  2145    1
   285   874   875    2
   286   874   876   ar
   287  2384  2385    1
   288  2384  2386    1
   289  1900  1919    1
   290  1900  1902    1
   291  2161  2163   ar
   292  2148  2130    2
   293  1125  1126   ar
   294  2938  2920    2
   295  2130  2149    1
   296  2389  2388    1
   297   877   876   ar
   298   877   878    1
   299  2124  2125    1
   300  2124  2126   ar
   301  1860  1858    1
   302  1860  1862    1
   303  1860  1861    1
   304  1103  1102    1
   305   835   836   ar
   306   810   805    1
   307   810   811    1
   308  2173  2174    1
   309  2173  2175    1
   310  2174  2179    1
   311  2419  2401    2
   312   922   921    2
   313  2127  2126   ar
   314  2387  2386    1
   315  2387  2401    1
   316  1858  1859    1
   317  2385  2390    1
   318  2400  2381    2
   319  1882  1884    1
   320  1862  1864    1
   321   787   786    1
   322  1059  1058    2
   323   951   973    1
   324   951   934    1
   325  2101  2103   ar
   326  2101  2100   ar
   327  1058  1052   ar
   328  1120  1121    2
   329  1120  1119   ar
   330  1885  1884    1
   331  2383  2381    1
   332  2103  2104   ar
   333   940   939    1
   334  1881  1886    1
   335  1083  1082   ar
   336  1083  1084   ar
   337  1068  1069    1
   338  1068  1070    1
   339  2904  2920    1
   340  2904  2903    1
   341  1082  1079   ar
   342  1864  1866    1
   343  2899  2901    1
   344  2899  2900    1
   345  3468  3447    2
   346  1117  1116    1
   347   885   884    1
   348  2901  2903    1
   349  2901  2902    1
   350  2906  2905    1
   351  2386  2388    1
   352  1126  1119   ar
   353  2166  2164   ar
   354  1901  1902    1
   355  1901  1903    1
   356  2111  2112    1
   357  2098  2097    1
   358  1055  1053   ar
   359  1875  1857    2
   360   832   831   ar
   361  1087  1107    1
   362  1087  1071    1
   363  1087  1089    1
   364  1104  1101   ar
   365  1104  1105   ar
   366  2163  2164   ar
   367  1069  1074    1
   368  3445  3424    2
   369  1119  1118    1
   370  2388  2390    1
   371  2390  2391    1
   372  1861  1866    1
   373   811   818   ar
   374   811   812   ar
   375  2921  2922    1
   376  2921  2923    1
   377  2918  2898    2
   378  2401  2403    1
   379  2401  2420    1
   380   921   915   ar
   381   921   920   ar
   382  2920  2922    1
   383  2920  2939    1
   384   813   812    2
   385  2886  2885    1
   386  2381  2399    1
   387  2381  2364    1
   388  3425  3427    1
   389  3425  3426    1
   390  1884  1886    1
   391  2402  2403    1
   392  2402  2404    1
   393  1070  1071    1
   394  1070  1072    1
   395  2606  2605    1
   396  3490  3470    2
   397   836   831   ar
   398   836   837    1
   399  1102  1101   ar
   400  1102  1097   ar
   401  3430  3447    1
   402  3430  3429    1
   403  1116  1118    1
   404  1116  1114    1
   405   927   905    2
   406  3448  3450    1
   407  3448  3449    1
   408  2164  2165    1
   409  2179  2190    1
   410  2179  2177    1
   411  2903  2905    1
   412   818   817   ar
   413  2902  2907    1
   414  2097  2099    1
   415  2097  2095    1
   416   915   916   ar
   417  1842  1841    1
   418   884   886    1
   419  1859  1857    1
   420   934   933    1
   421  1866  1867    1
   422   812   814   ar
   423   939   941   ar
   424   939   938   ar
   425   936   935    1
   426  3412  3411    1
   427  2175  2176    1
   428  2175  2177    1
   429  3427  3429    1
   430  3427  3428    1
   431  2105  2104    2
   432  1161  1160    1
   433   789   788    1
   434  1886  1897    1
   435  1101  1100   ar
   436  2100  2099    1
   437  2100  2107   ar
   438  1052  1053   ar
   439  2104  2106   ar
   440  2099  2094    1
   441  2176  2193    1
   442  2639  2618    2
   443   786   788    1
   444   786   784    1
   445  1105  1106   ar
   446  1084  1074    1
   447  1084  1078   ar
   448  2112  2110    1
   449  1053  1054    1
   450  3432  3431    1
   451  3447  3449    1
   452  3447  3469    1
   453  2905  2907    1
   454  2189  2190   ar
   455  2189  2188   ar
   456  2884  2898    1
   457  2884  2883    1
   458  1118  1113    1
   459  2923  2924    1
   460  2923  2925    1
   461  1089  1088    1
   462  1940  1920    2
   463  2619  2621    1
   464  2619  2620    1
   465  1857  1840    1
   466  1857  1876    1
   467  2900  2898    1
   468  3115  3114    1
   469  1079  1080   ar
   470  1079  1078   ar
   471   941   942   ar
   472   923   920   ar
   473   923   924   ar
   474   920   919   ar
   475  3410  3424    1
   476  3410  3409    1
   477   938   944   ar
   478  1903  1904    1
   479  1903  1905    1
   480  1159  1160   ar
   481  1159  1165   ar
   482  1074  1072    1
   483  1081  1080    1
   484  2604  2618    1
   485  2604  2603    1
   486   935   933    1
   487   935   937    1
   488  2178  2177    1
   489  2190  2184   ar
   490  1128  1109    2
   491  3450  3452    1
   492  3450  3451    1
   493   788   790    1
   494  2898  2919    1
   495  2958  2940    2
   496  1840  1839    1
   497  1184  1183    1
   498  3453  3470    1
   499  3453  3452    1
   500  2085  2084    1
   501  2083  2084   ar
   502  2083  2081   ar
   503  2404  2405    1
   504  2404  2406    1
   505  3424  3426    1
   506  3424  3446    1
   507  3429  3431    1
   508  2907  2917    1
   509  2082  2081    2
   510  1097  1098   ar
   511  2621  2622    1
   512  2621  2623    1
   513  1160  1162   ar
   514   817   815   ar
   515  1941  1920    1
   516  1166  1165    2
   517  2391  2398   ar
   518  2391  2392   ar
   519   814   815   ar
   520  2364  2363    1
   521   933   931    1
   522  1906  1920    1
   523  1906  1905    1
   524  3470  3491    1
   525  3470  3472    1
   526   799   781    2
   527   888   886    1
   528   888   890    1
   529   888   889    1
   530  2211  2193    2
   531  2885  2883    1
   532  2885  2887    1
   533  2926  2925    1
   534  2926  2940    1
   535  1072  1073    1
   536   916   917    1
   537   916   918   ar
   538  1114  1115    1
   539  1114  1112    1
   540  3128  3130    1
   541  3128  3129    1
   542  2601  2603    1
   543  2601  2602    1
   544  2601  2599    1
   545  3525  3526   ar
   546  3525  3530   ar
   547  1841  1839    1
   548  1841  1843    1
   549  2924  2929    1
   550  3428  3433    1
   551  2605  2603    1
   552  2605  2607    1
   553  2188  2185   ar
   554   784   782    1
   555   784   785    1
   556  1080  1075   ar
   557  1920  1922    1
   558  1846  1845    1
   559  1078  1077   ar
   560  1165  1164   ar
   561  3130  3131    1
   562  3130  3132    1
   563  2881  2883    1
   564  2881  2879    1
   565  2881  2882    1
   566   905   926    1
   567   905   889    1
   568   905   907    1
   569  2618  2620    1
   570  2618  2640    1
   571   886   887    1
   572   782   783    1
   573  2405  2410    1
   574  3431  3433    1
   575  2398  2397   ar
   576   815   816    1
   577  2193  2212    1
   578  2193  2195    1
   579  2624  2623    1
   580  2624  2641    1
   581  2107  2106   ar
   582  1147  1129    2
   583  3411  3409    1
   584  3411  3413    1
   585   890   891    1
   586   890   892    1
   587  2662  2641    2
   588  2626  2625    1
   589  1897  1896   ar
   590  1897  1891   ar
   591  3135  3134    1
   592  2084  2086   ar
   593  2081  2080   ar
   594  1115  1129    1
   595  3407  3409    1
   596  3407  3405    1
   597  3407  3408    1
   598  2393  2392    2
   599  2094  2093    1
   600  1904  1909    1
   601  1905  1907    1
   602  2095  2096    1
   603  2095  2093    1
   604  3452  3454    1
   605  2065  2064    1
   606  2622  2627    1
   607  2370  2369    1
   608  1867  1874   ar
   609  1867  1868   ar
   610  1100  1106   ar
   611  1100  1099   ar
   612  1896  1895   ar
   613  3531  3530    1
   614   942   943   ar
   615   942   948   ar
   616   924   925   ar
   617  2602  2607    1
   618  2925  2927    1
   619   919   918   ar
   620   919   925   ar
   621  2940  2959    1
   622  2940  2942    1
   623  1183  1182   ar
   624  1183  1185   ar
   625  3526  3527   ar
   626  3148  3127    2
   627  1106  1096    1
   628  2096  2110    1
   629   944   945    2
   630   944   943   ar
   631    32    31    1
   632  3113  3112    1
   633  3113  3127    1
   634  2407  2406    1
   635  2407  2421    1
   636  3451  3456    1
   637  1839  1837    1
   638  3131  3136    1
   639  1113  1112    1
   640  1869  1868    2
   641  1162  1163   ar
   642  2607  2608    1
   643  2184  2185   ar
   644  2184  2183   ar
   645  2439  2421    2
   646  2599  2600    1
   647  1111  1109    1
   648  1111  1110    1
   649   901   900   ar
   650   901   902   ar
   651  2110  2128    2
   652  2110  2129    1
   653   783   781    1
   654  2392  2394   ar
   655  2045  2044    2
   656  1088  1090    1
   657  3133  3132    1
   658  3133  3150    1
   659  2887  2882    1
   660  2887  2888    1
   661  2346  2345    1
   662  3114  3112    1
   663  3114  3116    1
   664  2879  2880    1
   665  2623  2625    1
   666  2363  2365    1
   667  2363  2361    1
   668  3433  3444    1
   669  1182  1188   ar
   670  3405  3406    1
   671  2406  2408    1
   672  1109  1127    1
   673  1109  1093    1
   674  3110  3112    1
   675  3110  3111    1
   676  3110  3108    1
   677  3530  3529   ar
   678   887   892    1
   679   937   948    1
   680   937   932    1
   681  3471  3472    1
   682  3471  3473    1
   683  1847  1845   ar
   684  1847  1848   ar
   685  2928  2927    1
   686  1185  1186   ar
   687  2185  2186   ar
   688  3171  3150    2
   689  2093  2091    1
   690  3455  3454    1
   691  1098  1099   ar
   692  1129  1148    1
   693  1129  1131    1
   694   943   946   ar
   695  1874  1873   ar
   696  1164  1163   ar
   697  1164  1167   ar
   698   781   800    1
   699   781   767    1
   700   790   785    1
   701   790   791    1
   702  1845  1844   ar
   703   907   906    1
   704  2043  2044   ar
   705  2043  2041   ar
   706   925   914    1
   707   948   947   ar
   708  1868  1870   ar
   709  2917  2916   ar
   710  2917  2911   ar
   711  1112  1110    1
   712  3408  3413    1
   713  1207  1206    1
   714  3132  3134    1
   715  2584  2583    1
   716  3413  3414    1
   717  1843  1838    1
   718  1843  1854    1
   719  2641  2643    1
   720  2641  2663    1
   721   931   932    1
   722   931   929    1
   723   900   897   ar
   724  2625  2627    1
   725  3129  3127    1
   726  1837  1838    1
   727  1837  1835    1
   728  1163  1169   ar
   729  2183  2181   ar
   730  3127  3149    1
   731  2627  2638    1
   732   793   792    2
   733  2929  2927    1
   734  2929  2930    1
   735  2642  2643    1
   736  2642  2644    1
   737  1092  1090    1
   738  1092  1093    1
   739  1092  1094    1
   740  3134  3136    1
   741  3136  3147    1
   742   892   902    1
   743  3111  3116    1
   744  2421  2440    1
   745  2421  2423    1
   746  2890  2889    2
   747  2042  2041    2
   748  3116  3117    1
   749  1075  1076   ar
   750  3454  3456    1
   751  2044  2046   ar
   752  1077  1076   ar
   753  2397  2395   ar
   754  2369  2371   ar
   755  2369  2368   ar
   756  1091  1090    1
   757  1091  1096    1
   758  3108  3109    1
   759  2610  2609    2
   760  2410  2408    1
   761  2410  2411    1
   762  2064  2063   ar
   763  2064  2066   ar
   764  2359  2361    1
   765  2359  2360    1
   766  1891  1890   ar
   767  1891  1892   ar
   768  1908  1907    1
   769  2063  2061   ar
   770  2195  2194    1
   771   902   896   ar
   772  1203  1202    1
   773  2365  2366    1
   774  2365  2367    1
   775  1895  1892   ar
   776  1907  1909    1
   777  2409  2408    1
   778  2916  2915   ar
   779  1922  1921    1
   780  1909  1910    1
   781   913   912    1
   782  1096  1094    1
   783  1188  1189    2
   784  1188  1187   ar
   785  1917  1916   ar
   786  1917  1910   ar
   787  2080  2087   ar
   788  2080  2079    1
   789  3456  3467    1
   790  3527  3528   ar
   791  2086  2087   ar
   792  3150  3172    1
   793  3150  3152    1
   794  2371  2372   ar
   795   912   914    1
   796   912   910    1
   797   791   792   ar
   798   791   798   ar
   799  2041  2040   ar
   800  1186  1187   ar
   801  1186  1192   ar
   802    48    50    1
   803    48    49    1
   804  2361  2362    1
   805   792   794   ar
   806  1208  1206   ar
   807  1208  1209   ar
   808  2194  2196    1
   809  1167  1168   ar
   810  1206  1205   ar
   811  2942  2941    1
   812  2864  2863    1
   813    31    33    1
   814    31    29    1
   815  1890  1888   ar
   816  2379  2358    2
   817  2394  2395   ar
   818  1848  1854   ar
   819  1848  1849   ar
   820   946   947   ar
   821  2941  2943    1
   822    50    51    1
   823    50    52    1
   824  2186  2187    2
   825  2186  2180   ar
   826  3416  3415    2
   827  2600  2598    1
   828  3119  3118    2
   829  2937  2930   ar
   830  2937  2936   ar
   831   929   930    1
   832  2344  2343    1
   833  2344  2358    1
   834  2608  2609   ar
   835  2608  2615   ar
   836  1094  1095    1
   837    30    29    1
   838    30    47    1
   839  3093  3092    1
   840  3422  3404    2
   841  2888  2889   ar
   842  2888  2895   ar
   843  2368  2374   ar
   844  3389  3388    1
   845  1204  1199    1
   846  1204  1202    1
   847  1204  1215    1
   848  2418  2411   ar
   849  2418  2417   ar
   850  2910  2911   ar
   851  2910  2909   ar
   852  1854  1853   ar
   853  2345  2347    1
   854  2345  2343    1
   855  2880  2878    1
   856  2911  2912   ar
   857  1823  1822    1
   858  3406  3404    1
   859    65    47    2
   860  3151  3152    1
   861  3151  3153    1
   862  1169  1168   ar
   863  1169  1158    1
   864  3444  3443   ar
   865  3444  3438   ar
   866  3529  3528   ar
   867  3529  3532   ar
   868  1187  1190   ar
   869   767   766    1
   870  2644  2645    1
   871  2644  2646    1
   872   914   909    1
   873  3473  3475    1
   874  3473  3474    1
   875  1921  1923    1
   876  1844  1850   ar
   877    27    28    1
   878    27    29    1
   879    27    25    1
   880  1835  1836    1
   881    33    28    1
   882    33    44    1
   883  2181  2180   ar
   884  2181  2182    1
   885  2889  2891   ar
   886  1180  1179    1
   887  1916  1914   ar
   888  2395  2396    1
   889  1873  1871   ar
   890  1226  1225    1
   891  2609  2611   ar
   892  1181  1192    1
   893  1181  1179    1
   894  1181  1176    1
   895  2930  2931   ar
   896   798   797   ar
   897  1910  1911   ar
   898    55    54    1
   899  2078  2077    1
   900  1892  1893   ar
   901  1870  1871   ar
   902    51    56    1
   903  2091  2092    1
   904  1131  1130    1
   905  2079  2077    1
   906  2079  2074    1
   907  2896  2878    2
   908  1192  1191   ar
   909   906   908    1
   910   794   795   ar
   911  2616  2598    2
   912  2583  2585    1
   913  2583  2581    1
   914  2341  2343    1
   915  2341  2342    1
   916  2341  2339    1
   917  3393  3392    1
   918  2411  2412   ar
   919  2077  2075    1
   920  1199  1198    1
   921  3528  3534   ar
   922  2588  2587   ar
   923  2588  2589   ar
   924   897   896   ar
   925   897   898   ar
   926  3414  3415   ar
   927  3414  3421   ar
   928  2587  2586   ar
   929  1202  1200    1
   930  1209  1215   ar
   931  1209  1210   ar
   932  2347  2342    1
   933  2347  2348    1
   934  2209  2210   ar
   935  2209  2207   ar
   936  2638  2637   ar
   937  2638  2632   ar
   938  1205  1211   ar
   939   930   928    1
   940  2046  2047   ar
   941  2645  2650    1
   942  2582  2598    1
   943  2582  2581    1
   944  3147  3146   ar
   945  3147  3141   ar
   946  2980  2960    2
   947  2197  2196    1
   948  2197  2202    1
   949    53    52    1
   950    53    67    1
   951  2066  2067   ar
   952  1158  1153    1
   953  1158  1156    1
   954  3443  3442   ar
   955  2423  2422    1
   956  1215  1214   ar
   957    36    35    1
   958  2061  2062    2
   959  2061  2060   ar
   960  2210  2203   ar
   961  3117  3118   ar
   962  3117  3124   ar
   963   910   908    1
   964   910   911    1
   965  2360  2358    1
   966  2350  2349    2
   967  1222  1227    1
   968  1222  1221    1
   969   896   895   ar
   970  2358  2380    1
   971  2372  2378   ar
   972  2372  2373   ar
   973  3415  3417   ar
   974  3467  3466   ar
   975  3467  3461   ar
   976  3466  3465   ar
   977  3109  3107    1
   978  2092  2090    1
   979   909   908    1
   980    47    49    1
   981    47    66    1
   982  1227  1225    1
   983  1227  1238    1
   984  2915  2912   ar
   985    37    35   ar
   986    37    38   ar
   987  2040  2047   ar
   988  2040  2039    1
   989  3513  3492    2
   990  2422  2424    1
   991  2936  2934   ar
   992  3475  3476    1
   993  3475  3477    1
   994  2598  2617    1
   995  2417  2415   ar
   996    13    12    1
   997  1179  1177    1
   998   797   795   ar
   999  3404  3387    1
  1000  3404  3423    1
  1001  2196  2198    1
  1002  3118  3120   ar
  1003  2367  2362    1
  1004  2367  2378    1
  1005  1176  1175    1
  1006   795   796    1
  1007  2863  2861    1
  1008  2863  2865    1
  1009  2615  2614   ar
  1010  2327  2328   ar
  1011  2327  2326   ar
  1012    85    67    2
  1013   769   768    1
  1014  2862  2878    1
  1015  2862  2861    1
  1016  3153  3154    1
  1017  3153  3155    1
  1018  2878  2897    1
  1019  1190  1191   ar
  1020  1871  1872    2
  1021    52    54    1
  1022  3474  3479    1
  1023  3437  3438   ar
  1024  3437  3435   ar
  1025    25    26    1
  1026  1145  1146   ar
  1027  1145  1143   ar
  1028  2637  2636   ar
  1029  2895  2894   ar
  1030  1849  1850   ar
  1031  1849  1852   ar
  1032  2585  2580    1
  1033  2585  2595    1
  1034  2374  2373   ar
  1035  2374  2375    2
  1036  3438  3439   ar
  1037  1888  1889    1
  1038  1888  1887   ar
  1039    56    54    1
  1040    56    57    1
  1041  3387  3386    1
  1042  2912  2913   ar
  1043  3532  3533   ar
  1044  3146  3145   ar
  1045  2868  2867   ar
  1046  2868  2869   ar
  1047  2867  2866   ar
  1048  1836  1834    1
  1049  3388  3386    1
  1050  3388  3390    1
  1051  2647  2646    1
  1052  2647  2664    1
  1053  3092  3094    1
  1054  3092  3090    1
  1055  1221  1219    1
  1056  1221  1223    1
  1057  2581  2579    1
  1058  2339  2340    1
  1059  2909  2908   ar
  1060  1850  1851    2
  1061  1822  1821   ar
  1062  1822  1824   ar
  1063  2328  2329   ar
  1064  1198  1200    1
  1065  1198  1196    1
  1066     9     8    1
  1067  2378  2377   ar
  1068  2324  2323    1
  1069  1210  1211   ar
  1070  1210  1213   ar
  1071  2208  2207    1
  1072  2943  2944    1
  1073  2943  2945    1
  1074  1225  1223    1
  1075  1853  1852   ar
  1076  3154  3159    1
  1077  1211  1212    2
  1078   766   768    1
  1079   766   764    1
  1080  3125  3107    2
  1081  3097  3096   ar
  1082  3097  3098   ar
  1083  2207  2206   ar
  1084  3140  3141   ar
  1085  3140  3138   ar
  1086    35    34   ar
  1087  2646  2648    1
  1088    44    38   ar
  1089    44    43   ar
  1090  1130  1132    1
  1091  1964  1942    2
  1092  3096  3095   ar
  1093  3421  3420   ar
  1094  1153  1152    1
  1095  2631  2632   ar
  1096  2631  2629   ar
  1097  2373  2376   ar
  1098   899   898    1
  1099  2891  2892   ar
  1100   768   770    1
  1101  1146  1139   ar
  1102  3392  3394   ar
  1103  3392  3391   ar
  1104  3394  3395   ar
  1105  3091  3107    1
  1106  3091  3090    1
  1107  1156  1157    1
  1108  1156  1154    1
  1109  3141  3142   ar
  1110  1214  1213   ar
  1111  2586  2591   ar
  1112  2931  2932    2
  1113  2931  2933   ar
  1114  2632  2633   ar
  1115   898   893   ar
  1116  2579  2580    1
  1117  2579  2577    1
  1118  2611  2612   ar
  1119  2203  2202    1
  1120  2203  2204   ar
  1121  1144  1143    1
  1122  1923  1924    1
  1123  1923  1925    1
  1124  1914  1913   ar
  1125  1914  1915    1
  1126  2589  2595   ar
  1127  2589  2590   ar
  1128  3476  3492    1
  1129  2412  2413    2
  1130  2412  2414   ar
  1131  1911  1912    2
  1132  1911  1913   ar
  1133  1893  1887   ar
  1134  1893  1894    2
  1135  2074  2073    1
  1136  3514  3492    1
  1137  1231  1232   ar
  1138  1231  1229   ar
  1139    67    86    1
  1140    67    69    1
  1141    38    39   ar
  1142  2944  2949    1
  1143  3477  3479    1
  1144  3477  3478    1
  1145  2039  2034    1
  1146  2039  2037    1
  1147  2685  2664    2
  1148  2349  2348   ar
  1149  2349  2351   ar
  1150  3124  3123   ar
  1151  1821  1827   ar
  1152  2075  2076    1
  1153  2075  2073    1
  1154  3492  3494    1
  1155  3534  3533   ar
  1156  3534  3524    1
  1157  1200  1201    1
  1158  2861  2859    1
  1159  1238  1232   ar
  1160  1238  1237   ar
  1161  2326  2331   ar
  1162  2202  2200    1
  1163  2348  2355   ar
  1164   911   928    1
  1165  3107  3126    1
  1166  2649  2648    1
  1167  2067  2060   ar
  1168  3488  3487   ar
  1169  3488  3489   ar
  1170  2060  2059    1
  1171  2650  2648    1
  1172  2650  2661    1
  1173  1230  1229    1
  1174  2960  2981    1
  1175  2960  2946    1
  1176  2960  2962    1
  1177   895   894   ar
  1178  2865  2860    1
  1179  2865  2875    1
  1180  1938  1937   ar
  1181  1938  1939   ar
  1182  3442  3439   ar
  1183  1219  1220    1
  1184  3465  3462   ar
  1185  1824  1825   ar
  1186  3386  3384    1
  1187   928   950    2
  1188   928   949    1
  1189    68    69    1
  1190    68    70    1
  1191  1175  1177    1
  1192  1175  1173    1
  1193  2595  2594   ar
  1194  1143  1142   ar
  1195  3094  3089    1
  1196  3094  3104    1
  1197  2034  2033    1
  1198  1937  1934   ar
  1199    12    14   ar
  1200    12    11   ar
  1201  3417  3418   ar
  1202  3461  3460   ar
  1203  3461  3462   ar
  1204  3523  3522    1
  1205  1963  1942    1
  1206    14    15   ar
  1207  1924  1929    1
  1208  3717  3716    1
  1209  2198  2199    1
  1210  2198  2200    1
  1211  1232  1233   ar
  1212  1223  1224    1
  1213  1819  1818    1
  1214  1855  1834    2
  1215  3479  3489    1
  1216  2415  2414   ar
  1217  2415  2416    1
  1218  3090  3088    1
  1219  2934  2933   ar
  1220  2934  2935    1
  1221  3120  3121   ar
  1222  1245  1244    1
  1223  1245  1250    1
  1224  3390  3385    1
  1225  3390  3401    1
  1226  2424  2425    1
  1227  2424  2426    1
  1228  2866  2871   ar
  1229  1229  1228   ar
  1230  3435  3436    1
  1231  3435  3434   ar
  1232  3156  3155    1
  1233  3156  3173    1
  1234  2664  2686    1
  1235  2664  2666    1
  1236  2090  2076    1
  1237  2090  2109    2
  1238  2090  2108    1
  1239  2614  2612   ar
  1240  2025  2024    2
  1241  3439  3440   ar
  1242  3715  3714    1
  1243  1177  1178    1
  1244  1925  1926    1
  1245  1925  1927    1
  1246  1926  1942    1
  1247  1201  1218    1
  1248  2206  2204   ar
  1249  1942  1944    1
  1250  2894  2892   ar
  1251  3155  3157    1
  1252  2636  2633   ar
  1253  2377  2376   ar
  1254  1224  1241    1
  1255  1196  1197    1
  1256    26    24    1
  1257  2957  2956   ar
  1258  2957  2950   ar
  1259  2425  2430    1
  1260  2869  2875   ar
  1261  2869  2870   ar
  1262  2913  2908   ar
  1263  2913  2914    1
  1264  2859  2860    1
  1265  2859  2857    1
  1266  3145  3142   ar
  1267  2323  2325    1
  1268  2323  2321    1
  1269  3487  3484   ar
  1270  2204  2205    2
  1271  2945  2946    1
  1272  2945  2947    1
  1273   764   762    1
  1274   764   765    1
  1275  3460  3458   ar
  1276  1237  1236   ar
  1277  3384  3385    1
  1278  3384  3382    1
  1279  3138  3139    1
  1280  3138  3137   ar
  1281    57    64   ar
  1282    57    58   ar
  1283     8    10    1
  1284     8     6    1
  1285  1834  1817    1
  1286  1834  1856    1
  1287  3095  3100   ar
  1288  2660  2661   ar
  1289  2660  2659   ar
  1290  3159  3157    1
  1291  3159  3170    1
  1292  3489  3483   ar
  1293  2073  2071    1
  1294  3158  3157    1
  1295  3098  3104   ar
  1296  3098  3099   ar
  1297    43    42   ar
  1298  2892  2893    2
  1299  2023  2024   ar
  1300  2023  2021   ar
  1301  3391  3397   ar
  1302  2956  2954   ar
  1303  2329  2335   ar
  1304  2329  2330   ar
  1305  3524  3522    1
  1306  3524  3519    1
  1307  2629  2630    1
  1308  2629  2628   ar
  1309  3088  3089    1
  1310  3088  3086    1
  1311  2463  2441    2
  1312  2340  2338    1
  1313  1242  1244    1
  1314  1242  1243    1
  1315  2612  2613    2
  1316  3193  3173    2
  1317  1244  1246    1
  1318  3142  3143   ar
  1319  2633  2634   ar
  1320    34    40   ar
  1321   773   772    2
  1322  3420  3418   ar
  1323  1132  1133    1
  1324  1132  1134    1
  1325  3395  3401   ar
  1326  3395  3396   ar
  1327  2577  2578    1
  1328  2591  2590   ar
  1329  2591  2592    1
  1330  2875  2874   ar
  1331  2199  2213    1
  1332  1136  1134    1
  1333  1136  1138    1
  1334  1136  1137    1
  1335  2325  2335    1
  1336  2325  2320    1
  1337   893   894   ar
  1338  1133  1138    1
  1339  2661  2655   ar
  1340  3462  3463   ar
  1341  1139  1138    1
  1342  1139  1140   ar
  1343  1152  1154    1
  1344  1152  1150    1
  1345  2590  2593   ar
  1346  2022  2021    2
  1347  1154  1155    1
  1348    64    63   ar
  1349  3104  3103   ar
  1350  2200  2201    1
  1351    70    71    1
  1352    70    72    1
  1353  1134  1135    1
  1354  2351  2352   ar
  1355  2038  2037    1
  1356  1818  1816    1
  1357  1818  1820    1
  1358   762   763    1
  1359  2962  2961    1
  1360  1220  1218    1
  1361  2024  2026   ar
  1362    10    21    1
  1363    10     5    1
  1364  1178  1195    1
  1365   770   771    1
  1366   770   765    1
  1367  1827  1828    2
  1368  1827  1826   ar
  1369    59    58    2
  1370  3123  3121   ar
  1371  1250  1260    1
  1372  1250  1248    1
  1373    39    42   ar
  1374    39    40   ar
  1375  2355  2354   ar
  1376  2568  2567    2
  1377  2037  2035    1
  1378  1233  1236   ar
  1379  1233  1234   ar
  1380  3522  3520    1
  1381  3418  3419    2
  1382  3716  3714    1
  1383  3716  3718    1
  1384  2232  2213    2
  1385  3401  3400   ar
  1386    11    17   ar
  1387  2949  2950    1
  1388  2949  2947    1
  1389  2331  2330   ar
  1390  2331  2332    1
  1391  2004  2003    2
  1392  1939  1929    1
  1393  1939  1933   ar
  1394  1228  1234   ar
  1395  1173  1174    1
  1396  2059  2057    1
  1397  2059  2054    1
  1398  1825  1826   ar
  1399  1825  1831   ar
  1400  1249  1248    1
  1401  3121  3122    1
  1402  1197  1195    1
  1403    71    76    1
  1404  2438  2437   ar
  1405  2438  2431   ar
  1406  3494  3493    1
  1407    45    24    2
  1408  1817  1816    1
  1409  2021  2020   ar
  1410   772   771   ar
  1411   772   774   ar
  1412  1142  1140   ar
  1413  3173  3194    1
  1414  3173  3175    1
  1415  2462  2441    1
  1416  2335  2334   ar
  1417  1929  1927    1
  1418  2594  2593   ar
  1419     7    24    1
  1420     7     6    1
  1421    15    21   ar
  1422    15    16   ar
  1423    58    60   ar
  1424  2033  2035    1
  1425  2033  2031    1
  1426  2950  2951   ar
  1427  2426  2427    1
  1428  2426  2428    1
  1429  3169  3170   ar
  1430  3169  3168   ar
  1431  1934  1933   ar
  1432  1934  1935   ar
  1433   763   761    1
  1434  2871  2870   ar
  1435  2871  2872    1
  1436  3434  3440   ar
  1437  3714  3712    1
  1438  1151  1150    1
  1439  1151  1149    1
  1440  2356  2338    2
  1441  2437  2435   ar
  1442   771   778   ar
  1443  2322  2321    1
  1444  2322  2338    1
  1445  3170  3164   ar
  1446  2057  2058    1
  1447  2057  2055    1
  1448  2870  2873   ar
  1449    24    46    1
  1450  2441  2427    1
  1451  2441  2443    1
  1452  3440  3441    2
  1453  2666  2665    1
  1454  2330  2333   ar
  1455  2072  2071    1
  1456  2072  2070    1
  1457    40    41    2
  1458  3382  3383    1
  1459  2659  2656   ar
  1460  1218  1239    2
  1461  1218  1240    1
  1462  1234  1235    2
  1463  2665  2667    1
  1464  1174  1172    1
  1465  1936  1935    1
  1466  2947  2948    1
  1467  3137  3143   ar
  1468  3484  3483   ar
  1469  3484  3485   ar
  1470  2857  2858    1
  1471  1927  1928    1
  1472     6     4    1
  1473  1243  1241    1
  1474  2564  2563    1
  1475   774   775   ar
  1476  1140  1141    2
  1477  2321  2319    1
  1478  2213  2231    1
  1479  2213  2215    1
  1480  1826  1829   ar
  1481  3100  3099   ar
  1482  3100  3101    1
  1483  2338  2357    1
  1484    21    20   ar
  1485  2228  2227    2
  1486  2320  2319    1
  1487  3483  3482   ar
  1488  2430  2431    1
  1489  2430  2428    1
  1490  2628  2634   ar
  1491     5     4    1
  1492  3099  3102   ar
  1493  3519  3518    1
  1494  1241  1261    2
  1495  1241  1262    1
  1496  1260  1259   ar
  1497  1260  1254   ar
  1498  3458  3459    1
  1499  3458  3457   ar
  1500  1171  1149    2
  1501  1944  1943    1
  1502  3143  3144    2
  1503  1248  1246    1
  1504  3721  3720    2
  1505   779   761    2
  1506  1816  1814    1
  1507  3397  3396   ar
  1508  3397  3398    2
  1509  3086  3087    1
  1510  3396  3399   ar
  1511  2634  2635    2
  1512  2954  2955    1
  1513  2954  2953   ar
  1514  2578  2576    1
  1515  1820  1831    1
  1516  1820  1815    1
  1517  1155  1172    1
  1518  2035  2036    1
  1519     4     2    1
  1520  2036  2050    1
  1521  1246  1247    1
  1522  2308  2307    2
  1523  2961  2963    1
  1524    63    61   ar
  1525  2229  2227   ar
  1526  2229  2230   ar
  1527  1933  1932   ar
  1528  2431  2432   ar
  1529  1259  1258   ar
  1530  2874  2873   ar
  1531   778   777   ar
  1532  1195  1217    2
  1533  1195  1216    1
  1534  2655  2656   ar
  1535  2655  2654   ar
  1536  1831  1830   ar
  1537  2567  2569   ar
  1538  2567  2566   ar
  1539  3521  3520    1
  1540  3521  3537    1
  1541  2031  2032    1
  1542  1935  1930   ar
  1543  2354  2352   ar
  1544  2319  2317    1
  1545  2352  2353    2
  1546  2026  2027   ar
  1547  2545  2544    1
  1548  3463  3457   ar
  1549  3463  3464    2
  1550  2054  2053    1
  1551  1135  1149    1
  1552  2003  1997   ar
  1553  2003  2002   ar
  1554  1800  1799    1
  1555  2089  2070    2
  1556  3103  3102   ar
  1557  3538  3540    1
  1558  3538  3539    1
  1559  2032  2030    1
  1560  1981  1980    1
  1561    72    73    1
  1562    72    74    1
  1563    73    87    1
  1564   775   777   ar
  1565   775   776    1
  1566  3493  3495    1
  1567  1247  1263    1
  1568  3520  3518    1
  1569  3712  3713    1
  1570  3712  3710    1
  1571  2569  2570   ar
  1572    17    16   ar
  1573    17    18    2
  1574  1149  1170    1
  1575  3174  3175    1
  1576  3174  3176    1
  1577  3400  3399   ar
  1578  2563  2565    1
  1579  2563  2561    1
  1580  2020  2027   ar
  1581  2020  2019    1
  1582  3718  3713    1
  1583  3718  3719    1
  1584   761   780    1
  1585   761   747    1
  1586  3168  3165   ar
  1587  2055  2053    1
  1588  2055  2056    1
  1589  1254  1253   ar
  1590  1254  1255   ar
  1591  2227  2226   ar
  1592  1253  1252   ar
  1593  3558  3537    2
  1594    16    19   ar
  1595  2428  2429    1
  1596  1960  1961   ar
  1597  1960  1957   ar
  1598  1997  1998   ar
  1599    76    74    1
  1600    76    77    1
  1601    60    61   ar
  1602  2656  2657   ar
  1603  2858  2856    1
  1604  2309  2307   ar
  1605  2309  2310   ar
  1606  2334  2333   ar
  1607  3077  3076    2
  1608  2435  2436    2
  1609  2435  2434   ar
  1610  2951  2953   ar
  1611  2951  2952    2
  1612  2017  2018    1
  1613  2017  2019    1
  1614  2017  2015    1
  1615  3383  3381    1
  1616    75    74    1
  1617  1172  1194    2
  1618  1172  1193    1
  1619  2848  2847    2
  1620  3540  3541    1
  1621  3540  3542    1
  1622  2654  2652   ar
  1623  3373  3372    2
  1624  3164  3165   ar
  1625  3164  3163   ar
  1626  3485  3486    1
  1627  3485  3480   ar
  1628  2070  2056    1
  1629  2070  2088    1
  1630  1959  1958    2
  1631  2543  2544   ar
  1632  2543  2549   ar
  1633  1258  1255   ar
  1634  3482  3481   ar
  1635  1943  1945    1
  1636  3720  3719   ar
  1637  3720  3722   ar
  1638  1798  1799   ar
  1639  1798  1804   ar
  1640  2052  2050    1
  1641  2052  2051    1
  1642  2307  2306   ar
  1643  3518  3516    1
  1644    61    62    1
  1645  2230  2223   ar
  1646  3087  3085    1
  1647  2667  2668    1
  1648  2667  2669    1
  1649  1814  1815    1
  1650  1814  1812    1
  1651  1961  1962   ar
  1652  2215  2214    1
  1653  2290  2289    2
  1654  1986  1965    2
  1655  1829  1830   ar
  1656  3698  3697    1
  1657    84    77   ar
  1658    84    83   ar
  1659  3535  3515    2
  1660  2978  2977   ar
  1661  2978  2979   ar
  1662  2443  2442    1
  1663  1255  1256   ar
  1664  2285  2284    1
  1665  2565  2566    1
  1666  2565  2560    1
  1667  2977  2974   ar
  1668    20    19   ar
  1669   108    87    2
  1670  2283  2289   ar
  1671  2283  2284   ar
  1672  1799  1801   ar
  1673  2844  2843    1
  1674  3537  3539    1
  1675  3537  3559    1
  1676  2544  2546   ar
  1677  1252  1251   ar
  1678  2019  2014    1
  1679  2311  2310    1
  1680  2668  2673    1
  1681  2053  2051    1
  1682  2566  2573   ar
  1683  3578  3560    2
  1684  2432  2434   ar
  1685  2432  2433    2
  1686  3719  3726   ar
  1687  3073  3072    1
  1688  3543  3542    1
  1689  3543  3560    1
  1690  2964  2963    1
  1691  2964  2969    1
  1692  2050  2068    2
  1693  2050  2069    1
  1694  3710  3711    1
  1695  3369  3368    1
  1696  2963  2965    1
  1697  3165  3166   ar
  1698  3163  3161   ar
  1699  2550  2549    2
  1700  2002  2005   ar
  1701  2002  2001   ar
  1702  2576  2596    2
  1703  2576  2562    1
  1704  2576  2597    1
  1705     2     3    1
  1706    87   109    1
  1707    87    89    1
  1708  1805  1804    2
  1709  3517  3516    1
  1710  3517  3515    1
  1711    77    78   ar
  1712  2562  2561    1
  1713  1932  1931   ar
  1714  3541  3546    1
  1715  2248  2247    1
  1716  2005  2006   ar
  1717  2442  2444    1
  1718  1930  1931   ar
  1719  2049  2030    2
  1720  2310  2312   ar
  1721  3495  3497    1
  1722  3495  3496    1
  1723  2570  2571    2
  1724  2570  2572   ar
  1725  1980  1979   ar
  1726  1980  1975   ar
  1727  3076  3078   ar
  1728  3076  3075   ar
  1729  1957  1958   ar
  1730  1957  1956   ar
  1731  2015  2016    1
  1732  2015  2013    1
  1733  2709  2687    2
  1734  3078  3079   ar
  1735  2561  2559    1
  1736  3176  3177    1
  1737  3176  3178    1
  1738  2317  2318    1
  1739  2030  2016    1
  1740  2030  2048    1
  1741  3722  3723   ar
  1742  1998  1999    1
  1743  1998  2000   ar
  1744  2226  2224   ar
  1745   747   746    1
  1746  2289  2288   ar
  1747  1958  1952   ar
  1748  1804  1803   ar
  1749  1982  1979   ar
  1750  1982  1983   ar
  1751  2549  2548   ar
  1752  1281  1263    2
  1753  1256  1251   ar
  1754  1256  1257    1
  1755    83    81   ar
  1756  3372  3374   ar
  1757  3372  3371   ar
  1758  2847  2849   ar
  1759  2847  2846   ar
  1760  2284  2286   ar
  1761  1263  1282    1
  1762  1263  1265    1
  1763  3481  3480   ar
  1764  3177  3182    1
  1765  2843  2845    1
  1766  2843  2841    1
  1767  3542  3544    1
  1768  3374  3375   ar
  1769  2268  2267    2
  1770  3545  3544    1
  1771  3402  3381    2
  1772  2849  2850   ar
  1773  2657  2658    2
  1774  2657  2651   ar
  1775  3368  3370    1
  1776  3368  3366    1
  1777  2214  2216    1
  1778  2683  2682   ar
  1779  2683  2684   ar
  1780  3072  3074    1
  1781  3072  3070    1
  1782  3497  3498    1
  1783  3497  3499    1
  1784  2652  2651   ar
  1785  2652  2653    1
  1786  3560  3579    1
  1787  3560  3562    1
  1788  1264  1265    1
  1789  1264  1266    1
  1790  3515  3498    1
  1791  3515  3536    1
  1792  3381  3367    1
  1793  3381  3403    1
  1794  2304  2303    1
  1795  2856  2876    2
  1796  2856  2842    1
  1797  2856  2877    1
  1798   749   748    1
  1799  2669  2670    1
  1800  2669  2671    1
  1801  3697  3696   ar
  1802  3697  3699   ar
  1803  1267  1266    1
  1804  1267  1272    1
  1805  1738  1737    2
  1806  2223  2224   ar
  1807  2223  2222    1
  1808  1979  1978   ar
  1809  2979  2969    1
  1810  2979  2973   ar
  1811  1945  1946    1
  1812  1945  1947    1
  1813  1801  1802   ar
  1814  1812  1813    1
  1815  2306  2305    1
  1816  2306  2313   ar
  1817  2670  2687    1
  1818  1962  1956   ar
  1819  1962  1951    1
  1820  1975  1976   ar
  1821  2560  2559    1
  1822  1965  1985    1
  1823  1965  1948    1
  1824  1965  1967    1
  1825   748   746    1
  1826   748   750    1
  1827  3711  3709    1
  1828  2217  2216    1
  1829  2217  2222    1
  1830  3105  3085    2
  1831  2546  2547   ar
  1832  2842  2841    1
  1833  2974  2973   ar
  1834  2974  2975   ar
  1835  3696  3702   ar
  1836  3726  3725   ar
  1837  3085  3071    1
  1838  3085  3106    1
  1839     3     1    1
  1840  1946  1951    1
  1841  2573  2572   ar
  1842  2969  2967    1
  1843  1947  1948    1
  1844  1947  1949    1
  1845  2001  2000   ar
  1846  2001  2007   ar
  1847  2303  2305    1
  1848  2303  2301    1
  1849  2318  2316    1
  1850  2682  2679   ar
  1851  3161  3160   ar
  1852  3161  3162    1
  1853  2559  2557    1
  1854  2976  2975    1
  1855  2014  2013    1
  1856  3546  3544    1
  1857  3546  3557    1
  1858  3367  3366    1
  1859  2965  2966    1
  1860  2965  2967    1
  1861  2673  2684    1
  1862  2673  2671    1
  1863   753   752    2
  1864  2224  2225    2
  1865    78    79    2
  1866    78    80   ar
  1867   746   744    1
  1868  3191  3190   ar
  1869  3191  3192   ar
  1870  3166  3160   ar
  1871  3166  3167    2
  1872  2305  2300    1
  1873  3080  3079    1
  1874  2527  2526    2
  1875  3496  3501    1
  1876  3079  3081   ar
  1877  2006  2007   ar
  1878  1266  1268    1
  1879  2459  2460   ar
  1880  2459  2456   ar
  1881  2687  2708    1
  1882  2687  2689    1
  1883  3074  3075    1
  1884  3074  3069    1
  1885  3075  3082   ar
  1886  2460  2461   ar
  1887  2247  2249   ar
  1888  2247  2246   ar
  1889  3001  2982    2
  1890  2845  2846    1
  1891  2845  2840    1
  1892  1956  1955   ar
  1893    89    88    1
  1894  1983  1984   ar
  1895  1813  1811    1
  1896  3370  3371    1
  1897  3370  3365    1
  1898  3723  3725   ar
  1899  3723  3724    2
  1900  2846  2853   ar
  1901  2684  2678   ar
  1902  3071  3070    1
  1903  1803  1802   ar
  1904  1803  1806   ar
  1905  2841  2839    1
  1906  3371  3378   ar
  1907  1739  1736   ar
  1908  1739  1740   ar
  1909  2013  2011    1
  1910  3178  3179    1
  1911  3178  3180    1
  1912  3499  3501    1
  1913  3499  3500    1
  1914  2312  2313   ar
  1915  3699  3700   ar
  1916  2444  2445    1
  1917  2444  2446    1
  1918  3375  3376    1
  1919  3375  3377   ar
  1920  3366  3364    1
  1921    81    80   ar
  1922    81    82    1
  1923  2704  2703    2
  1924  2216  2218    1
  1925  2997  2996    1
  1926  2548  2547   ar
  1927  2548  2551   ar
  1928  1952  1953   ar
  1929  1802  1808   ar
  1930  2850  2851    1
  1931  2850  2852   ar
  1932   754   752   ar
  1933   754   755   ar
  1934   752   751   ar
  1935  2267  2266   ar
  1936  2267  2269   ar
  1937  2486  2464    2
  1938  2966  2982    1
  1939  2222  2220    1
  1940  2249  2250   ar
  1941  2973  2972   ar
  1942  2975  2970   ar
  1943  2288  2287   ar
  1944  2288  2291   ar
  1945  2286  2287   ar
  1946  3190  3187   ar
  1947    88    90    1
  1948  3179  3195    1
  1949  3070  3068    1
  1950  1951  1949    1
  1951  1272  1273    1
  1952  1272  1270    1
  1953  3182  3192    1
  1954  3182  3180    1
  1955  2445  2450    1
  1956  2009  1987    2
  1957  1737  1736   ar
  1958  1737  1731   ar
  1959  2671  2672    1
  1960  2547  2553   ar
  1961  3039  3038    2
  1962  1280  1273   ar
  1963  1280  1279   ar
  1964  1967  1966    1
  1965  3561  3562    1
  1966  3561  3563    1
  1967  3057  3056    2
  1968  3217  3195    2
  1969  2007  1996    1
  1970  2012  2011    1
  1971  2012  2010    1
  1972  2029  2010    2
  1973  3017  3016    2
  1974  2705  2706   ar
  1975  2705  2702   ar
  1976  2266  2264   ar
  1977  2967  2968    1
  1978   756   755    2
  1979  3192  3186   ar
  1980  2520  2526   ar
  1981  2520  2521   ar
  1982  1782  1781    1
  1983  3727  3709    2
  1984  3702  3703    2
  1985  3702  3701   ar
  1986   755   757   ar
  1987  1978  1984   ar
  1988  1978  1977   ar
  1989  1273  1274   ar
  1990  2246  2244   ar
  1991  1736  1735   ar
  1992  1279  1277   ar
  1993  2526  2525   ar
  1994  3058  3056   ar
  1995  3058  3059   ar
  1996  2998  2996   ar
  1997  2998  2999   ar
  1998   751   750    1
  1999   751   758   ar
  2000  1976  1977   ar
  2001  3501  3512    1
  2002  1949  1950    1
  2003  2752  2732    2
  2004  2982  3000    1
  2005  2982  2984    1
  2006  3511  3512   ar
  2007  3511  3510   ar
  2008   750   745    1
  2009  2287  2293   ar
  2010  1740  1741   ar
  2011  2218  2220    1
  2012  2218  2219    1
  2013  3694  3693    1
  2014  2252  2233    2
  2015  3557  3556   ar
  2016  3557  3551   ar
  2017  3082  3081   ar
  2018  3709  3692    1
  2019  3709  3728    1
  2020  2446  2447    1
  2021  2446  2448    1
  2022  2481  2480    2
  2023  3060  3059    2
  2024  3216  3195    1
  2025  2679  2678   ar
  2026  2679  2680   ar
  2027  1776  1781   ar
  2028  1776  1777   ar
  2029  3195  3197    1
  2030  3556  3555   ar
  2031  2301  2302    1
  2032  2301  2299    1
  2033  2839  2840    1
  2034  2839  2837    1
  2035  1984  1974    1
  2036  2996  2995   ar
  2037     1    22    1
  2038     1    23    1
  2039  3180  3181    1
  2040  1806  1807   ar
  2041  2461  2450    1
  2042  2461  2455   ar
  2043  2300  2299    1
  2044  2853  2852   ar
  2045  2557  2558    1
  2046  1955  1953   ar
  2047  3069  3068    1
  2048  2456  2457   ar
  2049  2456  2455   ar
  2050  2689  2688    1
  2051  3378  3377   ar
  2052  2458  2457    2
  2053  3700  3701   ar
  2054  3700  3706   ar
  2055   744   745    1
  2056   744   742    1
  2057  2678  2677   ar
  2058  2291  2292   ar
  2059  2316  2302    1
  2060  2316  2336    2
  2061  2316  2337    1
  2062  2703  2702   ar
  2063  2703  2697   ar
  2064  2447  2464    1
  2065  3056  3055   ar
  2066  1953  1954    1
  2067  3365  3364    1
  2068  3364  3362    1
  2069  2269  2270   ar
  2070   757   758   ar
  2071  1796  1795    1
  2072  2522  2521    1
  2073  3693  3691    1
  2074  3693  3695    1
  2075  2551  2552   ar
  2076  1268  1270    1
  2077  1268  1269    1
  2078  2706  2707   ar
  2079  1274  1275    2
  2080  1274  1276   ar
  2081  3032  3038   ar
  2082  3032  3033   ar
  2083  3068  3066    1
  2084  2464  2485    1
  2085  2464  2466    1
  2086  1795  1797    1
  2087  1795  1793    1
  2088  1808  1807   ar
  2089  1808  1797    1
  2090  1277  1276   ar
  2091  1277  1278    1
  2092  2010  2028    1
  2093  2010  1993    1
  2094  3512  3506   ar
  2095  2220  2221    1
  2096  1731  1732   ar
  2097  1271  1270    1
  2098    91    90    1
  2099    91    96    1
  2100  3038  3037   ar
  2101  2702  2701   ar
  2102  1781  1780   ar
  2103  1811  1833    2
  2104  1811  1832    1
  2105  1811  1794    1
  2106  2450  2448    1
  2107  2504  2503    2
  2108  2250  2243   ar
  2109  3059  3061   ar
  2110  3187  3186   ar
  2111  3187  3188   ar
  2112  3701  3704   ar
  2113  2972  2971   ar
  2114  2970  2971   ar
  2115    90    92    1
  2116  3692  3691    1
  2117  2521  2523   ar
  2118  3510  3507   ar
  2119  2558  2556    1
  2120  2553  2552   ar
  2121  2553  2542    1
  2122  2457  2451   ar
  2123  2999  2992   ar
  2124  3016  3015   ar
  2125  3016  3018   ar
  2126  3186  3185   ar
  2127  1987  1989    1
  2128  1987  2008    1
  2129  1987  1971    1
  2130  2482  2479   ar
  2131  2482  2483   ar
  2132  2299  2297    1
  2133   106   105   ar
  2134   106   107   ar
  2135  3563  3564    1
  2136  3563  3565    1
  2137  1996  1994    1
  2138  1996  1991    1
  2139  2219  2233    1
  2140  1994  1992    1
  2141  1994  1995    1
  2142  1777  1778   ar
  2143  2264  2265    2
  2144  2264  2263   ar
  2145  2772  2754    2
  2146  1989  1988    1
  2147  1966  1968    1
  2148   742   743    1
  2149   743   741    1
  2150  2455  2454   ar
  2151  1797  1792    1
  2152  2244  2243   ar
  2153  2244  2245    2
  2154  1992  1993    1
  2155  1992  1990    1
  2156  1269  1283    1
  2157  1735  1741   ar
  2158  1735  1734   ar
  2159  2984  2983    1
  2160  1741  1730    1
  2161  2680  2681    2
  2162  2680  2674   ar
  2163  2732  2753    1
  2164  2732  2716    1
  2165  2732  2734    1
  2166  3691  3689    1
  2167  2525  2528   ar
  2168  2525  2524   ar
  2169  2480  2479   ar
  2170  2480  2474   ar
  2171  3034  3033    1
  2172   105   102   ar
  2173  2448  2449    1
  2174  1970  1971    1
  2175  1970  1968    1
  2176  1970  1972    1
  2177  2233  2235    1
  2178  2233  2251    1
  2179  3551  3550   ar
  2180  3551  3552   ar
  2181  2293  2292   ar
  2182  2293  2282    1
  2183  3706  3695    1
  2184  3706  3705   ar
  2185  2540  2541    1
  2186  2540  2542    1
  2187  2540  2538    1
  2188  1729  1728    1
  2189  3555  3552   ar
  2190  1794  1793    1
  2191  2995  2993   ar
  2192  3695  3690    1
  2193  3564  3569    1
  2194  2829  2827   ar
  2195  2829  2830   ar
  2196  2731  2710    2
  2197  2831  2830    1
  2198  1793  1791    1
  2199  2677  2675   ar
  2200  2828  2827    2
  2201  2697  2698   ar
  2202  3033  3035   ar
  2203  2243  2242    1
  2204  1974  1969    1
  2205  1974  1972    1
  2206  2688  2690    1
  2207  2837  2838    1
  2208  3189  3188    1
  2209  2542  2537    1
  2210  3550  3548   ar
  2211  3015  3013   ar
  2212  2270  2263   ar
  2213   760   741    2
  2214  3018  3019   ar
  2215  1969  1968    1
  2216  3197  3196    1
  2217  2479  2478   ar
  2218  3188  3183   ar
  2219  1991  1990    1
  2220  3055  3054    1
  2221  3055  3062   ar
  2222  3362  3363    1
  2223  3675  3674    1
  2224  2707  2701   ar
  2225  2707  2696    1
  2226  1732  1734   ar
  2227  1732  1733    1
  2228  2466  2465    1
  2229  2528  2529   ar
  2230  2483  2484   ar
  2231  2716  2715    1
  2232  1972  1973    1
  2233  2503  2497   ar
  2234  2503  2502   ar
  2235  2701  2700   ar
  2236    96   107    1
  2237    96    94    1
  2238  3704  3705   ar
  2239  3506  3507   ar
  2240  3506  3505   ar
  2241  1780  1783   ar
  2242  1780  1779   ar
  2243   107   101   ar
  2244    92    93    1
  2245    92    94    1
  2246  3598  3580    2
  2247  3037  3040   ar
  2248  3037  3036   ar
  2249  3066  3067    1
  2250  3053  3052    1
  2251   759   741    1
  2252  2263  2262    1
  2253  2773  2754    1
  2254  3566  3565    1
  2255  3566  3580    1
  2256  3599  3580    1
  2257   741   724    1
  2258  2523  2524   ar
  2259   735   734    2
  2260  3185  3184   ar
  2261   730   729    1
  2262  1728  1730    1
  2263  1728  1726    1
  2264  3507  3508   ar
  2265  3353  3352    2
  2266  3061  3062   ar
  2267  3673  3674   ar
  2268  3673  3679   ar
  2269  2827  2826   ar
  2270  3354  3352   ar
  2271  3354  3355   ar
  2272  3565  3567    1
  2273   728   734   ar
  2274   728   729   ar
  2275  3356  3355    1
  2276  2838  2836    1
  2277  2830  2832   ar
  2278  3363  3361    1
  2279  3052  3054    1
  2280  3052  3050    1
  2281  3552  3553   ar
  2282  2992  2993   ar
  2283  2992  2991    1
  2284  1990  1988    1
  2285  2754  2738    1
  2286  2754  2756    1
  2287  2235  2234    1
  2288  2524  2530   ar
  2289  3680  3679    2
  2290  1778  1779   ar
  2291  2734  2733    1
  2292  2451  2452   ar
  2293   653   632    2
  2294  2474  2475   ar
  2295  1305  1283    2
  2296  3067  3065    1
  2297  1730  1725    1
  2298  3054  3049    1
  2299  2983  2985    1
  2300  2282  2280    1
  2301  2282  2277    1
  2302  3580  3582    1
  2303  3577  3576   ar
  2304  3577  3570   ar
  2305  2993  2994    2
  2306    93   110    1
  2307  2674  2675   ar
  2308   734   733   ar
  2309  2297  2298    1
  2310  2556  2575    2
  2311  2556  2539    1
  2312  2556  2574    1
  2313  3040  3041   ar
  2314   729   731   ar
  2315  2454  2452   ar
  2316  2691  2690    1
  2317  2691  2696    1
  2318  2497  2498   ar
  2319  3196  3198    1
  2320   102   101   ar
  2321   102   103   ar
  2322  2298  2296    1
  2323  2538  2539    1
  2324  2538  2536    1
  2325  2733  2735    1
  2326  1792  1791    1
  2327  2675  2676    1
  2328  3674  3676   ar
  2329  1283  1285    1
  2330  1283  1304    1
  2331  3235  3234    2
  2332  2505  2502   ar
  2333  2505  2506   ar
  2334  2280  2281    1
  2335  2280  2278    1
  2336  3689  3690    1
  2337  3689  3687    1
  2338  2711  2713    1
  2339  2711  2712    1
  2340  1783  1784   ar
  2341  3352  3351   ar
  2342  3213  3214   ar
  2343  3213  3210   ar
  2344  2986  2991    1
  2345  2986  2985    1
  2346  1779  1785   ar
  2347  2738  2737    1
  2348  2690  2692    1
  2349  3355  3357   ar
  2350  3679  3678   ar
  2351  3576  3574   ar
  2352  2698  2700   ar
  2353  2698  2699    1
  2354  3214  3215   ar
  2355   131   110    2
  2356  2502  2501   ar
  2357  3035  3036   ar
  2358  2692  2694    1
  2359  2692  2693    1
  2360  1791  1789    1
  2361    94    95    1
  2362  3505  3503   ar
  2363  3183  3184   ar
  2364  3569  3570    1
  2365  3569  3567    1
  2366   101   100   ar
  2367  2696  2694    1
  2368  3036  3042   ar
  2369  3548  3549    1
  2370  3548  3547   ar
  2371  2509  2487    2
  2372  2710  2712    1
  2373  2710  2693    1
  2374  2710  2730    1
  2375  3019  3012   ar
  2376  2242  2237    1
  2377  2242  2240    1
  2378  3013  3014    2
  2379  3013  3012   ar
  2380  2537  2536    1
  2381  2452  2453    1
  2382  2478  2484   ar
  2383  2478  2477   ar
  2384  2465  2467    1
  2385  3256  3255    2
  2386  2529  2530   ar
  2387  2715  2713    1
  2388  2715  2717    1
  2389   104   103    2
  2390  2713  2714    1
  2391  2484  2473    1
  2392  2237  2236    1
  2393   731   732   ar
  2394   733   732   ar
  2395   733   736   ar
  2396  2991  2989    1
  2397   130   110    1
  2398   110   112    1
  2399  3021  3002    2
  2400  1285  1284    1
  2401  2985  2987    1
  2402  3570  3571   ar
  2403   103    97   ar
  2404  3567  3568    1
  2405  1725  1724    1
  2406  2826  2833   ar
  2407  2826  2825    1
  2408  3508  3509    2
  2409  3508  3502   ar
  2410  2530  2519    1
  2411  2824  2823    1
  2412  2272  2253    2
  2413  3050  3051    1
  2414  3050  3048    1
  2415  2832  2833   ar
  2416  2823  2825    1
  2417  2823  2821    1
  2418  2262  2260    1
  2419  2262  2257    1
  2420  2756  2755    1
  2421  2755  2757    1
  2422  3199  3198    1
  2423  3199  3204    1
  2424  1726  1727    1
  2425  1726  1724    1
  2426   724   723    1
  2427  2737  2735    1
  2428  2737  2739    1
  2429  2694  2695    1
  2430   732   738   ar
  2431  2234  2236    1
  2432   632   654    1
  2433   632   616    1
  2434   632   634    1
  2435  3553  3547   ar
  2436  3553  3554    2
  2437  3361  3380    2
  2438  3361  3379    1
  2439  3361  3347    1
  2440  2315  2296    2
  2441  2277  2276    1
  2442   630   610    2
  2443  2836  2855    2
  2444  2836  2854    1
  2445  2836  2822    1
  2446  2278  2279    1
  2447  2278  2276    1
  2448  2475  2477   ar
  2449  2475  2476    1
  2450  2536  2534    1
  2451  2735  2736    1
  2452  3012  3011    1
  2453  3212  3211    2
  2454  1302  1301   ar
  2455  1302  1303   ar
  2456  3051  3065    1
  2457  3676  3677   ar
  2458  1790  1789    1
  2459  1790  1788    1
  2460  2811  2810    1
  2461   736   737   ar
  2462  2987  2989    1
  2463  2987  2988    1
  2464  1301  1298   ar
  2465  3041  3042   ar
  2466  3049  3048    1
  2467   725   723    1
  2468   725   726    1
  2469   725   727    1
  2470  3687  3688    1
  2471  3198  3200    1
  2472  3234  3228   ar
  2473  3234  3233   ar
  2474  3065  3084    2
  2475  3065  3083    1
  2476  2506  2507   ar
  2477  1784  1785   ar
  2478  3349  3348    1
  2479  3348  3350    1
  2480  3348  3346    1
  2481   616   615    1
  2482  2718  2717    1
  2483  2498  2499    1
  2484  2498  2500   ar
  2485  3210  3211   ar
  2486  3210  3209   ar
  2487  1785  1775    1
  2488  3351  3350    1
  2489  3351  3358   ar
  2490  2296  2279    1
  2491  2296  2314    1
  2492  1287  1292    1
  2493  1287  1286    1
  2494  3688  3686    1
  2495  3336  3335    2
  2496   723   721    1
  2497  2240  2238    1
  2498  2240  2241    1
  2499  2238  2236    1
  2500  2238  2239    1
  2501  3357  3358   ar
  2502  3678  3677   ar
  2503  3678  3681   ar
  2504  3582  3581    1
  2505   100    98   ar
  2506  2825  2820    1
  2507  2260  2258    1
  2508  2260  2261    1
  2509  2468  2467    1
  2510  2468  2473    1
  2511  3215  3204    1
  2512  3215  3209   ar
  2513  1727  1744    1
  2514  2295  2273    2
  2515  3503  3502   ar
  2516  3503  3504    1
  2517  3042  3031    1
  2518  2501  2500   ar
  2519  2501  2507   ar
  2520  3574  3575    1
  2521  3574  3573   ar
  2522  2467  2469    1
  2523  1810  1788    2
  2524   611   613    1
  2525   611   612    1
  2526  2795  2774    2
  2527  3255  3254   ar
  2528  3255  3257   ar
  2529  2469  2470    1
  2530  2469  2471    1
  2531  2717  2719    1
  2532  1724  1722    1
  2533   738   737   ar
  2534   738   727    1
  2535  2257  2256    1
  2536  2989  2990    1
  2537   740   718    2
  2538  3211  3205   ar
  2539  2535  2534    1
  2540  2535  2533    1
  2541  3236  3233   ar
  2542  3236  3237   ar
  2543  1303  1292    1
  2544  1303  1297   ar
  2545   713   712    2
  2546  2473  2471    1
  2547  3677  3683   ar
  2548  2555  2533    2
  2549  2487  2470    1
  2550  2487  2508    1
  2551  2487  2489    1
  2552  3254  3252   ar
  2553  3048  3046    1
  2554  2821  2822    1
  2555  2821  2819    1
  2556  1292  1290    1
  2557  3228  3229   ar
  2558    97    98   ar
  2559  1298  1297   ar
  2560  1298  1299   ar
  2561  3350  3345    1
  2562  3658  3657    1
  2563  3204  3202    1
  2564  3240  3218    2
  2565  2714  2719    1
  2566  2276  2274    1
  2567  2532  2510    2
  2568  3347  3346    1
  2569  2275  2273    1
  2570  2275  2274    1
  2571  1300  1299    2
  2572  1722  1723    1
  2573  3233  3232   ar
  2574  2794  2774    1
  2575  2255  2253    1
  2576  2255  2254    1
  2577  2258  2256    1
  2578  2258  2259    1
  2579  3571  3573   ar
  2580  3571  3572    2
  2581  3002  2988    1
  2582  3002  3004    1
  2583  3002  3020    1
  2584  3581  3583    1
  2585  1743  1721    2
  2586  1284  1286    1
  2587  3346  3344    1
  2588   613   615    1
  2589   613   614    1
  2590  2519  2517    1
  2591  2519  2514    1
  2592  3209  3208   ar
  2593   112   111    1
  2594  2253  2239    1
  2595  2253  2271    1
  2596  2507  2496    1
  2597    98    99    1
  2598  3316  3315    1
  2599  3200  3201    1
  2600  3200  3202    1
  2601  2810  2809   ar
  2602  2810  2812   ar
  2603   634   633    1
  2604  2809  2807   ar
  2605  1788  1809    1
  2606  1788  1772    1
  2607   676   655    2
  2608   727   722    1
  2609  1773  1775    1
  2610  1773  1774    1
  2611  1773  1771    1
  2612  1297  1296   ar
  2613  1299  1293   ar
  2614  2517  2515    1
  2615  2517  2518    1
  2616  2757  2758    1
  2617  2757  2759    1
  2618  2736  2741    1
  2619   633   635    1
  2620  1286  1288    1
  2621  3681  3682   ar
  2622  3335  3334   ar
  2623  3335  3337   ar
  2624  2739  2740    1
  2625  2739  2741    1
  2626   615   617    1
  2627  1760  1759    1
  2628  2471  2472    1
  2629  1775  1770    1
  2630   127   128   ar
  2631   127   124   ar
  2632   610   612    1
  2633   610   596    1
  2634   610   631    1
  2635  2774  2760    1
  2636  2774  2776    1
  2637  3004  3003    1
  2638  2489  2488    1
  2639  3708  3686    2
  2640   739   718    1
  2641  1765  1744    2
  2642  3011  3006    1
  2643  3011  3009    1
  2644   720   718    1
  2645   720   719    1
  2646   712   714   ar
  2647   712   711   ar
  2648  3334  3332   ar
  2649  2273  2259    1
  2650  2273  2294    1
  2651  1761  1762   ar
  2652  1761  1758   ar
  2653   677   655    1
  2654   718   704    1
  2655  3686  3707    1
  2656  3686  3669    1
  2657  2719  2729    1
  2658  1744  1764    1
  2659  1744  1746    1
  2660  2750  2749   ar
  2661  2750  2751   ar
  2662  3596  3597   ar
  2663  3596  3594   ar
  2664  2533  2516    1
  2665  2533  2554    1
  2666  2760  2759    1
  2667  2256  2254    1
  2668   128   129   ar
  2669   596   595    1
  2670  2515  2516    1
  2671  2515  2513    1
  2672   618   617    1
  2673  2820  2819    1
  2674  3257  3258   ar
  2675  3031  3029    1
  2676  3031  3026    1
  2677  3237  3238   ar
  2678   721   722    1
  2679   721   719    1
  2680   111   113    1
  2681  3047  3046    1
  2682  3047  3045    1
  2683  1723  1721    1
  2684  1771  1772    1
  2685  1771  1769    1
  2686  3622  3600    2
  2687  3201  3218    1
  2688   126   125    1
  2689  1296  1294   ar
  2690  3296  3295    2
  2691  3006  3005    1
  2692   714   715   ar
  2693  1293  1294   ar
  2694  3683  3682   ar
  2695  3683  3672    1
  2696  3252  3253    2
  2697  3252  3251   ar
  2698  2512  2510    1
  2699  2512  2511    1
  2700  3205  3206   ar
  2701  3202  3203    1
  2702  3597  3590   ar
  2703  2758  2763    1
  2704  2514  2513    1
  2705  3044  3022    2
  2706  2759  2761    1
  2707   655   638    1
  2708   655   657    1
  2709  3029  3030    1
  2710  3029  3027    1
  2711  2819  2817    1
  2712  2741  2751    1
  2713  3657  3656   ar
  2714  3657  3659   ar
  2715   711   709   ar
  2716  1721  1742    1
  2717  1721  1707    1
  2718  1762  1763   ar
  2719  3218  3239    1
  2720  3218  3220    1
  2721  3229  3230    1
  2722  3229  3231   ar
  2723  3670  3671    1
  2724  3670  3672    1
  2725  3670  3668    1
  2726  3345  3344    1
  2727  2749  2746   ar
  2728  2510  2531    1
  2729  2510  2493    1
  2730  1290  1291    1
  2731  1290  1288    1
  2732  2807  2808    2
  2733  2807  2806   ar
  2734  2812  2813   ar
  2735  1294  1295    1
  2736  3009  3007    1
  2737  3009  3010    1
  2738  3232  3238   ar
  2739  3232  3231   ar
  2740   598   597    1
  2741  3208  3206   ar
  2742   614   619    1
  2743   617   619    1
  2744  3064  3045    2
  2745  1759  1758   ar
  2746  1759  1754   ar
  2747  3595  3594    1
  2748  3337  3338   ar
  2749  3315  3317   ar
  2750  3315  3314   ar
  2751  3344  3342    1
  2752  1758  1757   ar
  2753  3656  3654   ar
  2754  2751  2745   ar
  2755  2790  2789    1
  2756   124   125   ar
  2757   124   123   ar
  2758   638   637    1
  2759  3583  3584    1
  2760  3583  3585    1
  2761  1770  1769    1
  2762  3276  3275    1
  2763  3007  3005    1
  2764  3007  3008    1
  2765   114   113    1
  2766   114   119    1
  2767  2496  2491    1
  2768  2496  2494    1
  2769  1288  1289    1
  2770  3295  3297   ar
  2771  3295  3294   ar
  2772  3584  3589    1
  2773  1470  1469    1
  2774  2492  2494    1
  2775  2492  2493    1
  2776  2492  2490    1
  2777  3332  3333    2
  2778  3332  3331   ar
  2779  3594  3593   ar
  2780   635   637    1
  2781   635   636    1
  2782  2729  2728   ar
  2783  2729  2723   ar
  2784  2513  2511    1
  2785  3669  3668    1
  2786  3297  3298   ar
  2787   125   120   ar
  2788   717   698    2
  2789   697   678    2
  2790  3206  3207    1
  2791  3672  3667    1
  2792  3003  3005    1
  2793  3026  3025    1
  2794  3638  3637    2
  2795  3668  3666    1
  2796  2491  2490    1
  2797  2818  2817    1
  2798  2818  2816    1
  2799  3027  3028    1
  2800  3027  3025    1
  2801  3238  3227    1
  2802   715   708   ar
  2803  2776  2775    1
  2804   566   545    2
  2805  2488  2490    1
  2806  2791  2792   ar
  2807  2791  2788   ar
  2808   208   209   ar
  2809   208   213   ar
  2810   129   123   ar
  2811   129   119    1
  2812  1746  1745    1
  2813  2728  2727   ar
  2814  2494  2495    1
  2815  3258  3251   ar
  2816  3617  3616    2
  2817   113   115    1
  2818  3317  3318   ar
  2819  3659  3660   ar
  2820  3045  3028    1
  2821  3045  3063    1
  2822   709   708   ar
  2823   709   710    2
  2824   595   593    1
  2825   595   597    1
  2826  1769  1767    1
  2827  1745  1747    1
  2828  3251  3250    1
  2829   704   703    1
  2830   238   239   ar
  2831   238   235   ar
  2832   637   639    1
  2833  3314  3312   ar
  2834  3585  3586    1
  2835  3585  3587    1
  2836  3220  3219    1
  2837  3024  3022    1
  2838  3024  3023    1
  2839   619   629    1
  2840  3294  3292   ar
  2841  3600  3586    1
  2842  3600  3621    1
  2843  3600  3602    1
  2844  2835  2816    2
  2845   696   678    1
  2846   209   210   ar
  2847   593   591    1
  2848   593   594    1
  2849   239   240   ar
  2850  3590  3589    1
  2851  3590  3591   ar
  2852  2813  2806   ar
  2853   147   146    1
  2854  3022  3008    1
  2855  3022  3043    1
  2856  3289  3288    1
  2857  2806  2805    1
  2858  1763  1757   ar
  2859  1763  1753    1
  2860   597   599    1
  2861  3343  3342    1
  2862  3343  3341    1
  2863  3618  3619   ar
  2864  3618  3615   ar
  2865   703   705    1
  2866   703   701    1
  2867   123   122   ar
  2868  2763  2761    1
  2869  2763  2764    1
  2870   708   707    1
  2871   214   213    1
  2872  1754  1755   ar
  2873  3275  3274   ar
  2874  3275  3277   ar
  2875  1707  1706    1
  2876  3298  3291   ar
  2877   657   656    1
  2878  2761  2762    1
  2879   119   117    1
  2880  2746  2745   ar
  2881  2746  2747   ar
  2882  3338  3331   ar
  2883   192   191    2
  2884  1466  1465    1
  2885   716   698    1
  2886  1757  1756   ar
  2887   591   592    1
  2888  1748  1747    1
  2889  1748  1753    1
  2890  3274  3272   ar
  2891   350   329    2
  2892  2792  2793   ar
  2893  2789  2788   ar
  2894  2789  2784   ar
  2895   700   698    1
  2896   700   699    1
  2897  3654  3655    2
  2898  3654  3653   ar
  2899  2745  2744   ar
  2900  3331  3330    1
  2901   698   684    1
  2902  1289  1306    1
  2903   636   641    1
  2904  3025  3023    1
  2905  3589  3587    1
  2906  2723  2722   ar
  2907  2723  2724   ar
  2908  1767  1768    1
  2909   678   680    1
  2910   678   661    1
  2911  2788  2787   ar
  2912   705   707    1
  2913   705   706    1
  2914   213   212   ar
  2915  1469  1471   ar
  2916  1469  1468   ar
  2917  2816  2834    1
  2918  2816  2802    1
  2919   120   121   ar
  2920   693   692    1
  2921  2766  2765    2
  2922  2722  2721   ar
  2923  3637  3639   ar
  2924  3637  3636   ar
  2925  3685  3663    2
  2926  3320  3301    2
  2927  3292  3291   ar
  2928  3292  3293    2
  2929  3593  3591   ar
  2930  2775  2777    1
  2931  1471  1472   ar
  2932   115   117    1
  2933   115   116    1
  2934  2727  2724   ar
  2935  2815  2796    2
  2936  3360  3341    2
  2937  3616  3615   ar
  2938  3616  3610   ar
  2939  3667  3666    1
  2940   237   236    2
  2941  3291  3290    1
  2942  3619  3620   ar
  2943   185   191   ar
  2944   185   186   ar
  2945  1747  1749    1
  2946   317   316    1
  2947   656   658    1
  2948  2764  2765   ar
  2949  2764  2771   ar
  2950  1323  1322    2
  2951  3227  3222    1
  2952  3227  3225    1
  2953  3602  3601    1
  2954   651   650   ar
  2955   651   652   ar
  2956  3660  3653   ar
  2957  3277  3278   ar
  2958   315   329    1
  2959   315   314    1
  2960  3666  3664    1
  2961  1324  1325   ar
  2962  1324  1321   ar
  2963  3615  3614   ar
  2964  3222  3221    1
  2965  1447  1446   ar
  2966  1447  1448   ar
  2967  1753  1751    1
  2968  3318  3311   ar
  2969   545   565    1
  2970   545   528    1
  2971   545   547    1
  2972  3591  3592    2
  2973  2803  2805    1
  2974  2803  2801    1
  2975  2803  2804    1
  2976  3587  3588    1
  2977   235   236   ar
  2978   235   234   ar
  2979   146   148   ar
  2980   146   145   ar
  2981  2765  2767   ar
  2982   629   628   ar
  2983   629   623   ar
  2984   594   599    1
  2985   707   702    1
  2986  3312  3311   ar
  2987  3312  3313    2
  2988   169   168    2
  2989   694   692   ar
  2990   694   695   ar
  2991   191   190   ar
  2992   592   590    1
  2993   312   310    1
  2994   312   314    1
  2995   312   313    1
  2996   228   227    1
  2997  3250  3248    1
  2998  3250  3245    1
  2999  1755  1756   ar
  3000  3639  3640   ar
  3001  3665  3664    1
  3002  3665  3663    1
  3003   151   132    2
  3004  3272  3273    2
  3005  3272  3271   ar
  3006   148   149   ar
  3007   330   332    1
  3008   330   331    1
  3009   310   311    1
  3010   187   186    1
  3011  3219  3221    1
  3012  2724  2725   ar
  3013   699   701    1
  3014   294   293    1
  3015   210   211   ar
  3016   122   121   ar
  3017  2805  2800    1
  3018   599   600    1
  3019   680   679    1
  3020  3653  3652    1
  3021  3341  3359    1
  3022  3341  3327    1
  3023   639   641    1
  3024   639   640    1
  3025   240   229    1
  3026   240   234   ar
  3027  3288  3290    1
  3028  3288  3286    1
  3029  3249  3248    1
  3030  2747  2748    1
  3031  2747  2742   ar
  3032  1325  1326   ar
  3033   628   627   ar
  3034   701   702    1
  3035   692   691   ar
  3036  1749  1751    1
  3037  1749  1750    1
  3038   117   118    1
  3039   650   647   ar
  3040  2784  2785   ar
  3041  1706  1704    1
  3042  1706  1708    1
  3043  1328  1306    2
  3044   608   590    2
  3045  1446  1451   ar
  3046  2771  2770   ar
  3047  2744  2743   ar
  3048   329   331    1
  3049   329   351    1
  3050  1465  1467    1
  3051  1465  1463    1
  3052   236   230   ar
  3053  2801  2802    1
  3054  2801  2799    1
  3055   528   527    1
  3056  1787  1766    2
  3057  3340  3321    2
  3058  3328  3330    1
  3059  3328  3326    1
  3060  3328  3329    1
  3061  1485  1484    1
  3062  1485  1490    1
  3063  1489  1488    1
  3064  1322  1321   ar
  3065  1322  1316   ar
  3066   116   132    1
  3067   641   652    1
  3068  3290  3285    1
  3069   661   660    1
  3070  1321  1320   ar
  3071  2793  2787   ar
  3072  2793  2783    1
  3073  1468  1474   ar
  3074  1704  1702    1
  3075  1704  1705    1
  3076  3636  3634   ar
  3077   546   547    1
  3078   546   548    1
  3079  3330  3325    1
  3080  1448  1449   ar
  3081  1467  1462    1
  3082  1467  1478    1
  3083  1768  1766    1
  3084  2787  2786   ar
  3085  3311  3310    1
  3086   186   188   ar
  3087  1484  1482    1
  3088  1484  1486    1
  3089  1306  1308    1
  3090  1306  1327    1
  3091  3663  3684    1
  3092  3663  3649    1
  3093  2721  2720   ar
  3094   673   674   ar
  3095   673   670   ar
  3096   652   646   ar
  3097   314   316    1
  3098  3278  3271   ar
  3099   229   227    1
  3100   229   224    1
  3101  3221  3223    1
  3102  2767  2768   ar
  3103  3248  3246    1
  3104   212   211   ar
  3105   212   215   ar
  3106   684   683    1
  3107  1751  1752    1
  3108  3610  3611   ar
  3109   695   688   ar
  3110  1482  1483    1
  3111  3326  3327    1
  3112  3326  3324    1
  3113   313   318    1
  3114   332   333    1
  3115   332   334    1
  3116  3225  3223    1
  3117  3225  3226    1
  3118  3271  3270    1
  3119  1472  1478   ar
  3120  1472  1473   ar
  3121  3642  3623    2
  3122  2777  2778    1
  3123  2777  2779    1
  3124  3260  3241    2
  3125  2798  2796    1
  3126  2798  2797    1
  3127  3223  3224    1
  3128   660   658    1
  3129   660   662    1
  3130  2778  2783    1
  3131  3245  3244    1
  3132   234   233   ar
  3133  3287  3301    1
  3134  3287  3286    1
  3135   316   318    1
  3136   674   675   ar
  3137   145   143   ar
  3138  3301  3303    1
  3139  3301  3319    1
  3140  2796  2780    1
  3141  2796  2814    1
  3142  3620  3614   ar
  3143  3620  3609    1
  3144   590   609    1
  3145   590   573    1
  3146   370   352    2
  3147   211   217   ar
  3148   658   659    1
  3149   132   150    1
  3150   132   134    1
  3151  2770  2768   ar
  3152  1326  1320   ar
  3153  1326  1315    1
  3154   623   622   ar
  3155   623   624   ar
  3156  3614  3613   ar
  3157   227   225    1
  3158  3601  3603    1
  3159   284   266    2
  3160  1490  1488    1
  3161  1490  1501    1
  3162   149   142   ar
  3163  1310  1315    1
  3164  1310  1309    1
  3165   530   529    1
  3166  2779  2780    1
  3167  2779  2781    1
  3168   168   162   ar
  3169   168   167   ar
  3170   683   681    1
  3171   683   685    1
  3172  1702  1703    1
  3173  1316  1317   ar
  3174   264   243    2
  3175   679   681    1
  3176   691   689   ar
  3177   327   309    2
  3178  1709  1708    1
  3179  1320  1319   ar
  3180   602   601    2
  3181  1766  1750    1
  3182  1766  1786    1
  3183   335   334    1
  3184   335   352    1
  3185  1705  1710    1
  3186  2725  2720   ar
  3187  2725  2726    1
  3188  2800  2799    1
  3189  1308  1307    1
  3190  2768  2769    2
  3191  1462  1461    1
  3192  1408  1407    1
  3193  3640  3633   ar
  3194   622   621   ar
  3195   672   671    2
  3196  3286  3284    1
  3197  1478  1477   ar
  3198  2743  2742   ar
  3199   318   319    1
  3200   226   225    1
  3201   226   243    1
  3202   190   193   ar
  3203   190   189   ar
  3204  3323  3321    1
  3205  3323  3322    1
  3206  3648  3650    1
  3207  3648  3649    1
  3208  3648  3646    1
  3209   627   624   ar
  3210  1424  1425   ar
  3211  1424  1429   ar
  3212  2785  2786   ar
  3213  1708  1710    1
  3214   311   309    1
  3215   292   309    1
  3216   292   291    1
  3217  1464  1463    1
  3218  1464  1481    1
  3219  2783  2781    1
  3220  3650  3652    1
  3221  3650  3651    1
  3222  3303  3302    1
  3223  1488  1486    1
  3224   600   601   ar
  3225   600   607   ar
  3226   293   291    1
  3227   293   295    1
  3228  1710  1711    1
  3229  3652  3647    1
  3230   162   163   ar
  3231  3604  3603    1
  3232  3604  3609    1
  3233  3325  3324    1
  3234   333   338    1
  3235   647   646   ar
  3236   647   648   ar
  3237  1463  1461    1
  3238  1461  1459    1
  3239  1425  1426   ar
  3240   244   246    1
  3241   244   245    1
  3242  2799  2797    1
  3243  1451  1452    1
  3244  1451  1450   ar
  3245  1315  1313    1
  3246  3321  3339    1
  3247  3321  3307    1
  3248   670   671   ar
  3249   670   669   ar
  3250   281   280    1
  3251  1307  1309    1
  3252   230   231   ar
  3253   255   254    1
  3254   527   525    1
  3255   527   529    1
  3256  1486  1487    1
  3257  3634  3633   ar
  3258  3634  3635    2
  3259  1474  1473   ar
  3260  1474  1475    2
  3261   688   689   ar
  3262   688   687    1
  3263   646   645   ar
  3264  3285  3284    1
  3265   588   567    2
  3266   548   549    1
  3267   548   550    1
  3268  3270  3265    1
  3269  3270  3268    1
  3270   224   223    1
  3271  1487  1504    1
  3272  1449  1450   ar
  3273  1449  1455   ar
  3274   334   336    1
  3275   188   189   ar
  3276   215   216   ar
  3277   601   603   ar
  3278  1713  1712    2
  3279  1317  1319   ar
  3280  1317  1318    1
  3281   309   328    1
  3282   624   625   ar
  3283   659   664    1
  3284  3603  3605    1
  3285  3605  3607    1
  3286  3605  3606    1
  3287  1473  1476   ar
  3288   671   665   ar
  3289  1502  1481    2
  3290   681   682    1
  3291   352   371    1
  3292   352   354    1
  3293  3324  3322    1
  3294   337   336    1
  3295   689   690    2
  3296  1483  1481    1
  3297  3611  3613   ar
  3298  3611  3612    1
  3299   675   669   ar
  3300   675   664    1
  3301   143   142   ar
  3302   143   144    2
  3303   289   291    1
  3304   289   290    1
  3305   289   287    1
  3306   525   523    1
  3307   525   526    1
  3308  3609  3607    1
  3309   225   223    1
  3310   193   194   ar
  3311  3310  3308    1
  3312  3310  3305    1
  3313  3224  3241    1
  3314  2781  2782    1
  3315   573   572    1
  3316  3306  3308    1
  3317  3306  3307    1
  3318  3306  3304    1
  3319   134   133    1
  3320   282   280   ar
  3321   282   283   ar
  3322  3241  3243    1
  3323  3241  3259    1
  3324   142   141    1
  3325   295   290    1
  3326   295   306    1
  3327  1402  1407   ar
  3328  1402  1403   ar
  3329   529   531    1
  3330  1444  1443    1
  3331   243   245    1
  3332   243   265    1
  3333  1344  1343    1
  3334  3243  3242    1
  3335  3246  3244    1
  3336  3246  3247    1
  3337  3265  3264    1
  3338   685   687    1
  3339   685   686    1
  3340   246   247    1
  3341   246   248    1
  3342   523   524    1
  3343  3633  3632    1
  3344  1430  1429    1
  3345   189   195   ar
  3346   167   170   ar
  3347   167   166   ar
  3348  1309  1311    1
  3349   233   231   ar
  3350  3644  3646    1
  3351  3644  3645    1
  3352   662   664    1
  3353   662   663    1
  3354  3244  3242    1
  3355  3308  3309    1
  3356   170   171   ar
  3357  1719  1701    2
  3358   607   606   ar
  3359  1407  1406   ar
  3360  3647  3646    1
  3361  3662  3643    2
  3362  3623  3606    1
  3363  3623  3625    1
  3364  3623  3641    1
  3365  1381  1380    1
  3366   217   216   ar
  3367   217   207    1
  3368  1501  1500   ar
  3369  1501  1495   ar
  3370   280   279   ar
  3371   549   554    1
  3372  3284  3282    1
  3373  1429  1428   ar
  3374  1481  1503    1
  3375   266   285    1
  3376   266   249    1
  3377   266   268    1
  3378  3247  3261    1
  3379  1703  1701    1
  3380   649   648    2
  3381  1450  1453   ar
  3382   621   620   ar
  3383   669   668   ar
  3384   648   642   ar
  3385  3305  3304    1
  3386   231   232    1
  3387   682   687    1
  3388   336   338    1
  3389  1477  1476   ar
  3390   247   252    1
  3391   338   349    1
  3392  1426  1427   ar
  3393  3607  3608    1
  3394   223   221    1
  3395  1445  1455    1
  3396  1445  1443    1
  3397  1445  1440    1
  3398   163   164    1
  3399   163   165   ar
  3400  1711  1712   ar
  3401  1711  1718   ar
  3402  3302  3304    1
  3403   319   326   ar
  3404   319   320   ar
  3405   283   276   ar
  3406   572   570    1
  3407   572   574    1
  3408  1459  1460    1
  3409   353   354    1
  3410   353   355    1
  3411   543   522    2
  3412  1455  1454   ar
  3413  3625  3624    1
  3414  1443  1441    1
  3415  1712  1714   ar
  3416   550   551    1
  3417   550   552    1
  3418   254   256   ar
  3419   254   253   ar
  3420   645   643   ar
  3421  1500  1499   ar
  3422   321   320    2
  3423   287   288    1
  3424  1494  1495   ar
  3425  1494  1492   ar
  3426   256   257   ar
  3427  1343  1345   ar
  3428  1343  1342   ar
  3429   298   297    1
  3430  1689  1688    1
  3431   299   297   ar
  3432   299   300   ar
  3433   665   666   ar
  3434   207   205    1
  3435   207   202    1
  3436  1522  1504    2
  3437  1403  1404   ar
  3438  3269  3268    1
  3439   249   248    1
  3440  1313  1311    1
  3441  1313  1314    1
  3442   625   620   ar
  3443   625   626    1
  3444   603   604   ar
  3445   136   141    1
  3446   136   135    1
  3447   206   205    1
  3448  3268  3266    1
  3449  1495  1496   ar
  3450   526   531    1
  3451  1701  1687    1
  3452  1701  1720    1
  3453   194   195   ar
  3454   567   551    1
  3455   567   569    1
  3456   567   589    1
  3457  1504  1506    1
  3458  1504  1523    1
  3459   279   277   ar
  3460   133   135    1
  3461  1311  1312    1
  3462  1364  1363    2
  3463   531   542    1
  3464   248   250    1
  3465   268   267    1
  3466   141   139    1
  3467  1505  1506    1
  3468  1505  1507    1
  3469   274   273    1
  3470   568   570    1
  3471   568   569    1
  3472   524   522    1
  3473  1345  1346   ar
  3474   166   165   ar
  3475   166   172   ar
  3476   195   184    1
  3477   205   203    1
  3478   326   325   ar
  3479   171   172   ar
  3480  1406  1409   ar
  3481  1406  1405   ar
  3482   306   300   ar
  3483   306   305   ar
  3484  3645  3643    1
  3485   563   562   ar
  3486   563   564   ar
  3487  3264  3266    1
  3488  3264  3262    1
  3489   606   604   ar
  3490  1380  1379   ar
  3491  1380  1382   ar
  3492  1342  1340   ar
  3493   570   571    1
  3494   320   322   ar
  3495  3267  3266    1
  3496  3267  3281    1
  3497  3283  3282    1
  3498  3283  3281    1
  3499  1428  1427   ar
  3500  1428  1431   ar
  3501  3632  3630    1
  3502  3632  3627    1
  3503  3643  3661    1
  3504  3643  3629    1
  3505   668   666   ar
  3506  1427  1433   ar
  3507  1687  1686    1
  3508   575   574    1
  3509   273   275    1
  3510   273   271    1
  3511   642   643   ar
  3512   510   509    1
  3513   297   296   ar
  3514   554   552    1
  3515   554   564    1
  3516  3263  3261    1
  3517  3263  3262    1
  3518   276   277   ar
  3519   276   275    1
  3520  1379  1385   ar
  3521  3628  3630    1
  3522  3628  3629    1
  3523  3628  3626    1
  3524  1440  1439    1
  3525  1453  1454   ar
  3526   349   348   ar
  3527   349   343   ar
  3528   643   644    1
  3529   666   667    1
  3530   300   301   ar
  3531  3630  3631    1
  3532  1460  1458    1
  3533  1718  1717   ar
  3534   252   250    1
  3535   252   263    1
  3536   348   347   ar
  3537   552   553    1
  3538  3261  3280    2
  3539  3261  3279    1
  3540  1493  1492    1
  3541  1409  1410   ar
  3542   522   508    1
  3543   522   544    1
  3544   253   259   ar
  3545  1492  1491   ar
  3546   574   576    1
  3547   135   137    1
  3548  3627  3626    1
  3549   277   278    2
  3550   604   605    2
  3551   221   222    1
  3552  1499  1496   ar
  3553  1507  1508    1
  3554  1507  1509    1
  3555   562   559   ar
  3556  1714  1715   ar
  3557   355   356    1
  3558   355   357    1
  3559  1362  1363   ar
  3560  1362  1360   ar
  3561  1363  1365   ar
  3562   288   286    1
  3563   564   558   ar
  3564  1496  1497   ar
  3565  1688  1686    1
  3566  1688  1690    1
  3567  1508  1513    1
  3568  3624  3626    1
  3569   257   263   ar
  3570   257   258   ar
  3571   172   161    1
  3572   202   201    1
  3573  1404  1405   ar
  3574   508   507    1
  3575  1346  1339   ar
  3576   174   152    2
  3577   222   220    1
  3578  1382  1383   ar
  3579   137   139    1
  3580   137   138    1
  3581  1441  1439    1
  3582  1441  1442    1
  3583  1670  1669    1
  3584  1405  1411   ar
  3585  1340  1339   ar
  3586  1340  1341    2
  3587  3281  3300    2
  3588  3281  3299    1
  3589   250   251    1
  3590   139   140    1
  3591   275   270    1
  3592  1312  1329    1
  3593  1693  1692    2
  3594   271   269    1
  3595   271   272    1
  3596   305   304   ar
  3597  1439  1437    1
  3598   509   507    1
  3599   509   511    1
  3600   542   541   ar
  3601   542   536   ar
  3602   263   262   ar
  3603   184   182    1
  3604   184   179    1
  3605   356   361    1
  3606  1686  1684    1
  3607   267   269    1
  3608   325   323   ar
  3609  1339  1338    1
  3610  1442  1458    1
  3611  1431  1432   ar
  3612  1348  1329    2
  3613   571   576    1
  3614   322   323   ar
  3615  1433  1423    1
  3616  1433  1432   ar
  3617   576   587    1
  3618  1361  1360    2
  3619   203   201    1
  3620   203   204    1
  3621  1385  1386    2
  3622  1385  1384   ar
  3623   514   513    2
  3624  1491  1497   ar
  3625  1360  1359   ar
  3626   347   344   ar
  3627  1717  1715   ar
  3628   296   302   ar
  3629  1410  1411   ar
  3630   358   357    1
  3631   358   372    1
  3632   343   342   ar
  3633   343   344   ar
  3634   391   372    2
  3635   270   269    1
  3636   182   183    1
  3637   182   180    1
  3638   390   372    1
  3639  1715  1716    1
  3640   301   304   ar
  3641   301   302   ar
  3642   507   505    1
  3643   259   258   ar
  3644   259   260    2
  3645   535   536   ar
  3646   535   533   ar
  3647   357   359    1
  3648  1458  1479    2
  3649  1458  1480    1
  3650  1365  1366   ar
  3651  1497  1498    2
  3652   541   540   ar
  3653   258   261   ar
  3654   559   558   ar
  3655   559   560   ar
  3656  1690  1685    1
  3657  1690  1691    1
  3658   201   199    1
  3659   558   557   ar
  3660  1684  1685    1
  3661  1684  1682    1
  3662  1411  1401    1
  3663  1513  1511    1
  3664  1513  1514    1
  3665  1423  1421    1
  3666  1423  1418    1
  3667   536   537   ar
  3668   138   152    1
  3669  1383  1384   ar
  3670  1383  1389   ar
  3671   323   324    1
  3672   342   340   ar
  3673  1509  1510    1
  3674  1509  1511    1
  3675   272   286    1
  3676   372   374    1
  3677   286   308    2
  3678   286   307    1
  3679  1329  1331    1
  3680  1329  1347    1
  3681  1510  1524    1
  3682   152   154    1
  3683   152   173    1
  3684  1512  1511    1
  3685   161   156    1
  3686   161   159    1
  3687  1669  1671   ar
  3688  1669  1668   ar
  3689  1333  1338    1
  3690  1333  1332    1
  3691   179   178    1
  3692  1422  1421    1
  3693   204   220    1
  3694  1692  1691   ar
  3695  1692  1694   ar
  3696  1338  1336    1
  3697  1421  1419    1
  3698   369   368   ar
  3699   369   362   ar
  3700   220   242    2
  3701   220   241    1
  3702  1521  1514   ar
  3703  1521  1520   ar
  3704   511   512    1
  3705   511   506    1
  3706   344   345   ar
  3707  1384  1387   ar
  3708   302   303    2
  3709   513   512   ar
  3710   513   515   ar
  3711   154   153    1
  3712   262   261   ar
  3713  1331  1330    1
  3714  1437  1438    1
  3715   156   155    1
  3716  1359  1366   ar
  3717  1359  1358    1
  3718   180   178    1
  3719   180   181    1
  3720   361   359    1
  3721   361   362    1
  3722   534   533    1
  3723   505   506    1
  3724   505   503    1
  3725   533   532   ar
  3726  1691  1698   ar
  3727  1545  1524    2
  3728   368   366   ar
  3729   587   586   ar
  3730   587   581   ar
  3731   200   199    1
  3732   200   198    1
  3733  1671  1672   ar
  3734  1514  1515   ar
  3735  1668  1674   ar
  3736  1438  1436    1
  3737   557   556   ar
  3738   359   360    1
  3739  1546  1524    1
  3740  1682  1683    1
  3741   512   519   ar
  3742   540   537   ar
  3743   219   198    2
  3744   560   561    1
  3745   560   555   ar
  3746  1524  1526    1
  3747   159   157    1
  3748   159   160    1
  3749  1520  1518   ar
  3750   515   516   ar
  3751  1389  1378    1
  3752  1389  1388   ar
  3753  1666  1665    1
  3754   537   538   ar
  3755  1694  1695   ar
  3756   362   363   ar
  3757  1418  1417    1
  3758  1401  1396    1
  3759  1401  1399    1
  3760  1378  1376    1
  3761  1378  1373    1
  3762   178   176    1
  3763   580   581   ar
  3764   580   578   ar
  3765  1330  1332    1
  3766  1683  1681    1
  3767   340   341    1
  3768   340   339   ar
  3769  1377  1376    1
  3770  1332  1334    1
  3771   586   585   ar
  3772   157   155    1
  3773   157   158    1
  3774   581   582   ar
  3775   181   198    1
  3776  1387  1388   ar
  3777   374   373    1
  3778   153   155    1
  3779  1358  1353    1
  3780  1358  1356    1
  3781   198   218    1
  3782   176   177    1
  3783  1336  1334    1
  3784  1336  1337    1
  3785  1419  1417    1
  3786  1419  1420    1
  3787   345   339   ar
  3788   345   346    2
  3789  1376  1374    1
  3790   503   504    1
  3791   532   538   ar
  3792   491   490   ar
  3793   491   492   ar
  3794   490   495   ar
  3795   556   555   ar
  3796   197   175    2
  3797  1396  1395    1
  3798  1399  1400    1
  3799  1399  1397    1
  3800   579   578    1
  3801  1515  1516    2
  3802  1515  1517   ar
  3803  1665  1667    1
  3804  1665  1663    1
  3805   519   518   ar
  3806  1698  1697   ar
  3807  1334  1335    1
  3808  1672  1673   ar
  3809  1672  1678   ar
  3810  1373  1372    1
  3811   538   539    2
  3812   516   517    2
  3813   516   518   ar
  3814   366   367    1
  3815   366   365   ar
  3816   578   577   ar
  3817  1674  1675    2
  3818  1674  1673   ar
  3819  1417  1415    1
  3820   373   375    1
  3821  1518  1517   ar
  3822  1518  1519    1
  3823  1699  1681    2
  3824   177   175    1
  3825  1353  1352    1
  3826  1695  1697   ar
  3827  1695  1696    1
  3828  1436  1420    1
  3829  1436  1457    2
  3830  1436  1456    1
  3831   363   365   ar
  3832   363   364    2
  3833  1526  1525    1
  3834   504   502    1
  3835  1681  1664    1
  3836  1681  1700    1
  3837  1356  1357    1
  3838  1356  1354    1
  3839  1667  1678    1
  3840  1667  1662    1
  3841   585   582   ar
  3842   582   583   ar
  3843   492   493   ar
  3844   158   175    1
  3845  1397  1395    1
  3846  1397  1398    1
  3847  1673  1676   ar
  3848   175   196    1
  3849  1525  1527    1
  3850  1664  1663    1
  3851   495   496    1
  3852   495   494   ar
  3853  1678  1677   ar
  3854  1395  1393    1
  3855  1416  1415    1
  3856  1416  1414    1
  3857   388   389   ar
  3858   388   386   ar
  3859  1542  1543   ar
  3860  1542  1539   ar
  3861  1663  1661    1
  3862  1374  1372    1
  3863  1374  1375    1
  3864  1372  1370    1
  3865  1543  1544   ar
  3866   577   583   ar
  3867  1394  1393    1
  3868  1394  1392    1
  3869  1335  1349    1
  3870   389   382   ar
  3871   375   376    1
  3872   375   377    1
  3873  1351  1349    1
  3874  1351  1350    1
  3875  1435  1414    2
  3876  1352  1354    1
  3877  1352  1350    1
  3878   583   584    2
  3879  1354  1355    1
  3880   520   502    2
  3881   493   494   ar
  3882   493   499   ar
  3883   376   381    1
  3884  1528  1527    1
  3885  1528  1533    1
  3886   488   487    1
  3887  1368  1349    2
  3888  1662  1661    1
  3889  1541  1540    2
  3890   502   521    1
  3891   502   486    1
  3892   387   386    1
  3893   494   497   ar
  3894  1398  1414    1
  3895  1661  1659    1
  3896   411   392    2
  3897  1375  1392    1
  3898  1527  1529    1
  3899  1676  1677   ar
  3900  1414  1434    1
  3901   487   489    1
  3902   487   485    1
  3903   386   385   ar
  3904  1539  1540   ar
  3905  1539  1538   ar
  3906  1349  1367    1
  3907   429   428    2
  3908  1650  1649    2
  3909   377   378    1
  3910   377   379    1
  3911  1370  1371    1
  3912  1544  1533    1
  3913  1544  1538   ar
  3914  1540  1534   ar
  3915  1371  1369    1
  3916  1392  1413    2
  3917  1392  1412    1
  3918   378   392    1
  3919   382   381    1
  3920   382   383   ar
  3921  1651  1649   ar
  3922  1651  1652   ar
  3923   486   485    1
  3924   499   489    1
  3925   499   498   ar
  3926  1567  1547    2
  3927   469   468    1
  3928  1533  1531    1
  3929   410   392    1
  3930   392   394    1
  3931  1355  1369    1
  3932   381   379    1
  3933  1538  1537   ar
  3934   489   484    1
  3935  1653  1652    1
  3936   485   483    1
  3937   497   498   ar
  3938  1632  1631    2
  3939  1649  1648   ar
  3940   467   468   ar
  3941   467   473   ar
  3942  1529  1531    1
  3943  1529  1530    1
  3944  1568  1547    1
  3945  1659  1660    1
  3946   474   473    2
  3947   385   383   ar
  3948   428   422   ar
  3949   428   427   ar
  3950  1625  1631   ar
  3951  1625  1626   ar
  3952  1391  1369    2
  3953  1652  1654   ar
  3954  1369  1390    1
  3955   407   406    1
  3956   468   470   ar
  3957   379   380    1
  3958   422   423   ar
  3959  1547  1530    1
  3960  1547  1549    1
  3961  1534  1535   ar
  3962   383   384    2
  3963  1627  1626    1
  3964  1609  1608    2
  3965   473   472   ar
  3966   408   406   ar
  3967   408   409   ar
  3968  1631  1630   ar
  3969  1531  1532    1
  3970  1660  1658    1
  3971  1537  1535   ar
  3972  1586  1585    2
  3973   394   393    1
  3974  1626  1628   ar
  3975   484   483    1
  3976   406   405   ar
  3977   483   481    1
  3978  1646  1645    1
  3979  1535  1536    1
  3980  1648  1647    1
  3981  1648  1655   ar
  3982   427   430   ar
  3983   427   426   ar
  3984  1645  1647    1
  3985  1645  1643    1
  3986   430   431   ar
  3987   409   402   ar
  3988   470   471   ar
  3989   423   424    1
  3990   423   425   ar
  3991  1654  1655   ar
  3992  1647  1642    1
  3993  1608  1602   ar
  3994  1608  1607   ar
  3995  1549  1548    1
  3996   472   471   ar
  3997   472   475   ar
  3998  1630  1629   ar
  3999  1630  1633   ar
  4000  1587  1584   ar
  4001  1587  1588   ar
  4002  1602  1603   ar
  4003  1585  1584   ar
  4004  1585  1579   ar
  4005  1548  1550    1
  4006   393   395    1
  4007   482   481    1
  4008   482   480    1
  4009   471   477   ar
  4010  1658  1644    1
  4011  1658  1679    2
  4012  1658  1680    1
  4013  1628  1629   ar
  4014   405   403   ar
  4015  1591  1569    2
  4016   426   425   ar
  4017   426   432   ar
  4018  1643  1644    1
  4019  1643  1641    1
  4020   431   432   ar
  4021  1584  1583   ar
  4022   434   412    2
  4023  1629  1635   ar
  4024  1633  1634   ar
  4025   475   476   ar
  4026   451   450    1
  4027   402   403   ar
  4028   402   401    1
  4029  1607  1610   ar
  4030  1607  1606   ar
  4031  1610  1611   ar
  4032  1588  1589   ar
  4033   501   480    2
  4034  1579  1580   ar
  4035  1642  1641    1
  4036   396   395    1
  4037   396   401    1
  4038  1590  1569    1
  4039   403   404    2
  4040   432   421    1
  4041  1603  1604    1
  4042  1603  1605   ar
  4043   395   397    1
  4044   480   500    1
  4045   480   463    1
  4046   477   476   ar
  4047   477   466    1
  4048  1569  1571    1
  4049  1569  1553    1
  4050  1550  1551    1
  4051  1550  1552    1
  4052  1641  1639    1
  4053   397   398    1
  4054   397   399    1
  4055   464   465    1
  4056   464   466    1
  4057   464   462    1
  4058   401   399    1
  4059  1634  1635   ar
  4060  1583  1589   ar
  4061  1583  1582   ar
  4062  1565  1564   ar
  4063  1565  1566   ar
  4064  1564  1561   ar
  4065  1635  1624    1
  4066   450   445   ar
  4067   450   449   ar
  4068  1606  1605   ar
  4069  1606  1612   ar
  4070  1551  1556    1
  4071   412   398    1
  4072   412   414    1
  4073   412   433    1
  4074  1611  1612   ar
  4075  1589  1578    1
  4076   466   461    1
  4077  1552  1553    1
  4078  1552  1554    1
  4079  1570  1571    1
  4080  1570  1572    1
  4081  1580  1582   ar
  4082  1580  1581    1
  4083   462   463    1
  4084   462   460    1
  4085   399   400    1
  4086   452   449   ar
  4087   452   453   ar
  4088  1614  1592    2
  4089   414   413    1
  4090   445   446   ar
  4091   456   435    2
  4092   421   419    1
  4093   421   416    1
  4094   449   448   ar
  4095  1640  1639    1
  4096  1640  1638    1
  4097  1612  1601    1
  4098  1566  1556    1
  4099  1566  1560   ar
  4100   419   417    1
  4101   419   420    1
  4102  1561  1562   ar
  4103  1561  1560   ar
  4104  1563  1562    1
  4105  1624  1622    1
  4106  1624  1619    1
  4107  1556  1554    1
  4108  1573  1578    1
  4109  1573  1572    1
  4110  1622  1623    1
  4111  1622  1620    1
  4112   417   415    1
  4113   417   418    1
  4114   416   415    1
  4115  1578  1576    1
  4116  1572  1574    1
  4117   461   460    1
  4118  1554  1555    1
  4119   453   454   ar
  4120  1562  1557   ar
  4121  1574  1576    1
  4122  1574  1575    1
  4123  1560  1559   ar
  4124  1657  1638    2
  4125  1637  1615    2
  4126   460   458    1
  4127   446   447   ar
  4128   413   415    1
  4129   479   457    2
  4130  1592  1594    1
  4131  1592  1575    1
  4132  1592  1613    1
  4133   448   454   ar
  4134   448   447   ar
  4135   459   458    1
  4136   459   457    1
  4137   435   418    1
  4138   435   437    1
  4139   435   455    1
  4140  1620  1621    1
  4141  1620  1618    1
  4142  1638  1621    1
  4143  1638  1656    1
  4144  1594  1593    1
  4145  1576  1577    1
  4146  1619  1618    1
  4147  1601  1599    1
  4148  1601  1596    1
  4149   437   436    1
  4150   454   444    1
  4151  1557  1558   ar
  4152  1617  1615    1
  4153  1617  1616    1
  4154  1559  1558   ar
  4155  1599  1597    1
  4156  1599  1600    1
  4157  1596  1595    1
  4158   457   478    1
  4159   457   441    1
  4160  1597  1595    1
  4161  1597  1598    1
  4162  1615  1598    1
  4163  1615  1636    1
  4164  1618  1616    1
  4165  1593  1595    1
  4166   440   442    1
  4167   440   441    1
  4168   440   438    1
  4169   436   438    1
  4170   444   442    1
  4171   444   439    1
  4172   442   443    1
  4173   439   438    1
