ligand
 OpenBabel11021811433D
libRbt.so/2013.1/901 2013/11/27
 12 12  0  0  0  0  0  0  0  0999 V2000
   50.3257   15.4987   12.2750 O   0  0  0  0  0  0  0  0  0  0  0  0
   45.4837    9.8981   11.6621 O   0  0  0  0  0  0  0  0  0  0  0  0
   49.5033   15.4457   11.0701 C   0  0  0  0  0  0  0  0  0  0  0  0
   45.0218   10.4269   14.0256 O   0  0  0  0  0  0  0  0  0  0  0  0
   48.6700   14.1324   11.0154 C   0  0  0  0  0  0  0  0  0  0  0  0
   44.7369   11.5382   12.4212 O   0  0  0  0  0  0  0  0  0  0  0  0
   48.9574   13.3166   12.2458 N   0  0  0  0  0  0  0  0  0  0  0  0
   50.4187   13.0195   12.3446 C   0  0  0  0  0  0  0  0  0  0  0  0
   51.2227   14.3505   12.3296 C   0  0  0  0  0  0  0  0  0  0  0  0
   48.1875   12.0237   12.2546 C   0  0  0  0  0  0  0  0  0  0  0  0
   46.7421   12.2363   12.7660 C   0  0  0  0  0  0  0  0  0  0  0  0
   45.8381   10.6713   12.8269 S   0  0  0  0  0  0  0  0  0  0  0  0
  1  3  1  0  0  0  0
  1  9  1  0  0  0  0
  2 12  1  0  0  0  0
  3  5  1  0  0  0  0
  4 12  2  0  0  0  0
  5  7  1  0  0  0  0
  6 12  2  0  0  0  0
  7  8  1  0  0  0  0
  7 10  1  0  0  0  0
  8  9  1  0  0  0  0
 10 11  1  0  0  0  0
 11 12  1  0  0  0  0
M  END
>  <CHROM.1>
-82.18467297,-178.11567373,-66.21790135,47.66941815,12.48805418,12.33472430
0.66543973,-0.25255960,-0.52890167

>  <Name>
ligand

>  <RI>
0

>  <Rbt.Current_Directory>
/home/itssahil/PROJECTS/Mol_Feturizer/New_Systems/rnas/2HO6

>  <Rbt.Executable>
rbdock ($Id: //depot/dev/client3/rdock/2013.1/src/exe/rbdock.cxx#4 $)

>  <Rbt.Library>
libRbt.so (2013.1, Build901 2013/11/27)

>  <Rbt.Parameter_File>
/export/apps/rDock/src/rDock_2013.1_src/data/scripts/dock_solv.prm

>  <Rbt.Receptor>
prm/pocket_docking_2.prm

>  <SCORE>
-3.83612

>  <SCORE.INTER>
-3.22595

>  <SCORE.INTER.CONST>
1

>  <SCORE.INTER.POLAR>
0

>  <SCORE.INTER.ROT>
3

>  <SCORE.INTER.SOLV>
6.95981

>  <SCORE.INTER.VDW>
-10.0706

>  <SCORE.INTER.norm>
-0.268829

>  <SCORE.INTRA>
-0.610172

>  <SCORE.INTRA.DIHEDRAL>
0.737241

>  <SCORE.INTRA.DIHEDRAL.0>
1.88407

>  <SCORE.INTRA.POLAR>
0

>  <SCORE.INTRA.POLAR.0>
0

>  <SCORE.INTRA.REPUL>
0

>  <SCORE.INTRA.REPUL.0>
0

>  <SCORE.INTRA.SOLV>
-0.0561617

>  <SCORE.INTRA.SOLV.lig_0>
-10.2714

>  <SCORE.INTRA.VDW>
-0.950712

>  <SCORE.INTRA.VDW.0>
0.416923

>  <SCORE.INTRA.norm>
-0.0508477

>  <SCORE.RESTR>
0

>  <SCORE.RESTR.CAVITY>
0

>  <SCORE.RESTR.norm>
0

>  <SCORE.SYSTEM>
0

>  <SCORE.SYSTEM.CONST>
0

>  <SCORE.SYSTEM.DIHEDRAL>
0

>  <SCORE.SYSTEM.SOLV>
0

>  <SCORE.SYSTEM.norm>
0

>  <SCORE.heavy>
12

>  <SCORE.norm>
-0.319677

>  <RMSD>
0.887

$$$$
ligand
 OpenBabel11021811433D
libRbt.so/2013.1/901 2013/11/27
 12 12  0  0  0  0  0  0  0  0999 V2000
   50.3504   15.3245   12.3617 O   0  0  0  0  0  0  0  0  0  0  0  0
   45.3939    9.8832   11.6560 O   0  0  0  0  0  0  0  0  0  0  0  0
   49.4088   15.4129   11.2499 C   0  0  0  0  0  0  0  0  0  0  0  0
   44.8302   10.4020   13.9996 O   0  0  0  0  0  0  0  0  0  0  0  0
   48.5223   14.1368   11.1609 C   0  0  0  0  0  0  0  0  0  0  0  0
   44.6708   11.5417   12.3978 O   0  0  0  0  0  0  0  0  0  0  0  0
   48.9001   13.1977   12.2733 N   0  0  0  0  0  0  0  0  0  0  0  0
   50.3509   12.8485   12.1906 C   0  0  0  0  0  0  0  0  0  0  0  0
   51.2018   14.1500   12.2153 C   0  0  0  0  0  0  0  0  0  0  0  0
   48.0841   11.9338   12.2425 C   0  0  0  0  0  0  0  0  0  0  0  0
   46.6803   12.1587   12.8545 C   0  0  0  0  0  0  0  0  0  0  0  0
   45.7162   10.6288   12.8478 S   0  0  0  0  0  0  0  0  0  0  0  0
  1  3  1  0  0  0  0
  1  9  1  0  0  0  0
  2 12  1  0  0  0  0
  3  5  1  0  0  0  0
  4 12  2  0  0  0  0
  5  7  1  0  0  0  0
  6 12  2  0  0  0  0
  7  8  1  0  0  0  0
  7 10  1  0  0  0  0
  8  9  1  0  0  0  0
 10 11  1  0  0  0  0
 11 12  1  0  0  0  0
M  END
>  <CHROM.1>
-79.26862218,-178.78002582,-58.84956173,47.58276685,12.41416129,12.35237966
0.67631193,-0.11060637,-0.35696139

>  <Name>
ligand

>  <RI>
0

>  <Rbt.Current_Directory>
/home/itssahil/PROJECTS/Mol_Feturizer/New_Systems/rnas/2HO6

>  <Rbt.Executable>
rbdock ($Id: //depot/dev/client3/rdock/2013.1/src/exe/rbdock.cxx#4 $)

>  <Rbt.Library>
libRbt.so (2013.1, Build901 2013/11/27)

>  <Rbt.Parameter_File>
/export/apps/rDock/src/rDock_2013.1_src/data/scripts/dock_solv.prm

>  <Rbt.Receptor>
prm/pocket_docking_2.prm

>  <SCORE>
-4.056

>  <SCORE.INTER>
-3.39843

>  <SCORE.INTER.CONST>
1

>  <SCORE.INTER.POLAR>
0

>  <SCORE.INTER.ROT>
3

>  <SCORE.INTER.SOLV>
7.00971

>  <SCORE.INTER.VDW>
-10.2022

>  <SCORE.INTER.norm>
-0.283203

>  <SCORE.INTRA>
-0.657564

>  <SCORE.INTRA.DIHEDRAL>
0.533798

>  <SCORE.INTRA.DIHEDRAL.0>
1.88407

>  <SCORE.INTRA.POLAR>
0

>  <SCORE.INTRA.POLAR.0>
0

>  <SCORE.INTRA.REPUL>
0

>  <SCORE.INTRA.REPUL.0>
0

>  <SCORE.INTRA.SOLV>
-0.0602104

>  <SCORE.INTRA.SOLV.lig_0>
-10.2714

>  <SCORE.INTRA.VDW>
-0.894358

>  <SCORE.INTRA.VDW.0>
0.416923

>  <SCORE.INTRA.norm>
-0.054797

>  <SCORE.RESTR>
0

>  <SCORE.RESTR.CAVITY>
0

>  <SCORE.RESTR.norm>
0

>  <SCORE.SYSTEM>
0

>  <SCORE.SYSTEM.CONST>
0

>  <SCORE.SYSTEM.DIHEDRAL>
0

>  <SCORE.SYSTEM.SOLV>
0

>  <SCORE.SYSTEM.norm>
0

>  <SCORE.heavy>
12

>  <SCORE.norm>
-0.338

>  <RMSD>
0.935

$$$$
ligand
 OpenBabel11021811433D
libRbt.so/2013.1/901 2013/11/27
 12 12  0  0  0  0  0  0  0  0999 V2000
   50.2672   15.4109   12.2589 O   0  0  0  0  0  0  0  0  0  0  0  0
   45.4074    9.8930   11.6471 O   0  0  0  0  0  0  0  0  0  0  0  0
   49.4458   15.3501   11.0538 C   0  0  0  0  0  0  0  0  0  0  0  0
   44.8375   10.4044   13.9908 O   0  0  0  0  0  0  0  0  0  0  0  0
   48.5996   14.0445   11.0153 C   0  0  0  0  0  0  0  0  0  0  0  0
   44.6685   11.5441   12.3900 O   0  0  0  0  0  0  0  0  0  0  0  0
   48.8775   13.2422   12.2567 N   0  0  0  0  0  0  0  0  0  0  0  0
   50.3358   12.9321   12.3614 C   0  0  0  0  0  0  0  0  0  0  0  0
   51.1528   14.2549   12.3299 C   0  0  0  0  0  0  0  0  0  0  0  0
   48.0950   11.9572   12.2816 C   0  0  0  0  0  0  0  0  0  0  0  0
   46.6719   12.1792   12.8484 C   0  0  0  0  0  0  0  0  0  0  0  0
   45.7220   10.6404   12.8398 S   0  0  0  0  0  0  0  0  0  0  0  0
  1  3  1  0  0  0  0
  1  9  1  0  0  0  0
  2 12  1  0  0  0  0
  3  5  1  0  0  0  0
  4 12  2  0  0  0  0
  5  7  1  0  0  0  0
  6 12  2  0  0  0  0
  7  8  1  0  0  0  0
  7 10  1  0  0  0  0
  8  9  1  0  0  0  0
 10 11  1  0  0  0  0
 11 12  1  0  0  0  0
M  END
>  <CHROM.1>
-84.75128123,178.64927045,-60.78690496,47.58054394,12.43320072,12.33761026
0.65199431,-0.24884429,-0.53761183

>  <Name>
ligand

>  <RI>
0

>  <Rbt.Current_Directory>
/home/itssahil/PROJECTS/Mol_Feturizer/New_Systems/rnas/2HO6

>  <Rbt.Executable>
rbdock ($Id: //depot/dev/client3/rdock/2013.1/src/exe/rbdock.cxx#4 $)

>  <Rbt.Library>
libRbt.so (2013.1, Build901 2013/11/27)

>  <Rbt.Parameter_File>
/export/apps/rDock/src/rDock_2013.1_src/data/scripts/dock_solv.prm

>  <Rbt.Receptor>
prm/pocket_docking_2.prm

>  <SCORE>
-3.86521

>  <SCORE.INTER>
-3.26765

>  <SCORE.INTER.CONST>
1

>  <SCORE.INTER.POLAR>
0

>  <SCORE.INTER.ROT>
3

>  <SCORE.INTER.SOLV>
6.9992

>  <SCORE.INTER.VDW>
-10.1115

>  <SCORE.INTER.norm>
-0.272304

>  <SCORE.INTRA>
-0.597567

>  <SCORE.INTRA.DIHEDRAL>
0.864152

>  <SCORE.INTRA.DIHEDRAL.0>
1.88407

>  <SCORE.INTRA.POLAR>
0

>  <SCORE.INTRA.POLAR.0>
0

>  <SCORE.INTRA.REPUL>
0

>  <SCORE.INTRA.REPUL.0>
0

>  <SCORE.INTRA.SOLV>
-0.059844

>  <SCORE.INTRA.SOLV.lig_0>
-10.2714

>  <SCORE.INTRA.VDW>
-0.999721

>  <SCORE.INTRA.VDW.0>
0.416923

>  <SCORE.INTRA.norm>
-0.0497972

>  <SCORE.RESTR>
0

>  <SCORE.RESTR.CAVITY>
0

>  <SCORE.RESTR.norm>
0

>  <SCORE.SYSTEM>
0

>  <SCORE.SYSTEM.CONST>
0

>  <SCORE.SYSTEM.DIHEDRAL>
0

>  <SCORE.SYSTEM.SOLV>
0

>  <SCORE.SYSTEM.norm>
0

>  <SCORE.heavy>
12

>  <SCORE.norm>
-0.322101

>  <RMSD>
0.940

$$$$
ligand
 OpenBabel11021811433D
libRbt.so/2013.1/901 2013/11/27
 12 12  0  0  0  0  0  0  0  0999 V2000
   50.3369   15.3192   12.3480 O   0  0  0  0  0  0  0  0  0  0  0  0
   45.3978    9.8843   11.6668 O   0  0  0  0  0  0  0  0  0  0  0  0
   49.3817   15.4158   11.2485 C   0  0  0  0  0  0  0  0  0  0  0  0
   44.7941   10.4045   14.0001 O   0  0  0  0  0  0  0  0  0  0  0  0
   48.4922   14.1415   11.1627 C   0  0  0  0  0  0  0  0  0  0  0  0
   44.6737   11.5475   12.3972 O   0  0  0  0  0  0  0  0  0  0  0  0
   48.8823   13.1951   12.2645 N   0  0  0  0  0  0  0  0  0  0  0  0
   50.3314   12.8443   12.1618 C   0  0  0  0  0  0  0  0  0  0  0  0
   51.1845   14.1443   12.1839 C   0  0  0  0  0  0  0  0  0  0  0  0
   48.0641   11.9326   12.2361 C   0  0  0  0  0  0  0  0  0  0  0  0
   46.6790   12.1483   12.8925 C   0  0  0  0  0  0  0  0  0  0  0  0
   45.7034   10.6259   12.8655 S   0  0  0  0  0  0  0  0  0  0  0  0
  1  3  1  0  0  0  0
  1  9  1  0  0  0  0
  2 12  1  0  0  0  0
  3  5  1  0  0  0  0
  4 12  2  0  0  0  0
  5  7  1  0  0  0  0
  6 12  2  0  0  0  0
  7  8  1  0  0  0  0
  7 10  1  0  0  0  0
  8  9  1  0  0  0  0
 10 11  1  0  0  0  0
 11 12  1  0  0  0  0
M  END
>  <CHROM.1>
-80.41302137,-179.63754814,-55.73832034,47.56750361,12.41283085,12.35235569
0.68012150,-0.09235660,-0.34119359

>  <Name>
ligand

>  <RI>
0

>  <Rbt.Current_Directory>
/home/itssahil/PROJECTS/Mol_Feturizer/New_Systems/rnas/2HO6

>  <Rbt.Executable>
rbdock ($Id: //depot/dev/client3/rdock/2013.1/src/exe/rbdock.cxx#4 $)

>  <Rbt.Library>
libRbt.so (2013.1, Build901 2013/11/27)

>  <Rbt.Parameter_File>
/export/apps/rDock/src/rDock_2013.1_src/data/scripts/dock_solv.prm

>  <Rbt.Receptor>
prm/pocket_docking_2.prm

>  <SCORE>
-4.07324

>  <SCORE.INTER>
-3.41305

>  <SCORE.INTER.CONST>
1

>  <SCORE.INTER.POLAR>
0

>  <SCORE.INTER.ROT>
3

>  <SCORE.INTER.SOLV>
7.00027

>  <SCORE.INTER.VDW>
-10.2088

>  <SCORE.INTER.norm>
-0.284421

>  <SCORE.INTRA>
-0.66019

>  <SCORE.INTRA.DIHEDRAL>
0.581256

>  <SCORE.INTRA.DIHEDRAL.0>
1.88407

>  <SCORE.INTRA.POLAR>
0

>  <SCORE.INTRA.POLAR.0>
0

>  <SCORE.INTRA.REPUL>
0

>  <SCORE.INTRA.REPUL.0>
0

>  <SCORE.INTRA.SOLV>
-0.0617091

>  <SCORE.INTRA.SOLV.lig_0>
-10.2714

>  <SCORE.INTRA.VDW>
-0.919964

>  <SCORE.INTRA.VDW.0>
0.416923

>  <SCORE.INTRA.norm>
-0.0550158

>  <SCORE.RESTR>
0

>  <SCORE.RESTR.CAVITY>
0

>  <SCORE.RESTR.norm>
0

>  <SCORE.SYSTEM>
0

>  <SCORE.SYSTEM.CONST>
0

>  <SCORE.SYSTEM.DIHEDRAL>
0

>  <SCORE.SYSTEM.SOLV>
0

>  <SCORE.SYSTEM.norm>
0

>  <SCORE.heavy>
12

>  <SCORE.norm>
-0.339437

>  <RMSD>
0.951

$$$$
ligand
 OpenBabel11021811433D
libRbt.so/2013.1/901 2013/11/27
 12 12  0  0  0  0  0  0  0  0999 V2000
   50.4662   15.0918   12.5770 O   0  0  0  0  0  0  0  0  0  0  0  0
   45.3428    9.8774   11.6744 O   0  0  0  0  0  0  0  0  0  0  0  0
   49.4970   15.3603   11.5191 C   0  0  0  0  0  0  0  0  0  0  0  0
   44.6657   10.4008   13.9867 O   0  0  0  0  0  0  0  0  0  0  0  0
   48.5254   14.1595   11.3284 C   0  0  0  0  0  0  0  0  0  0  0  0
   44.6555   11.5616   12.3922 O   0  0  0  0  0  0  0  0  0  0  0  0
   48.8759   13.0822   12.3176 N   0  0  0  0  0  0  0  0  0  0  0  0
   50.2969   12.6544   12.1408 C   0  0  0  0  0  0  0  0  0  0  0  0
   51.2326   13.8896   12.2718 C   0  0  0  0  0  0  0  0  0  0  0  0
   47.9773   11.8828   12.1833 C   0  0  0  0  0  0  0  0  0  0  0  0
   46.6610   12.0780   12.9740 C   0  0  0  0  0  0  0  0  0  0  0  0
   45.6283   10.5958   12.8920 S   0  0  0  0  0  0  0  0  0  0  0  0
  1  3  1  0  0  0  0
  1  9  1  0  0  0  0
  2 12  1  0  0  0  0
  3  5  1  0  0  0  0
  4 12  2  0  0  0  0
  5  7  1  0  0  0  0
  6 12  2  0  0  0  0
  7  8  1  0  0  0  0
  7 10  1  0  0  0  0
  8  9  1  0  0  0  0
 10 11  1  0  0  0  0
 11 12  1  0  0  0  0
M  END
>  <CHROM.1>
-84.19623807,-176.57424015,-47.08548639,47.55282415,12.33777586,12.41696052
0.65135033,-0.00905615,-0.21304217

>  <Name>
ligand

>  <RI>
0

>  <Rbt.Current_Directory>
/home/itssahil/PROJECTS/Mol_Feturizer/New_Systems/rnas/2HO6

>  <Rbt.Executable>
rbdock ($Id: //depot/dev/client3/rdock/2013.1/src/exe/rbdock.cxx#4 $)

>  <Rbt.Library>
libRbt.so (2013.1, Build901 2013/11/27)

>  <Rbt.Parameter_File>
/export/apps/rDock/src/rDock_2013.1_src/data/scripts/dock_solv.prm

>  <Rbt.Receptor>
prm/pocket_docking_2.prm

>  <SCORE>
-4.14401

>  <SCORE.INTER>
-3.53813

>  <SCORE.INTER.CONST>
1

>  <SCORE.INTER.POLAR>
0

>  <SCORE.INTER.ROT>
3

>  <SCORE.INTER.SOLV>
7.24348

>  <SCORE.INTER.VDW>
-10.3732

>  <SCORE.INTER.norm>
-0.294844

>  <SCORE.INTRA>
-0.605878

>  <SCORE.INTRA.DIHEDRAL>
0.821691

>  <SCORE.INTRA.DIHEDRAL.0>
1.88407

>  <SCORE.INTRA.POLAR>
0

>  <SCORE.INTRA.POLAR.0>
0

>  <SCORE.INTRA.REPUL>
0

>  <SCORE.INTRA.REPUL.0>
0

>  <SCORE.INTRA.SOLV>
-0.0648632

>  <SCORE.INTRA.SOLV.lig_0>
-10.2714

>  <SCORE.INTRA.VDW>
-0.984291

>  <SCORE.INTRA.VDW.0>
0.416923

>  <SCORE.INTRA.norm>
-0.0504898

>  <SCORE.RESTR>
0

>  <SCORE.RESTR.CAVITY>
0

>  <SCORE.RESTR.norm>
0

>  <SCORE.SYSTEM>
0

>  <SCORE.SYSTEM.CONST>
0

>  <SCORE.SYSTEM.DIHEDRAL>
0

>  <SCORE.SYSTEM.SOLV>
0

>  <SCORE.SYSTEM.norm>
0

>  <SCORE.heavy>
12

>  <SCORE.norm>
-0.345334

>  <RMSD>
0.964

$$$$
ligand
 OpenBabel11021811433D
libRbt.so/2013.1/901 2013/11/27
 12 12  0  0  0  0  0  0  0  0999 V2000
   50.3704   15.2909   12.3813 O   0  0  0  0  0  0  0  0  0  0  0  0
   45.4424    9.8956   11.6808 O   0  0  0  0  0  0  0  0  0  0  0  0
   49.3494   15.4676   11.3532 C   0  0  0  0  0  0  0  0  0  0  0  0
   44.7402   10.4233   13.9847 O   0  0  0  0  0  0  0  0  0  0  0  0
   48.4373   14.2112   11.2447 C   0  0  0  0  0  0  0  0  0  0  0  0
   44.7229   11.5731   12.3823 O   0  0  0  0  0  0  0  0  0  0  0  0
   48.8818   13.1925   12.2579 N   0  0  0  0  0  0  0  0  0  0  0  0
   50.3162   12.8331   12.0411 C   0  0  0  0  0  0  0  0  0  0  0  0
   51.1883   14.1196   12.0901 C   0  0  0  0  0  0  0  0  0  0  0  0
   48.0446   11.9434   12.2028 C   0  0  0  0  0  0  0  0  0  0  0  0
   46.7155   12.1257   12.9750 C   0  0  0  0  0  0  0  0  0  0  0  0
   45.7074   10.6265   12.8956 S   0  0  0  0  0  0  0  0  0  0  0  0
  1  3  1  0  0  0  0
  1  9  1  0  0  0  0
  2 12  1  0  0  0  0
  3  5  1  0  0  0  0
  4 12  2  0  0  0  0
  5  7  1  0  0  0  0
  6 12  2  0  0  0  0
  7  8  1  0  0  0  0
  7 10  1  0  0  0  0
  8  9  1  0  0  0  0
 10 11  1  0  0  0  0
 11 12  1  0  0  0  0
M  END
>  <CHROM.1>
-81.19452042,179.57878901,-47.45232260,47.56827548,12.42032609,12.35981884
0.68673742,-0.00008388,-0.23253691

>  <Name>
ligand

>  <RI>
0

>  <Rbt.Current_Directory>
/home/itssahil/PROJECTS/Mol_Feturizer/New_Systems/rnas/2HO6

>  <Rbt.Executable>
rbdock ($Id: //depot/dev/client3/rdock/2013.1/src/exe/rbdock.cxx#4 $)

>  <Rbt.Library>
libRbt.so (2013.1, Build901 2013/11/27)

>  <Rbt.Parameter_File>
/export/apps/rDock/src/rDock_2013.1_src/data/scripts/dock_solv.prm

>  <Rbt.Receptor>
prm/pocket_docking_2.prm

>  <SCORE>
-4.10218

>  <SCORE.INTER>
-3.43641

>  <SCORE.INTER.CONST>
1

>  <SCORE.INTER.POLAR>
0

>  <SCORE.INTER.ROT>
3

>  <SCORE.INTER.SOLV>
6.99782

>  <SCORE.INTER.VDW>
-10.2235

>  <SCORE.INTER.norm>
-0.286367

>  <SCORE.INTRA>
-0.665775

>  <SCORE.INTRA.DIHEDRAL>
0.600298

>  <SCORE.INTRA.DIHEDRAL.0>
1.88407

>  <SCORE.INTRA.POLAR>
0

>  <SCORE.INTRA.POLAR.0>
0

>  <SCORE.INTRA.REPUL>
0

>  <SCORE.INTRA.REPUL.0>
0

>  <SCORE.INTRA.SOLV>
-0.0634406

>  <SCORE.INTRA.SOLV.lig_0>
-10.2714

>  <SCORE.INTRA.VDW>
-0.934204

>  <SCORE.INTRA.VDW.0>
0.416923

>  <SCORE.INTRA.norm>
-0.0554813

>  <SCORE.RESTR>
0

>  <SCORE.RESTR.CAVITY>
0

>  <SCORE.RESTR.norm>
0

>  <SCORE.SYSTEM>
0

>  <SCORE.SYSTEM.CONST>
0

>  <SCORE.SYSTEM.DIHEDRAL>
0

>  <SCORE.SYSTEM.SOLV>
0

>  <SCORE.SYSTEM.norm>
0

>  <SCORE.heavy>
12

>  <SCORE.norm>
-0.341848

>  <RMSD>
0.967

$$$$
ligand
 OpenBabel11021811433D
libRbt.so/2013.1/901 2013/11/27
 12 12  0  0  0  0  0  0  0  0999 V2000
   50.1551   15.7021   12.1006 O   0  0  0  0  0  0  0  0  0  0  0  0
   45.5465    9.9005   11.6327 O   0  0  0  0  0  0  0  0  0  0  0  0
   49.2902   15.5766   10.9314 C   0  0  0  0  0  0  0  0  0  0  0  0
   45.0935   10.4280   13.9982 O   0  0  0  0  0  0  0  0  0  0  0  0
   48.5226   14.2228   10.9424 C   0  0  0  0  0  0  0  0  0  0  0  0
   44.7450   11.5154   12.3900 O   0  0  0  0  0  0  0  0  0  0  0  0
   48.8985   13.4551   12.1799 N   0  0  0  0  0  0  0  0  0  0  0  0
   50.3757   13.2333   12.2273 C   0  0  0  0  0  0  0  0  0  0  0  0
   51.1103   14.6016   12.1473 C   0  0  0  0  0  0  0  0  0  0  0  0
   48.1958   12.1264   12.2514 C   0  0  0  0  0  0  0  0  0  0  0  0
   46.7253   12.2944   12.7044 C   0  0  0  0  0  0  0  0  0  0  0  0
   45.8846   10.6955   12.7876 S   0  0  0  0  0  0  0  0  0  0  0  0
  1  3  1  0  0  0  0
  1  9  1  0  0  0  0
  2 12  1  0  0  0  0
  3  5  1  0  0  0  0
  4 12  2  0  0  0  0
  5  7  1  0  0  0  0
  6 12  2  0  0  0  0
  7  8  1  0  0  0  0
  7 10  1  0  0  0  0
  8  9  1  0  0  0  0
 10 11  1  0  0  0  0
 11 12  1  0  0  0  0
M  END
>  <CHROM.1>
-77.51818608,179.95373898,-69.37257985,47.63266650,12.57836769,12.26027479
0.71130269,-0.25256891,-0.51770011

>  <Name>
ligand

>  <RI>
0

>  <Rbt.Current_Directory>
/home/itssahil/PROJECTS/Mol_Feturizer/New_Systems/rnas/2HO6

>  <Rbt.Executable>
rbdock ($Id: //depot/dev/client3/rdock/2013.1/src/exe/rbdock.cxx#4 $)

>  <Rbt.Library>
libRbt.so (2013.1, Build901 2013/11/27)

>  <Rbt.Parameter_File>
/export/apps/rDock/src/rDock_2013.1_src/data/scripts/dock_solv.prm

>  <Rbt.Receptor>
prm/pocket_docking_2.prm

>  <SCORE>
-3.83687

>  <SCORE.INTER>
-3.19756

>  <SCORE.INTER.CONST>
1

>  <SCORE.INTER.POLAR>
0

>  <SCORE.INTER.ROT>
3

>  <SCORE.INTER.SOLV>
6.90262

>  <SCORE.INTER.VDW>
-10.0326

>  <SCORE.INTER.norm>
-0.266463

>  <SCORE.INTRA>
-0.639306

>  <SCORE.INTRA.DIHEDRAL>
0.475029

>  <SCORE.INTRA.DIHEDRAL.0>
1.88407

>  <SCORE.INTRA.POLAR>
0

>  <SCORE.INTRA.POLAR.0>
0

>  <SCORE.INTRA.REPUL>
0

>  <SCORE.INTRA.REPUL.0>
0

>  <SCORE.INTRA.SOLV>
-0.0519051

>  <SCORE.INTRA.SOLV.lig_0>
-10.2714

>  <SCORE.INTRA.VDW>
-0.850868

>  <SCORE.INTRA.VDW.0>
0.416923

>  <SCORE.INTRA.norm>
-0.0532755

>  <SCORE.RESTR>
0

>  <SCORE.RESTR.CAVITY>
0

>  <SCORE.RESTR.norm>
0

>  <SCORE.SYSTEM>
0

>  <SCORE.SYSTEM.CONST>
0

>  <SCORE.SYSTEM.DIHEDRAL>
0

>  <SCORE.SYSTEM.SOLV>
0

>  <SCORE.SYSTEM.norm>
0

>  <SCORE.heavy>
12

>  <SCORE.norm>
-0.319739

>  <RMSD>
0.986

$$$$
ligand
 OpenBabel11021811433D
libRbt.so/2013.1/901 2013/11/27
 12 12  0  0  0  0  0  0  0  0999 V2000
   50.2623   15.2651   12.2948 O   0  0  0  0  0  0  0  0  0  0  0  0
   45.3353    9.8729   11.6846 O   0  0  0  0  0  0  0  0  0  0  0  0
   49.3045   15.3504   11.1966 C   0  0  0  0  0  0  0  0  0  0  0  0
   44.6524   10.3987   13.9946 O   0  0  0  0  0  0  0  0  0  0  0  0
   48.4094   14.0789   11.1309 C   0  0  0  0  0  0  0  0  0  0  0  0
   44.6306   11.5528   12.3953 O   0  0  0  0  0  0  0  0  0  0  0  0
   48.7986   13.1462   12.2448 N   0  0  0  0  0  0  0  0  0  0  0  0
   50.2459   12.7879   12.1430 C   0  0  0  0  0  0  0  0  0  0  0  0
   51.1045   14.0845   12.1447 C   0  0  0  0  0  0  0  0  0  0  0  0
   47.9750   11.8869   12.2361 C   0  0  0  0  0  0  0  0  0  0  0  0
   46.6306   12.0922   12.9753 C   0  0  0  0  0  0  0  0  0  0  0  0
   45.6131   10.5991   12.8993 S   0  0  0  0  0  0  0  0  0  0  0  0
  1  3  1  0  0  0  0
  1  9  1  0  0  0  0
  2 12  1  0  0  0  0
  3  5  1  0  0  0  0
  4 12  2  0  0  0  0
  5  7  1  0  0  0  0
  6 12  2  0  0  0  0
  7  8  1  0  0  0  0
  7 10  1  0  0  0  0
  8  9  1  0  0  0  0
 10 11  1  0  0  0  0
 11 12  1  0  0  0  0
M  END
>  <CHROM.1>
-84.14634148,177.48934572,-49.47527102,47.48660420,12.37445620,12.34875005
0.67702734,-0.08484908,-0.35180258

>  <Name>
ligand

>  <RI>
0

>  <Rbt.Current_Directory>
/home/itssahil/PROJECTS/Mol_Feturizer/New_Systems/rnas/2HO6

>  <Rbt.Executable>
rbdock ($Id: //depot/dev/client3/rdock/2013.1/src/exe/rbdock.cxx#4 $)

>  <Rbt.Library>
libRbt.so (2013.1, Build901 2013/11/27)

>  <Rbt.Parameter_File>
/export/apps/rDock/src/rDock_2013.1_src/data/scripts/dock_solv.prm

>  <Rbt.Receptor>
prm/pocket_docking_2.prm

>  <SCORE>
-4.15157

>  <SCORE.INTER>
-3.53313

>  <SCORE.INTER.CONST>
1

>  <SCORE.INTER.POLAR>
0

>  <SCORE.INTER.ROT>
3

>  <SCORE.INTER.SOLV>
7.02277

>  <SCORE.INTER.VDW>
-10.2963

>  <SCORE.INTER.norm>
-0.294427

>  <SCORE.INTRA>
-0.620403

>  <SCORE.INTRA.DIHEDRAL>
0.804646

>  <SCORE.INTRA.DIHEDRAL.0>
1.88407

>  <SCORE.INTRA.POLAR>
0

>  <SCORE.INTRA.POLAR.0>
0

>  <SCORE.INTRA.REPUL>
0

>  <SCORE.INTRA.REPUL.0>
0

>  <SCORE.INTRA.SOLV>
-0.0633857

>  <SCORE.INTRA.SOLV.lig_0>
-10.2714

>  <SCORE.INTRA.VDW>
-0.991033

>  <SCORE.INTRA.VDW.0>
0.416923

>  <SCORE.INTRA.norm>
-0.0517002

>  <SCORE.RESTR>
0.00196188

>  <SCORE.RESTR.CAVITY>
0.00196188

>  <SCORE.RESTR.norm>
0.00016349

>  <SCORE.SYSTEM>
0

>  <SCORE.SYSTEM.CONST>
0

>  <SCORE.SYSTEM.DIHEDRAL>
0

>  <SCORE.SYSTEM.SOLV>
0

>  <SCORE.SYSTEM.norm>
0

>  <SCORE.heavy>
12

>  <SCORE.norm>
-0.345964

>  <RMSD>
1.016

$$$$
ligand
 OpenBabel11021811433D
libRbt.so/2013.1/901 2013/11/27
 12 12  0  0  0  0  0  0  0  0999 V2000
   50.3383   15.2190   12.4655 O   0  0  0  0  0  0  0  0  0  0  0  0
   45.3471    9.8755   11.6856 O   0  0  0  0  0  0  0  0  0  0  0  0
   49.3386   15.4560   11.4286 C   0  0  0  0  0  0  0  0  0  0  0  0
   44.6693   10.3925   13.9991 O   0  0  0  0  0  0  0  0  0  0  0  0
   48.3954   14.2288   11.2659 C   0  0  0  0  0  0  0  0  0  0  0  0
   44.6334   11.5492   12.4021 O   0  0  0  0  0  0  0  0  0  0  0  0
   48.7968   13.1666   12.2521 N   0  0  0  0  0  0  0  0  0  0  0  0
   50.2243   12.7757   12.0450 C   0  0  0  0  0  0  0  0  0  0  0  0
   51.1294   14.0360   12.1486 C   0  0  0  0  0  0  0  0  0  0  0  0
   47.9277   11.9429   12.1441 C   0  0  0  0  0  0  0  0  0  0  0  0
   46.6318   12.1015   12.9756 C   0  0  0  0  0  0  0  0  0  0  0  0
   45.6245   10.6015   12.9006 S   0  0  0  0  0  0  0  0  0  0  0  0
  1  3  1  0  0  0  0
  1  9  1  0  0  0  0
  2 12  1  0  0  0  0
  3  5  1  0  0  0  0
  4 12  2  0  0  0  0
  5  7  1  0  0  0  0
  6 12  2  0  0  0  0
  7  8  1  0  0  0  0
  7 10  1  0  0  0  0
  8  9  1  0  0  0  0
 10 11  1  0  0  0  0
 11 12  1  0  0  0  0
M  END
>  <CHROM.1>
-84.79237729,-177.54392788,-45.30380675,47.49555205,12.39071040,12.37763969
0.68033656,0.00833523,-0.21302912

>  <Name>
ligand

>  <RI>
0

>  <Rbt.Current_Directory>
/home/itssahil/PROJECTS/Mol_Feturizer/New_Systems/rnas/2HO6

>  <Rbt.Executable>
rbdock ($Id: //depot/dev/client3/rdock/2013.1/src/exe/rbdock.cxx#4 $)

>  <Rbt.Library>
libRbt.so (2013.1, Build901 2013/11/27)

>  <Rbt.Parameter_File>
/export/apps/rDock/src/rDock_2013.1_src/data/scripts/dock_solv.prm

>  <Rbt.Receptor>
prm/pocket_docking_2.prm

>  <SCORE>
-4.20623

>  <SCORE.INTER>
-3.60479

>  <SCORE.INTER.CONST>
1

>  <SCORE.INTER.POLAR>
0

>  <SCORE.INTER.ROT>
3

>  <SCORE.INTER.SOLV>
7.17849

>  <SCORE.INTER.VDW>
-10.396

>  <SCORE.INTER.norm>
-0.300399

>  <SCORE.INTRA>
-0.609498

>  <SCORE.INTRA.DIHEDRAL>
0.832424

>  <SCORE.INTRA.DIHEDRAL.0>
1.88407

>  <SCORE.INTRA.POLAR>
0

>  <SCORE.INTRA.POLAR.0>
0

>  <SCORE.INTRA.REPUL>
0

>  <SCORE.INTRA.REPUL.0>
0

>  <SCORE.INTRA.SOLV>
-0.0648399

>  <SCORE.INTRA.SOLV.lig_0>
-10.2714

>  <SCORE.INTRA.VDW>
-0.99329

>  <SCORE.INTRA.VDW.0>
0.416923

>  <SCORE.INTRA.norm>
-0.0507915

>  <SCORE.RESTR>
0.00805838

>  <SCORE.RESTR.CAVITY>
0.00805838

>  <SCORE.RESTR.norm>
0.000671532

>  <SCORE.SYSTEM>
0

>  <SCORE.SYSTEM.CONST>
0

>  <SCORE.SYSTEM.DIHEDRAL>
0

>  <SCORE.SYSTEM.SOLV>
0

>  <SCORE.SYSTEM.norm>
0

>  <SCORE.heavy>
12

>  <SCORE.norm>
-0.350519

>  <RMSD>
1.023

$$$$
ligand
 OpenBabel11021811433D
libRbt.so/2013.1/901 2013/11/27
 12 12  0  0  0  0  0  0  0  0999 V2000
   50.3128   15.2659   12.4380 O   0  0  0  0  0  0  0  0  0  0  0  0
   45.3807    9.8779   11.7178 O   0  0  0  0  0  0  0  0  0  0  0  0
   49.2854   15.4846   11.4244 C   0  0  0  0  0  0  0  0  0  0  0  0
   44.6559   10.4206   14.0111 O   0  0  0  0  0  0  0  0  0  0  0  0
   48.3565   14.2433   11.2883 C   0  0  0  0  0  0  0  0  0  0  0  0
   44.6565   11.5607   12.4017 O   0  0  0  0  0  0  0  0  0  0  0  0
   48.7965   13.1907   12.2682 N   0  0  0  0  0  0  0  0  0  0  0  0
   50.2243   12.8196   12.0285 C   0  0  0  0  0  0  0  0  0  0  0  0
   51.1132   14.0932   12.1063 C   0  0  0  0  0  0  0  0  0  0  0  0
   47.9429   11.9543   12.1850 C   0  0  0  0  0  0  0  0  0  0  0  0
   46.6438   12.1142   13.0112 C   0  0  0  0  0  0  0  0  0  0  0  0
   45.6344   10.6159   12.9307 S   0  0  0  0  0  0  0  0  0  0  0  0
  1  3  1  0  0  0  0
  1  9  1  0  0  0  0
  2 12  1  0  0  0  0
  3  5  1  0  0  0  0
  4 12  2  0  0  0  0
  5  7  1  0  0  0  0
  6 12  2  0  0  0  0
  7  8  1  0  0  0  0
  7 10  1  0  0  0  0
  8  9  1  0  0  0  0
 10 11  1  0  0  0  0
 11 12  1  0  0  0  0
M  END
>  <CHROM.1>
-83.02479768,-179.05108344,-44.14403413,47.49280208,12.41427518,12.38770632
0.68731746,0.02800391,-0.19728502

>  <Name>
ligand

>  <RI>
0

>  <Rbt.Current_Directory>
/home/itssahil/PROJECTS/Mol_Feturizer/New_Systems/rnas/2HO6

>  <Rbt.Executable>
rbdock ($Id: //depot/dev/client3/rdock/2013.1/src/exe/rbdock.cxx#4 $)

>  <Rbt.Library>
libRbt.so (2013.1, Build901 2013/11/27)

>  <Rbt.Parameter_File>
/export/apps/rDock/src/rDock_2013.1_src/data/scripts/dock_solv.prm

>  <Rbt.Receptor>
prm/pocket_docking_2.prm

>  <SCORE>
-4.11624

>  <SCORE.INTER>
-3.47758

>  <SCORE.INTER.CONST>
1

>  <SCORE.INTER.POLAR>
0

>  <SCORE.INTER.ROT>
3

>  <SCORE.INTER.SOLV>
7.19416

>  <SCORE.INTER.VDW>
-10.3164

>  <SCORE.INTER.norm>
-0.289798

>  <SCORE.INTRA>
-0.644307

>  <SCORE.INTRA.DIHEDRAL>
0.703291

>  <SCORE.INTRA.DIHEDRAL.0>
1.88407

>  <SCORE.INTRA.POLAR>
0

>  <SCORE.INTRA.POLAR.0>
0

>  <SCORE.INTRA.REPUL>
0

>  <SCORE.INTRA.REPUL.0>
0

>  <SCORE.INTRA.SOLV>
-0.0640519

>  <SCORE.INTRA.SOLV.lig_0>
-10.2714

>  <SCORE.INTRA.VDW>
-0.963927

>  <SCORE.INTRA.VDW.0>
0.416923

>  <SCORE.INTRA.norm>
-0.0536923

>  <SCORE.RESTR>
0.00564486

>  <SCORE.RESTR.CAVITY>
0.00564486

>  <SCORE.RESTR.norm>
0.000470405

>  <SCORE.SYSTEM>
0

>  <SCORE.SYSTEM.CONST>
0

>  <SCORE.SYSTEM.DIHEDRAL>
0

>  <SCORE.SYSTEM.SOLV>
0

>  <SCORE.SYSTEM.norm>
0

>  <SCORE.heavy>
12

>  <SCORE.norm>
-0.34302

>  <RMSD>
1.037

$$$$
ligand
 OpenBabel11021811433D
libRbt.so/2013.1/901 2013/11/27
 12 12  0  0  0  0  0  0  0  0999 V2000
   50.2051   15.3438   12.2516 O   0  0  0  0  0  0  0  0  0  0  0  0
   45.3389    9.8789   11.7382 O   0  0  0  0  0  0  0  0  0  0  0  0
   49.2549   15.4467   11.1483 C   0  0  0  0  0  0  0  0  0  0  0  0
   44.6626   10.4411   14.0417 O   0  0  0  0  0  0  0  0  0  0  0  0
   48.3538   14.1807   11.0622 C   0  0  0  0  0  0  0  0  0  0  0  0
   44.6136   11.5622   12.4197 O   0  0  0  0  0  0  0  0  0  0  0  0
   48.7309   13.2333   12.1678 N   0  0  0  0  0  0  0  0  0  0  0  0
   50.1770   12.8686   12.0712 C   0  0  0  0  0  0  0  0  0  0  0  0
   51.0423   14.1606   12.0934 C   0  0  0  0  0  0  0  0  0  0  0  0
   47.9009   11.9785   12.1393 C   0  0  0  0  0  0  0  0  0  0  0  0
   46.6088   12.1428   12.9756 C   0  0  0  0  0  0  0  0  0  0  0  0
   45.6134   10.6336   12.9363 S   0  0  0  0  0  0  0  0  0  0  0  0
  1  3  1  0  0  0  0
  1  9  1  0  0  0  0
  2 12  1  0  0  0  0
  3  5  1  0  0  0  0
  4 12  2  0  0  0  0
  5  7  1  0  0  0  0
  6 12  2  0  0  0  0
  7  8  1  0  0  0  0
  7 10  1  0  0  0  0
  8  9  1  0  0  0  0
 10 11  1  0  0  0  0
 11 12  1  0  0  0  0
M  END
>  <CHROM.1>
-89.07595317,179.90501938,-45.05623895,47.45280805,12.43357025,12.33174136
0.69628500,-0.07191663,-0.35302545

>  <Name>
ligand

>  <RI>
0

>  <Rbt.Current_Directory>
/home/itssahil/PROJECTS/Mol_Feturizer/New_Systems/rnas/2HO6

>  <Rbt.Executable>
rbdock ($Id: //depot/dev/client3/rdock/2013.1/src/exe/rbdock.cxx#4 $)

>  <Rbt.Library>
libRbt.so (2013.1, Build901 2013/11/27)

>  <Rbt.Parameter_File>
/export/apps/rDock/src/rDock_2013.1_src/data/scripts/dock_solv.prm

>  <Rbt.Receptor>
prm/pocket_docking_2.prm

>  <SCORE>
-4.07729

>  <SCORE.INTER>
-3.52988

>  <SCORE.INTER.CONST>
1

>  <SCORE.INTER.POLAR>
0

>  <SCORE.INTER.ROT>
3

>  <SCORE.INTER.SOLV>
6.91102

>  <SCORE.INTER.VDW>
-10.2569

>  <SCORE.INTER.norm>
-0.294157

>  <SCORE.INTRA>
-0.55007

>  <SCORE.INTRA.DIHEDRAL>
1.07593

>  <SCORE.INTRA.DIHEDRAL.0>
1.88407

>  <SCORE.INTRA.POLAR>
0

>  <SCORE.INTRA.POLAR.0>
0

>  <SCORE.INTRA.REPUL>
0

>  <SCORE.INTRA.REPUL.0>
0

>  <SCORE.INTRA.SOLV>
-0.065344

>  <SCORE.INTRA.SOLV.lig_0>
-10.2714

>  <SCORE.INTRA.VDW>
-1.05536

>  <SCORE.INTRA.VDW.0>
0.416923

>  <SCORE.INTRA.norm>
-0.0458392

>  <SCORE.RESTR>
0.00265889

>  <SCORE.RESTR.CAVITY>
0.00265889

>  <SCORE.RESTR.norm>
0.000221574

>  <SCORE.SYSTEM>
0

>  <SCORE.SYSTEM.CONST>
0

>  <SCORE.SYSTEM.DIHEDRAL>
0

>  <SCORE.SYSTEM.SOLV>
0

>  <SCORE.SYSTEM.norm>
0

>  <SCORE.heavy>
12

>  <SCORE.norm>
-0.339774

>  <RMSD>
1.055

$$$$
ligand
 OpenBabel11021811433D
libRbt.so/2013.1/901 2013/11/27
 12 12  0  0  0  0  0  0  0  0999 V2000
   51.5661   13.9595   13.0975 O   0  0  0  0  0  0  0  0  0  0  0  0
   45.7165    9.9802   10.9766 O   0  0  0  0  0  0  0  0  0  0  0  0
   51.1207   14.3513   11.7638 C   0  0  0  0  0  0  0  0  0  0  0  0
   44.9392   10.3452   13.2878 O   0  0  0  0  0  0  0  0  0  0  0  0
   49.9799   13.4222   11.2564 C   0  0  0  0  0  0  0  0  0  0  0  0
   45.2426   11.6632   11.8522 O   0  0  0  0  0  0  0  0  0  0  0  0
   49.6691   12.4019   12.3167 N   0  0  0  0  0  0  0  0  0  0  0  0
   50.8921   11.6123   12.6549 C   0  0  0  0  0  0  0  0  0  0  0  0
   52.0299   12.5773   13.0934 C   0  0  0  0  0  0  0  0  0  0  0  0
   48.5755   11.4615   11.8876 C   0  0  0  0  0  0  0  0  0  0  0  0
   47.2487   11.7741   12.6208 C   0  0  0  0  0  0  0  0  0  0  0  0
   46.0081   10.5007   12.2897 S   0  0  0  0  0  0  0  0  0  0  0  0
  1  3  1  0  0  0  0
  1  9  1  0  0  0  0
  2 12  1  0  0  0  0
  3  5  1  0  0  0  0
  4 12  2  0  0  0  0
  5  7  1  0  0  0  0
  6 12  2  0  0  0  0
  7  8  1  0  0  0  0
  7 10  1  0  0  0  0
  8  9  1  0  0  0  0
 10 11  1  0  0  0  0
 11 12  1  0  0  0  0
M  END
>  <CHROM.1>
-106.05349673,-171.67435195,-46.56932090,48.27350411,11.84348105,12.26289887
-0.33342161,0.30073315,2.54213070

>  <Name>
ligand

>  <RI>
0

>  <Rbt.Current_Directory>
/home/itssahil/PROJECTS/Mol_Feturizer/New_Systems/rnas/2HO6

>  <Rbt.Executable>
rbdock ($Id: //depot/dev/client3/rdock/2013.1/src/exe/rbdock.cxx#4 $)

>  <Rbt.Library>
libRbt.so (2013.1, Build901 2013/11/27)

>  <Rbt.Parameter_File>
/export/apps/rDock/src/rDock_2013.1_src/data/scripts/dock_solv.prm

>  <Rbt.Receptor>
prm/pocket_docking_2.prm

>  <SCORE>
-2.42954

>  <SCORE.INTER>
-2.35387

>  <SCORE.INTER.CONST>
1

>  <SCORE.INTER.POLAR>
0

>  <SCORE.INTER.ROT>
3

>  <SCORE.INTER.SOLV>
5.97004

>  <SCORE.INTER.VDW>
-9.15926

>  <SCORE.INTER.norm>
-0.196156

>  <SCORE.INTRA>
-0.0756726

>  <SCORE.INTRA.DIHEDRAL>
2.25862

>  <SCORE.INTRA.DIHEDRAL.0>
1.88407

>  <SCORE.INTRA.POLAR>
0

>  <SCORE.INTRA.POLAR.0>
0

>  <SCORE.INTRA.REPUL>
0

>  <SCORE.INTRA.REPUL.0>
0

>  <SCORE.INTRA.SOLV>
-0.0658439

>  <SCORE.INTRA.SOLV.lig_0>
-10.2714

>  <SCORE.INTRA.VDW>
-1.17206

>  <SCORE.INTRA.VDW.0>
0.416923

>  <SCORE.INTRA.norm>
-0.00630605

>  <SCORE.RESTR>
0

>  <SCORE.RESTR.CAVITY>
0

>  <SCORE.RESTR.norm>
0

>  <SCORE.SYSTEM>
0

>  <SCORE.SYSTEM.CONST>
0

>  <SCORE.SYSTEM.DIHEDRAL>
0

>  <SCORE.SYSTEM.SOLV>
0

>  <SCORE.SYSTEM.norm>
0

>  <SCORE.heavy>
12

>  <SCORE.norm>
-0.202462

>  <RMSD>
1.072

$$$$
ligand
 OpenBabel11021811433D
libRbt.so/2013.1/901 2013/11/27
 12 12  0  0  0  0  0  0  0  0999 V2000
   51.4922   13.5731   10.4047 O   0  0  0  0  0  0  0  0  0  0  0  0
   45.0466    9.9021   12.2428 O   0  0  0  0  0  0  0  0  0  0  0  0
   52.1413   12.5451   11.2126 C   0  0  0  0  0  0  0  0  0  0  0  0
   45.6036   11.4504   14.0791 O   0  0  0  0  0  0  0  0  0  0  0  0
   51.0994   11.7430   12.0451 C   0  0  0  0  0  0  0  0  0  0  0  0
   45.1614   11.8538   12.1998 O   0  0  0  0  0  0  0  0  0  0  0  0
   49.7222   12.2677   11.7454 N   0  0  0  0  0  0  0  0  0  0  0  0
   49.6426   13.7282   12.0523 C   0  0  0  0  0  0  0  0  0  0  0  0
   50.7399   14.4883   11.2545 C   0  0  0  0  0  0  0  0  0  0  0  0
   48.6617   11.5393   12.5259 C   0  0  0  0  0  0  0  0  0  0  0  0
   47.2762   11.6751   11.8493 C   0  0  0  0  0  0  0  0  0  0  0  0
   45.9994   10.8258   12.8079 S   0  0  0  0  0  0  0  0  0  0  0  0
  1  3  1  0  0  0  0
  1  9  1  0  0  0  0
  2 12  1  0  0  0  0
  3  5  1  0  0  0  0
  4 12  2  0  0  0  0
  5  7  1  0  0  0  0
  6 12  2  0  0  0  0
  7  8  1  0  0  0  0
  7 10  1  0  0  0  0
  8  9  1  0  0  0  0
 10 11  1  0  0  0  0
 11 12  1  0  0  0  0
M  END
>  <CHROM.1>
-158.08303929,-178.88068256,-130.79899455,48.24204961,11.99352214,12.11472762
0.40841773,0.19806467,-0.16884394

>  <Name>
ligand

>  <RI>
0

>  <Rbt.Current_Directory>
/home/itssahil/PROJECTS/Mol_Feturizer/New_Systems/rnas/2HO6

>  <Rbt.Executable>
rbdock ($Id: //depot/dev/client3/rdock/2013.1/src/exe/rbdock.cxx#4 $)

>  <Rbt.Library>
libRbt.so (2013.1, Build901 2013/11/27)

>  <Rbt.Parameter_File>
/export/apps/rDock/src/rDock_2013.1_src/data/scripts/dock_solv.prm

>  <Rbt.Receptor>
prm/pocket_docking_2.prm

>  <SCORE>
-1.68795

>  <SCORE.INTER>
-1.18916

>  <SCORE.INTER.CONST>
1

>  <SCORE.INTER.POLAR>
0

>  <SCORE.INTER.ROT>
3

>  <SCORE.INTER.SOLV>
4.60753

>  <SCORE.INTER.VDW>
-7.92862

>  <SCORE.INTER.norm>
-0.099097

>  <SCORE.INTRA>
-0.498788

>  <SCORE.INTRA.DIHEDRAL>
0.529842

>  <SCORE.INTRA.DIHEDRAL.0>
1.88407

>  <SCORE.INTRA.POLAR>
0

>  <SCORE.INTRA.POLAR.0>
0

>  <SCORE.INTRA.REPUL>
0

>  <SCORE.INTRA.REPUL.0>
0

>  <SCORE.INTRA.SOLV>
0.0613545

>  <SCORE.INTRA.SOLV.lig_0>
-10.2714

>  <SCORE.INTRA.VDW>
-0.794387

>  <SCORE.INTRA.VDW.0>
0.416923

>  <SCORE.INTRA.norm>
-0.0415657

>  <SCORE.RESTR>
0

>  <SCORE.RESTR.CAVITY>
0

>  <SCORE.RESTR.norm>
0

>  <SCORE.SYSTEM>
0

>  <SCORE.SYSTEM.CONST>
0

>  <SCORE.SYSTEM.DIHEDRAL>
0

>  <SCORE.SYSTEM.SOLV>
0

>  <SCORE.SYSTEM.norm>
0

>  <SCORE.heavy>
12

>  <SCORE.norm>
-0.140663

>  <RMSD>
1.091

$$$$
ligand
 OpenBabel11021811433D
libRbt.so/2013.1/901 2013/11/27
 12 12  0  0  0  0  0  0  0  0999 V2000
   50.2182   15.2152   12.3947 O   0  0  0  0  0  0  0  0  0  0  0  0
   45.3297    9.8855   11.7354 O   0  0  0  0  0  0  0  0  0  0  0  0
   49.4074   15.4605   11.2059 C   0  0  0  0  0  0  0  0  0  0  0  0
   44.5327   10.4086   14.0092 O   0  0  0  0  0  0  0  0  0  0  0  0
   48.3835   14.3111   10.9766 C   0  0  0  0  0  0  0  0  0  0  0  0
   44.7308   11.6033   12.4524 O   0  0  0  0  0  0  0  0  0  0  0  0
   48.5325   13.2941   12.0746 N   0  0  0  0  0  0  0  0  0  0  0  0
   49.9304   12.7665   12.1102 C   0  0  0  0  0  0  0  0  0  0  0  0
   50.9286   13.9477   12.2734 C   0  0  0  0  0  0  0  0  0  0  0  0
   47.5740   12.1459   11.9103 C   0  0  0  0  0  0  0  0  0  0  0  0
   46.7244   11.9386   13.1874 C   0  0  0  0  0  0  0  0  0  0  0  0
   45.5840   10.5491   12.9904 S   0  0  0  0  0  0  0  0  0  0  0  0
  1  3  1  0  0  0  0
  1  9  1  0  0  0  0
  2 12  1  0  0  0  0
  3  5  1  0  0  0  0
  4 12  2  0  0  0  0
  5  7  1  0  0  0  0
  6 12  2  0  0  0  0
  7  8  1  0  0  0  0
  7 10  1  0  0  0  0
  8  9  1  0  0  0  0
 10 11  1  0  0  0  0
 11 12  1  0  0  0  0
M  END
>  <CHROM.1>
-125.60171480,-179.51697206,-10.49994169,47.40478166,12.39967272,12.35808343
-0.68047586,0.21059200,2.62480188

>  <Name>
ligand

>  <RI>
0

>  <Rbt.Current_Directory>
/home/itssahil/PROJECTS/Mol_Feturizer/New_Systems/rnas/2HO6

>  <Rbt.Executable>
rbdock ($Id: //depot/dev/client3/rdock/2013.1/src/exe/rbdock.cxx#4 $)

>  <Rbt.Library>
libRbt.so (2013.1, Build901 2013/11/27)

>  <Rbt.Parameter_File>
/export/apps/rDock/src/rDock_2013.1_src/data/scripts/dock_solv.prm

>  <Rbt.Receptor>
prm/pocket_docking_2.prm

>  <SCORE>
-3.46222

>  <SCORE.INTER>
-3.63115

>  <SCORE.INTER.CONST>
1

>  <SCORE.INTER.POLAR>
0

>  <SCORE.INTER.ROT>
3

>  <SCORE.INTER.SOLV>
7.03348

>  <SCORE.INTER.VDW>
-10.3653

>  <SCORE.INTER.norm>
-0.302596

>  <SCORE.INTRA>
0.16893

>  <SCORE.INTRA.DIHEDRAL>
2.21133

>  <SCORE.INTRA.DIHEDRAL.0>
1.88407

>  <SCORE.INTRA.POLAR>
0

>  <SCORE.INTRA.POLAR.0>
0

>  <SCORE.INTRA.REPUL>
0

>  <SCORE.INTRA.REPUL.0>
0

>  <SCORE.INTRA.SOLV>
-0.00720244

>  <SCORE.INTRA.SOLV.lig_0>
-10.2714

>  <SCORE.INTRA.VDW>
-0.933136

>  <SCORE.INTRA.VDW.0>
0.416923

>  <SCORE.INTRA.norm>
0.0140775

>  <SCORE.RESTR>
0

>  <SCORE.RESTR.CAVITY>
0

>  <SCORE.RESTR.norm>
0

>  <SCORE.SYSTEM>
0

>  <SCORE.SYSTEM.CONST>
0

>  <SCORE.SYSTEM.DIHEDRAL>
0

>  <SCORE.SYSTEM.SOLV>
0

>  <SCORE.SYSTEM.norm>
0

>  <SCORE.heavy>
12

>  <SCORE.norm>
-0.288518

>  <RMSD>
1.138

$$$$
ligand
 OpenBabel11021811433D
libRbt.so/2013.1/901 2013/11/27
 12 12  0  0  0  0  0  0  0  0999 V2000
   52.0354   14.6366   10.5903 O   0  0  0  0  0  0  0  0  0  0  0  0
   45.8740   10.0298   11.2934 O   0  0  0  0  0  0  0  0  0  0  0  0
   52.5185   13.2771   10.8116 C   0  0  0  0  0  0  0  0  0  0  0  0
   46.3689   11.3629   13.3076 O   0  0  0  0  0  0  0  0  0  0  0  0
   51.4233   12.3921   11.4747 C   0  0  0  0  0  0  0  0  0  0  0  0
   46.1375   11.9617   11.4427 O   0  0  0  0  0  0  0  0  0  0  0  0
   50.1796   13.2146   11.6712 N   0  0  0  0  0  0  0  0  0  0  0  0
   50.4763   14.4163   12.5087 C   0  0  0  0  0  0  0  0  0  0  0  0
   51.6192   15.2402   11.8506 C   0  0  0  0  0  0  0  0  0  0  0  0
   49.0775   12.4201   12.3181 C   0  0  0  0  0  0  0  0  0  0  0  0
   48.2568   11.6394   11.2633 C   0  0  0  0  0  0  0  0  0  0  0  0
   46.8354   10.8194   12.0231 S   0  0  0  0  0  0  0  0  0  0  0  0
  1  3  1  0  0  0  0
  1  9  1  0  0  0  0
  2 12  1  0  0  0  0
  3  5  1  0  0  0  0
  4 12  2  0  0  0  0
  5  7  1  0  0  0  0
  6 12  2  0  0  0  0
  7  8  1  0  0  0  0
  7 10  1  0  0  0  0
  8  9  1  0  0  0  0
 10 11  1  0  0  0  0
 11 12  1  0  0  0  0
M  END
>  <CHROM.1>
-85.93146481,-174.33070218,179.18632494,48.94456524,12.42531425,11.73952668
-0.38833212,-0.40137641,-2.56964864

>  <Name>
ligand

>  <RI>
0

>  <Rbt.Current_Directory>
/home/itssahil/PROJECTS/Mol_Feturizer/New_Systems/rnas/2HO6

>  <Rbt.Executable>
rbdock ($Id: //depot/dev/client3/rdock/2013.1/src/exe/rbdock.cxx#4 $)

>  <Rbt.Library>
libRbt.so (2013.1, Build901 2013/11/27)

>  <Rbt.Parameter_File>
/export/apps/rDock/src/rDock_2013.1_src/data/scripts/dock_solv.prm

>  <Rbt.Receptor>
prm/pocket_docking_2.prm

>  <SCORE>
-0.835544

>  <SCORE.INTER>
-0.588947

>  <SCORE.INTER.CONST>
1

>  <SCORE.INTER.POLAR>
0

>  <SCORE.INTER.ROT>
3

>  <SCORE.INTER.SOLV>
3.80281

>  <SCORE.INTER.VDW>
-7.26023

>  <SCORE.INTER.norm>
-0.0490789

>  <SCORE.INTRA>
-0.246597

>  <SCORE.INTRA.DIHEDRAL>
1.05089

>  <SCORE.INTRA.DIHEDRAL.0>
1.88407

>  <SCORE.INTRA.POLAR>
0

>  <SCORE.INTRA.POLAR.0>
0

>  <SCORE.INTRA.REPUL>
0

>  <SCORE.INTRA.REPUL.0>
0

>  <SCORE.INTRA.SOLV>
0.188934

>  <SCORE.INTRA.SOLV.lig_0>
-10.2714

>  <SCORE.INTRA.VDW>
-0.866508

>  <SCORE.INTRA.VDW.0>
0.416923

>  <SCORE.INTRA.norm>
-0.0205497

>  <SCORE.RESTR>
0

>  <SCORE.RESTR.CAVITY>
0

>  <SCORE.RESTR.norm>
0

>  <SCORE.SYSTEM>
0

>  <SCORE.SYSTEM.CONST>
0

>  <SCORE.SYSTEM.DIHEDRAL>
0

>  <SCORE.SYSTEM.SOLV>
0

>  <SCORE.SYSTEM.norm>
0

>  <SCORE.heavy>
12

>  <SCORE.norm>
-0.0696287

>  <RMSD>
1.281

$$$$
ligand
 OpenBabel11021811433D
libRbt.so/2013.1/901 2013/11/27
 12 12  0  0  0  0  0  0  0  0999 V2000
   49.6702   15.9203   11.7996 O   0  0  0  0  0  0  0  0  0  0  0  0
   45.5604    9.9008   11.6446 O   0  0  0  0  0  0  0  0  0  0  0  0
   49.1031   15.6418   10.4838 C   0  0  0  0  0  0  0  0  0  0  0  0
   44.8834   10.3987   13.9626 O   0  0  0  0  0  0  0  0  0  0  0  0
   48.3926   14.2573   10.4591 C   0  0  0  0  0  0  0  0  0  0  0  0
   44.6989   11.5108   12.3442 O   0  0  0  0  0  0  0  0  0  0  0  0
   48.4939   13.6290   11.8218 N   0  0  0  0  0  0  0  0  0  0  0  0
   49.9258   13.4887   12.2261 C   0  0  0  0  0  0  0  0  0  0  0  0
   50.6197   14.8795   12.1750 C   0  0  0  0  0  0  0  0  0  0  0  0
   47.8319   12.2785   11.8679 C   0  0  0  0  0  0  0  0  0  0  0  0
   46.6440   12.2708   12.8602 C   0  0  0  0  0  0  0  0  0  0  0  0
   45.7896   10.6771   12.8383 S   0  0  0  0  0  0  0  0  0  0  0  0
  1  3  1  0  0  0  0
  1  9  1  0  0  0  0
  2 12  1  0  0  0  0
  3  5  1  0  0  0  0
  4 12  2  0  0  0  0
  5  7  1  0  0  0  0
  6 12  2  0  0  0  0
  7  8  1  0  0  0  0
  7 10  1  0  0  0  0
  8  9  1  0  0  0  0
 10 11  1  0  0  0  0
 11 12  1  0  0  0  0
M  END
>  <CHROM.1>
-117.26895254,176.55953465,-38.31830148,47.40493160,12.65809328,12.13054220
-0.64927004,0.53985208,2.25388852

>  <Name>
ligand

>  <RI>
0

>  <Rbt.Current_Directory>
/home/itssahil/PROJECTS/Mol_Feturizer/New_Systems/rnas/2HO6

>  <Rbt.Executable>
rbdock ($Id: //depot/dev/client3/rdock/2013.1/src/exe/rbdock.cxx#4 $)

>  <Rbt.Library>
libRbt.so (2013.1, Build901 2013/11/27)

>  <Rbt.Parameter_File>
/export/apps/rDock/src/rDock_2013.1_src/data/scripts/dock_solv.prm

>  <Rbt.Receptor>
prm/pocket_docking_2.prm

>  <SCORE>
-3.3317

>  <SCORE.INTER>
-3.26143

>  <SCORE.INTER.CONST>
1

>  <SCORE.INTER.POLAR>
0

>  <SCORE.INTER.ROT>
3

>  <SCORE.INTER.SOLV>
6.69757

>  <SCORE.INTER.VDW>
-10.0068

>  <SCORE.INTER.norm>
-0.271786

>  <SCORE.INTRA>
-0.0716033

>  <SCORE.INTRA.DIHEDRAL>
2.28132

>  <SCORE.INTRA.DIHEDRAL.0>
1.88407

>  <SCORE.INTRA.POLAR>
0

>  <SCORE.INTRA.POLAR.0>
0

>  <SCORE.INTRA.REPUL>
0

>  <SCORE.INTRA.REPUL.0>
0

>  <SCORE.INTRA.SOLV>
-0.0652501

>  <SCORE.INTRA.SOLV.lig_0>
-10.2714

>  <SCORE.INTRA.VDW>
-1.17964

>  <SCORE.INTRA.VDW.0>
0.416923

>  <SCORE.INTRA.norm>
-0.00596694

>  <SCORE.RESTR>
0.00134018

>  <SCORE.RESTR.CAVITY>
0.00134018

>  <SCORE.RESTR.norm>
0.000111681

>  <SCORE.SYSTEM>
0

>  <SCORE.SYSTEM.CONST>
0

>  <SCORE.SYSTEM.DIHEDRAL>
0

>  <SCORE.SYSTEM.SOLV>
0

>  <SCORE.SYSTEM.norm>
0

>  <SCORE.heavy>
12

>  <SCORE.norm>
-0.277641

>  <RMSD>
1.307

$$$$
ligand
 OpenBabel11021811433D
libRbt.so/2013.1/901 2013/11/27
 12 12  0  0  0  0  0  0  0  0999 V2000
   51.0878   15.2205   12.3812 O   0  0  0  0  0  0  0  0  0  0  0  0
   45.2928   10.2092   13.1760 O   0  0  0  0  0  0  0  0  0  0  0  0
   50.2765   15.9999   11.4510 C   0  0  0  0  0  0  0  0  0  0  0  0
   45.4247   11.1505   10.9010 O   0  0  0  0  0  0  0  0  0  0  0  0
   48.9530   15.2591   11.1022 C   0  0  0  0  0  0  0  0  0  0  0  0
   46.8019   10.1865   11.9325 O   0  0  0  0  0  0  0  0  0  0  0  0
   48.9059   13.9573   11.8539 N   0  0  0  0  0  0  0  0  0  0  0  0
   50.0947   13.1170   11.5160 C   0  0  0  0  0  0  0  0  0  0  0  0
   51.3967   13.9131   11.8146 C   0  0  0  0  0  0  0  0  0  0  0  0
   47.6509   13.1822   11.5562 C   0  0  0  0  0  0  0  0  0  0  0  0
   47.3675   12.1314   12.6568 C   0  0  0  0  0  0  0  0  0  0  0  0
   45.8443   11.2211   12.3088 S   0  0  0  0  0  0  0  0  0  0  0  0
  1  3  1  0  0  0  0
  1  9  1  0  0  0  0
  2 12  1  0  0  0  0
  3  5  1  0  0  0  0
  4 12  2  0  0  0  0
  5  7  1  0  0  0  0
  6 12  2  0  0  0  0
  7  8  1  0  0  0  0
  7 10  1  0  0  0  0
  8  9  1  0  0  0  0
 10 11  1  0  0  0  0
 11 12  1  0  0  0  0
M  END
>  <CHROM.1>
-160.18885429,179.07403498,-177.75442918,47.98892761,12.74891613,11.93517027
-0.70186839,0.21337554,2.78039919

>  <Name>
ligand

>  <RI>
0

>  <Rbt.Current_Directory>
/home/itssahil/PROJECTS/Mol_Feturizer/New_Systems/rnas/2HO6

>  <Rbt.Executable>
rbdock ($Id: //depot/dev/client3/rdock/2013.1/src/exe/rbdock.cxx#4 $)

>  <Rbt.Library>
libRbt.so (2013.1, Build901 2013/11/27)

>  <Rbt.Parameter_File>
/export/apps/rDock/src/rDock_2013.1_src/data/scripts/dock_solv.prm

>  <Rbt.Receptor>
prm/pocket_docking_2.prm

>  <SCORE>
-1.82339

>  <SCORE.INTER>
-1.50406

>  <SCORE.INTER.CONST>
1

>  <SCORE.INTER.POLAR>
0

>  <SCORE.INTER.ROT>
3

>  <SCORE.INTER.SOLV>
6.02876

>  <SCORE.INTER.VDW>
-8.61229

>  <SCORE.INTER.norm>
-0.125338

>  <SCORE.INTRA>
-0.321715

>  <SCORE.INTRA.DIHEDRAL>
0.419028

>  <SCORE.INTRA.DIHEDRAL.0>
1.88407

>  <SCORE.INTRA.POLAR>
0

>  <SCORE.INTRA.POLAR.0>
0

>  <SCORE.INTRA.REPUL>
0

>  <SCORE.INTRA.REPUL.0>
0

>  <SCORE.INTRA.SOLV>
0.191114

>  <SCORE.INTRA.SOLV.lig_0>
-10.2714

>  <SCORE.INTRA.VDW>
-0.626786

>  <SCORE.INTRA.VDW.0>
0.416923

>  <SCORE.INTRA.norm>
-0.0268096

>  <SCORE.RESTR>
0.00238855

>  <SCORE.RESTR.CAVITY>
0.00238855

>  <SCORE.RESTR.norm>
0.000199046

>  <SCORE.SYSTEM>
0

>  <SCORE.SYSTEM.CONST>
0

>  <SCORE.SYSTEM.DIHEDRAL>
0

>  <SCORE.SYSTEM.SOLV>
0

>  <SCORE.SYSTEM.norm>
0

>  <SCORE.heavy>
12

>  <SCORE.norm>
-0.151949

>  <RMSD>
1.404

$$$$
ligand
 OpenBabel11021811433D
libRbt.so/2013.1/901 2013/11/27
 12 12  0  0  0  0  0  0  0  0999 V2000
   50.2457   15.2384   12.4141 O   0  0  0  0  0  0  0  0  0  0  0  0
   45.9464   11.5734   14.0981 O   0  0  0  0  0  0  0  0  0  0  0  0
   50.0219   15.4884   10.9935 C   0  0  0  0  0  0  0  0  0  0  0  0
   46.0094   13.3077   12.3466 O   0  0  0  0  0  0  0  0  0  0  0  0
   49.2975   14.2877   10.3186 C   0  0  0  0  0  0  0  0  0  0  0  0
   45.6018   11.3849   12.1824 O   0  0  0  0  0  0  0  0  0  0  0  0
   49.0303   13.2301   11.3540 N   0  0  0  0  0  0  0  0  0  0  0  0
   50.3079   12.7931   11.9945 C   0  0  0  0  0  0  0  0  0  0  0  0
   51.0358   14.0271   12.5993 C   0  0  0  0  0  0  0  0  0  0  0  0
   48.3358   12.0316   10.7661 C   0  0  0  0  0  0  0  0  0  0  0  0
   47.7170   11.1443   11.8732 C   0  0  0  0  0  0  0  0  0  0  0  0
   46.6187   12.1075   12.9392 S   0  0  0  0  0  0  0  0  0  0  0  0
  1  3  1  0  0  0  0
  1  9  1  0  0  0  0
  2 12  1  0  0  0  0
  3  5  1  0  0  0  0
  4 12  2  0  0  0  0
  5  7  1  0  0  0  0
  6 12  2  0  0  0  0
  7  8  1  0  0  0  0
  7 10  1  0  0  0  0
  8  9  1  0  0  0  0
 10 11  1  0  0  0  0
 11 12  1  0  0  0  0
M  END
>  <CHROM.1>
-164.02364852,54.59456963,-176.87447307,48.13003453,12.95642862,12.10946298
0.11625877,0.62218176,0.94483028

>  <Name>
ligand

>  <RI>
0

>  <Rbt.Current_Directory>
/home/itssahil/PROJECTS/Mol_Feturizer/New_Systems/rnas/2HO6

>  <Rbt.Executable>
rbdock ($Id: //depot/dev/client3/rdock/2013.1/src/exe/rbdock.cxx#4 $)

>  <Rbt.Library>
libRbt.so (2013.1, Build901 2013/11/27)

>  <Rbt.Parameter_File>
/export/apps/rDock/src/rDock_2013.1_src/data/scripts/dock_solv.prm

>  <Rbt.Receptor>
prm/pocket_docking_2.prm

>  <SCORE>
-2.35908

>  <SCORE.INTER>
-1.80792

>  <SCORE.INTER.CONST>
1

>  <SCORE.INTER.POLAR>
0

>  <SCORE.INTER.ROT>
3

>  <SCORE.INTER.SOLV>
4.49596

>  <SCORE.INTER.VDW>
-8.30393

>  <SCORE.INTER.norm>
-0.15066

>  <SCORE.INTRA>
-0.551587

>  <SCORE.INTRA.DIHEDRAL>
0.338929

>  <SCORE.INTRA.DIHEDRAL.0>
1.88407

>  <SCORE.INTRA.POLAR>
0

>  <SCORE.INTRA.POLAR.0>
0

>  <SCORE.INTRA.REPUL>
0

>  <SCORE.INTRA.REPUL.0>
0

>  <SCORE.INTRA.SOLV>
0.851816

>  <SCORE.INTRA.SOLV.lig_0>
-10.2714

>  <SCORE.INTRA.VDW>
-1.14696

>  <SCORE.INTRA.VDW.0>
0.416923

>  <SCORE.INTRA.norm>
-0.0459656

>  <SCORE.RESTR>
0.000424631

>  <SCORE.RESTR.CAVITY>
0.000424631

>  <SCORE.RESTR.norm>
3.53859e-05

>  <SCORE.SYSTEM>
0

>  <SCORE.SYSTEM.CONST>
0

>  <SCORE.SYSTEM.DIHEDRAL>
0

>  <SCORE.SYSTEM.SOLV>
0

>  <SCORE.SYSTEM.norm>
0

>  <SCORE.heavy>
12

>  <SCORE.norm>
-0.19659

>  <RMSD>
1.451

$$$$
ligand
 OpenBabel11021811433D
libRbt.so/2013.1/901 2013/11/27
 12 12  0  0  0  0  0  0  0  0999 V2000
   49.9948   15.0081   12.5839 O   0  0  0  0  0  0  0  0  0  0  0  0
   46.1084   13.4183   12.4347 O   0  0  0  0  0  0  0  0  0  0  0  0
   49.5231   15.3387   11.2427 C   0  0  0  0  0  0  0  0  0  0  0  0
   44.9591   11.3297   13.0641 O   0  0  0  0  0  0  0  0  0  0  0  0
   48.9021   14.0952   10.5425 C   0  0  0  0  0  0  0  0  0  0  0  0
   46.7419   11.9813   13.5999 O   0  0  0  0  0  0  0  0  0  0  0  0
   48.9627   12.9216   11.4811 N   0  0  0  0  0  0  0  0  0  0  0  0
   50.3748   12.6551   11.8919 C   0  0  0  0  0  0  0  0  0  0  0  0
   50.9833   13.9379   12.5262 C   0  0  0  0  0  0  0  0  0  0  0  0
   48.3838   11.6778   10.8631 C   0  0  0  0  0  0  0  0  0  0  0  0
   47.4505   10.9421   11.8548 C   0  0  0  0  0  0  0  0  0  0  0  0
   46.0454   11.9821   12.3178 S   0  0  0  0  0  0  0  0  0  0  0  0
  1  3  1  0  0  0  0
  1  9  1  0  0  0  0
  2 12  1  0  0  0  0
  3  5  1  0  0  0  0
  4 12  2  0  0  0  0
  5  7  1  0  0  0  0
  6 12  2  0  0  0  0
  7  8  1  0  0  0  0
  7 10  1  0  0  0  0
  8  9  1  0  0  0  0
 10 11  1  0  0  0  0
 11 12  1  0  0  0  0
M  END
>  <CHROM.1>
-134.98728134,61.77773040,-33.01733649,47.95128484,12.85141862,12.09605056
0.48184150,0.30216796,0.18274501

>  <Name>
ligand

>  <RI>
0

>  <Rbt.Current_Directory>
/home/itssahil/PROJECTS/Mol_Feturizer/New_Systems/rnas/2HO6

>  <Rbt.Executable>
rbdock ($Id: //depot/dev/client3/rdock/2013.1/src/exe/rbdock.cxx#4 $)

>  <Rbt.Library>
libRbt.so (2013.1, Build901 2013/11/27)

>  <Rbt.Parameter_File>
/export/apps/rDock/src/rDock_2013.1_src/data/scripts/dock_solv.prm

>  <Rbt.Receptor>
prm/pocket_docking_2.prm

>  <SCORE>
-1.57749

>  <SCORE.INTER>
-0.625315

>  <SCORE.INTER.CONST>
1

>  <SCORE.INTER.POLAR>
0

>  <SCORE.INTER.ROT>
3

>  <SCORE.INTER.SOLV>
5.28202

>  <SCORE.INTER.VDW>
-7.77755

>  <SCORE.INTER.norm>
-0.0521096

>  <SCORE.INTRA>
-0.952175

>  <SCORE.INTRA.DIHEDRAL>
1.84121

>  <SCORE.INTRA.DIHEDRAL.0>
1.88407

>  <SCORE.INTRA.POLAR>
0

>  <SCORE.INTRA.POLAR.0>
0

>  <SCORE.INTRA.REPUL>
0

>  <SCORE.INTRA.REPUL.0>
0

>  <SCORE.INTRA.SOLV>
0.389244

>  <SCORE.INTRA.SOLV.lig_0>
-10.2714

>  <SCORE.INTRA.VDW>
-2.0674

>  <SCORE.INTRA.VDW.0>
0.416923

>  <SCORE.INTRA.norm>
-0.0793479

>  <SCORE.RESTR>
0

>  <SCORE.RESTR.CAVITY>
0

>  <SCORE.RESTR.norm>
0

>  <SCORE.SYSTEM>
0

>  <SCORE.SYSTEM.CONST>
0

>  <SCORE.SYSTEM.DIHEDRAL>
0

>  <SCORE.SYSTEM.SOLV>
0

>  <SCORE.SYSTEM.norm>
0

>  <SCORE.heavy>
12

>  <SCORE.norm>
-0.131458

>  <RMSD>
1.480

$$$$
ligand
 OpenBabel11021811433D
libRbt.so/2013.1/901 2013/11/27
 12 12  0  0  0  0  0  0  0  0999 V2000
   50.5349   15.3748   12.5649 O   0  0  0  0  0  0  0  0  0  0  0  0
   45.0426   10.0150   13.0774 O   0  0  0  0  0  0  0  0  0  0  0  0
   49.8515   15.9710   11.4211 C   0  0  0  0  0  0  0  0  0  0  0  0
   45.6764   10.5660   10.7592 O   0  0  0  0  0  0  0  0  0  0  0  0
   48.6483   15.0952   10.9658 C   0  0  0  0  0  0  0  0  0  0  0  0
   46.8282   10.0718   12.2821 O   0  0  0  0  0  0  0  0  0  0  0  0
   48.5455   13.8952   11.8666 N   0  0  0  0  0  0  0  0  0  0  0  0
   49.8182   13.1122   11.8391 C   0  0  0  0  0  0  0  0  0  0  0  0
   51.0058   14.0351   12.2345 C   0  0  0  0  0  0  0  0  0  0  0  0
   47.4030   12.9968   11.4769 C   0  0  0  0  0  0  0  0  0  0  0  0
   46.8919   12.1828   12.6902 C   0  0  0  0  0  0  0  0  0  0  0  0
   45.6695   10.9524   12.1782 S   0  0  0  0  0  0  0  0  0  0  0  0
  1  3  1  0  0  0  0
  1  9  1  0  0  0  0
  2 12  1  0  0  0  0
  3  5  1  0  0  0  0
  4 12  2  0  0  0  0
  5  7  1  0  0  0  0
  6 12  2  0  0  0  0
  7  8  1  0  0  0  0
  7 10  1  0  0  0  0
  8  9  1  0  0  0  0
 10 11  1  0  0  0  0
 11 12  1  0  0  0  0
M  END
>  <CHROM.1>
-153.88325027,-172.60609867,177.99447502,47.73769579,12.62407372,11.97699330
-0.71558885,0.38918261,2.66033255

>  <Name>
ligand

>  <RI>
0

>  <Rbt.Current_Directory>
/home/itssahil/PROJECTS/Mol_Feturizer/New_Systems/rnas/2HO6

>  <Rbt.Executable>
rbdock ($Id: //depot/dev/client3/rdock/2013.1/src/exe/rbdock.cxx#4 $)

>  <Rbt.Library>
libRbt.so (2013.1, Build901 2013/11/27)

>  <Rbt.Parameter_File>
/export/apps/rDock/src/rDock_2013.1_src/data/scripts/dock_solv.prm

>  <Rbt.Receptor>
prm/pocket_docking_2.prm

>  <SCORE>
-2.20553

>  <SCORE.INTER>
-2.03689

>  <SCORE.INTER.CONST>
1

>  <SCORE.INTER.POLAR>
0

>  <SCORE.INTER.ROT>
3

>  <SCORE.INTER.SOLV>
7.58532

>  <SCORE.INTER.VDW>
-9.48637

>  <SCORE.INTER.norm>
-0.169741

>  <SCORE.INTRA>
-0.168643

>  <SCORE.INTRA.DIHEDRAL>
0.993164

>  <SCORE.INTRA.DIHEDRAL.0>
1.88407

>  <SCORE.INTRA.POLAR>
0

>  <SCORE.INTRA.POLAR.0>
0

>  <SCORE.INTRA.REPUL>
0

>  <SCORE.INTRA.REPUL.0>
0

>  <SCORE.INTRA.SOLV>
0.238539

>  <SCORE.INTRA.SOLV.lig_0>
-10.2714

>  <SCORE.INTRA.VDW>
-0.784495

>  <SCORE.INTRA.VDW.0>
0.416923

>  <SCORE.INTRA.norm>
-0.0140536

>  <SCORE.RESTR>
0

>  <SCORE.RESTR.CAVITY>
0

>  <SCORE.RESTR.norm>
0

>  <SCORE.SYSTEM>
0

>  <SCORE.SYSTEM.CONST>
0

>  <SCORE.SYSTEM.DIHEDRAL>
0

>  <SCORE.SYSTEM.SOLV>
0

>  <SCORE.SYSTEM.norm>
0

>  <SCORE.heavy>
12

>  <SCORE.norm>
-0.183794

>  <RMSD>
1.548

$$$$
ligand
 OpenBabel11021811433D
libRbt.so/2013.1/901 2013/11/27
 12 12  0  0  0  0  0  0  0  0999 V2000
   49.3814   15.7615   11.8722 O   0  0  0  0  0  0  0  0  0  0  0  0
   45.7321   11.4811   14.0984 O   0  0  0  0  0  0  0  0  0  0  0  0
   49.0674   15.2041   10.5602 C   0  0  0  0  0  0  0  0  0  0  0  0
   46.0713   13.4111   12.6020 O   0  0  0  0  0  0  0  0  0  0  0  0
   48.9629   13.6524   10.6187 C   0  0  0  0  0  0  0  0  0  0  0  0
   45.5555   11.5612   12.1526 O   0  0  0  0  0  0  0  0  0  0  0  0
   49.2035   13.1968   12.0317 N   0  0  0  0  0  0  0  0  0  0  0  0
   50.5414   13.6617   12.5087 C   0  0  0  0  0  0  0  0  0  0  0  0
   50.6337   15.2082   12.3735 C   0  0  0  0  0  0  0  0  0  0  0  0
   49.1249   11.6996   12.1600 C   0  0  0  0  0  0  0  0  0  0  0  0
   47.6699   11.1990   11.9925 C   0  0  0  0  0  0  0  0  0  0  0  0
   46.5428   12.1027   13.0804 S   0  0  0  0  0  0  0  0  0  0  0  0
  1  3  1  0  0  0  0
  1  9  1  0  0  0  0
  2 12  1  0  0  0  0
  3  5  1  0  0  0  0
  4 12  2  0  0  0  0
  5  7  1  0  0  0  0
  6 12  2  0  0  0  0
  7  8  1  0  0  0  0
  7 10  1  0  0  0  0
  8  9  1  0  0  0  0
 10 11  1  0  0  0  0
 11 12  1  0  0  0  0
M  END
>  <CHROM.1>
-70.48103701,-51.36162071,-120.31950801,47.99075458,13.07335820,12.27610424
0.70674639,0.14589357,-0.24411268

>  <Name>
ligand

>  <RI>
0

>  <Rbt.Current_Directory>
/home/itssahil/PROJECTS/Mol_Feturizer/New_Systems/rnas/2HO6

>  <Rbt.Executable>
rbdock ($Id: //depot/dev/client3/rdock/2013.1/src/exe/rbdock.cxx#4 $)

>  <Rbt.Library>
libRbt.so (2013.1, Build901 2013/11/27)

>  <Rbt.Parameter_File>
/export/apps/rDock/src/rDock_2013.1_src/data/scripts/dock_solv.prm

>  <Rbt.Receptor>
prm/pocket_docking_2.prm

>  <SCORE>
-3.80766

>  <SCORE.INTER>
-3.00821

>  <SCORE.INTER.CONST>
1

>  <SCORE.INTER.POLAR>
0

>  <SCORE.INTER.ROT>
3

>  <SCORE.INTER.SOLV>
5.93835

>  <SCORE.INTER.VDW>
-9.58493

>  <SCORE.INTER.norm>
-0.250684

>  <SCORE.INTRA>
-0.79945

>  <SCORE.INTRA.DIHEDRAL>
0.429878

>  <SCORE.INTRA.DIHEDRAL.0>
1.88407

>  <SCORE.INTRA.POLAR>
0

>  <SCORE.INTRA.POLAR.0>
0

>  <SCORE.INTRA.REPUL>
0

>  <SCORE.INTRA.REPUL.0>
0

>  <SCORE.INTRA.SOLV>
0.88152

>  <SCORE.INTRA.SOLV.lig_0>
-10.2714

>  <SCORE.INTRA.VDW>
-1.45515

>  <SCORE.INTRA.VDW.0>
0.416923

>  <SCORE.INTRA.norm>
-0.0666208

>  <SCORE.RESTR>
0

>  <SCORE.RESTR.CAVITY>
0

>  <SCORE.RESTR.norm>
0

>  <SCORE.SYSTEM>
0

>  <SCORE.SYSTEM.CONST>
0

>  <SCORE.SYSTEM.DIHEDRAL>
0

>  <SCORE.SYSTEM.SOLV>
0

>  <SCORE.SYSTEM.norm>
0

>  <SCORE.heavy>
12

>  <SCORE.norm>
-0.317305

>  <RMSD>
1.607

$$$$
ligand
 OpenBabel11021811433D
libRbt.so/2013.1/901 2013/11/27
 12 12  0  0  0  0  0  0  0  0999 V2000
   49.7633   14.7395   12.1406 O   0  0  0  0  0  0  0  0  0  0  0  0
   45.9857   13.4499   12.5954 O   0  0  0  0  0  0  0  0  0  0  0  0
   49.5760   14.7509   10.6930 C   0  0  0  0  0  0  0  0  0  0  0  0
   44.4176   11.5816   12.9552 O   0  0  0  0  0  0  0  0  0  0  0  0
   48.8892   13.4425   10.2045 C   0  0  0  0  0  0  0  0  0  0  0  0
   46.1928   11.8906   13.7572 O   0  0  0  0  0  0  0  0  0  0  0  0
   48.6089   12.5622   11.3912 N   0  0  0  0  0  0  0  0  0  0  0  0
   49.8744   12.2601   12.1267 C   0  0  0  0  0  0  0  0  0  0  0  0
   50.5660   13.5899   12.5407 C   0  0  0  0  0  0  0  0  0  0  0  0
   47.9496   11.2708   10.9891 C   0  0  0  0  0  0  0  0  0  0  0  0
   46.9500   10.7923   12.0696 C   0  0  0  0  0  0  0  0  0  0  0  0
   45.6938   12.0517   12.3956 S   0  0  0  0  0  0  0  0  0  0  0  0
  1  3  1  0  0  0  0
  1  9  1  0  0  0  0
  2 12  1  0  0  0  0
  3  5  1  0  0  0  0
  4 12  2  0  0  0  0
  5  7  1  0  0  0  0
  6 12  2  0  0  0  0
  7  8  1  0  0  0  0
  7 10  1  0  0  0  0
  8  9  1  0  0  0  0
 10 11  1  0  0  0  0
 11 12  1  0  0  0  0
M  END
>  <CHROM.1>
-146.01732124,57.19511371,-46.27773519,47.61783290,12.64728449,12.06162369
0.34261945,0.37090333,0.23823825

>  <Name>
ligand

>  <RI>
0

>  <Rbt.Current_Directory>
/home/itssahil/PROJECTS/Mol_Feturizer/New_Systems/rnas/2HO6

>  <Rbt.Executable>
rbdock ($Id: //depot/dev/client3/rdock/2013.1/src/exe/rbdock.cxx#4 $)

>  <Rbt.Library>
libRbt.so (2013.1, Build901 2013/11/27)

>  <Rbt.Parameter_File>
/export/apps/rDock/src/rDock_2013.1_src/data/scripts/dock_solv.prm

>  <Rbt.Receptor>
prm/pocket_docking_2.prm

>  <SCORE>
-1.74982

>  <SCORE.INTER>
-0.633936

>  <SCORE.INTER.CONST>
1

>  <SCORE.INTER.POLAR>
0

>  <SCORE.INTER.ROT>
3

>  <SCORE.INTER.SOLV>
4.81681

>  <SCORE.INTER.VDW>
-7.62823

>  <SCORE.INTER.norm>
-0.052828

>  <SCORE.INTRA>
-1.11589

>  <SCORE.INTRA.DIHEDRAL>
1.25458

>  <SCORE.INTRA.DIHEDRAL.0>
1.88407

>  <SCORE.INTRA.POLAR>
0

>  <SCORE.INTRA.POLAR.0>
0

>  <SCORE.INTRA.REPUL>
0

>  <SCORE.INTRA.REPUL.0>
0

>  <SCORE.INTRA.SOLV>
0.327867

>  <SCORE.INTRA.SOLV.lig_0>
-10.2714

>  <SCORE.INTRA.VDW>
-1.90711

>  <SCORE.INTRA.VDW.0>
0.416923

>  <SCORE.INTRA.norm>
-0.0929904

>  <SCORE.RESTR>
0

>  <SCORE.RESTR.CAVITY>
0

>  <SCORE.RESTR.norm>
0

>  <SCORE.SYSTEM>
0

>  <SCORE.SYSTEM.CONST>
0

>  <SCORE.SYSTEM.DIHEDRAL>
0

>  <SCORE.SYSTEM.SOLV>
0

>  <SCORE.SYSTEM.norm>
0

>  <SCORE.heavy>
12

>  <SCORE.norm>
-0.145818

>  <RMSD>
1.611

$$$$
ligand
 OpenBabel11021811433D
libRbt.so/2013.1/901 2013/11/27
 12 12  0  0  0  0  0  0  0  0999 V2000
   50.6424   12.1877   13.1863 O   0  0  0  0  0  0  0  0  0  0  0  0
   45.8563   10.0780   11.8897 O   0  0  0  0  0  0  0  0  0  0  0  0
   50.7667   13.3442   12.3043 C   0  0  0  0  0  0  0  0  0  0  0  0
   44.8827   10.5830   14.0979 O   0  0  0  0  0  0  0  0  0  0  0  0
   49.3861   13.7507   11.7121 C   0  0  0  0  0  0  0  0  0  0  0  0
   44.3958   11.3025   12.3272 O   0  0  0  0  0  0  0  0  0  0  0  0
   48.3291   12.8261   12.2505 N   0  0  0  0  0  0  0  0  0  0  0  0
   48.6582   11.4071   11.9161 C   0  0  0  0  0  0  0  0  0  0  0  0
   50.0704   11.0570   12.4651 C   0  0  0  0  0  0  0  0  0  0  0  0
   46.9645   13.1584   11.7105 C   0  0  0  0  0  0  0  0  0  0  0  0
   45.8583   12.8248   12.7405 C   0  0  0  0  0  0  0  0  0  0  0  0
   45.6867   11.0372   12.9533 S   0  0  0  0  0  0  0  0  0  0  0  0
  1  3  1  0  0  0  0
  1  9  1  0  0  0  0
  2 12  1  0  0  0  0
  3  5  1  0  0  0  0
  4 12  2  0  0  0  0
  5  7  1  0  0  0  0
  6 12  2  0  0  0  0
  7  8  1  0  0  0  0
  7 10  1  0  0  0  0
  8  9  1  0  0  0  0
 10 11  1  0  0  0  0
 11 12  1  0  0  0  0
M  END
>  <CHROM.1>
-148.56193814,-69.52615389,-35.16226944,47.39680124,11.83942115,12.52510350
-0.33580363,0.00685048,2.82479614

>  <Name>
ligand

>  <RI>
0

>  <Rbt.Current_Directory>
/home/itssahil/PROJECTS/Mol_Feturizer/New_Systems/rnas/2HO6

>  <Rbt.Executable>
rbdock ($Id: //depot/dev/client3/rdock/2013.1/src/exe/rbdock.cxx#4 $)

>  <Rbt.Library>
libRbt.so (2013.1, Build901 2013/11/27)

>  <Rbt.Parameter_File>
/export/apps/rDock/src/rDock_2013.1_src/data/scripts/dock_solv.prm

>  <Rbt.Receptor>
prm/pocket_docking_2.prm

>  <SCORE>
-3.73462

>  <SCORE.INTER>
-3.16254

>  <SCORE.INTER.CONST>
1

>  <SCORE.INTER.POLAR>
0

>  <SCORE.INTER.ROT>
3

>  <SCORE.INTER.SOLV>
6.76307

>  <SCORE.INTER.VDW>
-9.96271

>  <SCORE.INTER.norm>
-0.263545

>  <SCORE.INTRA>
-0.572086

>  <SCORE.INTRA.DIHEDRAL>
1.3869

>  <SCORE.INTRA.DIHEDRAL.0>
1.88407

>  <SCORE.INTRA.POLAR>
0

>  <SCORE.INTRA.POLAR.0>
0

>  <SCORE.INTRA.REPUL>
0

>  <SCORE.INTRA.REPUL.0>
0

>  <SCORE.INTRA.SOLV>
0.102916

>  <SCORE.INTRA.SOLV.lig_0>
-10.2714

>  <SCORE.INTRA.VDW>
-1.31699

>  <SCORE.INTRA.VDW.0>
0.416923

>  <SCORE.INTRA.norm>
-0.0476739

>  <SCORE.RESTR>
0

>  <SCORE.RESTR.CAVITY>
0

>  <SCORE.RESTR.norm>
0

>  <SCORE.SYSTEM>
0

>  <SCORE.SYSTEM.CONST>
0

>  <SCORE.SYSTEM.DIHEDRAL>
0

>  <SCORE.SYSTEM.SOLV>
0

>  <SCORE.SYSTEM.norm>
0

>  <SCORE.heavy>
12

>  <SCORE.norm>
-0.311219

>  <RMSD>
1.994

$$$$
ligand
 OpenBabel11021811433D
libRbt.so/2013.1/901 2013/11/27
 12 12  0  0  0  0  0  0  0  0999 V2000
   50.6339   12.2364   13.1564 O   0  0  0  0  0  0  0  0  0  0  0  0
   45.8028   10.0303   11.8841 O   0  0  0  0  0  0  0  0  0  0  0  0
   50.7115   13.3599   12.2278 C   0  0  0  0  0  0  0  0  0  0  0  0
   44.7722   10.4772   14.0790 O   0  0  0  0  0  0  0  0  0  0  0  0
   49.3063   13.7235   11.6663 C   0  0  0  0  0  0  0  0  0  0  0  0
   44.3507   11.2651   12.3207 O   0  0  0  0  0  0  0  0  0  0  0  0
   48.2819   12.8052   12.2738 N   0  0  0  0  0  0  0  0  0  0  0  0
   48.6221   11.3793   11.9827 C   0  0  0  0  0  0  0  0  0  0  0  0
   50.0566   11.0708   12.4978 C   0  0  0  0  0  0  0  0  0  0  0  0
   46.8955   13.0968   11.7668 C   0  0  0  0  0  0  0  0  0  0  0  0
   45.8256   12.7461   12.8290 C   0  0  0  0  0  0  0  0  0  0  0  0
   45.6177   10.9557   12.9748 S   0  0  0  0  0  0  0  0  0  0  0  0
  1  3  1  0  0  0  0
  1  9  1  0  0  0  0
  2 12  1  0  0  0  0
  3  5  1  0  0  0  0
  4 12  2  0  0  0  0
  5  7  1  0  0  0  0
  6 12  2  0  0  0  0
  7  8  1  0  0  0  0
  7 10  1  0  0  0  0
  8  9  1  0  0  0  0
 10 11  1  0  0  0  0
 11 12  1  0  0  0  0
M  END
>  <CHROM.1>
-150.30860585,-73.78088504,-30.97054123,47.34338212,11.80075875,12.53411918
-0.35056382,0.00451607,2.82741438

>  <Name>
ligand

>  <RI>
0

>  <Rbt.Current_Directory>
/home/itssahil/PROJECTS/Mol_Feturizer/New_Systems/rnas/2HO6

>  <Rbt.Executable>
rbdock ($Id: //depot/dev/client3/rdock/2013.1/src/exe/rbdock.cxx#4 $)

>  <Rbt.Library>
libRbt.so (2013.1, Build901 2013/11/27)

>  <Rbt.Parameter_File>
/export/apps/rDock/src/rDock_2013.1_src/data/scripts/dock_solv.prm

>  <Rbt.Receptor>
prm/pocket_docking_2.prm

>  <SCORE>
-3.66197

>  <SCORE.INTER>
-3.22293

>  <SCORE.INTER.CONST>
1

>  <SCORE.INTER.POLAR>
0

>  <SCORE.INTER.ROT>
3

>  <SCORE.INTER.SOLV>
6.94667

>  <SCORE.INTER.VDW>
-10.0642

>  <SCORE.INTER.norm>
-0.268577

>  <SCORE.INTRA>
-0.439037

>  <SCORE.INTRA.DIHEDRAL>
1.62975

>  <SCORE.INTRA.DIHEDRAL.0>
1.88407

>  <SCORE.INTRA.POLAR>
0

>  <SCORE.INTRA.POLAR.0>
0

>  <SCORE.INTRA.REPUL>
0

>  <SCORE.INTRA.REPUL.0>
0

>  <SCORE.INTRA.SOLV>
0.0933736

>  <SCORE.INTRA.SOLV.lig_0>
-10.2714

>  <SCORE.INTRA.VDW>
-1.3006

>  <SCORE.INTRA.VDW.0>
0.416923

>  <SCORE.INTRA.norm>
-0.0365864

>  <SCORE.RESTR>
0

>  <SCORE.RESTR.CAVITY>
0

>  <SCORE.RESTR.norm>
0

>  <SCORE.SYSTEM>
0

>  <SCORE.SYSTEM.CONST>
0

>  <SCORE.SYSTEM.DIHEDRAL>
0

>  <SCORE.SYSTEM.SOLV>
0

>  <SCORE.SYSTEM.norm>
0

>  <SCORE.heavy>
12

>  <SCORE.norm>
-0.305164

>  <RMSD>
2.003

$$$$
ligand
 OpenBabel11021811433D
libRbt.so/2013.1/901 2013/11/27
 12 12  0  0  0  0  0  0  0  0999 V2000
   50.5802   12.1202   13.1708 O   0  0  0  0  0  0  0  0  0  0  0  0
   45.7128   10.0326   11.7377 O   0  0  0  0  0  0  0  0  0  0  0  0
   50.6948   13.2951   12.3123 C   0  0  0  0  0  0  0  0  0  0  0  0
   44.8438   10.4119   14.0138 O   0  0  0  0  0  0  0  0  0  0  0  0
   49.3093   13.7075   11.7357 C   0  0  0  0  0  0  0  0  0  0  0  0
   44.2896   11.2438   12.3135 O   0  0  0  0  0  0  0  0  0  0  0  0
   48.2593   12.7673   12.2604 N   0  0  0  0  0  0  0  0  0  0  0  0
   48.5928   11.3570   11.8951 C   0  0  0  0  0  0  0  0  0  0  0  0
   50.0094   11.0020   12.4294 C   0  0  0  0  0  0  0  0  0  0  0  0
   46.8904   13.1045   11.7344 C   0  0  0  0  0  0  0  0  0  0  0  0
   45.7894   12.7220   12.7529 C   0  0  0  0  0  0  0  0  0  0  0  0
   45.6030   10.9266   12.8641 S   0  0  0  0  0  0  0  0  0  0  0  0
  1  3  1  0  0  0  0
  1  9  1  0  0  0  0
  2 12  1  0  0  0  0
  3  5  1  0  0  0  0
  4 12  2  0  0  0  0
  5  7  1  0  0  0  0
  6 12  2  0  0  0  0
  7  8  1  0  0  0  0
  7 10  1  0  0  0  0
  8  9  1  0  0  0  0
 10 11  1  0  0  0  0
 11 12  1  0  0  0  0
M  END
>  <CHROM.1>
-149.55857081,-71.22030825,-37.24453445,47.31886350,11.76311817,12.49006783
-0.33976521,0.01514566,2.85429947

>  <Name>
ligand

>  <RI>
0

>  <Rbt.Current_Directory>
/home/itssahil/PROJECTS/Mol_Feturizer/New_Systems/rnas/2HO6

>  <Rbt.Executable>
rbdock ($Id: //depot/dev/client3/rdock/2013.1/src/exe/rbdock.cxx#4 $)

>  <Rbt.Library>
libRbt.so (2013.1, Build901 2013/11/27)

>  <Rbt.Parameter_File>
/export/apps/rDock/src/rDock_2013.1_src/data/scripts/dock_solv.prm

>  <Rbt.Receptor>
prm/pocket_docking_2.prm

>  <SCORE>
-3.75229

>  <SCORE.INTER>
-3.21591

>  <SCORE.INTER.CONST>
1

>  <SCORE.INTER.POLAR>
0

>  <SCORE.INTER.ROT>
3

>  <SCORE.INTER.SOLV>
7.0003

>  <SCORE.INTER.VDW>
-10.0774

>  <SCORE.INTER.norm>
-0.267993

>  <SCORE.INTRA>
-0.536782

>  <SCORE.INTRA.DIHEDRAL>
1.45196

>  <SCORE.INTRA.DIHEDRAL.0>
1.88407

>  <SCORE.INTRA.POLAR>
0

>  <SCORE.INTRA.POLAR.0>
0

>  <SCORE.INTRA.REPUL>
0

>  <SCORE.INTRA.REPUL.0>
0

>  <SCORE.INTRA.SOLV>
0.0998978

>  <SCORE.INTRA.SOLV.lig_0>
-10.2714

>  <SCORE.INTRA.VDW>
-1.31271

>  <SCORE.INTRA.VDW.0>
0.416923

>  <SCORE.INTRA.norm>
-0.0447318

>  <SCORE.RESTR>
0.000406013

>  <SCORE.RESTR.CAVITY>
0.000406013

>  <SCORE.RESTR.norm>
3.38344e-05

>  <SCORE.SYSTEM>
0

>  <SCORE.SYSTEM.CONST>
0

>  <SCORE.SYSTEM.DIHEDRAL>
0

>  <SCORE.SYSTEM.SOLV>
0

>  <SCORE.SYSTEM.norm>
0

>  <SCORE.heavy>
12

>  <SCORE.norm>
-0.312691

>  <RMSD>
2.048

$$$$
ligand
 OpenBabel11021811433D
libRbt.so/2013.1/901 2013/11/27
 12 12  0  0  0  0  0  0  0  0999 V2000
   49.7437   13.5384   12.5555 O   0  0  0  0  0  0  0  0  0  0  0  0
   44.9935   12.2969   15.6679 O   0  0  0  0  0  0  0  0  0  0  0  0
   49.1746   14.2513   11.4159 C   0  0  0  0  0  0  0  0  0  0  0  0
   44.2705   13.7545   13.8154 O   0  0  0  0  0  0  0  0  0  0  0  0
   47.7609   13.7059   11.0606 C   0  0  0  0  0  0  0  0  0  0  0  0
   43.7549   11.8921   14.2099 O   0  0  0  0  0  0  0  0  0  0  0  0
   47.4014   12.6083   12.0238 N   0  0  0  0  0  0  0  0  0  0  0  0
   48.4229   11.5184   11.9771 C   0  0  0  0  0  0  0  0  0  0  0  0
   49.8303   12.1110   12.2711 C   0  0  0  0  0  0  0  0  0  0  0  0
   46.0442   12.0276   11.7322 C   0  0  0  0  0  0  0  0  0  0  0  0
   45.4419   11.3536   12.9887 C   0  0  0  0  0  0  0  0  0  0  0  0
   45.0404   12.5809   14.2547 S   0  0  0  0  0  0  0  0  0  0  0  0
  1  3  1  0  0  0  0
  1  9  1  0  0  0  0
  2 12  1  0  0  0  0
  3  5  1  0  0  0  0
  4 12  2  0  0  0  0
  5  7  1  0  0  0  0
  6 12  2  0  0  0  0
  7  8  1  0  0  0  0
  7 10  1  0  0  0  0
  8  9  1  0  0  0  0
 10 11  1  0  0  0  0
 11 12  1  0  0  0  0
M  END
>  <CHROM.1>
-156.93009322,67.91238244,-153.60476343,46.61165407,12.64089835,13.01334065
-0.41798492,-0.31946537,2.43383825

>  <Name>
ligand

>  <RI>
0

>  <Rbt.Current_Directory>
/home/itssahil/PROJECTS/Mol_Feturizer/New_Systems/rnas/2HO6

>  <Rbt.Executable>
rbdock ($Id: //depot/dev/client3/rdock/2013.1/src/exe/rbdock.cxx#4 $)

>  <Rbt.Library>
libRbt.so (2013.1, Build901 2013/11/27)

>  <Rbt.Parameter_File>
/export/apps/rDock/src/rDock_2013.1_src/data/scripts/dock_solv.prm

>  <Rbt.Receptor>
prm/pocket_docking_3.prm

>  <SCORE>
-7.06355

>  <SCORE.INTER>
-6.47025

>  <SCORE.INTER.CONST>
1

>  <SCORE.INTER.POLAR>
0

>  <SCORE.INTER.ROT>
3

>  <SCORE.INTER.SOLV>
5.54675

>  <SCORE.INTER.VDW>
-11.7624

>  <SCORE.INTER.norm>
-0.539188

>  <SCORE.INTRA>
-0.593888

>  <SCORE.INTRA.DIHEDRAL>
0.775059

>  <SCORE.INTRA.DIHEDRAL.0>
1.88407

>  <SCORE.INTRA.POLAR>
0

>  <SCORE.INTRA.POLAR.0>
0

>  <SCORE.INTRA.REPUL>
0

>  <SCORE.INTRA.REPUL.0>
0

>  <SCORE.INTRA.SOLV>
0.455299

>  <SCORE.INTRA.SOLV.lig_0>
-10.2714

>  <SCORE.INTRA.VDW>
-1.20907

>  <SCORE.INTRA.VDW.0>
0.416923

>  <SCORE.INTRA.norm>
-0.0494907

>  <SCORE.RESTR>
0.000587926

>  <SCORE.RESTR.CAVITY>
0.000587926

>  <SCORE.RESTR.norm>
4.89938e-05

>  <SCORE.SYSTEM>
0

>  <SCORE.SYSTEM.CONST>
0

>  <SCORE.SYSTEM.DIHEDRAL>
0

>  <SCORE.SYSTEM.SOLV>
0

>  <SCORE.SYSTEM.norm>
0

>  <SCORE.heavy>
12

>  <SCORE.norm>
-0.588629

>  <RMSD>
2.604

$$$$
ligand
 OpenBabel11021811433D
libRbt.so/2013.1/901 2013/11/27
 12 12  0  0  0  0  0  0  0  0999 V2000
   50.0524   12.4008   12.7010 O   0  0  0  0  0  0  0  0  0  0  0  0
   44.8830   12.3245   15.5811 O   0  0  0  0  0  0  0  0  0  0  0  0
   49.3207   13.3573   11.8762 C   0  0  0  0  0  0  0  0  0  0  0  0
   45.2002   13.4922   13.4328 O   0  0  0  0  0  0  0  0  0  0  0  0
   47.8835   12.8477   11.5650 C   0  0  0  0  0  0  0  0  0  0  0  0
   43.9460   12.0398   13.8884 O   0  0  0  0  0  0  0  0  0  0  0  0
   47.6793   11.5157   12.2329 N   0  0  0  0  0  0  0  0  0  0  0  0
   48.7072   10.5359   11.7671 C   0  0  0  0  0  0  0  0  0  0  0  0
   50.1289   11.1069   12.0332 C   0  0  0  0  0  0  0  0  0  0  0  0
   46.3072   10.9584   11.9661 C   0  0  0  0  0  0  0  0  0  0  0  0
   45.5337   10.7196   13.2854 C   0  0  0  0  0  0  0  0  0  0  0  0
   45.3504   12.2580   14.2183 S   0  0  0  0  0  0  0  0  0  0  0  0
  1  3  1  0  0  0  0
  1  9  1  0  0  0  0
  2 12  1  0  0  0  0
  3  5  1  0  0  0  0
  4 12  2  0  0  0  0
  5  7  1  0  0  0  0
  6 12  2  0  0  0  0
  7  8  1  0  0  0  0
  7 10  1  0  0  0  0
  8  9  1  0  0  0  0
 10 11  1  0  0  0  0
 11 12  1  0  0  0  0
M  END
>  <CHROM.1>
-121.19346273,59.31443146,-168.98754758,46.87865313,12.01491596,13.04489733
-0.23803566,0.40256541,0.40875896

>  <Name>
ligand

>  <RI>
0

>  <Rbt.Current_Directory>
/home/itssahil/PROJECTS/Mol_Feturizer/New_Systems/rnas/2HO6

>  <Rbt.Executable>
rbdock ($Id: //depot/dev/client3/rdock/2013.1/src/exe/rbdock.cxx#4 $)

>  <Rbt.Library>
libRbt.so (2013.1, Build901 2013/11/27)

>  <Rbt.Parameter_File>
/export/apps/rDock/src/rDock_2013.1_src/data/scripts/dock_solv.prm

>  <Rbt.Receptor>
prm/pocket_docking_3.prm

>  <SCORE>
-7.96891

>  <SCORE.INTER>
-7.70263

>  <SCORE.INTER.CONST>
1

>  <SCORE.INTER.POLAR>
0

>  <SCORE.INTER.ROT>
3

>  <SCORE.INTER.SOLV>
6.18223

>  <SCORE.INTER.VDW>
-12.7958

>  <SCORE.INTER.norm>
-0.641885

>  <SCORE.INTRA>
-0.266288

>  <SCORE.INTRA.DIHEDRAL>
2.25227

>  <SCORE.INTRA.DIHEDRAL.0>
1.88407

>  <SCORE.INTRA.POLAR>
0

>  <SCORE.INTRA.POLAR.0>
0

>  <SCORE.INTRA.REPUL>
0

>  <SCORE.INTRA.REPUL.0>
0

>  <SCORE.INTRA.SOLV>
0.814689

>  <SCORE.INTRA.SOLV.lig_0>
-10.2714

>  <SCORE.INTRA.VDW>
-1.79977

>  <SCORE.INTRA.VDW.0>
0.416923

>  <SCORE.INTRA.norm>
-0.0221907

>  <SCORE.RESTR>
0

>  <SCORE.RESTR.CAVITY>
0

>  <SCORE.RESTR.norm>
0

>  <SCORE.SYSTEM>
0

>  <SCORE.SYSTEM.CONST>
0

>  <SCORE.SYSTEM.DIHEDRAL>
0

>  <SCORE.SYSTEM.SOLV>
0

>  <SCORE.SYSTEM.norm>
0

>  <SCORE.heavy>
12

>  <SCORE.norm>
-0.664076

>  <RMSD>
2.770

$$$$
ligand
 OpenBabel11021811433D
libRbt.so/2013.1/901 2013/11/27
 12 12  0  0  0  0  0  0  0  0999 V2000
   50.0328   12.3040   12.6966 O   0  0  0  0  0  0  0  0  0  0  0  0
   44.8290   12.3713   15.5587 O   0  0  0  0  0  0  0  0  0  0  0  0
   49.3004   13.2776   11.8926 C   0  0  0  0  0  0  0  0  0  0  0  0
   45.2435   13.4905   13.4011 O   0  0  0  0  0  0  0  0  0  0  0  0
   47.8552   12.7848   11.5914 C   0  0  0  0  0  0  0  0  0  0  0  0
   43.9289   12.0890   13.8458 O   0  0  0  0  0  0  0  0  0  0  0  0
   47.6465   11.4462   12.2444 N   0  0  0  0  0  0  0  0  0  0  0  0
   48.6602   10.4634   11.7543 C   0  0  0  0  0  0  0  0  0  0  0  0
   50.0900   11.0183   12.0114 C   0  0  0  0  0  0  0  0  0  0  0  0
   46.2666   10.9046   11.9861 C   0  0  0  0  0  0  0  0  0  0  0  0
   45.4866   10.7062   13.3083 C   0  0  0  0  0  0  0  0  0  0  0  0
   45.3306   12.2657   14.2105 S   0  0  0  0  0  0  0  0  0  0  0  0
  1  3  1  0  0  0  0
  1  9  1  0  0  0  0
  2 12  1  0  0  0  0
  3  5  1  0  0  0  0
  4 12  2  0  0  0  0
  5  7  1  0  0  0  0
  6 12  2  0  0  0  0
  7  8  1  0  0  0  0
  7 10  1  0  0  0  0
  8  9  1  0  0  0  0
 10 11  1  0  0  0  0
 11 12  1  0  0  0  0
M  END
>  <CHROM.1>
-119.04214424,59.10401281,-170.68848093,46.85305777,11.98419411,13.03979658
-0.25799567,0.39225477,0.40802595

>  <Name>
ligand

>  <RI>
0

>  <Rbt.Current_Directory>
/home/itssahil/PROJECTS/Mol_Feturizer/New_Systems/rnas/2HO6

>  <Rbt.Executable>
rbdock ($Id: //depot/dev/client3/rdock/2013.1/src/exe/rbdock.cxx#4 $)

>  <Rbt.Library>
libRbt.so (2013.1, Build901 2013/11/27)

>  <Rbt.Parameter_File>
/export/apps/rDock/src/rDock_2013.1_src/data/scripts/dock_solv.prm

>  <Rbt.Receptor>
prm/pocket_docking_4.prm

>  <SCORE>
-7.95855

>  <SCORE.INTER>
-7.72175

>  <SCORE.INTER.CONST>
1

>  <SCORE.INTER.POLAR>
0

>  <SCORE.INTER.ROT>
3

>  <SCORE.INTER.SOLV>
6.25534

>  <SCORE.INTER.VDW>
-12.8329

>  <SCORE.INTER.norm>
-0.643479

>  <SCORE.INTRA>
-0.236798

>  <SCORE.INTRA.DIHEDRAL>
2.26839

>  <SCORE.INTRA.DIHEDRAL.0>
1.88407

>  <SCORE.INTRA.POLAR>
0

>  <SCORE.INTRA.POLAR.0>
0

>  <SCORE.INTRA.REPUL>
0

>  <SCORE.INTRA.REPUL.0>
0

>  <SCORE.INTRA.SOLV>
0.851408

>  <SCORE.INTRA.SOLV.lig_0>
-10.2714

>  <SCORE.INTRA.VDW>
-1.7967

>  <SCORE.INTRA.VDW.0>
0.416923

>  <SCORE.INTRA.norm>
-0.0197332

>  <SCORE.RESTR>
0

>  <SCORE.RESTR.CAVITY>
0

>  <SCORE.RESTR.norm>
0

>  <SCORE.SYSTEM>
0

>  <SCORE.SYSTEM.CONST>
0

>  <SCORE.SYSTEM.DIHEDRAL>
0

>  <SCORE.SYSTEM.SOLV>
0

>  <SCORE.SYSTEM.norm>
0

>  <SCORE.heavy>
12

>  <SCORE.norm>
-0.663212

>  <RMSD>
2.822

$$$$
ligand
 OpenBabel11021811433D
libRbt.so/2013.1/901 2013/11/27
 12 12  0  0  0  0  0  0  0  0999 V2000
   48.2521   14.3961   11.5209 O   0  0  0  0  0  0  0  0  0  0  0  0
   44.9234   12.2041   15.7004 O   0  0  0  0  0  0  0  0  0  0  0  0
   47.3295   14.0221   10.4534 C   0  0  0  0  0  0  0  0  0  0  0  0
   44.3964   13.7540   13.8567 O   0  0  0  0  0  0  0  0  0  0  0  0
   46.5973   12.6892   10.7843 C   0  0  0  0  0  0  0  0  0  0  0  0
   43.5206   12.0559   14.3461 O   0  0  0  0  0  0  0  0  0  0  0  0
   47.0576   12.1966   12.1287 N   0  0  0  0  0  0  0  0  0  0  0  0
   48.5402   12.0089   12.1356 C   0  0  0  0  0  0  0  0  0  0  0  0
   49.2354   13.3414   11.7363 C   0  0  0  0  0  0  0  0  0  0  0  0
   46.3928   10.9016   12.5099 C   0  0  0  0  0  0  0  0  0  0  0  0
   44.9543   11.1420   13.0282 C   0  0  0  0  0  0  0  0  0  0  0  0
   44.9244   12.4479   14.2788 S   0  0  0  0  0  0  0  0  0  0  0  0
  1  3  1  0  0  0  0
  1  9  1  0  0  0  0
  2 12  1  0  0  0  0
  3  5  1  0  0  0  0
  4 12  2  0  0  0  0
  5  7  1  0  0  0  0
  6 12  2  0  0  0  0
  7  8  1  0  0  0  0
  7 10  1  0  0  0  0
  8  9  1  0  0  0  0
 10 11  1  0  0  0  0
 11 12  1  0  0  0  0
M  END
>  <CHROM.1>
-78.60443676,-49.16777472,-97.69003291,46.16833668,12.60345010,12.89934200
0.30751405,0.67698771,-0.15683238

>  <Name>
ligand

>  <RI>
0

>  <Rbt.Current_Directory>
/home/itssahil/PROJECTS/Mol_Feturizer/New_Systems/rnas/2HO6

>  <Rbt.Executable>
rbdock ($Id: //depot/dev/client3/rdock/2013.1/src/exe/rbdock.cxx#4 $)

>  <Rbt.Library>
libRbt.so (2013.1, Build901 2013/11/27)

>  <Rbt.Parameter_File>
/export/apps/rDock/src/rDock_2013.1_src/data/scripts/dock_solv.prm

>  <Rbt.Receptor>
prm/pocket_docking_3.prm

>  <SCORE>
-7.75927

>  <SCORE.INTER>
-7.00291

>  <SCORE.INTER.CONST>
1

>  <SCORE.INTER.POLAR>
0

>  <SCORE.INTER.ROT>
3

>  <SCORE.INTER.SOLV>
5.55928

>  <SCORE.INTER.VDW>
-12.1217

>  <SCORE.INTER.norm>
-0.583576

>  <SCORE.INTRA>
-0.756363

>  <SCORE.INTRA.DIHEDRAL>
1.01699

>  <SCORE.INTRA.DIHEDRAL.0>
1.88407

>  <SCORE.INTRA.POLAR>
0

>  <SCORE.INTRA.POLAR.0>
0

>  <SCORE.INTRA.REPUL>
0

>  <SCORE.INTRA.REPUL.0>
0

>  <SCORE.INTRA.SOLV>
0.554641

>  <SCORE.INTRA.SOLV.lig_0>
-10.2714

>  <SCORE.INTRA.VDW>
-1.54218

>  <SCORE.INTRA.VDW.0>
0.416923

>  <SCORE.INTRA.norm>
-0.0630303

>  <SCORE.RESTR>
0

>  <SCORE.RESTR.CAVITY>
0

>  <SCORE.RESTR.norm>
0

>  <SCORE.SYSTEM>
0

>  <SCORE.SYSTEM.CONST>
0

>  <SCORE.SYSTEM.DIHEDRAL>
0

>  <SCORE.SYSTEM.SOLV>
0

>  <SCORE.SYSTEM.norm>
0

>  <SCORE.heavy>
12

>  <SCORE.norm>
-0.646606

>  <RMSD>
2.994

$$$$
ligand
 OpenBabel11021811433D
libRbt.so/2013.1/901 2013/11/27
 12 12  0  0  0  0  0  0  0  0999 V2000
   47.8363   14.8017   11.1634 O   0  0  0  0  0  0  0  0  0  0  0  0
   44.8866   12.1995   15.6843 O   0  0  0  0  0  0  0  0  0  0  0  0
   46.9752   14.2029   10.1482 C   0  0  0  0  0  0  0  0  0  0  0  0
   44.4708   13.7632   13.8239 O   0  0  0  0  0  0  0  0  0  0  0  0
   46.4787   12.7958   10.5906 C   0  0  0  0  0  0  0  0  0  0  0  0
   43.6002   12.0384   14.2204 O   0  0  0  0  0  0  0  0  0  0  0  0
   47.0312   12.4865   11.9548 N   0  0  0  0  0  0  0  0  0  0  0  0
   48.5244   12.5465   11.9384 C   0  0  0  0  0  0  0  0  0  0  0  0
   48.9837   13.9420   11.4287 C   0  0  0  0  0  0  0  0  0  0  0  0
   46.5954   11.1315   12.4430 C   0  0  0  0  0  0  0  0  0  0  0  0
   45.1560   11.1770   13.0102 C   0  0  0  0  0  0  0  0  0  0  0  0
   44.9950   12.4637   14.2706 S   0  0  0  0  0  0  0  0  0  0  0  0
  1  3  1  0  0  0  0
  1  9  1  0  0  0  0
  2 12  1  0  0  0  0
  3  5  1  0  0  0  0
  4 12  2  0  0  0  0
  5  7  1  0  0  0  0
  6 12  2  0  0  0  0
  7  8  1  0  0  0  0
  7 10  1  0  0  0  0
  8  9  1  0  0  0  0
 10 11  1  0  0  0  0
 11 12  1  0  0  0  0
M  END
>  <CHROM.1>
-79.99704445,-53.40403054,-106.73490121,46.12919514,12.78137697,12.76301056
0.47991395,0.71858534,-0.27485103

>  <Name>
ligand

>  <RI>
0

>  <Rbt.Current_Directory>
/home/itssahil/PROJECTS/Mol_Feturizer/New_Systems/rnas/2HO6

>  <Rbt.Executable>
rbdock ($Id: //depot/dev/client3/rdock/2013.1/src/exe/rbdock.cxx#4 $)

>  <Rbt.Library>
libRbt.so (2013.1, Build901 2013/11/27)

>  <Rbt.Parameter_File>
/export/apps/rDock/src/rDock_2013.1_src/data/scripts/dock_solv.prm

>  <Rbt.Receptor>
prm/pocket_docking_3.prm

>  <SCORE>
-7.73228

>  <SCORE.INTER>
-6.84669

>  <SCORE.INTER.CONST>
1

>  <SCORE.INTER.POLAR>
0

>  <SCORE.INTER.ROT>
3

>  <SCORE.INTER.SOLV>
5.16912

>  <SCORE.INTER.VDW>
-11.8875

>  <SCORE.INTER.norm>
-0.570558

>  <SCORE.INTRA>
-0.885594

>  <SCORE.INTRA.DIHEDRAL>
0.809668

>  <SCORE.INTRA.DIHEDRAL.0>
1.88407

>  <SCORE.INTRA.POLAR>
0

>  <SCORE.INTRA.POLAR.0>
0

>  <SCORE.INTRA.REPUL>
0

>  <SCORE.INTRA.REPUL.0>
0

>  <SCORE.INTRA.SOLV>
0.593371

>  <SCORE.INTRA.SOLV.lig_0>
-10.2714

>  <SCORE.INTRA.VDW>
-1.58711

>  <SCORE.INTRA.VDW.0>
0.416923

>  <SCORE.INTRA.norm>
-0.0737995

>  <SCORE.RESTR>
0

>  <SCORE.RESTR.CAVITY>
0

>  <SCORE.RESTR.norm>
0

>  <SCORE.SYSTEM>
0

>  <SCORE.SYSTEM.CONST>
0

>  <SCORE.SYSTEM.DIHEDRAL>
0

>  <SCORE.SYSTEM.SOLV>
0

>  <SCORE.SYSTEM.norm>
0

>  <SCORE.heavy>
12

>  <SCORE.norm>
-0.644357

>  <RMSD>
3.047

$$$$
ligand
 OpenBabel11021811433D
libRbt.so/2013.1/901 2013/11/27
 12 12  0  0  0  0  0  0  0  0999 V2000
   48.7187   13.5093   10.8420 O   0  0  0  0  0  0  0  0  0  0  0  0
   45.2386   12.2267   15.4892 O   0  0  0  0  0  0  0  0  0  0  0  0
   47.8815   12.9409    9.7900 C   0  0  0  0  0  0  0  0  0  0  0  0
   44.0805   13.8168   14.0027 O   0  0  0  0  0  0  0  0  0  0  0  0
   46.8897   11.8895   10.3670 C   0  0  0  0  0  0  0  0  0  0  0  0
   43.5867   11.9668   14.4756 O   0  0  0  0  0  0  0  0  0  0  0  0
   47.0878   11.7919   11.8547 N   0  0  0  0  0  0  0  0  0  0  0  0
   48.5016   11.4234   12.1693 C   0  0  0  0  0  0  0  0  0  0  0  0
   49.4656   12.4576   11.5217 C   0  0  0  0  0  0  0  0  0  0  0  0
   46.1624   10.7832   12.4793 C   0  0  0  0  0  0  0  0  0  0  0  0
   44.7749   11.4030   12.7734 C   0  0  0  0  0  0  0  0  0  0  0  0
   44.8669   12.5818   14.1416 S   0  0  0  0  0  0  0  0  0  0  0  0
  1  3  1  0  0  0  0
  1  9  1  0  0  0  0
  2 12  1  0  0  0  0
  3  5  1  0  0  0  0
  4 12  2  0  0  0  0
  5  7  1  0  0  0  0
  6 12  2  0  0  0  0
  7  8  1  0  0  0  0
  7 10  1  0  0  0  0
  8  9  1  0  0  0  0
 10 11  1  0  0  0  0
 11 12  1  0  0  0  0
M  END
>  <CHROM.1>
-83.95312609,-70.94166669,-62.83933668,46.25005362,12.29133371,12.69457857
-0.72097398,-0.10455386,1.69562350

>  <Name>
ligand

>  <RI>
0

>  <Rbt.Current_Directory>
/home/itssahil/PROJECTS/Mol_Feturizer/New_Systems/rnas/2HO6

>  <Rbt.Executable>
rbdock ($Id: //depot/dev/client3/rdock/2013.1/src/exe/rbdock.cxx#4 $)

>  <Rbt.Library>
libRbt.so (2013.1, Build901 2013/11/27)

>  <Rbt.Parameter_File>
/export/apps/rDock/src/rDock_2013.1_src/data/scripts/dock_solv.prm

>  <Rbt.Receptor>
prm/pocket_docking_3.prm

>  <SCORE>
-6.90643

>  <SCORE.INTER>
-6.2595

>  <SCORE.INTER.CONST>
1

>  <SCORE.INTER.POLAR>
0

>  <SCORE.INTER.ROT>
3

>  <SCORE.INTER.SOLV>
5.04471

>  <SCORE.INTER.VDW>
-11.4546

>  <SCORE.INTER.norm>
-0.521625

>  <SCORE.INTRA>
-0.646927

>  <SCORE.INTRA.DIHEDRAL>
1.25724

>  <SCORE.INTRA.DIHEDRAL.0>
1.88407

>  <SCORE.INTRA.POLAR>
0

>  <SCORE.INTRA.POLAR.0>
0

>  <SCORE.INTRA.REPUL>
0

>  <SCORE.INTRA.REPUL.0>
0

>  <SCORE.INTRA.SOLV>
0.160744

>  <SCORE.INTRA.SOLV.lig_0>
-10.2714

>  <SCORE.INTRA.VDW>
-1.35592

>  <SCORE.INTRA.VDW.0>
0.416923

>  <SCORE.INTRA.norm>
-0.0539106

>  <SCORE.RESTR>
0

>  <SCORE.RESTR.CAVITY>
0

>  <SCORE.RESTR.norm>
0

>  <SCORE.SYSTEM>
0

>  <SCORE.SYSTEM.CONST>
0

>  <SCORE.SYSTEM.DIHEDRAL>
0

>  <SCORE.SYSTEM.SOLV>
0

>  <SCORE.SYSTEM.norm>
0

>  <SCORE.heavy>
12

>  <SCORE.norm>
-0.575536

>  <RMSD>
3.080

$$$$
ligand
 OpenBabel11021811433D
libRbt.so/2013.1/901 2013/11/27
 12 12  0  0  0  0  0  0  0  0999 V2000
   47.9621   14.3905   11.1350 O   0  0  0  0  0  0  0  0  0  0  0  0
   44.9081   12.1844   15.7061 O   0  0  0  0  0  0  0  0  0  0  0  0
   47.2124   13.7774   10.0429 C   0  0  0  0  0  0  0  0  0  0  0  0
   44.4484   13.7576   13.8641 O   0  0  0  0  0  0  0  0  0  0  0  0
   46.5617   12.4365   10.4907 C   0  0  0  0  0  0  0  0  0  0  0  0
   43.4996   12.0989   14.3524 O   0  0  0  0  0  0  0  0  0  0  0  0
   46.8943   12.1877   11.9362 N   0  0  0  0  0  0  0  0  0  0  0  0
   48.3755   12.1557   12.1323 C   0  0  0  0  0  0  0  0  0  0  0  0
   48.9980   13.4829   11.6134 C   0  0  0  0  0  0  0  0  0  0  0  0
   46.3008   10.8980   12.4349 C   0  0  0  0  0  0  0  0  0  0  0  0
   44.8913   11.1246   13.0330 C   0  0  0  0  0  0  0  0  0  0  0  0
   44.9191   12.4293   14.2848 S   0  0  0  0  0  0  0  0  0  0  0  0
  1  3  1  0  0  0  0
  1  9  1  0  0  0  0
  2 12  1  0  0  0  0
  3  5  1  0  0  0  0
  4 12  2  0  0  0  0
  5  7  1  0  0  0  0
  6 12  2  0  0  0  0
  7  8  1  0  0  0  0
  7 10  1  0  0  0  0
  8  9  1  0  0  0  0
 10 11  1  0  0  0  0
 11 12  1  0  0  0  0
M  END
>  <CHROM.1>
-90.71980031,-52.89302361,-102.08300146,46.08182033,12.58487062,12.79121612
0.09884763,0.80764058,0.14560077

>  <Name>
ligand

>  <RI>
0

>  <Rbt.Current_Directory>
/home/itssahil/PROJECTS/Mol_Feturizer/New_Systems/rnas/2HO6

>  <Rbt.Executable>
rbdock ($Id: //depot/dev/client3/rdock/2013.1/src/exe/rbdock.cxx#4 $)

>  <Rbt.Library>
libRbt.so (2013.1, Build901 2013/11/27)

>  <Rbt.Parameter_File>
/export/apps/rDock/src/rDock_2013.1_src/data/scripts/dock_solv.prm

>  <Rbt.Receptor>
prm/pocket_docking_3.prm

>  <SCORE>
-7.79916

>  <SCORE.INTER>
-7.06985

>  <SCORE.INTER.CONST>
1

>  <SCORE.INTER.POLAR>
0

>  <SCORE.INTER.ROT>
3

>  <SCORE.INTER.SOLV>
5.31661

>  <SCORE.INTER.VDW>
-12.0854

>  <SCORE.INTER.norm>
-0.589154

>  <SCORE.INTRA>
-0.729315

>  <SCORE.INTRA.DIHEDRAL>
1.49841

>  <SCORE.INTRA.DIHEDRAL.0>
1.88407

>  <SCORE.INTRA.POLAR>
0

>  <SCORE.INTRA.POLAR.0>
0

>  <SCORE.INTRA.REPUL>
0

>  <SCORE.INTRA.REPUL.0>
0

>  <SCORE.INTRA.SOLV>
0.517335

>  <SCORE.INTRA.SOLV.lig_0>
-10.2714

>  <SCORE.INTRA.VDW>
-1.73719

>  <SCORE.INTRA.VDW.0>
0.416923

>  <SCORE.INTRA.norm>
-0.0607763

>  <SCORE.RESTR>
0

>  <SCORE.RESTR.CAVITY>
0

>  <SCORE.RESTR.norm>
0

>  <SCORE.SYSTEM>
0

>  <SCORE.SYSTEM.CONST>
0

>  <SCORE.SYSTEM.DIHEDRAL>
0

>  <SCORE.SYSTEM.SOLV>
0

>  <SCORE.SYSTEM.norm>
0

>  <SCORE.heavy>
12

>  <SCORE.norm>
-0.64993

>  <RMSD>
3.126

$$$$
ligand
 OpenBabel11021811433D
libRbt.so/2013.1/901 2013/11/27
 12 12  0  0  0  0  0  0  0  0999 V2000
   47.9566   14.0743   10.9132 O   0  0  0  0  0  0  0  0  0  0  0  0
   44.9037   12.1795   15.7092 O   0  0  0  0  0  0  0  0  0  0  0  0
   47.4373   13.2531    9.8239 C   0  0  0  0  0  0  0  0  0  0  0  0
   44.9932   13.6278   13.7158 O   0  0  0  0  0  0  0  0  0  0  0  0
   46.8321   11.9236   10.3611 C   0  0  0  0  0  0  0  0  0  0  0  0
   43.6921   12.2184   14.1748 O   0  0  0  0  0  0  0  0  0  0  0  0
   46.9532   11.8991   11.8599 N   0  0  0  0  0  0  0  0  0  0  0  0
   48.3835   12.0403   12.2698 C   0  0  0  0  0  0  0  0  0  0  0  0
   48.9732   13.3440   11.6609 C   0  0  0  0  0  0  0  0  0  0  0  0
   46.3924   10.6326   12.4478 C   0  0  0  0  0  0  0  0  0  0  0  0
   45.0331   10.8913   13.1415 C   0  0  0  0  0  0  0  0  0  0  0  0
   45.1451   12.2828   14.2910 S   0  0  0  0  0  0  0  0  0  0  0  0
  1  3  1  0  0  0  0
  1  9  1  0  0  0  0
  2 12  1  0  0  0  0
  3  5  1  0  0  0  0
  4 12  2  0  0  0  0
  5  7  1  0  0  0  0
  6 12  2  0  0  0  0
  7  8  1  0  0  0  0
  7 10  1  0  0  0  0
  8  9  1  0  0  0  0
 10 11  1  0  0  0  0
 11 12  1  0  0  0  0
M  END
>  <CHROM.1>
-105.98886414,-50.59842984,-118.97571889,46.23469233,12.38328828,12.73884452
-0.22760560,0.82573347,0.51523443

>  <Name>
ligand

>  <RI>
0

>  <Rbt.Current_Directory>
/home/itssahil/PROJECTS/Mol_Feturizer/New_Systems/rnas/2HO6

>  <Rbt.Executable>
rbdock ($Id: //depot/dev/client3/rdock/2013.1/src/exe/rbdock.cxx#4 $)

>  <Rbt.Library>
libRbt.so (2013.1, Build901 2013/11/27)

>  <Rbt.Parameter_File>
/export/apps/rDock/src/rDock_2013.1_src/data/scripts/dock_solv.prm

>  <Rbt.Receptor>
prm/pocket_docking_3.prm

>  <SCORE>
-7.80011

>  <SCORE.INTER>
-7.39951

>  <SCORE.INTER.CONST>
1

>  <SCORE.INTER.POLAR>
0

>  <SCORE.INTER.ROT>
3

>  <SCORE.INTER.SOLV>
5.62095

>  <SCORE.INTER.VDW>
-12.4067

>  <SCORE.INTER.norm>
-0.616626

>  <SCORE.INTRA>
-0.401544

>  <SCORE.INTRA.DIHEDRAL>
2.40357

>  <SCORE.INTRA.DIHEDRAL.0>
1.88407

>  <SCORE.INTRA.POLAR>
0

>  <SCORE.INTRA.POLAR.0>
0

>  <SCORE.INTRA.REPUL>
0

>  <SCORE.INTRA.REPUL.0>
0

>  <SCORE.INTRA.SOLV>
0.763776

>  <SCORE.INTRA.SOLV.lig_0>
-10.2714

>  <SCORE.INTRA.VDW>
-1.98522

>  <SCORE.INTRA.VDW.0>
0.416923

>  <SCORE.INTRA.norm>
-0.033462

>  <SCORE.RESTR>
0.000940971

>  <SCORE.RESTR.CAVITY>
0.000940971

>  <SCORE.RESTR.norm>
7.84142e-05

>  <SCORE.SYSTEM>
0

>  <SCORE.SYSTEM.CONST>
0

>  <SCORE.SYSTEM.DIHEDRAL>
0

>  <SCORE.SYSTEM.SOLV>
0

>  <SCORE.SYSTEM.norm>
0

>  <SCORE.heavy>
12

>  <SCORE.norm>
-0.650009

>  <RMSD>
3.137

$$$$
ligand
 OpenBabel11021811433D
libRbt.so/2013.1/901 2013/11/27
 12 12  0  0  0  0  0  0  0  0999 V2000
   47.8841   14.3917   11.1279 O   0  0  0  0  0  0  0  0  0  0  0  0
   44.8646   12.1292   15.7206 O   0  0  0  0  0  0  0  0  0  0  0  0
   47.1478   13.7609   10.0368 C   0  0  0  0  0  0  0  0  0  0  0  0
   44.5922   13.6970   13.8372 O   0  0  0  0  0  0  0  0  0  0  0  0
   46.5404   12.3988   10.4818 C   0  0  0  0  0  0  0  0  0  0  0  0
   43.5313   12.0973   14.2906 O   0  0  0  0  0  0  0  0  0  0  0  0
   46.8878   12.1540   11.9245 N   0  0  0  0  0  0  0  0  0  0  0  0
   48.3703   12.1662   12.1131 C   0  0  0  0  0  0  0  0  0  0  0  0
   48.9496   13.5139   11.5970 C   0  0  0  0  0  0  0  0  0  0  0  0
   46.3364   10.8447   12.4204 C   0  0  0  0  0  0  0  0  0  0  0  0
   44.9410   11.0324   13.0634 C   0  0  0  0  0  0  0  0  0  0  0  0
   44.9678   12.3523   14.2994 S   0  0  0  0  0  0  0  0  0  0  0  0
  1  3  1  0  0  0  0
  1  9  1  0  0  0  0
  2 12  1  0  0  0  0
  3  5  1  0  0  0  0
  4 12  2  0  0  0  0
  5  7  1  0  0  0  0
  6 12  2  0  0  0  0
  7  8  1  0  0  0  0
  7 10  1  0  0  0  0
  8  9  1  0  0  0  0
 10 11  1  0  0  0  0
 11 12  1  0  0  0  0
M  END
>  <CHROM.1>
-92.35822404,-51.20505724,-109.18271729,46.08994479,12.54870591,12.78358785
0.09031604,0.82773215,0.17654403

>  <Name>
ligand

>  <RI>
0

>  <Rbt.Current_Directory>
/home/itssahil/PROJECTS/Mol_Feturizer/New_Systems/rnas/2HO6

>  <Rbt.Executable>
rbdock ($Id: //depot/dev/client3/rdock/2013.1/src/exe/rbdock.cxx#4 $)

>  <Rbt.Library>
libRbt.so (2013.1, Build901 2013/11/27)

>  <Rbt.Parameter_File>
/export/apps/rDock/src/rDock_2013.1_src/data/scripts/dock_solv.prm

>  <Rbt.Receptor>
prm/pocket_docking_3.prm

>  <SCORE>
-7.8047

>  <SCORE.INTER>
-7.15172

>  <SCORE.INTER.CONST>
1

>  <SCORE.INTER.POLAR>
0

>  <SCORE.INTER.ROT>
3

>  <SCORE.INTER.SOLV>
5.35596

>  <SCORE.INTER.VDW>
-12.1531

>  <SCORE.INTER.norm>
-0.595976

>  <SCORE.INTRA>
-0.654276

>  <SCORE.INTRA.DIHEDRAL>
1.68245

>  <SCORE.INTRA.DIHEDRAL.0>
1.88407

>  <SCORE.INTRA.POLAR>
0

>  <SCORE.INTRA.POLAR.0>
0

>  <SCORE.INTRA.REPUL>
0

>  <SCORE.INTRA.REPUL.0>
0

>  <SCORE.INTRA.SOLV>
0.611049

>  <SCORE.INTRA.SOLV.lig_0>
-10.2714

>  <SCORE.INTRA.VDW>
-1.80103

>  <SCORE.INTRA.VDW.0>
0.416923

>  <SCORE.INTRA.norm>
-0.054523

>  <SCORE.RESTR>
0.00129129

>  <SCORE.RESTR.CAVITY>
0.00129129

>  <SCORE.RESTR.norm>
0.000107608

>  <SCORE.SYSTEM>
0

>  <SCORE.SYSTEM.CONST>
0

>  <SCORE.SYSTEM.DIHEDRAL>
0

>  <SCORE.SYSTEM.SOLV>
0

>  <SCORE.SYSTEM.norm>
0

>  <SCORE.heavy>
12

>  <SCORE.norm>
-0.650392

>  <RMSD>
3.138

$$$$
ligand
 OpenBabel11021811433D
libRbt.so/2013.1/901 2013/11/27
 12 12  0  0  0  0  0  0  0  0999 V2000
   47.9560   14.2353   10.9205 O   0  0  0  0  0  0  0  0  0  0  0  0
   44.8803   12.2279   15.6686 O   0  0  0  0  0  0  0  0  0  0  0  0
   47.3029   13.4949    9.8453 C   0  0  0  0  0  0  0  0  0  0  0  0
   44.6012   13.7535   13.7519 O   0  0  0  0  0  0  0  0  0  0  0  0
   46.6691   12.1760   10.3751 C   0  0  0  0  0  0  0  0  0  0  0  0
   43.5342   12.1717   14.2513 O   0  0  0  0  0  0  0  0  0  0  0  0
   46.9113   12.0748   11.8560 N   0  0  0  0  0  0  0  0  0  0  0  0
   48.3761   12.1201   12.1489 C   0  0  0  0  0  0  0  0  0  0  0  0
   48.9872   13.4177   11.5479 C   0  0  0  0  0  0  0  0  0  0  0  0
   46.3293   10.8138   12.4352 C   0  0  0  0  0  0  0  0  0  0  0  0
   44.9264   11.0697   13.0370 C   0  0  0  0  0  0  0  0  0  0  0  0
   44.9724   12.4174   14.2418 S   0  0  0  0  0  0  0  0  0  0  0  0
  1  3  1  0  0  0  0
  1  9  1  0  0  0  0
  2 12  1  0  0  0  0
  3  5  1  0  0  0  0
  4 12  2  0  0  0  0
  5  7  1  0  0  0  0
  6 12  2  0  0  0  0
  7  8  1  0  0  0  0
  7 10  1  0  0  0  0
  8  9  1  0  0  0  0
 10 11  1  0  0  0  0
 11 12  1  0  0  0  0
M  END
>  <CHROM.1>
-96.02143407,-54.29205460,-106.50674814,46.12263847,12.51468886,12.71416844
-0.07749593,0.82222331,0.33474715

>  <Name>
ligand

>  <RI>
0

>  <Rbt.Current_Directory>
/home/itssahil/PROJECTS/Mol_Feturizer/New_Systems/rnas/2HO6

>  <Rbt.Executable>
rbdock ($Id: //depot/dev/client3/rdock/2013.1/src/exe/rbdock.cxx#4 $)

>  <Rbt.Library>
libRbt.so (2013.1, Build901 2013/11/27)

>  <Rbt.Parameter_File>
/export/apps/rDock/src/rDock_2013.1_src/data/scripts/dock_solv.prm

>  <Rbt.Receptor>
prm/pocket_docking_3.prm

>  <SCORE>
-7.82139

>  <SCORE.INTER>
-7.16762

>  <SCORE.INTER.CONST>
1

>  <SCORE.INTER.POLAR>
0

>  <SCORE.INTER.ROT>
3

>  <SCORE.INTER.SOLV>
5.30997

>  <SCORE.INTER.VDW>
-12.1484

>  <SCORE.INTER.norm>
-0.597302

>  <SCORE.INTRA>
-0.653773

>  <SCORE.INTRA.DIHEDRAL>
1.7443

>  <SCORE.INTRA.DIHEDRAL.0>
1.88407

>  <SCORE.INTRA.POLAR>
0

>  <SCORE.INTRA.POLAR.0>
0

>  <SCORE.INTRA.REPUL>
0

>  <SCORE.INTRA.REPUL.0>
0

>  <SCORE.INTRA.SOLV>
0.552304

>  <SCORE.INTRA.SOLV.lig_0>
-10.2714

>  <SCORE.INTRA.VDW>
-1.80207

>  <SCORE.INTRA.VDW.0>
0.416923

>  <SCORE.INTRA.norm>
-0.0544811

>  <SCORE.RESTR>
0

>  <SCORE.RESTR.CAVITY>
0

>  <SCORE.RESTR.norm>
0

>  <SCORE.SYSTEM>
0

>  <SCORE.SYSTEM.CONST>
0

>  <SCORE.SYSTEM.DIHEDRAL>
0

>  <SCORE.SYSTEM.SOLV>
0

>  <SCORE.SYSTEM.norm>
0

>  <SCORE.heavy>
12

>  <SCORE.norm>
-0.651783

>  <RMSD>
3.142

$$$$
ligand
 OpenBabel11021811433D
libRbt.so/2013.1/901 2013/11/27
 12 12  0  0  0  0  0  0  0  0999 V2000
   49.0709   12.8323   11.4161 O   0  0  0  0  0  0  0  0  0  0  0  0
   44.9068   12.3096   15.5921 O   0  0  0  0  0  0  0  0  0  0  0  0
   48.2408   13.0317   10.2321 C   0  0  0  0  0  0  0  0  0  0  0  0
   45.3144   13.3512   13.3948 O   0  0  0  0  0  0  0  0  0  0  0  0
   46.9010   12.2480   10.3462 C   0  0  0  0  0  0  0  0  0  0  0  0
   43.8843   12.1061   13.9377 O   0  0  0  0  0  0  0  0  0  0  0  0
   46.8633   11.5293   11.6668 N   0  0  0  0  0  0  0  0  0  0  0  0
   48.0341   10.6091   11.7932 C   0  0  0  0  0  0  0  0  0  0  0  0
   49.3515   11.4144   11.6079 C   0  0  0  0  0  0  0  0  0  0  0  0
   45.5932   10.7413   11.8410 C   0  0  0  0  0  0  0  0  0  0  0  0
   45.2504   10.5560   13.3390 C   0  0  0  0  0  0  0  0  0  0  0  0
   45.3155   12.1339   14.2201 S   0  0  0  0  0  0  0  0  0  0  0  0
  1  3  1  0  0  0  0
  1  9  1  0  0  0  0
  2 12  1  0  0  0  0
  3  5  1  0  0  0  0
  4 12  2  0  0  0  0
  5  7  1  0  0  0  0
  6 12  2  0  0  0  0
  7  8  1  0  0  0  0
  7 10  1  0  0  0  0
  8  9  1  0  0  0  0
 10 11  1  0  0  0  0
 11 12  1  0  0  0  0
M  END
>  <CHROM.1>
-154.02248077,49.87232143,173.06144260,46.41374842,11.95676244,12.65959967
-0.37198395,0.66408782,0.55196290

>  <Name>
ligand

>  <RI>
0

>  <Rbt.Current_Directory>
/home/itssahil/PROJECTS/Mol_Feturizer/New_Systems/rnas/2HO6

>  <Rbt.Executable>
rbdock ($Id: //depot/dev/client3/rdock/2013.1/src/exe/rbdock.cxx#4 $)

>  <Rbt.Library>
libRbt.so (2013.1, Build901 2013/11/27)

>  <Rbt.Parameter_File>
/export/apps/rDock/src/rDock_2013.1_src/data/scripts/dock_solv.prm

>  <Rbt.Receptor>
prm/pocket_docking_4.prm

>  <SCORE>
-7.84301

>  <SCORE.INTER>
-7.51848

>  <SCORE.INTER.CONST>
1

>  <SCORE.INTER.POLAR>
0

>  <SCORE.INTER.ROT>
3

>  <SCORE.INTER.SOLV>
5.05126

>  <SCORE.INTER.VDW>
-12.2961

>  <SCORE.INTER.norm>
-0.62654

>  <SCORE.INTRA>
-0.324532

>  <SCORE.INTRA.DIHEDRAL>
1.17891

>  <SCORE.INTRA.DIHEDRAL.0>
1.88407

>  <SCORE.INTRA.POLAR>
0

>  <SCORE.INTRA.POLAR.0>
0

>  <SCORE.INTRA.REPUL>
0

>  <SCORE.INTRA.REPUL.0>
0

>  <SCORE.INTRA.SOLV>
1.07089

>  <SCORE.INTRA.SOLV.lig_0>
-10.2714

>  <SCORE.INTRA.VDW>
-1.44943

>  <SCORE.INTRA.VDW.0>
0.416923

>  <SCORE.INTRA.norm>
-0.0270444

>  <SCORE.RESTR>
0

>  <SCORE.RESTR.CAVITY>
0

>  <SCORE.RESTR.norm>
0

>  <SCORE.SYSTEM>
0

>  <SCORE.SYSTEM.CONST>
0

>  <SCORE.SYSTEM.DIHEDRAL>
0

>  <SCORE.SYSTEM.SOLV>
0

>  <SCORE.SYSTEM.norm>
0

>  <SCORE.heavy>
12

>  <SCORE.norm>
-0.653584

>  <RMSD>
3.171

$$$$
ligand
 OpenBabel11021811433D
libRbt.so/2013.1/901 2013/11/27
 12 12  0  0  0  0  0  0  0  0999 V2000
   47.5043   14.6950   10.8934 O   0  0  0  0  0  0  0  0  0  0  0  0
   44.7909   12.1441   15.6695 O   0  0  0  0  0  0  0  0  0  0  0  0
   46.7139   13.9534    9.9156 C   0  0  0  0  0  0  0  0  0  0  0  0
   44.8027   13.6576   13.7231 O   0  0  0  0  0  0  0  0  0  0  0  0
   46.3607   12.5313   10.4401 C   0  0  0  0  0  0  0  0  0  0  0  0
   43.6826   12.0696   14.0602 O   0  0  0  0  0  0  0  0  0  0  0  0
   46.9347   12.3600   11.8197 N   0  0  0  0  0  0  0  0  0  0  0  0
   48.4141   12.5707   11.7987 C   0  0  0  0  0  0  0  0  0  0  0  0
   48.7318   13.9736   11.2077 C   0  0  0  0  0  0  0  0  0  0  0  0
   46.6365   10.9985   12.3867 C   0  0  0  0  0  0  0  0  0  0  0  0
   45.2551   10.9729   13.0845 C   0  0  0  0  0  0  0  0  0  0  0  0
   45.1028   12.3271   14.2733 S   0  0  0  0  0  0  0  0  0  0  0  0
  1  3  1  0  0  0  0
  1  9  1  0  0  0  0
  2 12  1  0  0  0  0
  3  5  1  0  0  0  0
  4 12  2  0  0  0  0
  5  7  1  0  0  0  0
  6 12  2  0  0  0  0
  7  8  1  0  0  0  0
  7 10  1  0  0  0  0
  8  9  1  0  0  0  0
 10 11  1  0  0  0  0
 11 12  1  0  0  0  0
M  END
>  <CHROM.1>
-86.01516416,-51.37934344,-123.82350626,46.09550150,12.67280593,12.65630257
0.44906587,0.83356892,-0.20153588

>  <Name>
ligand

>  <RI>
0

>  <Rbt.Current_Directory>
/home/itssahil/PROJECTS/Mol_Feturizer/New_Systems/rnas/2HO6

>  <Rbt.Executable>
rbdock ($Id: //depot/dev/client3/rdock/2013.1/src/exe/rbdock.cxx#4 $)

>  <Rbt.Library>
libRbt.so (2013.1, Build901 2013/11/27)

>  <Rbt.Parameter_File>
/export/apps/rDock/src/rDock_2013.1_src/data/scripts/dock_solv.prm

>  <Rbt.Receptor>
prm/pocket_docking_3.prm

>  <SCORE>
-7.79605

>  <SCORE.INTER>
-7.03295

>  <SCORE.INTER.CONST>
1

>  <SCORE.INTER.POLAR>
0

>  <SCORE.INTER.ROT>
3

>  <SCORE.INTER.SOLV>
5.05623

>  <SCORE.INTER.VDW>
-11.974

>  <SCORE.INTER.norm>
-0.58608

>  <SCORE.INTRA>
-0.7631

>  <SCORE.INTRA.DIHEDRAL>
1.22348

>  <SCORE.INTRA.DIHEDRAL.0>
1.88407

>  <SCORE.INTRA.POLAR>
0

>  <SCORE.INTRA.POLAR.0>
0

>  <SCORE.INTRA.REPUL>
0

>  <SCORE.INTRA.REPUL.0>
0

>  <SCORE.INTRA.SOLV>
0.856638

>  <SCORE.INTRA.SOLV.lig_0>
-10.2714

>  <SCORE.INTRA.VDW>
-1.80316

>  <SCORE.INTRA.VDW.0>
0.416923

>  <SCORE.INTRA.norm>
-0.0635917

>  <SCORE.RESTR>
0

>  <SCORE.RESTR.CAVITY>
0

>  <SCORE.RESTR.norm>
0

>  <SCORE.SYSTEM>
0

>  <SCORE.SYSTEM.CONST>
0

>  <SCORE.SYSTEM.DIHEDRAL>
0

>  <SCORE.SYSTEM.SOLV>
0

>  <SCORE.SYSTEM.norm>
0

>  <SCORE.heavy>
12

>  <SCORE.norm>
-0.649671

>  <RMSD>
3.175

$$$$
ligand
 OpenBabel11021811433D
libRbt.so/2013.1/901 2013/11/27
 12 12  0  0  0  0  0  0  0  0999 V2000
   48.9872   12.9610   11.3755 O   0  0  0  0  0  0  0  0  0  0  0  0
   44.8879   12.2987   15.6310 O   0  0  0  0  0  0  0  0  0  0  0  0
   48.1956   13.0555   10.1528 C   0  0  0  0  0  0  0  0  0  0  0  0
   45.2273   13.3960   13.4493 O   0  0  0  0  0  0  0  0  0  0  0  0
   46.8686   12.2522   10.2786 C   0  0  0  0  0  0  0  0  0  0  0  0
   43.8419   12.1007   13.9907 O   0  0  0  0  0  0  0  0  0  0  0  0
   46.7985   11.6303   11.6462 N   0  0  0  0  0  0  0  0  0  0  0  0
   47.9823   10.7482   11.8790 C   0  0  0  0  0  0  0  0  0  0  0  0
   49.2891   11.5674   11.6799 C   0  0  0  0  0  0  0  0  0  0  0  0
   45.5391   10.8287   11.8346 C   0  0  0  0  0  0  0  0  0  0  0  0
   45.2392   10.6019   13.3361 C   0  0  0  0  0  0  0  0  0  0  0  0
   45.2766   12.1626   14.2488 S   0  0  0  0  0  0  0  0  0  0  0  0
  1  3  1  0  0  0  0
  1  9  1  0  0  0  0
  2 12  1  0  0  0  0
  3  5  1  0  0  0  0
  4 12  2  0  0  0  0
  5  7  1  0  0  0  0
  6 12  2  0  0  0  0
  7  8  1  0  0  0  0
  7 10  1  0  0  0  0
  8  9  1  0  0  0  0
 10 11  1  0  0  0  0
 11 12  1  0  0  0  0
M  END
>  <CHROM.1>
-160.77427179,51.32082477,172.61884809,46.36497734,12.01448294,12.67169047
-0.50258339,0.60057084,0.78788645

>  <Name>
ligand

>  <RI>
0

>  <Rbt.Current_Directory>
/home/itssahil/PROJECTS/Mol_Feturizer/New_Systems/rnas/2HO6

>  <Rbt.Executable>
rbdock ($Id: //depot/dev/client3/rdock/2013.1/src/exe/rbdock.cxx#4 $)

>  <Rbt.Library>
libRbt.so (2013.1, Build901 2013/11/27)

>  <Rbt.Parameter_File>
/export/apps/rDock/src/rDock_2013.1_src/data/scripts/dock_solv.prm

>  <Rbt.Receptor>
prm/pocket_docking_3.prm

>  <SCORE>
-7.81507

>  <SCORE.INTER>
-7.43066

>  <SCORE.INTER.CONST>
1

>  <SCORE.INTER.POLAR>
0

>  <SCORE.INTER.ROT>
3

>  <SCORE.INTER.SOLV>
5.05934

>  <SCORE.INTER.VDW>
-12.2402

>  <SCORE.INTER.norm>
-0.619222

>  <SCORE.INTRA>
-0.384408

>  <SCORE.INTRA.DIHEDRAL>
0.703381

>  <SCORE.INTRA.DIHEDRAL.0>
1.88407

>  <SCORE.INTRA.POLAR>
0

>  <SCORE.INTRA.POLAR.0>
0

>  <SCORE.INTRA.REPUL>
0

>  <SCORE.INTRA.REPUL.0>
0

>  <SCORE.INTRA.SOLV>
1.03819

>  <SCORE.INTRA.SOLV.lig_0>
-10.2714

>  <SCORE.INTRA.VDW>
-1.25519

>  <SCORE.INTRA.VDW.0>
0.416923

>  <SCORE.INTRA.norm>
-0.032034

>  <SCORE.RESTR>
0

>  <SCORE.RESTR.CAVITY>
0

>  <SCORE.RESTR.norm>
0

>  <SCORE.SYSTEM>
0

>  <SCORE.SYSTEM.CONST>
0

>  <SCORE.SYSTEM.DIHEDRAL>
0

>  <SCORE.SYSTEM.SOLV>
0

>  <SCORE.SYSTEM.norm>
0

>  <SCORE.heavy>
12

>  <SCORE.norm>
-0.651256

>  <RMSD>
3.178

$$$$
ligand
 OpenBabel11021811433D
libRbt.so/2013.1/901 2013/11/27
 12 12  0  0  0  0  0  0  0  0999 V2000
   48.5561   13.3858   11.5314 O   0  0  0  0  0  0  0  0  0  0  0  0
   45.1397   13.4031   13.6314 O   0  0  0  0  0  0  0  0  0  0  0  0
   47.7745   13.4035   10.2988 C   0  0  0  0  0  0  0  0  0  0  0  0
   44.4638   12.0808   15.5997 O   0  0  0  0  0  0  0  0  0  0  0  0
   46.5810   12.4076   10.3754 C   0  0  0  0  0  0  0  0  0  0  0  0
   46.1289   11.9863   14.5467 O   0  0  0  0  0  0  0  0  0  0  0  0
   46.5878   11.7353   11.7207 N   0  0  0  0  0  0  0  0  0  0  0  0
   47.8871   11.0319   11.9455 C   0  0  0  0  0  0  0  0  0  0  0  0
   49.0591   12.0431   11.7958 C   0  0  0  0  0  0  0  0  0  0  0  0
   45.4601   10.7490   11.8611 C   0  0  0  0  0  0  0  0  0  0  0  0
   45.0788   10.5423   13.3470 C   0  0  0  0  0  0  0  0  0  0  0  0
   44.7303   12.1227   14.1539 S   0  0  0  0  0  0  0  0  0  0  0  0
  1  3  1  0  0  0  0
  1  9  1  0  0  0  0
  2 12  1  0  0  0  0
  3  5  1  0  0  0  0
  4 12  2  0  0  0  0
  5  7  1  0  0  0  0
  6 12  2  0  0  0  0
  7  8  1  0  0  0  0
  7 10  1  0  0  0  0
  8  9  1  0  0  0  0
 10 11  1  0  0  0  0
 11 12  1  0  0  0  0
M  END
>  <CHROM.1>
-154.74922560,53.57114413,-17.63393089,46.27837948,12.10479477,12.76587359
-0.44963097,0.72233753,0.78597013

>  <Name>
ligand

>  <RI>
0

>  <Rbt.Current_Directory>
/home/itssahil/PROJECTS/Mol_Feturizer/New_Systems/rnas/2HO6

>  <Rbt.Executable>
rbdock ($Id: //depot/dev/client3/rdock/2013.1/src/exe/rbdock.cxx#4 $)

>  <Rbt.Library>
libRbt.so (2013.1, Build901 2013/11/27)

>  <Rbt.Parameter_File>
/export/apps/rDock/src/rDock_2013.1_src/data/scripts/dock_solv.prm

>  <Rbt.Receptor>
prm/pocket_docking_3.prm

>  <SCORE>
-7.50261

>  <SCORE.INTER>
-6.43803

>  <SCORE.INTER.CONST>
1

>  <SCORE.INTER.POLAR>
0

>  <SCORE.INTER.ROT>
3

>  <SCORE.INTER.SOLV>
7.18246

>  <SCORE.INTER.VDW>
-12.2862

>  <SCORE.INTER.norm>
-0.536503

>  <SCORE.INTRA>
-1.06458

>  <SCORE.INTRA.DIHEDRAL>
0.849106

>  <SCORE.INTRA.DIHEDRAL.0>
1.88407

>  <SCORE.INTRA.POLAR>
0

>  <SCORE.INTRA.POLAR.0>
0

>  <SCORE.INTRA.REPUL>
0

>  <SCORE.INTRA.REPUL.0>
0

>  <SCORE.INTRA.SOLV>
0.670863

>  <SCORE.INTRA.SOLV.lig_0>
-10.2714

>  <SCORE.INTRA.VDW>
-1.82456

>  <SCORE.INTRA.VDW.0>
0.416923

>  <SCORE.INTRA.norm>
-0.0887147

>  <SCORE.RESTR>
0

>  <SCORE.RESTR.CAVITY>
0

>  <SCORE.RESTR.norm>
0

>  <SCORE.SYSTEM>
0

>  <SCORE.SYSTEM.CONST>
0

>  <SCORE.SYSTEM.DIHEDRAL>
0

>  <SCORE.SYSTEM.SOLV>
0

>  <SCORE.SYSTEM.norm>
0

>  <SCORE.heavy>
12

>  <SCORE.norm>
-0.625217

>  <RMSD>
3.188

$$$$
ligand
 OpenBabel11021811433D
libRbt.so/2013.1/901 2013/11/27
 12 12  0  0  0  0  0  0  0  0999 V2000
   49.0471   12.8193   11.3344 O   0  0  0  0  0  0  0  0  0  0  0  0
   44.8222   12.3581   15.5935 O   0  0  0  0  0  0  0  0  0  0  0  0
   48.1979   12.9217   10.1516 C   0  0  0  0  0  0  0  0  0  0  0  0
   45.3314   13.3138   13.3784 O   0  0  0  0  0  0  0  0  0  0  0  0
   46.8831   12.1087   10.3313 C   0  0  0  0  0  0  0  0  0  0  0  0
   43.9047   12.0532   13.8938 O   0  0  0  0  0  0  0  0  0  0  0  0
   46.8815   11.4719   11.6938 N   0  0  0  0  0  0  0  0  0  0  0  0
   48.0801   10.5950   11.8607 C   0  0  0  0  0  0  0  0  0  0  0  0
   49.3712   11.4245   11.6090 C   0  0  0  0  0  0  0  0  0  0  0  0
   45.6371   10.6604   11.9329 C   0  0  0  0  0  0  0  0  0  0  0  0
   45.3436   10.5182   13.4460 C   0  0  0  0  0  0  0  0  0  0  0  0
   45.3156   12.1343   14.2568 S   0  0  0  0  0  0  0  0  0  0  0  0
  1  3  1  0  0  0  0
  1  9  1  0  0  0  0
  2 12  1  0  0  0  0
  3  5  1  0  0  0  0
  4 12  2  0  0  0  0
  5  7  1  0  0  0  0
  6 12  2  0  0  0  0
  7  8  1  0  0  0  0
  7 10  1  0  0  0  0
  8  9  1  0  0  0  0
 10 11  1  0  0  0  0
 11 12  1  0  0  0  0
M  END
>  <CHROM.1>
-155.92885371,52.65520958,167.65511515,46.41948718,11.92132414,12.66845829
-0.31592823,0.69837081,0.44563561

>  <Name>
ligand

>  <RI>
0

>  <Rbt.Current_Directory>
/home/itssahil/PROJECTS/Mol_Feturizer/New_Systems/rnas/2HO6

>  <Rbt.Executable>
rbdock ($Id: //depot/dev/client3/rdock/2013.1/src/exe/rbdock.cxx#4 $)

>  <Rbt.Library>
libRbt.so (2013.1, Build901 2013/11/27)

>  <Rbt.Parameter_File>
/export/apps/rDock/src/rDock_2013.1_src/data/scripts/dock_solv.prm

>  <Rbt.Receptor>
prm/pocket_docking_4.prm

>  <SCORE>
-7.9188

>  <SCORE.INTER>
-7.60253

>  <SCORE.INTER.CONST>
1

>  <SCORE.INTER.POLAR>
0

>  <SCORE.INTER.ROT>
3

>  <SCORE.INTER.SOLV>
5.12562

>  <SCORE.INTER.VDW>
-12.3769

>  <SCORE.INTER.norm>
-0.633544

>  <SCORE.INTRA>
-0.316267

>  <SCORE.INTRA.DIHEDRAL>
0.908582

>  <SCORE.INTRA.DIHEDRAL.0>
1.88407

>  <SCORE.INTRA.POLAR>
0

>  <SCORE.INTRA.POLAR.0>
0

>  <SCORE.INTRA.REPUL>
0

>  <SCORE.INTRA.REPUL.0>
0

>  <SCORE.INTRA.SOLV>
1.08515

>  <SCORE.INTRA.SOLV.lig_0>
-10.2714

>  <SCORE.INTRA.VDW>
-1.31313

>  <SCORE.INTRA.VDW.0>
0.416923

>  <SCORE.INTRA.norm>
-0.0263556

>  <SCORE.RESTR>
0

>  <SCORE.RESTR.CAVITY>
0

>  <SCORE.RESTR.norm>
0

>  <SCORE.SYSTEM>
0

>  <SCORE.SYSTEM.CONST>
0

>  <SCORE.SYSTEM.DIHEDRAL>
0

>  <SCORE.SYSTEM.SOLV>
0

>  <SCORE.SYSTEM.norm>
0

>  <SCORE.heavy>
12

>  <SCORE.norm>
-0.6599

>  <RMSD>
3.188

$$$$
ligand
 OpenBabel11021811433D
libRbt.so/2013.1/901 2013/11/27
 12 12  0  0  0  0  0  0  0  0999 V2000
   48.9385   12.9902   11.3091 O   0  0  0  0  0  0  0  0  0  0  0  0
   44.8383   12.3269   15.6153 O   0  0  0  0  0  0  0  0  0  0  0  0
   48.0308   13.2167   10.1886 C   0  0  0  0  0  0  0  0  0  0  0  0
   45.3232   13.3798   13.4391 O   0  0  0  0  0  0  0  0  0  0  0  0
   46.7195   12.3946   10.3522 C   0  0  0  0  0  0  0  0  0  0  0  0
   43.8782   12.1277   13.9234 O   0  0  0  0  0  0  0  0  0  0  0  0
   46.7819   11.6214   11.6407 N   0  0  0  0  0  0  0  0  0  0  0  0
   47.9794   10.7274   11.6546 C   0  0  0  0  0  0  0  0  0  0  0  0
   49.2634   11.5734   11.4224 C   0  0  0  0  0  0  0  0  0  0  0  0
   45.5440   10.7944   11.8597 C   0  0  0  0  0  0  0  0  0  0  0  0
   45.2706   10.5847   13.3687 C   0  0  0  0  0  0  0  0  0  0  0  0
   45.2979   12.1588   14.2586 S   0  0  0  0  0  0  0  0  0  0  0  0
  1  3  1  0  0  0  0
  1  9  1  0  0  0  0
  2 12  1  0  0  0  0
  3  5  1  0  0  0  0
  4 12  2  0  0  0  0
  5  7  1  0  0  0  0
  6 12  2  0  0  0  0
  7  8  1  0  0  0  0
  7 10  1  0  0  0  0
  8  9  1  0  0  0  0
 10 11  1  0  0  0  0
 11 12  1  0  0  0  0
M  END
>  <CHROM.1>
-151.84101857,50.87279745,168.00279036,46.34797244,12.03596057,12.63703022
-0.29049770,0.73563992,0.44495734

>  <Name>
ligand

>  <RI>
0

>  <Rbt.Current_Directory>
/home/itssahil/PROJECTS/Mol_Feturizer/New_Systems/rnas/2HO6

>  <Rbt.Executable>
rbdock ($Id: //depot/dev/client3/rdock/2013.1/src/exe/rbdock.cxx#4 $)

>  <Rbt.Library>
libRbt.so (2013.1, Build901 2013/11/27)

>  <Rbt.Parameter_File>
/export/apps/rDock/src/rDock_2013.1_src/data/scripts/dock_solv.prm

>  <Rbt.Receptor>
prm/pocket_docking_3.prm

>  <SCORE>
-7.79301

>  <SCORE.INTER>
-7.55702

>  <SCORE.INTER.CONST>
1

>  <SCORE.INTER.POLAR>
0

>  <SCORE.INTER.ROT>
3

>  <SCORE.INTER.SOLV>
4.85702

>  <SCORE.INTER.VDW>
-12.257

>  <SCORE.INTER.norm>
-0.629752

>  <SCORE.INTRA>
-0.235987

>  <SCORE.INTRA.DIHEDRAL>
1.26144

>  <SCORE.INTRA.DIHEDRAL.0>
1.88407

>  <SCORE.INTRA.POLAR>
0

>  <SCORE.INTRA.POLAR.0>
0

>  <SCORE.INTRA.REPUL>
0

>  <SCORE.INTRA.REPUL.0>
0

>  <SCORE.INTRA.SOLV>
1.1255

>  <SCORE.INTRA.SOLV.lig_0>
-10.2714

>  <SCORE.INTRA.VDW>
-1.42946

>  <SCORE.INTRA.VDW.0>
0.416923

>  <SCORE.INTRA.norm>
-0.0196656

>  <SCORE.RESTR>
0

>  <SCORE.RESTR.CAVITY>
0

>  <SCORE.RESTR.norm>
0

>  <SCORE.SYSTEM>
0

>  <SCORE.SYSTEM.CONST>
0

>  <SCORE.SYSTEM.DIHEDRAL>
0

>  <SCORE.SYSTEM.SOLV>
0

>  <SCORE.SYSTEM.norm>
0

>  <SCORE.heavy>
12

>  <SCORE.norm>
-0.649417

>  <RMSD>
3.195

$$$$
ligand
 OpenBabel11021811433D
libRbt.so/2013.1/901 2013/11/27
 12 12  0  0  0  0  0  0  0  0999 V2000
   48.4196   13.4940   11.4021 O   0  0  0  0  0  0  0  0  0  0  0  0
   45.1511   13.3764   13.5901 O   0  0  0  0  0  0  0  0  0  0  0  0
   47.6831   13.3243   10.1533 C   0  0  0  0  0  0  0  0  0  0  0  0
   44.4174   12.1098   15.5741 O   0  0  0  0  0  0  0  0  0  0  0  0
   46.5710   12.2454   10.2985 C   0  0  0  0  0  0  0  0  0  0  0  0
   46.1330   12.0237   14.6050 O   0  0  0  0  0  0  0  0  0  0  0  0
   46.5838   11.7129   11.7049 N   0  0  0  0  0  0  0  0  0  0  0  0
   47.9264   11.1455   12.0354 C   0  0  0  0  0  0  0  0  0  0  0  0
   49.0184   12.2305   11.8153 C   0  0  0  0  0  0  0  0  0  0  0  0
   45.5341   10.6552   11.9144 C   0  0  0  0  0  0  0  0  0  0  0  0
   45.1808   10.5064   13.4140 C   0  0  0  0  0  0  0  0  0  0  0  0
   44.7517   12.1052   14.1420 S   0  0  0  0  0  0  0  0  0  0  0  0
  1  3  1  0  0  0  0
  1  9  1  0  0  0  0
  2 12  1  0  0  0  0
  3  5  1  0  0  0  0
  4 12  2  0  0  0  0
  5  7  1  0  0  0  0
  6 12  2  0  0  0  0
  7  8  1  0  0  0  0
  7 10  1  0  0  0  0
  8  9  1  0  0  0  0
 10 11  1  0  0  0  0
 11 12  1  0  0  0  0
M  END
>  <CHROM.1>
-158.21299045,52.49202394,-21.50768597,46.27312284,12.10743348,12.75192748
-0.46388307,0.74862734,0.79882166

>  <Name>
ligand

>  <RI>
0

>  <Rbt.Current_Directory>
/home/itssahil/PROJECTS/Mol_Feturizer/New_Systems/rnas/2HO6

>  <Rbt.Executable>
rbdock ($Id: //depot/dev/client3/rdock/2013.1/src/exe/rbdock.cxx#4 $)

>  <Rbt.Library>
libRbt.so (2013.1, Build901 2013/11/27)

>  <Rbt.Parameter_File>
/export/apps/rDock/src/rDock_2013.1_src/data/scripts/dock_solv.prm

>  <Rbt.Receptor>
prm/pocket_docking_3.prm

>  <SCORE>
-7.37517

>  <SCORE.INTER>
-6.25091

>  <SCORE.INTER.CONST>
1

>  <SCORE.INTER.POLAR>
0

>  <SCORE.INTER.ROT>
3

>  <SCORE.INTER.SOLV>
7.29657

>  <SCORE.INTER.VDW>
-12.1995

>  <SCORE.INTER.norm>
-0.52091

>  <SCORE.INTRA>
-1.12425

>  <SCORE.INTRA.DIHEDRAL>
0.695242

>  <SCORE.INTRA.DIHEDRAL.0>
1.88407

>  <SCORE.INTRA.POLAR>
0

>  <SCORE.INTRA.POLAR.0>
0

>  <SCORE.INTRA.REPUL>
0

>  <SCORE.INTRA.REPUL.0>
0

>  <SCORE.INTRA.SOLV>
0.619814

>  <SCORE.INTRA.SOLV.lig_0>
-10.2714

>  <SCORE.INTRA.VDW>
-1.78178

>  <SCORE.INTRA.VDW.0>
0.416923

>  <SCORE.INTRA.norm>
-0.0936877

>  <SCORE.RESTR>
0

>  <SCORE.RESTR.CAVITY>
0

>  <SCORE.RESTR.norm>
0

>  <SCORE.SYSTEM>
0

>  <SCORE.SYSTEM.CONST>
0

>  <SCORE.SYSTEM.DIHEDRAL>
0

>  <SCORE.SYSTEM.SOLV>
0

>  <SCORE.SYSTEM.norm>
0

>  <SCORE.heavy>
12

>  <SCORE.norm>
-0.614597

>  <RMSD>
3.199

$$$$
ligand
 OpenBabel11021811433D
libRbt.so/2013.1/901 2013/11/27
 12 12  0  0  0  0  0  0  0  0999 V2000
   47.4346   14.5590   10.5955 O   0  0  0  0  0  0  0  0  0  0  0  0
   44.8283   12.2674   15.5997 O   0  0  0  0  0  0  0  0  0  0  0  0
   46.8989   13.6429    9.5932 C   0  0  0  0  0  0  0  0  0  0  0  0
   44.8484   13.6914   13.5869 O   0  0  0  0  0  0  0  0  0  0  0  0
   46.5809   12.2522   10.2153 C   0  0  0  0  0  0  0  0  0  0  0  0
   43.7103   12.1346   14.0008 O   0  0  0  0  0  0  0  0  0  0  0  0
   46.9108   12.2833   11.6823 N   0  0  0  0  0  0  0  0  0  0  0  0
   48.3464   12.6453   11.8862 C   0  0  0  0  0  0  0  0  0  0  0  0
   48.6432   14.0065   11.1954 C   0  0  0  0  0  0  0  0  0  0  0  0
   46.6338   10.9626   12.3482 C   0  0  0  0  0  0  0  0  0  0  0  0
   45.2636   10.9750   13.0680 C   0  0  0  0  0  0  0  0  0  0  0  0
   45.1348   12.3833   14.1951 S   0  0  0  0  0  0  0  0  0  0  0  0
  1  3  1  0  0  0  0
  1  9  1  0  0  0  0
  2 12  1  0  0  0  0
  3  5  1  0  0  0  0
  4 12  2  0  0  0  0
  5  7  1  0  0  0  0
  6 12  2  0  0  0  0
  7  8  1  0  0  0  0
  7 10  1  0  0  0  0
  8  9  1  0  0  0  0
 10 11  1  0  0  0  0
 11 12  1  0  0  0  0
M  END
>  <CHROM.1>
-98.28358131,-52.93041925,-124.61840498,46.12085433,12.64638249,12.54903704
0.14614109,0.93118984,0.13316490

>  <Name>
ligand

>  <RI>
0

>  <Rbt.Current_Directory>
/home/itssahil/PROJECTS/Mol_Feturizer/New_Systems/rnas/2HO6

>  <Rbt.Executable>
rbdock ($Id: //depot/dev/client3/rdock/2013.1/src/exe/rbdock.cxx#4 $)

>  <Rbt.Library>
libRbt.so (2013.1, Build901 2013/11/27)

>  <Rbt.Parameter_File>
/export/apps/rDock/src/rDock_2013.1_src/data/scripts/dock_solv.prm

>  <Rbt.Receptor>
prm/pocket_docking_4.prm

>  <SCORE>
-7.83698

>  <SCORE.INTER>
-7.23337

>  <SCORE.INTER.CONST>
1

>  <SCORE.INTER.POLAR>
0

>  <SCORE.INTER.ROT>
3

>  <SCORE.INTER.SOLV>
5.1302

>  <SCORE.INTER.VDW>
-12.1323

>  <SCORE.INTER.norm>
-0.602781

>  <SCORE.INTRA>
-0.603614

>  <SCORE.INTRA.DIHEDRAL>
1.87464

>  <SCORE.INTRA.DIHEDRAL.0>
1.88407

>  <SCORE.INTRA.POLAR>
0

>  <SCORE.INTRA.POLAR.0>
0

>  <SCORE.INTRA.REPUL>
0

>  <SCORE.INTRA.REPUL.0>
0

>  <SCORE.INTRA.SOLV>
0.828873

>  <SCORE.INTRA.SOLV.lig_0>
-10.2714

>  <SCORE.INTRA.VDW>
-1.95537

>  <SCORE.INTRA.VDW.0>
0.416923

>  <SCORE.INTRA.norm>
-0.0503012

>  <SCORE.RESTR>
0

>  <SCORE.RESTR.CAVITY>
0

>  <SCORE.RESTR.norm>
0

>  <SCORE.SYSTEM>
0

>  <SCORE.SYSTEM.CONST>
0

>  <SCORE.SYSTEM.DIHEDRAL>
0

>  <SCORE.SYSTEM.SOLV>
0

>  <SCORE.SYSTEM.norm>
0

>  <SCORE.heavy>
12

>  <SCORE.norm>
-0.653082

>  <RMSD>
3.204

$$$$
ligand
 OpenBabel11021811433D
libRbt.so/2013.1/901 2013/11/27
 12 12  0  0  0  0  0  0  0  0999 V2000
   47.4298   14.6681   10.8797 O   0  0  0  0  0  0  0  0  0  0  0  0
   44.8066   12.1036   15.6943 O   0  0  0  0  0  0  0  0  0  0  0  0
   46.6407   13.9238    9.9030 C   0  0  0  0  0  0  0  0  0  0  0  0
   44.8337   13.6243   13.7537 O   0  0  0  0  0  0  0  0  0  0  0  0
   46.2996   12.4978   10.4249 C   0  0  0  0  0  0  0  0  0  0  0  0
   43.6867   12.0558   14.0920 O   0  0  0  0  0  0  0  0  0  0  0  0
   46.8802   12.3266   11.8016 N   0  0  0  0  0  0  0  0  0  0  0  0
   48.3581   12.5478   11.7754 C   0  0  0  0  0  0  0  0  0  0  0  0
   48.6636   13.9545   11.1872 C   0  0  0  0  0  0  0  0  0  0  0  0
   46.5938   10.9615   12.3660 C   0  0  0  0  0  0  0  0  0  0  0  0
   45.2323   10.9342   13.1019 C   0  0  0  0  0  0  0  0  0  0  0  0
   45.1128   12.2863   14.2968 S   0  0  0  0  0  0  0  0  0  0  0  0
  1  3  1  0  0  0  0
  1  9  1  0  0  0  0
  2 12  1  0  0  0  0
  3  5  1  0  0  0  0
  4 12  2  0  0  0  0
  5  7  1  0  0  0  0
  6 12  2  0  0  0  0
  7  8  1  0  0  0  0
  7 10  1  0  0  0  0
  8  9  1  0  0  0  0
 10 11  1  0  0  0  0
 11 12  1  0  0  0  0
M  END
>  <CHROM.1>
-87.52809385,-50.97883573,-125.45236226,46.06788993,12.64117210,12.65952974
0.41775847,0.87018219,-0.15268701

>  <Name>
ligand

>  <RI>
0

>  <Rbt.Current_Directory>
/home/itssahil/PROJECTS/Mol_Feturizer/New_Systems/rnas/2HO6

>  <Rbt.Executable>
rbdock ($Id: //depot/dev/client3/rdock/2013.1/src/exe/rbdock.cxx#4 $)

>  <Rbt.Library>
libRbt.so (2013.1, Build901 2013/11/27)

>  <Rbt.Parameter_File>
/export/apps/rDock/src/rDock_2013.1_src/data/scripts/dock_solv.prm

>  <Rbt.Receptor>
prm/pocket_docking_3.prm

>  <SCORE>
-7.77694

>  <SCORE.INTER>
-7.05274

>  <SCORE.INTER.CONST>
1

>  <SCORE.INTER.POLAR>
0

>  <SCORE.INTER.ROT>
3

>  <SCORE.INTER.SOLV>
5.09259

>  <SCORE.INTER.VDW>
-11.9994

>  <SCORE.INTER.norm>
-0.587728

>  <SCORE.INTRA>
-0.724202

>  <SCORE.INTRA.DIHEDRAL>
1.33719

>  <SCORE.INTRA.DIHEDRAL.0>
1.88407

>  <SCORE.INTRA.POLAR>
0

>  <SCORE.INTRA.POLAR.0>
0

>  <SCORE.INTRA.REPUL>
0

>  <SCORE.INTRA.REPUL.0>
0

>  <SCORE.INTRA.SOLV>
0.884623

>  <SCORE.INTRA.SOLV.lig_0>
-10.2714

>  <SCORE.INTRA.VDW>
-1.83511

>  <SCORE.INTRA.VDW.0>
0.416923

>  <SCORE.INTRA.norm>
-0.0603502

>  <SCORE.RESTR>
0

>  <SCORE.RESTR.CAVITY>
0

>  <SCORE.RESTR.norm>
0

>  <SCORE.SYSTEM>
0

>  <SCORE.SYSTEM.CONST>
0

>  <SCORE.SYSTEM.DIHEDRAL>
0

>  <SCORE.SYSTEM.SOLV>
0

>  <SCORE.SYSTEM.norm>
0

>  <SCORE.heavy>
12

>  <SCORE.norm>
-0.648078

>  <RMSD>
3.220

$$$$
ligand
 OpenBabel11021811433D
libRbt.so/2013.1/901 2013/11/27
 12 12  0  0  0  0  0  0  0  0999 V2000
   48.5148   12.9460   11.2951 O   0  0  0  0  0  0  0  0  0  0  0  0
   45.1580   13.2932   13.4835 O   0  0  0  0  0  0  0  0  0  0  0  0
   47.6665   12.8501   10.1111 C   0  0  0  0  0  0  0  0  0  0  0  0
   44.3497   12.2475   15.5650 O   0  0  0  0  0  0  0  0  0  0  0  0
   46.4673   11.8884   10.3550 C   0  0  0  0  0  0  0  0  0  0  0  0
   46.0690   11.9983   14.6313 O   0  0  0  0  0  0  0  0  0  0  0  0
   46.5405   11.3585   11.7606 N   0  0  0  0  0  0  0  0  0  0  0  0
   47.8419   10.6595   11.9871 C   0  0  0  0  0  0  0  0  0  0  0  0
   49.0157   11.6291   11.6702 C   0  0  0  0  0  0  0  0  0  0  0  0
   45.4108   10.4119   12.0633 C   0  0  0  0  0  0  0  0  0  0  0  0
   45.0619   10.4205   13.5713 C   0  0  0  0  0  0  0  0  0  0  0  0
   44.6973   12.0966   14.1439 S   0  0  0  0  0  0  0  0  0  0  0  0
  1  3  1  0  0  0  0
  1  9  1  0  0  0  0
  2 12  1  0  0  0  0
  3  5  1  0  0  0  0
  4 12  2  0  0  0  0
  5  7  1  0  0  0  0
  6 12  2  0  0  0  0
  7  8  1  0  0  0  0
  7 10  1  0  0  0  0
  8  9  1  0  0  0  0
 10 11  1  0  0  0  0
 11 12  1  0  0  0  0
M  END
>  <CHROM.1>
-151.84885399,55.09130655,-22.54023682,46.22609449,11.87537364,12.74927635
-0.39685949,0.76461174,0.55194632

>  <Name>
ligand

>  <RI>
0

>  <Rbt.Current_Directory>
/home/itssahil/PROJECTS/Mol_Feturizer/New_Systems/rnas/2HO6

>  <Rbt.Executable>
rbdock ($Id: //depot/dev/client3/rdock/2013.1/src/exe/rbdock.cxx#4 $)

>  <Rbt.Library>
libRbt.so (2013.1, Build901 2013/11/27)

>  <Rbt.Parameter_File>
/export/apps/rDock/src/rDock_2013.1_src/data/scripts/dock_solv.prm

>  <Rbt.Receptor>
prm/pocket_docking_3.prm

>  <SCORE>
-7.40999

>  <SCORE.INTER>
-6.28547

>  <SCORE.INTER.CONST>
1

>  <SCORE.INTER.POLAR>
0

>  <SCORE.INTER.ROT>
3

>  <SCORE.INTER.SOLV>
7.71476

>  <SCORE.INTER.VDW>
-12.3619

>  <SCORE.INTER.norm>
-0.52379

>  <SCORE.INTRA>
-1.12451

>  <SCORE.INTRA.DIHEDRAL>
0.948636

>  <SCORE.INTRA.DIHEDRAL.0>
1.88407

>  <SCORE.INTRA.POLAR>
0

>  <SCORE.INTRA.POLAR.0>
0

>  <SCORE.INTRA.REPUL>
0

>  <SCORE.INTRA.REPUL.0>
0

>  <SCORE.INTRA.SOLV>
0.580295

>  <SCORE.INTRA.SOLV.lig_0>
-10.2714

>  <SCORE.INTRA.VDW>
-1.88898

>  <SCORE.INTRA.VDW.0>
0.416923

>  <SCORE.INTRA.norm>
-0.0937094

>  <SCORE.RESTR>
0

>  <SCORE.RESTR.CAVITY>
0

>  <SCORE.RESTR.norm>
0

>  <SCORE.SYSTEM>
0

>  <SCORE.SYSTEM.CONST>
0

>  <SCORE.SYSTEM.DIHEDRAL>
0

>  <SCORE.SYSTEM.SOLV>
0

>  <SCORE.SYSTEM.norm>
0

>  <SCORE.heavy>
12

>  <SCORE.norm>
-0.617499

>  <RMSD>
3.376

$$$$
ligand
 OpenBabel11021811433D
libRbt.so/2013.1/901 2013/11/27
 12 12  0  0  0  0  0  0  0  0999 V2000
   49.1083   11.9658   11.2299 O   0  0  0  0  0  0  0  0  0  0  0  0
   45.1180   10.3085   14.1594 O   0  0  0  0  0  0  0  0  0  0  0  0
   48.5497   12.3507    9.9375 C   0  0  0  0  0  0  0  0  0  0  0  0
   44.8962   12.2744   15.6308 O   0  0  0  0  0  0  0  0  0  0  0  0
   46.9991   12.4645   10.0064 C   0  0  0  0  0  0  0  0  0  0  0  0
   43.6273   11.5665   14.2971 O   0  0  0  0  0  0  0  0  0  0  0  0
   46.5457   12.1560   11.4069 N   0  0  0  0  0  0  0  0  0  0  0  0
   47.0010   10.7919   11.8136 C   0  0  0  0  0  0  0  0  0  0  0  0
   48.5462   10.6941   11.6688 C   0  0  0  0  0  0  0  0  0  0  0  0
   45.0496   12.2400   11.5440 C   0  0  0  0  0  0  0  0  0  0  0  0
   44.6458   12.8534   12.9065 C   0  0  0  0  0  0  0  0  0  0  0  0
   45.0750   11.7459   14.2701 S   0  0  0  0  0  0  0  0  0  0  0  0
  1  3  1  0  0  0  0
  1  9  1  0  0  0  0
  2 12  1  0  0  0  0
  3  5  1  0  0  0  0
  4 12  2  0  0  0  0
  5  7  1  0  0  0  0
  6 12  2  0  0  0  0
  7  8  1  0  0  0  0
  7 10  1  0  0  0  0
  8  9  1  0  0  0  0
 10 11  1  0  0  0  0
 11 12  1  0  0  0  0
M  END
>  <CHROM.1>
-142.04979782,-67.61440566,-29.79235878,46.12969646,11.77031187,12.63693511
-0.73391141,-0.39534606,2.01729773

>  <Name>
ligand

>  <RI>
0

>  <Rbt.Current_Directory>
/home/itssahil/PROJECTS/Mol_Feturizer/New_Systems/rnas/2HO6

>  <Rbt.Executable>
rbdock ($Id: //depot/dev/client3/rdock/2013.1/src/exe/rbdock.cxx#4 $)

>  <Rbt.Library>
libRbt.so (2013.1, Build901 2013/11/27)

>  <Rbt.Parameter_File>
/export/apps/rDock/src/rDock_2013.1_src/data/scripts/dock_solv.prm

>  <Rbt.Receptor>
prm/pocket_docking_3.prm

>  <SCORE>
-5.83559

>  <SCORE.INTER>
-5.23983

>  <SCORE.INTER.CONST>
1

>  <SCORE.INTER.POLAR>
0

>  <SCORE.INTER.ROT>
3

>  <SCORE.INTER.SOLV>
5.37885

>  <SCORE.INTER.VDW>
-10.8862

>  <SCORE.INTER.norm>
-0.436653

>  <SCORE.INTRA>
-0.595758

>  <SCORE.INTRA.DIHEDRAL>
1.66837

>  <SCORE.INTRA.DIHEDRAL.0>
1.88407

>  <SCORE.INTRA.POLAR>
0

>  <SCORE.INTRA.POLAR.0>
0

>  <SCORE.INTRA.REPUL>
0

>  <SCORE.INTRA.REPUL.0>
0

>  <SCORE.INTRA.SOLV>
0.0976477

>  <SCORE.INTRA.SOLV.lig_0>
-10.2714

>  <SCORE.INTRA.VDW>
-1.47877

>  <SCORE.INTRA.VDW.0>
0.416923

>  <SCORE.INTRA.norm>
-0.0496465

>  <SCORE.RESTR>
0

>  <SCORE.RESTR.CAVITY>
0

>  <SCORE.RESTR.norm>
0

>  <SCORE.SYSTEM>
0

>  <SCORE.SYSTEM.CONST>
0

>  <SCORE.SYSTEM.DIHEDRAL>
0

>  <SCORE.SYSTEM.SOLV>
0

>  <SCORE.SYSTEM.norm>
0

>  <SCORE.heavy>
12

>  <SCORE.norm>
-0.486299

>  <RMSD>
3.380

$$$$
ligand
 OpenBabel11021811433D
libRbt.so/2013.1/901 2013/11/27
 12 12  0  0  0  0  0  0  0  0999 V2000
   47.6627   14.1804   11.2737 O   0  0  0  0  0  0  0  0  0  0  0  0
   44.7897   13.3764   13.7344 O   0  0  0  0  0  0  0  0  0  0  0  0
   46.8660   13.9076   10.0814 C   0  0  0  0  0  0  0  0  0  0  0  0
   44.1611   11.8876   15.5965 O   0  0  0  0  0  0  0  0  0  0  0  0
   46.0078   12.6217   10.2605 C   0  0  0  0  0  0  0  0  0  0  0  0
   45.9108   12.1081   14.7134 O   0  0  0  0  0  0  0  0  0  0  0  0
   46.2518   12.0554   11.6323 N   0  0  0  0  0  0  0  0  0  0  0  0
   47.7044   11.7606   11.8237 C   0  0  0  0  0  0  0  0  0  0  0  0
   48.5351   13.0509   11.5720 C   0  0  0  0  0  0  0  0  0  0  0  0
   45.4562   10.8008   11.8715 C   0  0  0  0  0  0  0  0  0  0  0  0
   45.2361   10.5573   13.3841 C   0  0  0  0  0  0  0  0  0  0  0  0
   44.5529   12.0272   14.1859 S   0  0  0  0  0  0  0  0  0  0  0  0
  1  3  1  0  0  0  0
  1  9  1  0  0  0  0
  2 12  1  0  0  0  0
  3  5  1  0  0  0  0
  4 12  2  0  0  0  0
  5  7  1  0  0  0  0
  6 12  2  0  0  0  0
  7  8  1  0  0  0  0
  7 10  1  0  0  0  0
  8  9  1  0  0  0  0
 10 11  1  0  0  0  0
 11 12  1  0  0  0  0
M  END
>  <CHROM.1>
-156.38725394,51.85980971,-28.87159130,45.93256869,12.35159669,12.71998177
-0.28366484,0.94385419,0.68177401

>  <Name>
ligand

>  <RI>
0

>  <Rbt.Current_Directory>
/home/itssahil/PROJECTS/Mol_Feturizer/New_Systems/rnas/2HO6

>  <Rbt.Executable>
rbdock ($Id: //depot/dev/client3/rdock/2013.1/src/exe/rbdock.cxx#4 $)

>  <Rbt.Library>
libRbt.so (2013.1, Build901 2013/11/27)

>  <Rbt.Parameter_File>
/export/apps/rDock/src/rDock_2013.1_src/data/scripts/dock_solv.prm

>  <Rbt.Receptor>
prm/pocket_docking_3.prm

>  <SCORE>
-7.3796

>  <SCORE.INTER>
-6.18207

>  <SCORE.INTER.CONST>
1

>  <SCORE.INTER.POLAR>
0

>  <SCORE.INTER.ROT>
3

>  <SCORE.INTER.SOLV>
6.83225

>  <SCORE.INTER.VDW>
-11.9988

>  <SCORE.INTER.norm>
-0.515173

>  <SCORE.INTRA>
-1.19753

>  <SCORE.INTRA.DIHEDRAL>
0.822114

>  <SCORE.INTRA.DIHEDRAL.0>
1.88407

>  <SCORE.INTRA.POLAR>
0

>  <SCORE.INTRA.POLAR.0>
0

>  <SCORE.INTRA.REPUL>
0

>  <SCORE.INTRA.REPUL.0>
0

>  <SCORE.INTRA.SOLV>
0.514529

>  <SCORE.INTRA.SOLV.lig_0>
-10.2714

>  <SCORE.INTRA.VDW>
-1.86585

>  <SCORE.INTRA.VDW.0>
0.416923

>  <SCORE.INTRA.norm>
-0.0997941

>  <SCORE.RESTR>
0

>  <SCORE.RESTR.CAVITY>
0

>  <SCORE.RESTR.norm>
0

>  <SCORE.SYSTEM>
0

>  <SCORE.SYSTEM.CONST>
0

>  <SCORE.SYSTEM.DIHEDRAL>
0

>  <SCORE.SYSTEM.SOLV>
0

>  <SCORE.SYSTEM.norm>
0

>  <SCORE.heavy>
12

>  <SCORE.norm>
-0.614967

>  <RMSD>
3.381

$$$$
ligand
 OpenBabel11021811433D
libRbt.so/2013.1/901 2013/11/27
 12 12  0  0  0  0  0  0  0  0999 V2000
   47.8393   13.4950   10.1567 O   0  0  0  0  0  0  0  0  0  0  0  0
   44.9636   12.3246   15.5535 O   0  0  0  0  0  0  0  0  0  0  0  0
   47.9624   12.2323    9.4349 C   0  0  0  0  0  0  0  0  0  0  0  0
   45.0147   13.7319   13.5295 O   0  0  0  0  0  0  0  0  0  0  0  0
   47.3311   11.0601   10.2409 C   0  0  0  0  0  0  0  0  0  0  0  0
   43.6528   12.4269   14.1060 O   0  0  0  0  0  0  0  0  0  0  0  0
   46.7641   11.5969   11.5263 N   0  0  0  0  0  0  0  0  0  0  0  0
   47.8297   12.2801   12.3209 C   0  0  0  0  0  0  0  0  0  0  0  0
   48.4825   13.3999   11.4617 C   0  0  0  0  0  0  0  0  0  0  0  0
   46.1422   10.5113   12.3623 C   0  0  0  0  0  0  0  0  0  0  0  0
   44.8207   10.9910   13.0098 C   0  0  0  0  0  0  0  0  0  0  0  0
   45.1113   12.3885   14.1202 S   0  0  0  0  0  0  0  0  0  0  0  0
  1  3  1  0  0  0  0
  1  9  1  0  0  0  0
  2 12  1  0  0  0  0
  3  5  1  0  0  0  0
  4 12  2  0  0  0  0
  5  7  1  0  0  0  0
  6 12  2  0  0  0  0
  7  8  1  0  0  0  0
  7 10  1  0  0  0  0
  8  9  1  0  0  0  0
 10 11  1  0  0  0  0
 11 12  1  0  0  0  0
M  END
>  <CHROM.1>
-139.22802978,-61.68933766,-111.89468613,46.17439140,12.25262299,12.52725599
-0.38827570,0.82165073,0.51725166

>  <Name>
ligand

>  <RI>
0

>  <Rbt.Current_Directory>
/home/itssahil/PROJECTS/Mol_Feturizer/New_Systems/rnas/2HO6

>  <Rbt.Executable>
rbdock ($Id: //depot/dev/client3/rdock/2013.1/src/exe/rbdock.cxx#4 $)

>  <Rbt.Library>
libRbt.so (2013.1, Build901 2013/11/27)

>  <Rbt.Parameter_File>
/export/apps/rDock/src/rDock_2013.1_src/data/scripts/dock_solv.prm

>  <Rbt.Receptor>
prm/pocket_docking_3.prm

>  <SCORE>
-7.99011

>  <SCORE.INTER>
-7.47071

>  <SCORE.INTER.CONST>
1

>  <SCORE.INTER.POLAR>
0

>  <SCORE.INTER.ROT>
3

>  <SCORE.INTER.SOLV>
5.59896

>  <SCORE.INTER.VDW>
-12.4468

>  <SCORE.INTER.norm>
-0.622559

>  <SCORE.INTRA>
-0.519395

>  <SCORE.INTRA.DIHEDRAL>
1.74134

>  <SCORE.INTRA.DIHEDRAL.0>
1.88407

>  <SCORE.INTRA.POLAR>
0

>  <SCORE.INTRA.POLAR.0>
0

>  <SCORE.INTRA.REPUL>
0

>  <SCORE.INTRA.REPUL.0>
0

>  <SCORE.INTRA.SOLV>
0.701152

>  <SCORE.INTRA.SOLV.lig_0>
-10.2714

>  <SCORE.INTRA.VDW>
-1.74064

>  <SCORE.INTRA.VDW.0>
0.416923

>  <SCORE.INTRA.norm>
-0.0432829

>  <SCORE.RESTR>
0

>  <SCORE.RESTR.CAVITY>
0

>  <SCORE.RESTR.norm>
0

>  <SCORE.SYSTEM>
0

>  <SCORE.SYSTEM.CONST>
0

>  <SCORE.SYSTEM.DIHEDRAL>
0

>  <SCORE.SYSTEM.SOLV>
0

>  <SCORE.SYSTEM.norm>
0

>  <SCORE.heavy>
12

>  <SCORE.norm>
-0.665842

>  <RMSD>
3.393

$$$$
ligand
 OpenBabel11021811433D
libRbt.so/2013.1/901 2013/11/27
 12 12  0  0  0  0  0  0  0  0999 V2000
   47.8563   13.4762   10.1702 O   0  0  0  0  0  0  0  0  0  0  0  0
   44.9947   12.2993   15.5658 O   0  0  0  0  0  0  0  0  0  0  0  0
   47.9565   12.2160    9.4405 C   0  0  0  0  0  0  0  0  0  0  0  0
   44.9795   13.7379   13.5634 O   0  0  0  0  0  0  0  0  0  0  0  0
   47.3067   11.0498   10.2404 C   0  0  0  0  0  0  0  0  0  0  0  0
   43.6450   12.4118   14.1553 O   0  0  0  0  0  0  0  0  0  0  0  0
   46.7513   11.5884   11.5301 N   0  0  0  0  0  0  0  0  0  0  0  0
   47.8298   12.2484   12.3269 C   0  0  0  0  0  0  0  0  0  0  0  0
   48.5001   13.3621   11.4734 C   0  0  0  0  0  0  0  0  0  0  0  0
   46.1125   10.5084   12.3607 C   0  0  0  0  0  0  0  0  0  0  0  0
   44.7958   11.0037   13.0063 C   0  0  0  0  0  0  0  0  0  0  0  0
   45.1036   12.3865   14.1303 S   0  0  0  0  0  0  0  0  0  0  0  0
  1  3  1  0  0  0  0
  1  9  1  0  0  0  0
  2 12  1  0  0  0  0
  3  5  1  0  0  0  0
  4 12  2  0  0  0  0
  5  7  1  0  0  0  0
  6 12  2  0  0  0  0
  7  8  1  0  0  0  0
  7 10  1  0  0  0  0
  8  9  1  0  0  0  0
 10 11  1  0  0  0  0
 11 12  1  0  0  0  0
M  END
>  <CHROM.1>
-138.86342806,-62.04440255,-109.56590251,46.16777145,12.24108630,12.53945981
-0.40756539,0.81427239,0.53946615

>  <Name>
ligand

>  <RI>
0

>  <Rbt.Current_Directory>
/home/itssahil/PROJECTS/Mol_Feturizer/New_Systems/rnas/2HO6

>  <Rbt.Executable>
rbdock ($Id: //depot/dev/client3/rdock/2013.1/src/exe/rbdock.cxx#4 $)

>  <Rbt.Library>
libRbt.so (2013.1, Build901 2013/11/27)

>  <Rbt.Parameter_File>
/export/apps/rDock/src/rDock_2013.1_src/data/scripts/dock_solv.prm

>  <Rbt.Receptor>
prm/pocket_docking_3.prm

>  <SCORE>
-7.99668

>  <SCORE.INTER>
-7.47367

>  <SCORE.INTER.CONST>
1

>  <SCORE.INTER.POLAR>
0

>  <SCORE.INTER.ROT>
3

>  <SCORE.INTER.SOLV>
5.64969

>  <SCORE.INTER.VDW>
-12.4657

>  <SCORE.INTER.norm>
-0.622806

>  <SCORE.INTRA>
-0.52302

>  <SCORE.INTRA.DIHEDRAL>
1.77343

>  <SCORE.INTRA.DIHEDRAL.0>
1.88407

>  <SCORE.INTRA.POLAR>
0

>  <SCORE.INTRA.POLAR.0>
0

>  <SCORE.INTRA.REPUL>
0

>  <SCORE.INTRA.REPUL.0>
0

>  <SCORE.INTRA.SOLV>
0.662374

>  <SCORE.INTRA.SOLV.lig_0>
-10.2714

>  <SCORE.INTRA.VDW>
-1.74092

>  <SCORE.INTRA.VDW.0>
0.416923

>  <SCORE.INTRA.norm>
-0.043585

>  <SCORE.RESTR>
1.31437e-05

>  <SCORE.RESTR.CAVITY>
1.31437e-05

>  <SCORE.RESTR.norm>
1.09531e-06

>  <SCORE.SYSTEM>
0

>  <SCORE.SYSTEM.CONST>
0

>  <SCORE.SYSTEM.DIHEDRAL>
0

>  <SCORE.SYSTEM.SOLV>
0

>  <SCORE.SYSTEM.norm>
0

>  <SCORE.heavy>
12

>  <SCORE.norm>
-0.66639

>  <RMSD>
3.400

$$$$
ligand
 OpenBabel11021811433D
libRbt.so/2013.1/901 2013/11/27
 12 12  0  0  0  0  0  0  0  0999 V2000
   47.5937   13.6134   10.1340 O   0  0  0  0  0  0  0  0  0  0  0  0
   44.9143   12.3129   15.5873 O   0  0  0  0  0  0  0  0  0  0  0  0
   47.7020   12.3851    9.3528 C   0  0  0  0  0  0  0  0  0  0  0  0
   45.2166   13.6061   13.5100 O   0  0  0  0  0  0  0  0  0  0  0  0
   47.2000   11.1560   10.1649 C   0  0  0  0  0  0  0  0  0  0  0  0
   43.7468   12.3941   14.0207 O   0  0  0  0  0  0  0  0  0  0  0  0
   46.7343   11.6183   11.5182 N   0  0  0  0  0  0  0  0  0  0  0  0
   47.8399   12.3204   12.2381 C   0  0  0  0  0  0  0  0  0  0  0  0
   48.3605   13.5001   11.3689 C   0  0  0  0  0  0  0  0  0  0  0  0
   46.2409   10.4750   12.3629 C   0  0  0  0  0  0  0  0  0  0  0  0
   44.9391   10.8523   13.1104 C   0  0  0  0  0  0  0  0  0  0  0  0
   45.1945   12.2934   14.1727 S   0  0  0  0  0  0  0  0  0  0  0  0
  1  3  1  0  0  0  0
  1  9  1  0  0  0  0
  2 12  1  0  0  0  0
  3  5  1  0  0  0  0
  4 12  2  0  0  0  0
  5  7  1  0  0  0  0
  6 12  2  0  0  0  0
  7  8  1  0  0  0  0
  7 10  1  0  0  0  0
  8  9  1  0  0  0  0
 10 11  1  0  0  0  0
 11 12  1  0  0  0  0
M  END
>  <CHROM.1>
-137.22566396,-58.71081944,-124.61309711,46.16540469,12.24966041,12.51083372
-0.34876918,0.89385720,0.49571941

>  <Name>
ligand

>  <RI>
0

>  <Rbt.Current_Directory>
/home/itssahil/PROJECTS/Mol_Feturizer/New_Systems/rnas/2HO6

>  <Rbt.Executable>
rbdock ($Id: //depot/dev/client3/rdock/2013.1/src/exe/rbdock.cxx#4 $)

>  <Rbt.Library>
libRbt.so (2013.1, Build901 2013/11/27)

>  <Rbt.Parameter_File>
/export/apps/rDock/src/rDock_2013.1_src/data/scripts/dock_solv.prm

>  <Rbt.Receptor>
prm/pocket_docking_4.prm

>  <SCORE>
-8.09445

>  <SCORE.INTER>
-7.62232

>  <SCORE.INTER.CONST>
1

>  <SCORE.INTER.POLAR>
0

>  <SCORE.INTER.ROT>
3

>  <SCORE.INTER.SOLV>
5.70629

>  <SCORE.INTER.VDW>
-12.5836

>  <SCORE.INTER.norm>
-0.635193

>  <SCORE.INTRA>
-0.472129

>  <SCORE.INTRA.DIHEDRAL>
1.79675

>  <SCORE.INTRA.DIHEDRAL.0>
1.88407

>  <SCORE.INTRA.POLAR>
0

>  <SCORE.INTRA.POLAR.0>
0

>  <SCORE.INTRA.REPUL>
0

>  <SCORE.INTRA.REPUL.0>
0

>  <SCORE.INTRA.SOLV>
0.910505

>  <SCORE.INTRA.SOLV.lig_0>
-10.2714

>  <SCORE.INTRA.VDW>
-1.82576

>  <SCORE.INTRA.VDW.0>
0.416923

>  <SCORE.INTRA.norm>
-0.0393441

>  <SCORE.RESTR>
0

>  <SCORE.RESTR.CAVITY>
0

>  <SCORE.RESTR.norm>
0

>  <SCORE.SYSTEM>
0

>  <SCORE.SYSTEM.CONST>
0

>  <SCORE.SYSTEM.DIHEDRAL>
0

>  <SCORE.SYSTEM.SOLV>
0

>  <SCORE.SYSTEM.norm>
0

>  <SCORE.heavy>
12

>  <SCORE.norm>
-0.674537

>  <RMSD>
3.422

$$$$
ligand
 OpenBabel11021811433D
libRbt.so/2013.1/901 2013/11/27
 12 12  0  0  0  0  0  0  0  0999 V2000
   48.9311    9.9596    9.4915 O   0  0  0  0  0  0  0  0  0  0  0  0
   44.7288   12.2525   15.5617 O   0  0  0  0  0  0  0  0  0  0  0  0
   49.7099    9.9663   10.7260 C   0  0  0  0  0  0  0  0  0  0  0  0
   44.4947   13.7394   13.6088 O   0  0  0  0  0  0  0  0  0  0  0  0
   49.0461   10.8705   11.8048 C   0  0  0  0  0  0  0  0  0  0  0  0
   44.1103   11.8108   13.7599 O   0  0  0  0  0  0  0  0  0  0  0  0
   47.7789   11.4549   11.2439 N   0  0  0  0  0  0  0  0  0  0  0  0
   48.0686   12.2306    9.9998 C   0  0  0  0  0  0  0  0  0  0  0  0
   48.7905   11.3144    8.9713 C   0  0  0  0  0  0  0  0  0  0  0  0
   47.0864   12.3500   12.2356 C   0  0  0  0  0  0  0  0  0  0  0  0
   46.1617   11.5368   13.1734 C   0  0  0  0  0  0  0  0  0  0  0  0
   45.2112   12.6300   14.2559 S   0  0  0  0  0  0  0  0  0  0  0  0
  1  3  1  0  0  0  0
  1  9  1  0  0  0  0
  2 12  1  0  0  0  0
  3  5  1  0  0  0  0
  4 12  2  0  0  0  0
  5  7  1  0  0  0  0
  6 12  2  0  0  0  0
  7  8  1  0  0  0  0
  7 10  1  0  0  0  0
  8  9  1  0  0  0  0
 10 11  1  0  0  0  0
 11 12  1  0  0  0  0
M  END
>  <CHROM.1>
-85.90903262,-174.49885874,-152.30067879,46.78412079,11.77562409,12.31457635
-0.49737769,-0.71057366,2.04815260

>  <Name>
ligand

>  <RI>
0

>  <Rbt.Current_Directory>
/home/itssahil/PROJECTS/Mol_Feturizer/New_Systems/rnas/2HO6

>  <Rbt.Executable>
rbdock ($Id: //depot/dev/client3/rdock/2013.1/src/exe/rbdock.cxx#4 $)

>  <Rbt.Library>
libRbt.so (2013.1, Build901 2013/11/27)

>  <Rbt.Parameter_File>
/export/apps/rDock/src/rDock_2013.1_src/data/scripts/dock_solv.prm

>  <Rbt.Receptor>
prm/pocket_docking_4.prm

>  <SCORE>
-7.84096

>  <SCORE.INTER>
-7.41436

>  <SCORE.INTER.CONST>
1

>  <SCORE.INTER.POLAR>
0

>  <SCORE.INTER.ROT>
3

>  <SCORE.INTER.SOLV>
4.59619

>  <SCORE.INTER.VDW>
-12.075

>  <SCORE.INTER.norm>
-0.617864

>  <SCORE.INTRA>
-0.426595

>  <SCORE.INTRA.DIHEDRAL>
0.979264

>  <SCORE.INTRA.DIHEDRAL.0>
1.88407

>  <SCORE.INTRA.POLAR>
0

>  <SCORE.INTRA.POLAR.0>
0

>  <SCORE.INTRA.REPUL>
0

>  <SCORE.INTRA.REPUL.0>
0

>  <SCORE.INTRA.SOLV>
0.109293

>  <SCORE.INTRA.SOLV.lig_0>
-10.2714

>  <SCORE.INTRA.VDW>
-0.970873

>  <SCORE.INTRA.VDW.0>
0.416923

>  <SCORE.INTRA.norm>
-0.0355496

>  <SCORE.RESTR>
0

>  <SCORE.RESTR.CAVITY>
0

>  <SCORE.RESTR.norm>
0

>  <SCORE.SYSTEM>
0

>  <SCORE.SYSTEM.CONST>
0

>  <SCORE.SYSTEM.DIHEDRAL>
0

>  <SCORE.SYSTEM.SOLV>
0

>  <SCORE.SYSTEM.norm>
0

>  <SCORE.heavy>
12

>  <SCORE.norm>
-0.653413

>  <RMSD>
3.432

$$$$
ligand
 OpenBabel11021811433D
libRbt.so/2013.1/901 2013/11/27
 12 12  0  0  0  0  0  0  0  0999 V2000
   48.1526   13.4612   11.4633 O   0  0  0  0  0  0  0  0  0  0  0  0
   45.0328   12.3580   15.6353 O   0  0  0  0  0  0  0  0  0  0  0  0
   47.3796   13.2890   10.2371 C   0  0  0  0  0  0  0  0  0  0  0  0
   43.3879   12.6099   13.8159 O   0  0  0  0  0  0  0  0  0  0  0  0
   46.2936   12.1873   10.4070 C   0  0  0  0  0  0  0  0  0  0  0  0
   43.6712   11.0879   15.0379 O   0  0  0  0  0  0  0  0  0  0  0  0
   46.3620   11.6418   11.8069 N   0  0  0  0  0  0  0  0  0  0  0  0
   47.7252   11.0976   12.0883 C   0  0  0  0  0  0  0  0  0  0  0  0
   48.7886   12.2057   11.8443 C   0  0  0  0  0  0  0  0  0  0  0  0
   45.3401   10.5620   12.0393 C   0  0  0  0  0  0  0  0  0  0  0  0
   45.0526   10.3789   13.5491 C   0  0  0  0  0  0  0  0  0  0  0  0
   44.6026   11.9516   14.3200 S   0  0  0  0  0  0  0  0  0  0  0  0
  1  3  1  0  0  0  0
  1  9  1  0  0  0  0
  2 12  1  0  0  0  0
  3  5  1  0  0  0  0
  4 12  2  0  0  0  0
  5  7  1  0  0  0  0
  6 12  2  0  0  0  0
  7  8  1  0  0  0  0
  7 10  1  0  0  0  0
  8  9  1  0  0  0  0
 10 11  1  0  0  0  0
 11 12  1  0  0  0  0
M  END
>  <CHROM.1>
-158.98689184,53.36673205,-140.84971873,45.81681080,11.92651822,12.89160145
-0.59239688,0.57404713,1.10982348

>  <Name>
ligand

>  <RI>
0

>  <Rbt.Current_Directory>
/home/itssahil/PROJECTS/Mol_Feturizer/New_Systems/rnas/2HO6

>  <Rbt.Executable>
rbdock ($Id: //depot/dev/client3/rdock/2013.1/src/exe/rbdock.cxx#4 $)

>  <Rbt.Library>
libRbt.so (2013.1, Build901 2013/11/27)

>  <Rbt.Parameter_File>
/export/apps/rDock/src/rDock_2013.1_src/data/scripts/dock_solv.prm

>  <Rbt.Receptor>
prm/pocket_docking_3.prm

>  <SCORE>
-7.23935

>  <SCORE.INTER>
-6.49426

>  <SCORE.INTER.CONST>
1

>  <SCORE.INTER.POLAR>
0

>  <SCORE.INTER.ROT>
3

>  <SCORE.INTER.SOLV>
5.63297

>  <SCORE.INTER.VDW>
-11.8072

>  <SCORE.INTER.norm>
-0.541188

>  <SCORE.INTRA>
-0.745085

>  <SCORE.INTRA.DIHEDRAL>
0.60894

>  <SCORE.INTRA.DIHEDRAL.0>
1.88407

>  <SCORE.INTRA.POLAR>
0

>  <SCORE.INTRA.POLAR.0>
0

>  <SCORE.INTRA.REPUL>
0

>  <SCORE.INTRA.REPUL.0>
0

>  <SCORE.INTRA.SOLV>
0.498542

>  <SCORE.INTRA.SOLV.lig_0>
-10.2714

>  <SCORE.INTRA.VDW>
-1.29883

>  <SCORE.INTRA.VDW.0>
0.416923

>  <SCORE.INTRA.norm>
-0.0620904

>  <SCORE.RESTR>
0

>  <SCORE.RESTR.CAVITY>
0

>  <SCORE.RESTR.norm>
0

>  <SCORE.SYSTEM>
0

>  <SCORE.SYSTEM.CONST>
0

>  <SCORE.SYSTEM.DIHEDRAL>
0

>  <SCORE.SYSTEM.SOLV>
0

>  <SCORE.SYSTEM.norm>
0

>  <SCORE.heavy>
12

>  <SCORE.norm>
-0.603279

>  <RMSD>
3.461

$$$$
ligand
 OpenBabel11021811433D
libRbt.so/2013.1/901 2013/11/27
 12 12  0  0  0  0  0  0  0  0999 V2000
   47.3200   13.5948    9.7387 O   0  0  0  0  0  0  0  0  0  0  0  0
   44.9514   12.3439   15.5462 O   0  0  0  0  0  0  0  0  0  0  0  0
   47.7705   12.3178    9.1938 C   0  0  0  0  0  0  0  0  0  0  0  0
   44.9743   13.6618   13.4625 O   0  0  0  0  0  0  0  0  0  0  0  0
   47.4443   11.1458   10.1644 C   0  0  0  0  0  0  0  0  0  0  0  0
   43.7076   12.2644   14.0394 O   0  0  0  0  0  0  0  0  0  0  0  0
   46.7396   11.6925   11.3754 N   0  0  0  0  0  0  0  0  0  0  0  0
   47.5846   12.7254   12.0482 C   0  0  0  0  0  0  0  0  0  0  0  0
   47.9457   13.8454   11.0316 C   0  0  0  0  0  0  0  0  0  0  0  0
   46.4001   10.6100   12.3639 C   0  0  0  0  0  0  0  0  0  0  0  0
   45.0495   10.8949   13.0643 C   0  0  0  0  0  0  0  0  0  0  0  0
   45.1613   12.3593   14.1194 S   0  0  0  0  0  0  0  0  0  0  0  0
  1  3  1  0  0  0  0
  1  9  1  0  0  0  0
  2 12  1  0  0  0  0
  3  5  1  0  0  0  0
  4 12  2  0  0  0  0
  5  7  1  0  0  0  0
  6 12  2  0  0  0  0
  7  8  1  0  0  0  0
  7 10  1  0  0  0  0
  8  9  1  0  0  0  0
 10 11  1  0  0  0  0
 11 12  1  0  0  0  0
M  END
>  <CHROM.1>
-144.61075636,-66.77084448,-118.72637328,46.11129144,12.32223148,12.40057642
-0.11796588,0.97211034,0.20675294

>  <Name>
ligand

>  <RI>
0

>  <Rbt.Current_Directory>
/home/itssahil/PROJECTS/Mol_Feturizer/New_Systems/rnas/2HO6

>  <Rbt.Executable>
rbdock ($Id: //depot/dev/client3/rdock/2013.1/src/exe/rbdock.cxx#4 $)

>  <Rbt.Library>
libRbt.so (2013.1, Build901 2013/11/27)

>  <Rbt.Parameter_File>
/export/apps/rDock/src/rDock_2013.1_src/data/scripts/dock_solv.prm

>  <Rbt.Receptor>
prm/pocket_docking_4.prm

>  <SCORE>
-8.02892

>  <SCORE.INTER>
-7.63706

>  <SCORE.INTER.CONST>
1

>  <SCORE.INTER.POLAR>
0

>  <SCORE.INTER.ROT>
3

>  <SCORE.INTER.SOLV>
5.2782

>  <SCORE.INTER.VDW>
-12.4508

>  <SCORE.INTER.norm>
-0.636422

>  <SCORE.INTRA>
-0.391856

>  <SCORE.INTRA.DIHEDRAL>
1.56278

>  <SCORE.INTRA.DIHEDRAL.0>
1.88407

>  <SCORE.INTRA.POLAR>
0

>  <SCORE.INTRA.POLAR.0>
0

>  <SCORE.INTRA.REPUL>
0

>  <SCORE.INTRA.REPUL.0>
0

>  <SCORE.INTRA.SOLV>
0.80898

>  <SCORE.INTRA.SOLV.lig_0>
-10.2714

>  <SCORE.INTRA.VDW>
-1.57774

>  <SCORE.INTRA.VDW.0>
0.416923

>  <SCORE.INTRA.norm>
-0.0326546

>  <SCORE.RESTR>
0

>  <SCORE.RESTR.CAVITY>
0

>  <SCORE.RESTR.norm>
0

>  <SCORE.SYSTEM>
0

>  <SCORE.SYSTEM.CONST>
0

>  <SCORE.SYSTEM.DIHEDRAL>
0

>  <SCORE.SYSTEM.SOLV>
0

>  <SCORE.SYSTEM.norm>
0

>  <SCORE.heavy>
12

>  <SCORE.norm>
-0.669077

>  <RMSD>
3.502

$$$$
ligand
 OpenBabel11021811433D
libRbt.so/2013.1/901 2013/11/27
 12 12  0  0  0  0  0  0  0  0999 V2000
   48.3616   13.0521    8.8404 O   0  0  0  0  0  0  0  0  0  0  0  0
   44.5911   10.4700   14.4976 O   0  0  0  0  0  0  0  0  0  0  0  0
   46.9621   13.4575    8.7525 C   0  0  0  0  0  0  0  0  0  0  0  0
   44.4828   12.7534   15.4215 O   0  0  0  0  0  0  0  0  0  0  0  0
   46.1327   12.8753    9.9337 C   0  0  0  0  0  0  0  0  0  0  0  0
   43.8961   12.0935   13.6579 O   0  0  0  0  0  0  0  0  0  0  0  0
   47.0425   12.0767   10.8261 N   0  0  0  0  0  0  0  0  0  0  0  0
   47.7079   10.9862   10.0505 C   0  0  0  0  0  0  0  0  0  0  0  0
   48.4710   11.5982    8.8417 C   0  0  0  0  0  0  0  0  0  0  0  0
   46.3016   11.4756   11.9897 C   0  0  0  0  0  0  0  0  0  0  0  0
   45.8951   12.5610   13.0156 C   0  0  0  0  0  0  0  0  0  0  0  0
   45.0875   11.8235   14.4558 S   0  0  0  0  0  0  0  0  0  0  0  0
  1  3  1  0  0  0  0
  1  9  1  0  0  0  0
  2 12  1  0  0  0  0
  3  5  1  0  0  0  0
  4 12  2  0  0  0  0
  5  7  1  0  0  0  0
  6 12  2  0  0  0  0
  7  8  1  0  0  0  0
  7 10  1  0  0  0  0
  8  9  1  0  0  0  0
 10 11  1  0  0  0  0
 11 12  1  0  0  0  0
M  END
>  <CHROM.1>
-71.61211671,-176.81523251,-14.33012726,46.09980733,12.07568597,12.00456119
0.64745188,0.90193197,-0.65969216

>  <Name>
ligand

>  <RI>
0

>  <Rbt.Current_Directory>
/home/itssahil/PROJECTS/Mol_Feturizer/New_Systems/rnas/2HO6

>  <Rbt.Executable>
rbdock ($Id: //depot/dev/client3/rdock/2013.1/src/exe/rbdock.cxx#4 $)

>  <Rbt.Library>
libRbt.so (2013.1, Build901 2013/11/27)

>  <Rbt.Parameter_File>
/export/apps/rDock/src/rDock_2013.1_src/data/scripts/dock_solv.prm

>  <Rbt.Receptor>
prm/pocket_docking_4.prm

>  <SCORE>
-7.87799

>  <SCORE.INTER>
-7.46532

>  <SCORE.INTER.CONST>
1

>  <SCORE.INTER.POLAR>
0

>  <SCORE.INTER.ROT>
3

>  <SCORE.INTER.SOLV>
6.57384

>  <SCORE.INTER.VDW>
-12.7682

>  <SCORE.INTER.norm>
-0.62211

>  <SCORE.INTRA>
-0.412674

>  <SCORE.INTRA.DIHEDRAL>
0.180249

>  <SCORE.INTRA.DIHEDRAL.0>
1.88407

>  <SCORE.INTRA.POLAR>
0

>  <SCORE.INTRA.POLAR.0>
0

>  <SCORE.INTRA.REPUL>
0

>  <SCORE.INTRA.REPUL.0>
0

>  <SCORE.INTRA.SOLV>
-0.000895215

>  <SCORE.INTRA.SOLV.lig_0>
-10.2714

>  <SCORE.INTRA.VDW>
-0.502351

>  <SCORE.INTRA.VDW.0>
0.416923

>  <SCORE.INTRA.norm>
-0.0343895

>  <SCORE.RESTR>
0

>  <SCORE.RESTR.CAVITY>
0

>  <SCORE.RESTR.norm>
0

>  <SCORE.SYSTEM>
0

>  <SCORE.SYSTEM.CONST>
0

>  <SCORE.SYSTEM.DIHEDRAL>
0

>  <SCORE.SYSTEM.SOLV>
0

>  <SCORE.SYSTEM.norm>
0

>  <SCORE.heavy>
12

>  <SCORE.norm>
-0.656499

>  <RMSD>
3.519

$$$$
ligand
 OpenBabel11021811433D
libRbt.so/2013.1/901 2013/11/27
 12 12  0  0  0  0  0  0  0  0999 V2000
   49.1342   10.7086   11.8004 O   0  0  0  0  0  0  0  0  0  0  0  0
   46.2443   11.9724   14.6403 O   0  0  0  0  0  0  0  0  0  0  0  0
   49.0322   12.1143   12.1802 C   0  0  0  0  0  0  0  0  0  0  0  0
   44.0576   13.0982   14.8133 O   0  0  0  0  0  0  0  0  0  0  0  0
   47.5833   12.6466   11.9819 C   0  0  0  0  0  0  0  0  0  0  0  0
   44.4569   11.1830   14.5635 O   0  0  0  0  0  0  0  0  0  0  0  0
   46.7156   11.5303   11.4693 N   0  0  0  0  0  0  0  0  0  0  0  0
   47.2662   10.9874   10.1903 C   0  0  0  0  0  0  0  0  0  0  0  0
   48.7352   10.5271   10.4098 C   0  0  0  0  0  0  0  0  0  0  0  0
   45.2967   11.9789   11.2467 C   0  0  0  0  0  0  0  0  0  0  0  0
   44.4016   11.6278   12.4597 C   0  0  0  0  0  0  0  0  0  0  0  0
   45.0338   12.3867   13.9745 S   0  0  0  0  0  0  0  0  0  0  0  0
  1  3  1  0  0  0  0
  1  9  1  0  0  0  0
  2 12  1  0  0  0  0
  3  5  1  0  0  0  0
  4 12  2  0  0  0  0
  5  7  1  0  0  0  0
  6 12  2  0  0  0  0
  7  8  1  0  0  0  0
  7 10  1  0  0  0  0
  8  9  1  0  0  0  0
 10 11  1  0  0  0  0
 11 12  1  0  0  0  0
M  END
>  <CHROM.1>
-96.63214940,58.21039393,-70.41139875,46.33938793,11.79151211,12.67659252
-0.72450902,-0.06812782,1.31803473

>  <Name>
ligand

>  <RI>
0

>  <Rbt.Current_Directory>
/home/itssahil/PROJECTS/Mol_Feturizer/New_Systems/rnas/2HO6

>  <Rbt.Executable>
rbdock ($Id: //depot/dev/client3/rdock/2013.1/src/exe/rbdock.cxx#4 $)

>  <Rbt.Library>
libRbt.so (2013.1, Build901 2013/11/27)

>  <Rbt.Parameter_File>
/export/apps/rDock/src/rDock_2013.1_src/data/scripts/dock_solv.prm

>  <Rbt.Receptor>
prm/pocket_docking_3.prm

>  <SCORE>
-5.55122

>  <SCORE.INTER>
-4.72516

>  <SCORE.INTER.CONST>
1

>  <SCORE.INTER.POLAR>
0

>  <SCORE.INTER.ROT>
3

>  <SCORE.INTER.SOLV>
6.20264

>  <SCORE.INTER.VDW>
-10.8177

>  <SCORE.INTER.norm>
-0.393763

>  <SCORE.INTRA>
-0.826063

>  <SCORE.INTRA.DIHEDRAL>
1.63564

>  <SCORE.INTRA.DIHEDRAL.0>
1.88407

>  <SCORE.INTRA.POLAR>
0

>  <SCORE.INTRA.POLAR.0>
0

>  <SCORE.INTRA.REPUL>
0

>  <SCORE.INTRA.REPUL.0>
0

>  <SCORE.INTRA.SOLV>
0.173009

>  <SCORE.INTRA.SOLV.lig_0>
-10.2714

>  <SCORE.INTRA.VDW>
-1.73039

>  <SCORE.INTRA.VDW.0>
0.416923

>  <SCORE.INTRA.norm>
-0.0688386

>  <SCORE.RESTR>
0

>  <SCORE.RESTR.CAVITY>
0

>  <SCORE.RESTR.norm>
0

>  <SCORE.SYSTEM>
0

>  <SCORE.SYSTEM.CONST>
0

>  <SCORE.SYSTEM.DIHEDRAL>
0

>  <SCORE.SYSTEM.SOLV>
0

>  <SCORE.SYSTEM.norm>
0

>  <SCORE.heavy>
12

>  <SCORE.norm>
-0.462602

>  <RMSD>
3.526

$$$$
ligand
 OpenBabel11021811433D
libRbt.so/2013.1/901 2013/11/27
 12 12  0  0  0  0  0  0  0  0999 V2000
   48.3047   10.2604   11.0177 O   0  0  0  0  0  0  0  0  0  0  0  0
   44.4020    9.8331   13.1197 O   0  0  0  0  0  0  0  0  0  0  0  0
   48.9996   11.2442   11.8423 C   0  0  0  0  0  0  0  0  0  0  0  0
   43.9513   10.2765   15.5028 O   0  0  0  0  0  0  0  0  0  0  0  0
   47.9956   12.2278   12.5105 C   0  0  0  0  0  0  0  0  0  0  0  0
   43.3997   11.3109   13.9168 O   0  0  0  0  0  0  0  0  0  0  0  0
   46.5963   11.8481   12.1110 N   0  0  0  0  0  0  0  0  0  0  0  0
   46.4554   11.8680   10.6232 C   0  0  0  0  0  0  0  0  0  0  0  0
   47.5167   10.9260    9.9872 C   0  0  0  0  0  0  0  0  0  0  0  0
   45.5704   12.7666   12.7178 C   0  0  0  0  0  0  0  0  0  0  0  0
   45.2555   12.3664   14.1795 C   0  0  0  0  0  0  0  0  0  0  0  0
   44.6574   10.6623   14.2718 S   0  0  0  0  0  0  0  0  0  0  0  0
  1  3  1  0  0  0  0
  1  9  1  0  0  0  0
  2 12  1  0  0  0  0
  3  5  1  0  0  0  0
  4 12  2  0  0  0  0
  5  7  1  0  0  0  0
  6 12  2  0  0  0  0
  7  8  1  0  0  0  0
  7 10  1  0  0  0  0
  8  9  1  0  0  0  0
 10 11  1  0  0  0  0
 11 12  1  0  0  0  0
M  END
>  <CHROM.1>
-81.26827524,-58.16122227,-4.93383214,45.91501195,11.20429226,12.83068786
0.19156618,-0.70391681,-2.71089730

>  <Name>
ligand

>  <RI>
0

>  <Rbt.Current_Directory>
/home/itssahil/PROJECTS/Mol_Feturizer/New_Systems/rnas/2HO6

>  <Rbt.Executable>
rbdock ($Id: //depot/dev/client3/rdock/2013.1/src/exe/rbdock.cxx#4 $)

>  <Rbt.Library>
libRbt.so (2013.1, Build901 2013/11/27)

>  <Rbt.Parameter_File>
/export/apps/rDock/src/rDock_2013.1_src/data/scripts/dock_solv.prm

>  <Rbt.Receptor>
prm/pocket_docking_3.prm

>  <SCORE>
-6.80229

>  <SCORE.INTER>
-6.03335

>  <SCORE.INTER.CONST>
1

>  <SCORE.INTER.POLAR>
0

>  <SCORE.INTER.ROT>
3

>  <SCORE.INTER.SOLV>
7.243

>  <SCORE.INTER.VDW>
-12.0366

>  <SCORE.INTER.norm>
-0.502779

>  <SCORE.INTRA>
-0.768935

>  <SCORE.INTRA.DIHEDRAL>
0.669068

>  <SCORE.INTRA.DIHEDRAL.0>
1.88407

>  <SCORE.INTRA.POLAR>
0

>  <SCORE.INTRA.POLAR.0>
0

>  <SCORE.INTRA.REPUL>
0

>  <SCORE.INTRA.REPUL.0>
0

>  <SCORE.INTRA.SOLV>
0.301817

>  <SCORE.INTRA.SOLV.lig_0>
-10.2714

>  <SCORE.INTRA.VDW>
-1.25438

>  <SCORE.INTRA.VDW.0>
0.416923

>  <SCORE.INTRA.norm>
-0.0640779

>  <SCORE.RESTR>
0

>  <SCORE.RESTR.CAVITY>
0

>  <SCORE.RESTR.norm>
0

>  <SCORE.SYSTEM>
0

>  <SCORE.SYSTEM.CONST>
0

>  <SCORE.SYSTEM.DIHEDRAL>
0

>  <SCORE.SYSTEM.SOLV>
0

>  <SCORE.SYSTEM.norm>
0

>  <SCORE.heavy>
12

>  <SCORE.norm>
-0.566857

>  <RMSD>
3.573

$$$$
ligand
 OpenBabel11021811433D
libRbt.so/2013.1/901 2013/11/27
 12 12  0  0  0  0  0  0  0  0999 V2000
   47.5544   13.8265   11.2082 O   0  0  0  0  0  0  0  0  0  0  0  0
   44.7154   13.6123   14.0102 O   0  0  0  0  0  0  0  0  0  0  0  0
   46.8290   13.2195   10.0964 C   0  0  0  0  0  0  0  0  0  0  0  0
   42.8783   12.2506   14.9322 O   0  0  0  0  0  0  0  0  0  0  0  0
   46.0448   11.9573   10.5589 C   0  0  0  0  0  0  0  0  0  0  0  0
   44.7761   12.3085   15.4663 O   0  0  0  0  0  0  0  0  0  0  0  0
   46.2630   11.7563   12.0334 N   0  0  0  0  0  0  0  0  0  0  0  0
   47.7213   11.6192   12.3306 C   0  0  0  0  0  0  0  0  0  0  0  0
   48.4809   12.8663   11.7959 C   0  0  0  0  0  0  0  0  0  0  0  0
   45.5366   10.5432   12.5482 C   0  0  0  0  0  0  0  0  0  0  0  0
   45.0516   10.7564   14.0025 C   0  0  0  0  0  0  0  0  0  0  0  0
   44.1282   12.3034   14.1590 S   0  0  0  0  0  0  0  0  0  0  0  0
  1  3  1  0  0  0  0
  1  9  1  0  0  0  0
  2 12  1  0  0  0  0
  3  5  1  0  0  0  0
  4 12  2  0  0  0  0
  5  7  1  0  0  0  0
  6 12  2  0  0  0  0
  7  8  1  0  0  0  0
  7 10  1  0  0  0  0
  8  9  1  0  0  0  0
 10 11  1  0  0  0  0
 11 12  1  0  0  0  0
M  END
>  <CHROM.1>
-146.62029488,51.34817344,-67.14411731,45.63888198,12.28687425,12.93801544
0.06351735,0.81384317,0.05979547

>  <Name>
ligand

>  <RI>
0

>  <Rbt.Current_Directory>
/home/itssahil/PROJECTS/Mol_Feturizer/New_Systems/rnas/2HO6

>  <Rbt.Executable>
rbdock ($Id: //depot/dev/client3/rdock/2013.1/src/exe/rbdock.cxx#4 $)

>  <Rbt.Library>
libRbt.so (2013.1, Build901 2013/11/27)

>  <Rbt.Parameter_File>
/export/apps/rDock/src/rDock_2013.1_src/data/scripts/dock_solv.prm

>  <Rbt.Receptor>
prm/pocket_docking_4.prm

>  <SCORE>
-7.32883

>  <SCORE.INTER>
-6.37984

>  <SCORE.INTER.CONST>
1

>  <SCORE.INTER.POLAR>
0

>  <SCORE.INTER.ROT>
3

>  <SCORE.INTER.SOLV>
6.8007

>  <SCORE.INTER.VDW>
-12.1201

>  <SCORE.INTER.norm>
-0.531654

>  <SCORE.INTRA>
-0.954166

>  <SCORE.INTRA.DIHEDRAL>
1.53856

>  <SCORE.INTRA.DIHEDRAL.0>
1.88407

>  <SCORE.INTRA.POLAR>
0

>  <SCORE.INTRA.POLAR.0>
0

>  <SCORE.INTRA.REPUL>
0

>  <SCORE.INTRA.REPUL.0>
0

>  <SCORE.INTRA.SOLV>
0.251299

>  <SCORE.INTRA.SOLV.lig_0>
-10.2714

>  <SCORE.INTRA.VDW>
-1.8491

>  <SCORE.INTRA.VDW.0>
0.416923

>  <SCORE.INTRA.norm>
-0.0795138

>  <SCORE.RESTR>
0.00517451

>  <SCORE.RESTR.CAVITY>
0.00517451

>  <SCORE.RESTR.norm>
0.000431209

>  <SCORE.SYSTEM>
0

>  <SCORE.SYSTEM.CONST>
0

>  <SCORE.SYSTEM.DIHEDRAL>
0

>  <SCORE.SYSTEM.SOLV>
0

>  <SCORE.SYSTEM.norm>
0

>  <SCORE.heavy>
12

>  <SCORE.norm>
-0.610736

>  <RMSD>
3.594

$$$$
ligand
 OpenBabel11021811433D
libRbt.so/2013.1/901 2013/11/27
 12 12  0  0  0  0  0  0  0  0999 V2000
   47.6667   11.6840    9.2384 O   0  0  0  0  0  0  0  0  0  0  0  0
   44.4658   11.9787   15.7808 O   0  0  0  0  0  0  0  0  0  0  0  0
   48.2945   10.6687   10.0785 C   0  0  0  0  0  0  0  0  0  0  0  0
   43.1449   13.8836   14.9405 O   0  0  0  0  0  0  0  0  0  0  0  0
   47.7915   10.7652   11.5482 C   0  0  0  0  0  0  0  0  0  0  0  0
   43.2809   12.0499   14.2268 O   0  0  0  0  0  0  0  0  0  0  0  0
   46.7858   11.8787   11.6510 N   0  0  0  0  0  0  0  0  0  0  0  0
   47.3913   13.1707   11.2065 C   0  0  0  0  0  0  0  0  0  0  0  0
   47.9418   13.0173    9.7603 C   0  0  0  0  0  0  0  0  0  0  0  0
   46.2615   12.0340   13.0529 C   0  0  0  0  0  0  0  0  0  0  0  0
   44.9242   12.8132   13.0674 C   0  0  0  0  0  0  0  0  0  0  0  0
   44.2832   12.9717   14.7509 S   0  0  0  0  0  0  0  0  0  0  0  0
  1  3  1  0  0  0  0
  1  9  1  0  0  0  0
  2 12  1  0  0  0  0
  3  5  1  0  0  0  0
  4 12  2  0  0  0  0
  5  7  1  0  0  0  0
  6 12  2  0  0  0  0
  7  8  1  0  0  0  0
  7 10  1  0  0  0  0
  8  9  1  0  0  0  0
 10 11  1  0  0  0  0
 11 12  1  0  0  0  0
M  END
>  <CHROM.1>
-160.66061167,178.98763890,-32.78678835,45.80200170,12.31702254,12.70122007
0.33075971,0.83202567,-0.65833052

>  <Name>
ligand

>  <RI>
0

>  <Rbt.Current_Directory>
/home/itssahil/PROJECTS/Mol_Feturizer/New_Systems/rnas/2HO6

>  <Rbt.Executable>
rbdock ($Id: //depot/dev/client3/rdock/2013.1/src/exe/rbdock.cxx#4 $)

>  <Rbt.Library>
libRbt.so (2013.1, Build901 2013/11/27)

>  <Rbt.Parameter_File>
/export/apps/rDock/src/rDock_2013.1_src/data/scripts/dock_solv.prm

>  <Rbt.Receptor>
prm/pocket_docking_5.prm

>  <SCORE>
-8.21747

>  <SCORE.INTER>
-7.73185

>  <SCORE.INTER.CONST>
1

>  <SCORE.INTER.POLAR>
0

>  <SCORE.INTER.ROT>
3

>  <SCORE.INTER.SOLV>
5.23494

>  <SCORE.INTER.VDW>
-12.4995

>  <SCORE.INTER.norm>
-0.644321

>  <SCORE.INTRA>
-0.485624

>  <SCORE.INTRA.DIHEDRAL>
0.343816

>  <SCORE.INTRA.DIHEDRAL.0>
1.88407

>  <SCORE.INTRA.POLAR>
0

>  <SCORE.INTRA.POLAR.0>
0

>  <SCORE.INTRA.REPUL>
0

>  <SCORE.INTRA.REPUL.0>
0

>  <SCORE.INTRA.SOLV>
-0.0564539

>  <SCORE.INTRA.SOLV.lig_0>
-10.2714

>  <SCORE.INTRA.VDW>
-0.629305

>  <SCORE.INTRA.VDW.0>
0.416923

>  <SCORE.INTRA.norm>
-0.0404687

>  <SCORE.RESTR>
0

>  <SCORE.RESTR.CAVITY>
0

>  <SCORE.RESTR.norm>
0

>  <SCORE.SYSTEM>
0

>  <SCORE.SYSTEM.CONST>
0

>  <SCORE.SYSTEM.DIHEDRAL>
0

>  <SCORE.SYSTEM.SOLV>
0

>  <SCORE.SYSTEM.norm>
0

>  <SCORE.heavy>
12

>  <SCORE.norm>
-0.684789

>  <RMSD>
3.751

$$$$
ligand
 OpenBabel11021811433D
libRbt.so/2013.1/901 2013/11/27
 12 12  0  0  0  0  0  0  0  0999 V2000
   47.8392   11.0427   10.9390 O   0  0  0  0  0  0  0  0  0  0  0  0
   46.2963   11.7310   14.1254 O   0  0  0  0  0  0  0  0  0  0  0  0
   48.2750   12.3183   10.3789 C   0  0  0  0  0  0  0  0  0  0  0  0
   44.3895   12.2259   15.6080 O   0  0  0  0  0  0  0  0  0  0  0  0
   47.2889   13.4629   10.7525 C   0  0  0  0  0  0  0  0  0  0  0  0
   44.3923   11.4160   13.8097 O   0  0  0  0  0  0  0  0  0  0  0  0
   46.1830   12.9005   11.6026 N   0  0  0  0  0  0  0  0  0  0  0  0
   45.4766   11.8005   10.8782 C   0  0  0  0  0  0  0  0  0  0  0  0
   46.5024   10.7081   10.4627 C   0  0  0  0  0  0  0  0  0  0  0  0
   45.1847   13.9557   11.9952 C   0  0  0  0  0  0  0  0  0  0  0  0
   44.2245   13.4372   13.0930 C   0  0  0  0  0  0  0  0  0  0  0  0
   45.1293   12.5405   14.3765 S   0  0  0  0  0  0  0  0  0  0  0  0
  1  3  1  0  0  0  0
  1  9  1  0  0  0  0
  2 12  1  0  0  0  0
  3  5  1  0  0  0  0
  4 12  2  0  0  0  0
  5  7  1  0  0  0  0
  6 12  2  0  0  0  0
  7  8  1  0  0  0  0
  7 10  1  0  0  0  0
  8  9  1  0  0  0  0
 10 11  1  0  0  0  0
 11 12  1  0  0  0  0
M  END
>  <CHROM.1>
-168.39805830,44.14562585,-34.38263029,45.84905497,12.28960134,12.57697649
-0.52743539,-0.88682367,2.40029159

>  <Name>
ligand

>  <RI>
0

>  <Rbt.Current_Directory>
/home/itssahil/PROJECTS/Mol_Feturizer/New_Systems/rnas/2HO6

>  <Rbt.Executable>
rbdock ($Id: //depot/dev/client3/rdock/2013.1/src/exe/rbdock.cxx#4 $)

>  <Rbt.Library>
libRbt.so (2013.1, Build901 2013/11/27)

>  <Rbt.Parameter_File>
/export/apps/rDock/src/rDock_2013.1_src/data/scripts/dock_solv.prm

>  <Rbt.Receptor>
prm/pocket_docking_4.prm

>  <SCORE>
-7.46475

>  <SCORE.INTER>
-6.75594

>  <SCORE.INTER.CONST>
1

>  <SCORE.INTER.POLAR>
0

>  <SCORE.INTER.ROT>
3

>  <SCORE.INTER.SOLV>
5.67591

>  <SCORE.INTER.VDW>
-11.9959

>  <SCORE.INTER.norm>
-0.562995

>  <SCORE.INTRA>
-0.708803

>  <SCORE.INTRA.DIHEDRAL>
0.911624

>  <SCORE.INTRA.DIHEDRAL.0>
1.88407

>  <SCORE.INTRA.POLAR>
0

>  <SCORE.INTRA.POLAR.0>
0

>  <SCORE.INTRA.REPUL>
0

>  <SCORE.INTRA.REPUL.0>
0

>  <SCORE.INTRA.SOLV>
0.492017

>  <SCORE.INTRA.SOLV.lig_0>
-10.2714

>  <SCORE.INTRA.VDW>
-1.41062

>  <SCORE.INTRA.VDW.0>
0.416923

>  <SCORE.INTRA.norm>
-0.0590669

>  <SCORE.RESTR>
0

>  <SCORE.RESTR.CAVITY>
0

>  <SCORE.RESTR.norm>
0

>  <SCORE.SYSTEM>
0

>  <SCORE.SYSTEM.CONST>
0

>  <SCORE.SYSTEM.DIHEDRAL>
0

>  <SCORE.SYSTEM.SOLV>
0

>  <SCORE.SYSTEM.norm>
0

>  <SCORE.heavy>
12

>  <SCORE.norm>
-0.622062

>  <RMSD>
3.968

$$$$
ligand
 OpenBabel11021811433D
libRbt.so/2013.1/901 2013/11/27
 12 12  0  0  0  0  0  0  0  0999 V2000
   46.6551   14.0204   10.1969 O   0  0  0  0  0  0  0  0  0  0  0  0
   44.9374   12.1762   15.7337 O   0  0  0  0  0  0  0  0  0  0  0  0
   45.3248   13.5003    9.8964 C   0  0  0  0  0  0  0  0  0  0  0  0
   45.2791   13.4113   13.6273 O   0  0  0  0  0  0  0  0  0  0  0  0
   45.0621   12.1614   10.6451 C   0  0  0  0  0  0  0  0  0  0  0  0
   43.7908   12.2276   14.1505 O   0  0  0  0  0  0  0  0  0  0  0  0
   46.2688   11.8172   11.4741 N   0  0  0  0  0  0  0  0  0  0  0  0
   47.4839   11.7177   10.6098 C   0  0  0  0  0  0  0  0  0  0  0  0
   47.6769   13.0480    9.8278 C   0  0  0  0  0  0  0  0  0  0  0  0
   46.0860   10.5244   12.2220 C   0  0  0  0  0  0  0  0  0  0  0  0
   44.9788   10.6508   13.2963 C   0  0  0  0  0  0  0  0  0  0  0  0
   45.2353   12.1168   14.3238 S   0  0  0  0  0  0  0  0  0  0  0  0
  1  3  1  0  0  0  0
  1  9  1  0  0  0  0
  2 12  1  0  0  0  0
  3  5  1  0  0  0  0
  4 12  2  0  0  0  0
  5  7  1  0  0  0  0
  6 12  2  0  0  0  0
  7  8  1  0  0  0  0
  7 10  1  0  0  0  0
  8  9  1  0  0  0  0
 10 11  1  0  0  0  0
 11 12  1  0  0  0  0
M  END
>  <CHROM.1>
-66.49548704,-49.83558541,-144.36198378,45.66244786,12.29335192,12.41848399
0.67651879,1.06514724,-0.55264539

>  <Name>
ligand

>  <RI>
0

>  <Rbt.Current_Directory>
/home/itssahil/PROJECTS/Mol_Feturizer/New_Systems/rnas/2HO6

>  <Rbt.Executable>
rbdock ($Id: //depot/dev/client3/rdock/2013.1/src/exe/rbdock.cxx#4 $)

>  <Rbt.Library>
libRbt.so (2013.1, Build901 2013/11/27)

>  <Rbt.Parameter_File>
/export/apps/rDock/src/rDock_2013.1_src/data/scripts/dock_solv.prm

>  <Rbt.Receptor>
prm/pocket_docking_3.prm

>  <SCORE>
-8.39777

>  <SCORE.INTER>
-7.78705

>  <SCORE.INTER.CONST>
1

>  <SCORE.INTER.POLAR>
0

>  <SCORE.INTER.ROT>
3

>  <SCORE.INTER.SOLV>
5.09533

>  <SCORE.INTER.VDW>
-12.4898

>  <SCORE.INTER.norm>
-0.648921

>  <SCORE.INTRA>
-0.61648

>  <SCORE.INTRA.DIHEDRAL>
0.332117

>  <SCORE.INTRA.DIHEDRAL.0>
1.88407

>  <SCORE.INTRA.POLAR>
0

>  <SCORE.INTRA.POLAR.0>
0

>  <SCORE.INTRA.REPUL>
0

>  <SCORE.INTRA.REPUL.0>
0

>  <SCORE.INTRA.SOLV>
1.33484

>  <SCORE.INTRA.SOLV.lig_0>
-10.2714

>  <SCORE.INTRA.VDW>
-1.44996

>  <SCORE.INTRA.VDW.0>
0.416923

>  <SCORE.INTRA.norm>
-0.0513733

>  <SCORE.RESTR>
0.00575587

>  <SCORE.RESTR.CAVITY>
0.00575587

>  <SCORE.RESTR.norm>
0.000479655

>  <SCORE.SYSTEM>
0

>  <SCORE.SYSTEM.CONST>
0

>  <SCORE.SYSTEM.DIHEDRAL>
0

>  <SCORE.SYSTEM.SOLV>
0

>  <SCORE.SYSTEM.norm>
0

>  <SCORE.heavy>
12

>  <SCORE.norm>
-0.699814

>  <RMSD>
3.974

$$$$
ligand
 OpenBabel11021811433D
libRbt.so/2013.1/901 2013/11/27
 12 12  0  0  0  0  0  0  0  0999 V2000
   46.0658   13.9679    9.8910 O   0  0  0  0  0  0  0  0  0  0  0  0
   44.8089   12.3281   15.5978 O   0  0  0  0  0  0  0  0  0  0  0  0
   44.8383   13.2074    9.6774 C   0  0  0  0  0  0  0  0  0  0  0  0
   45.4967   13.3875   13.4802 O   0  0  0  0  0  0  0  0  0  0  0  0
   44.8350   11.8975   10.5179 C   0  0  0  0  0  0  0  0  0  0  0  0
   43.9073   12.2841   13.8631 O   0  0  0  0  0  0  0  0  0  0  0  0
   46.1067   11.8236   11.3173 N   0  0  0  0  0  0  0  0  0  0  0  0
   47.2950   11.8759   10.4125 C   0  0  0  0  0  0  0  0  0  0  0  0
   47.2303   13.1630    9.5421 C   0  0  0  0  0  0  0  0  0  0  0  0
   46.1739   10.5727   12.1510 C   0  0  0  0  0  0  0  0  0  0  0  0
   45.1507   10.6177   13.3115 C   0  0  0  0  0  0  0  0  0  0  0  0
   45.3064   12.1523   14.2555 S   0  0  0  0  0  0  0  0  0  0  0  0
  1  3  1  0  0  0  0
  1  9  1  0  0  0  0
  2 12  1  0  0  0  0
  3  5  1  0  0  0  0
  4 12  2  0  0  0  0
  5  7  1  0  0  0  0
  6 12  2  0  0  0  0
  7  8  1  0  0  0  0
  7 10  1  0  0  0  0
  8  9  1  0  0  0  0
 10 11  1  0  0  0  0
 11 12  1  0  0  0  0
M  END
>  <CHROM.1>
-69.92785419,-51.44452036,-160.33885529,45.55224186,12.29117216,12.25980931
0.94590020,1.07955406,-0.83755856

>  <Name>
ligand

>  <RI>
0

>  <Rbt.Current_Directory>
/home/itssahil/PROJECTS/Mol_Feturizer/New_Systems/rnas/2HO6

>  <Rbt.Executable>
rbdock ($Id: //depot/dev/client3/rdock/2013.1/src/exe/rbdock.cxx#4 $)

>  <Rbt.Library>
libRbt.so (2013.1, Build901 2013/11/27)

>  <Rbt.Parameter_File>
/export/apps/rDock/src/rDock_2013.1_src/data/scripts/dock_solv.prm

>  <Rbt.Receptor>
prm/pocket_docking_4.prm

>  <SCORE>
-9.55453

>  <SCORE.INTER>
-8.88111

>  <SCORE.INTER.CONST>
1

>  <SCORE.INTER.POLAR>
0

>  <SCORE.INTER.ROT>
3

>  <SCORE.INTER.SOLV>
6.00113

>  <SCORE.INTER.VDW>
-13.5211

>  <SCORE.INTER.norm>
-0.740092

>  <SCORE.INTRA>
-0.673426

>  <SCORE.INTRA.DIHEDRAL>
0.320529

>  <SCORE.INTRA.DIHEDRAL.0>
1.88407

>  <SCORE.INTRA.POLAR>
0

>  <SCORE.INTRA.POLAR.0>
0

>  <SCORE.INTRA.REPUL>
0

>  <SCORE.INTRA.REPUL.0>
0

>  <SCORE.INTRA.SOLV>
1.52733

>  <SCORE.INTRA.SOLV.lig_0>
-10.2714

>  <SCORE.INTRA.VDW>
-1.59736

>  <SCORE.INTRA.VDW.0>
0.416923

>  <SCORE.INTRA.norm>
-0.0561189

>  <SCORE.RESTR>
0

>  <SCORE.RESTR.CAVITY>
0

>  <SCORE.RESTR.norm>
0

>  <SCORE.SYSTEM>
0

>  <SCORE.SYSTEM.CONST>
0

>  <SCORE.SYSTEM.DIHEDRAL>
0

>  <SCORE.SYSTEM.SOLV>
0

>  <SCORE.SYSTEM.norm>
0

>  <SCORE.heavy>
12

>  <SCORE.norm>
-0.796211

>  <RMSD>
4.212

$$$$
ligand
 OpenBabel11021811433D
libRbt.so/2013.1/901 2013/11/27
 12 12  0  0  0  0  0  0  0  0999 V2000
   46.3723   13.9278    9.9253 O   0  0  0  0  0  0  0  0  0  0  0  0
   44.1422   13.1450   13.3931 O   0  0  0  0  0  0  0  0  0  0  0  0
   45.0261   13.5658    9.4923 C   0  0  0  0  0  0  0  0  0  0  0  0
   44.7433   12.1510   15.5680 O   0  0  0  0  0  0  0  0  0  0  0  0
   44.5397   12.2656   10.1958 C   0  0  0  0  0  0  0  0  0  0  0  0
   45.9074   12.6119   14.0441 O   0  0  0  0  0  0  0  0  0  0  0  0
   45.6129   11.7829   11.1324 N   0  0  0  0  0  0  0  0  0  0  0  0
   46.8863   11.5441   10.3874 C   0  0  0  0  0  0  0  0  0  0  0  0
   47.3060   12.8439    9.6440 C   0  0  0  0  0  0  0  0  0  0  0  0
   45.2108   10.5192   11.8434 C   0  0  0  0  0  0  0  0  0  0  0  0
   45.5043   10.6126   13.3603 C   0  0  0  0  0  0  0  0  0  0  0  0
   44.5938   11.9808   14.1149 S   0  0  0  0  0  0  0  0  0  0  0  0
  1  3  1  0  0  0  0
  1  9  1  0  0  0  0
  2 12  1  0  0  0  0
  3  5  1  0  0  0  0
  4 12  2  0  0  0  0
  5  7  1  0  0  0  0
  6 12  2  0  0  0  0
  7  8  1  0  0  0  0
  7 10  1  0  0  0  0
  8  9  1  0  0  0  0
 10 11  1  0  0  0  0
 11 12  1  0  0  0  0
M  END
>  <CHROM.1>
-133.12317326,60.10857942,-24.82881942,45.39618316,12.25029184,12.18161096
0.92654224,1.10464848,-0.80186434

>  <Name>
ligand

>  <RI>
0

>  <Rbt.Current_Directory>
/home/itssahil/PROJECTS/Mol_Feturizer/New_Systems/rnas/2HO6

>  <Rbt.Executable>
rbdock ($Id: //depot/dev/client3/rdock/2013.1/src/exe/rbdock.cxx#4 $)

>  <Rbt.Library>
libRbt.so (2013.1, Build901 2013/11/27)

>  <Rbt.Parameter_File>
/export/apps/rDock/src/rDock_2013.1_src/data/scripts/dock_solv.prm

>  <Rbt.Receptor>
prm/pocket_docking_4.prm

>  <SCORE>
-7.40289

>  <SCORE.INTER>
-6.50189

>  <SCORE.INTER.CONST>
1

>  <SCORE.INTER.POLAR>
0

>  <SCORE.INTER.ROT>
3

>  <SCORE.INTER.SOLV>
8.42187

>  <SCORE.INTER.VDW>
-12.7419

>  <SCORE.INTER.norm>
-0.541824

>  <SCORE.INTRA>
-0.901

>  <SCORE.INTRA.DIHEDRAL>
1.92145

>  <SCORE.INTRA.DIHEDRAL.0>
1.88407

>  <SCORE.INTRA.POLAR>
0

>  <SCORE.INTRA.POLAR.0>
0

>  <SCORE.INTRA.REPUL>
0

>  <SCORE.INTRA.REPUL.0>
0

>  <SCORE.INTRA.SOLV>
0.46121

>  <SCORE.INTRA.SOLV.lig_0>
-10.2714

>  <SCORE.INTRA.VDW>
-2.09233

>  <SCORE.INTRA.VDW.0>
0.416923

>  <SCORE.INTRA.norm>
-0.0750834

>  <SCORE.RESTR>
0

>  <SCORE.RESTR.CAVITY>
0

>  <SCORE.RESTR.norm>
0

>  <SCORE.SYSTEM>
0

>  <SCORE.SYSTEM.CONST>
0

>  <SCORE.SYSTEM.DIHEDRAL>
0

>  <SCORE.SYSTEM.SOLV>
0

>  <SCORE.SYSTEM.norm>
0

>  <SCORE.heavy>
12

>  <SCORE.norm>
-0.616908

>  <RMSD>
4.225

$$$$
ligand
 OpenBabel11021811433D
libRbt.so/2013.1/901 2013/11/27
 12 12  0  0  0  0  0  0  0  0999 V2000
   46.4677   14.0099   11.2421 O   0  0  0  0  0  0  0  0  0  0  0  0
   44.4027   12.8159   15.4050 O   0  0  0  0  0  0  0  0  0  0  0  0
   45.6880   13.4185   10.1590 C   0  0  0  0  0  0  0  0  0  0  0  0
   42.4301   11.5124   14.7060 O   0  0  0  0  0  0  0  0  0  0  0  0
   45.1102   12.0340   10.5732 C   0  0  0  0  0  0  0  0  0  0  0  0
   43.9490   10.9638   15.8382 O   0  0  0  0  0  0  0  0  0  0  0  0
   45.5228   11.7327   11.9877 N   0  0  0  0  0  0  0  0  0  0  0  0
   47.0121   11.7499   12.1112 C   0  0  0  0  0  0  0  0  0  0  0  0
   47.5588   13.1227   11.6268 C   0  0  0  0  0  0  0  0  0  0  0  0
   45.0027   10.3993   12.4523 C   0  0  0  0  0  0  0  0  0  0  0  0
   44.8742   10.3549   13.9942 C   0  0  0  0  0  0  0  0  0  0  0  0
   43.8798   11.7373   14.6030 S   0  0  0  0  0  0  0  0  0  0  0  0
  1  3  1  0  0  0  0
  1  9  1  0  0  0  0
  2 12  1  0  0  0  0
  3  5  1  0  0  0  0
  4 12  2  0  0  0  0
  5  7  1  0  0  0  0
  6 12  2  0  0  0  0
  7  8  1  0  0  0  0
  7 10  1  0  0  0  0
  8  9  1  0  0  0  0
 10 11  1  0  0  0  0
 11 12  1  0  0  0  0
M  END
>  <CHROM.1>
-155.15242586,53.85098938,-112.93445267,45.00507084,11.97811929,13.10768954
-0.28636373,0.98284131,0.68881356

>  <Name>
ligand

>  <RI>
0

>  <Rbt.Current_Directory>
/home/itssahil/PROJECTS/Mol_Feturizer/New_Systems/rnas/2HO6

>  <Rbt.Executable>
rbdock ($Id: //depot/dev/client3/rdock/2013.1/src/exe/rbdock.cxx#4 $)

>  <Rbt.Library>
libRbt.so (2013.1, Build901 2013/11/27)

>  <Rbt.Parameter_File>
/export/apps/rDock/src/rDock_2013.1_src/data/scripts/dock_solv.prm

>  <Rbt.Receptor>
prm/pocket_docking_4.prm

>  <SCORE>
-7.72877

>  <SCORE.INTER>
-6.90858

>  <SCORE.INTER.CONST>
1

>  <SCORE.INTER.POLAR>
0

>  <SCORE.INTER.ROT>
3

>  <SCORE.INTER.SOLV>
6.96624

>  <SCORE.INTER.VDW>
-12.5278

>  <SCORE.INTER.norm>
-0.575715

>  <SCORE.INTRA>
-0.820197

>  <SCORE.INTRA.DIHEDRAL>
0.902439

>  <SCORE.INTRA.DIHEDRAL.0>
1.88407

>  <SCORE.INTRA.POLAR>
0

>  <SCORE.INTRA.POLAR.0>
0

>  <SCORE.INTRA.REPUL>
0

>  <SCORE.INTRA.REPUL.0>
0

>  <SCORE.INTRA.SOLV>
0.311282

>  <SCORE.INTRA.SOLV.lig_0>
-10.2714

>  <SCORE.INTRA.VDW>
-1.42706

>  <SCORE.INTRA.VDW.0>
0.416923

>  <SCORE.INTRA.norm>
-0.0683497

>  <SCORE.RESTR>
0

>  <SCORE.RESTR.CAVITY>
0

>  <SCORE.RESTR.norm>
0

>  <SCORE.SYSTEM>
0

>  <SCORE.SYSTEM.CONST>
0

>  <SCORE.SYSTEM.DIHEDRAL>
0

>  <SCORE.SYSTEM.SOLV>
0

>  <SCORE.SYSTEM.norm>
0

>  <SCORE.heavy>
12

>  <SCORE.norm>
-0.644064

>  <RMSD>
4.238

$$$$
ligand
 OpenBabel11021811433D
libRbt.so/2013.1/901 2013/11/27
 12 12  0  0  0  0  0  0  0  0999 V2000
   46.8364   13.2608   10.1508 O   0  0  0  0  0  0  0  0  0  0  0  0
   44.6647   13.6537   14.0180 O   0  0  0  0  0  0  0  0  0  0  0  0
   45.3868   13.2457    9.9807 C   0  0  0  0  0  0  0  0  0  0  0  0
   42.8444   12.2035   14.8322 O   0  0  0  0  0  0  0  0  0  0  0  0
   44.7284   12.1455   10.8628 C   0  0  0  0  0  0  0  0  0  0  0  0
   44.7104   12.3315   15.4580 O   0  0  0  0  0  0  0  0  0  0  0  0
   45.7999   11.4363   11.6446 N   0  0  0  0  0  0  0  0  0  0  0  0
   46.8148   10.8453   10.7203 C   0  0  0  0  0  0  0  0  0  0  0  0
   47.4022   11.9609    9.8102 C   0  0  0  0  0  0  0  0  0  0  0  0
   45.2322   10.3496   12.5169 C   0  0  0  0  0  0  0  0  0  0  0  0
   45.1203   10.8145   13.9890 C   0  0  0  0  0  0  0  0  0  0  0  0
   44.1265   12.3196   14.1210 S   0  0  0  0  0  0  0  0  0  0  0  0
  1  3  1  0  0  0  0
  1  9  1  0  0  0  0
  2 12  1  0  0  0  0
  3  5  1  0  0  0  0
  4 12  2  0  0  0  0
  5  7  1  0  0  0  0
  6 12  2  0  0  0  0
  7  8  1  0  0  0  0
  7 10  1  0  0  0  0
  8  9  1  0  0  0  0
 10 11  1  0  0  0  0
 11 12  1  0  0  0  0
M  END
>  <CHROM.1>
-101.08152237,56.41294701,-88.66771866,45.17405012,12.10571475,12.55899764
0.45806280,0.99818493,-0.54757496

>  <Name>
ligand

>  <RI>
0

>  <Rbt.Current_Directory>
/home/itssahil/PROJECTS/Mol_Feturizer/New_Systems/rnas/2HO6

>  <Rbt.Executable>
rbdock ($Id: //depot/dev/client3/rdock/2013.1/src/exe/rbdock.cxx#4 $)

>  <Rbt.Library>
libRbt.so (2013.1, Build901 2013/11/27)

>  <Rbt.Parameter_File>
/export/apps/rDock/src/rDock_2013.1_src/data/scripts/dock_solv.prm

>  <Rbt.Receptor>
prm/pocket_docking_4.prm

>  <SCORE>
-7.59692

>  <SCORE.INTER>
-6.85707

>  <SCORE.INTER.CONST>
1

>  <SCORE.INTER.POLAR>
0

>  <SCORE.INTER.ROT>
3

>  <SCORE.INTER.SOLV>
7.24055

>  <SCORE.INTER.VDW>
-12.5849

>  <SCORE.INTER.norm>
-0.571422

>  <SCORE.INTRA>
-0.743219

>  <SCORE.INTRA.DIHEDRAL>
1.95907

>  <SCORE.INTRA.DIHEDRAL.0>
1.88407

>  <SCORE.INTRA.POLAR>
0

>  <SCORE.INTRA.POLAR.0>
0

>  <SCORE.INTRA.REPUL>
0

>  <SCORE.INTRA.REPUL.0>
0

>  <SCORE.INTRA.SOLV>
0.196279

>  <SCORE.INTRA.SOLV.lig_0>
-10.2714

>  <SCORE.INTRA.VDW>
-1.82089

>  <SCORE.INTRA.VDW.0>
0.416923

>  <SCORE.INTRA.norm>
-0.0619349

>  <SCORE.RESTR>
0.00336925

>  <SCORE.RESTR.CAVITY>
0.00336925

>  <SCORE.RESTR.norm>
0.000280771

>  <SCORE.SYSTEM>
0

>  <SCORE.SYSTEM.CONST>
0

>  <SCORE.SYSTEM.DIHEDRAL>
0

>  <SCORE.SYSTEM.SOLV>
0

>  <SCORE.SYSTEM.norm>
0

>  <SCORE.heavy>
12

>  <SCORE.norm>
-0.633076

>  <RMSD>
4.311

$$$$
ligand
 OpenBabel11021811433D
libRbt.so/2013.1/901 2013/11/27
 12 12  0  0  0  0  0  0  0  0999 V2000
   46.8535   13.2660   10.1354 O   0  0  0  0  0  0  0  0  0  0  0  0
   44.7018   13.6364   13.9586 O   0  0  0  0  0  0  0  0  0  0  0  0
   45.4132   13.2640    9.8980 C   0  0  0  0  0  0  0  0  0  0  0  0
   42.8556   12.2623   14.8431 O   0  0  0  0  0  0  0  0  0  0  0  0
   44.7056   12.1652   10.7430 C   0  0  0  0  0  0  0  0  0  0  0  0
   44.7505   12.3037   15.3887 O   0  0  0  0  0  0  0  0  0  0  0  0
   45.7336   11.4433   11.5700 N   0  0  0  0  0  0  0  0  0  0  0  0
   46.7855   10.8481   10.6910 C   0  0  0  0  0  0  0  0  0  0  0  0
   47.4238   11.9631    9.8148 C   0  0  0  0  0  0  0  0  0  0  0  0
   45.1171   10.3573   12.4095 C   0  0  0  0  0  0  0  0  0  0  0  0
   45.0296   10.7802   13.8959 C   0  0  0  0  0  0  0  0  0  0  0  0
   44.1099   12.3266   14.0780 S   0  0  0  0  0  0  0  0  0  0  0  0
  1  3  1  0  0  0  0
  1  9  1  0  0  0  0
  2 12  1  0  0  0  0
  3  5  1  0  0  0  0
  4 12  2  0  0  0  0
  5  7  1  0  0  0  0
  6 12  2  0  0  0  0
  7  8  1  0  0  0  0
  7 10  1  0  0  0  0
  8  9  1  0  0  0  0
 10 11  1  0  0  0  0
 11 12  1  0  0  0  0
M  END
>  <CHROM.1>
-104.96118649,56.31791736,-85.88229463,45.16006592,12.11011851,12.50463884
0.40233542,1.01560678,-0.47797692

>  <Name>
ligand

>  <RI>
0

>  <Rbt.Current_Directory>
/home/itssahil/PROJECTS/Mol_Feturizer/New_Systems/rnas/2HO6

>  <Rbt.Executable>
rbdock ($Id: //depot/dev/client3/rdock/2013.1/src/exe/rbdock.cxx#4 $)

>  <Rbt.Library>
libRbt.so (2013.1, Build901 2013/11/27)

>  <Rbt.Parameter_File>
/export/apps/rDock/src/rDock_2013.1_src/data/scripts/dock_solv.prm

>  <Rbt.Receptor>
prm/pocket_docking_4.prm

>  <SCORE>
-7.55826

>  <SCORE.INTER>
-6.84921

>  <SCORE.INTER.CONST>
1

>  <SCORE.INTER.POLAR>
0

>  <SCORE.INTER.ROT>
3

>  <SCORE.INTER.SOLV>
7.36996

>  <SCORE.INTER.VDW>
-12.6228

>  <SCORE.INTER.norm>
-0.570767

>  <SCORE.INTRA>
-0.709052

>  <SCORE.INTRA.DIHEDRAL>
2.13582

>  <SCORE.INTRA.DIHEDRAL.0>
1.88407

>  <SCORE.INTRA.POLAR>
0

>  <SCORE.INTRA.POLAR.0>
0

>  <SCORE.INTRA.REPUL>
0

>  <SCORE.INTRA.REPUL.0>
0

>  <SCORE.INTRA.SOLV>
0.190717

>  <SCORE.INTRA.SOLV.lig_0>
-10.2714

>  <SCORE.INTRA.VDW>
-1.87232

>  <SCORE.INTRA.VDW.0>
0.416923

>  <SCORE.INTRA.norm>
-0.0590877

>  <SCORE.RESTR>
0

>  <SCORE.RESTR.CAVITY>
0

>  <SCORE.RESTR.norm>
0

>  <SCORE.SYSTEM>
0

>  <SCORE.SYSTEM.CONST>
0

>  <SCORE.SYSTEM.DIHEDRAL>
0

>  <SCORE.SYSTEM.SOLV>
0

>  <SCORE.SYSTEM.norm>
0

>  <SCORE.heavy>
12

>  <SCORE.norm>
-0.629855

>  <RMSD>
4.318

$$$$
ligand
 OpenBabel11021811433D
libRbt.so/2013.1/901 2013/11/27
 12 12  0  0  0  0  0  0  0  0999 V2000
   45.9168   14.0230   11.0036 O   0  0  0  0  0  0  0  0  0  0  0  0
   44.6678   12.2868   15.5635 O   0  0  0  0  0  0  0  0  0  0  0  0
   45.3507   13.0128   10.1149 C   0  0  0  0  0  0  0  0  0  0  0  0
   42.3295   11.6931   15.0544 O   0  0  0  0  0  0  0  0  0  0  0  0
   45.2282   11.6374   10.8328 C   0  0  0  0  0  0  0  0  0  0  0  0
   43.8031   10.5362   15.6710 O   0  0  0  0  0  0  0  0  0  0  0  0
   45.7209   11.7757   12.2470 N   0  0  0  0  0  0  0  0  0  0  0  0
   47.1336   12.2632   12.2616 C   0  0  0  0  0  0  0  0  0  0  0  0
   47.2297   13.6039   11.4794 C   0  0  0  0  0  0  0  0  0  0  0  0
   45.6379   10.4757   13.0001 C   0  0  0  0  0  0  0  0  0  0  0  0
   44.2199   10.2539   13.5796 C   0  0  0  0  0  0  0  0  0  0  0  0
   43.7498   11.6079   14.6823 S   0  0  0  0  0  0  0  0  0  0  0  0
  1  3  1  0  0  0  0
  1  9  1  0  0  0  0
  2 12  1  0  0  0  0
  3  5  1  0  0  0  0
  4 12  2  0  0  0  0
  5  7  1  0  0  0  0
  6 12  2  0  0  0  0
  7  8  1  0  0  0  0
  7 10  1  0  0  0  0
  8  9  1  0  0  0  0
 10 11  1  0  0  0  0
 11 12  1  0  0  0  0
M  END
>  <CHROM.1>
-83.61457007,-58.29566575,-36.37556798,44.92184463,11.90913309,13.17321469
-0.10802528,1.02613291,0.52462993

>  <Name>
ligand

>  <RI>
0

>  <Rbt.Current_Directory>
/home/itssahil/PROJECTS/Mol_Feturizer/New_Systems/rnas/2HO6

>  <Rbt.Executable>
rbdock ($Id: //depot/dev/client3/rdock/2013.1/src/exe/rbdock.cxx#4 $)

>  <Rbt.Library>
libRbt.so (2013.1, Build901 2013/11/27)

>  <Rbt.Parameter_File>
/export/apps/rDock/src/rDock_2013.1_src/data/scripts/dock_solv.prm

>  <Rbt.Receptor>
prm/pocket_docking_5.prm

>  <SCORE>
-8.26674

>  <SCORE.INTER>
-7.2313

>  <SCORE.INTER.CONST>
1

>  <SCORE.INTER.POLAR>
0

>  <SCORE.INTER.ROT>
3

>  <SCORE.INTER.SOLV>
7.10581

>  <SCORE.INTER.VDW>
-12.7895

>  <SCORE.INTER.norm>
-0.602609

>  <SCORE.INTRA>
-1.03543

>  <SCORE.INTRA.DIHEDRAL>
0.736304

>  <SCORE.INTRA.DIHEDRAL.0>
1.88407

>  <SCORE.INTRA.POLAR>
0

>  <SCORE.INTRA.POLAR.0>
0

>  <SCORE.INTRA.REPUL>
0

>  <SCORE.INTRA.REPUL.0>
0

>  <SCORE.INTRA.SOLV>
0.198632

>  <SCORE.INTRA.SOLV.lig_0>
-10.2714

>  <SCORE.INTRA.VDW>
-1.5029

>  <SCORE.INTRA.VDW.0>
0.416923

>  <SCORE.INTRA.norm>
-0.0862862

>  <SCORE.RESTR>
0

>  <SCORE.RESTR.CAVITY>
0

>  <SCORE.RESTR.norm>
0

>  <SCORE.SYSTEM>
0

>  <SCORE.SYSTEM.CONST>
0

>  <SCORE.SYSTEM.DIHEDRAL>
0

>  <SCORE.SYSTEM.SOLV>
0

>  <SCORE.SYSTEM.norm>
0

>  <SCORE.heavy>
12

>  <SCORE.norm>
-0.688895

>  <RMSD>
4.353

$$$$
ligand
 OpenBabel11021811433D
libRbt.so/2013.1/901 2013/11/27
 12 12  0  0  0  0  0  0  0  0999 V2000
   46.4114   13.6128   10.0475 O   0  0  0  0  0  0  0  0  0  0  0  0
   44.4334   13.5911   14.2647 O   0  0  0  0  0  0  0  0  0  0  0  0
   44.9700   13.4331    9.9033 C   0  0  0  0  0  0  0  0  0  0  0  0
   42.8784   11.8317   15.0169 O   0  0  0  0  0  0  0  0  0  0  0  0
   44.4616   12.2461   10.7720 C   0  0  0  0  0  0  0  0  0  0  0  0
   44.7560   12.1405   15.5359 O   0  0  0  0  0  0  0  0  0  0  0  0
   45.6236   11.6502   11.5180 N   0  0  0  0  0  0  0  0  0  0  0  0
   46.6808   11.1999   10.5625 C   0  0  0  0  0  0  0  0  0  0  0  0
   47.1165   12.3945    9.6673 C   0  0  0  0  0  0  0  0  0  0  0  0
   45.2034   10.4874   12.3756 C   0  0  0  0  0  0  0  0  0  0  0  0
   45.2394   10.8579   13.8780 C   0  0  0  0  0  0  0  0  0  0  0  0
   44.0770   12.1936   14.2455 S   0  0  0  0  0  0  0  0  0  0  0  0
  1  3  1  0  0  0  0
  1  9  1  0  0  0  0
  2 12  1  0  0  0  0
  3  5  1  0  0  0  0
  4 12  2  0  0  0  0
  5  7  1  0  0  0  0
  6 12  2  0  0  0  0
  7  8  1  0  0  0  0
  7 10  1  0  0  0  0
  8  9  1  0  0  0  0
 10 11  1  0  0  0  0
 11 12  1  0  0  0  0
M  END
>  <CHROM.1>
-108.16136376,62.22973683,-93.68247561,45.03251400,12.16862533,12.55177182
0.71032422,0.99342447,-0.70698688

>  <Name>
ligand

>  <RI>
0

>  <Rbt.Current_Directory>
/home/itssahil/PROJECTS/Mol_Feturizer/New_Systems/rnas/2HO6

>  <Rbt.Executable>
rbdock ($Id: //depot/dev/client3/rdock/2013.1/src/exe/rbdock.cxx#4 $)

>  <Rbt.Library>
libRbt.so (2013.1, Build901 2013/11/27)

>  <Rbt.Parameter_File>
/export/apps/rDock/src/rDock_2013.1_src/data/scripts/dock_solv.prm

>  <Rbt.Receptor>
prm/pocket_docking_4.prm

>  <SCORE>
-7.41601

>  <SCORE.INTER>
-6.80646

>  <SCORE.INTER.CONST>
1

>  <SCORE.INTER.POLAR>
0

>  <SCORE.INTER.ROT>
3

>  <SCORE.INTER.SOLV>
7.1842

>  <SCORE.INTER.VDW>
-12.5324

>  <SCORE.INTER.norm>
-0.567205

>  <SCORE.INTRA>
-0.609548

>  <SCORE.INTRA.DIHEDRAL>
2.22895

>  <SCORE.INTRA.DIHEDRAL.0>
1.88407

>  <SCORE.INTRA.POLAR>
0

>  <SCORE.INTRA.POLAR.0>
0

>  <SCORE.INTRA.REPUL>
0

>  <SCORE.INTRA.REPUL.0>
0

>  <SCORE.INTRA.SOLV>
0.185943

>  <SCORE.INTRA.SOLV.lig_0>
-10.2714

>  <SCORE.INTRA.VDW>
-1.817

>  <SCORE.INTRA.VDW.0>
0.416923

>  <SCORE.INTRA.norm>
-0.0507957

>  <SCORE.RESTR>
0

>  <SCORE.RESTR.CAVITY>
0

>  <SCORE.RESTR.norm>
0

>  <SCORE.SYSTEM>
0

>  <SCORE.SYSTEM.CONST>
0

>  <SCORE.SYSTEM.DIHEDRAL>
0

>  <SCORE.SYSTEM.SOLV>
0

>  <SCORE.SYSTEM.norm>
0

>  <SCORE.heavy>
12

>  <SCORE.norm>
-0.618001

>  <RMSD>
4.446

$$$$
ligand
 OpenBabel11021811433D
libRbt.so/2013.1/901 2013/11/27
 12 12  0  0  0  0  0  0  0  0999 V2000
   45.5712   14.4202   11.5403 O   0  0  0  0  0  0  0  0  0  0  0  0
   43.7572   10.5314   16.1655 O   0  0  0  0  0  0  0  0  0  0  0  0
   44.6341   13.7383   10.6528 C   0  0  0  0  0  0  0  0  0  0  0  0
   44.4637   12.4767   14.8254 O   0  0  0  0  0  0  0  0  0  0  0  0
   44.5657   12.2162   10.9696 C   0  0  0  0  0  0  0  0  0  0  0  0
   42.9177   11.2799   14.5658 O   0  0  0  0  0  0  0  0  0  0  0  0
   45.4852   11.9121   12.1203 N   0  0  0  0  0  0  0  0  0  0  0  0
   46.8831   12.3288   11.7947 C   0  0  0  0  0  0  0  0  0  0  0  0
   46.9023   13.8377   11.4191 C   0  0  0  0  0  0  0  0  0  0  0  0
   45.4746   10.4501   12.4762 C   0  0  0  0  0  0  0  0  0  0  0  0
   44.2582   10.0996   13.3669 C   0  0  0  0  0  0  0  0  0  0  0  0
   44.3075   11.0177   14.9242 S   0  0  0  0  0  0  0  0  0  0  0  0
  1  3  1  0  0  0  0
  1  9  1  0  0  0  0
  2 12  1  0  0  0  0
  3  5  1  0  0  0  0
  4 12  2  0  0  0  0
  5  7  1  0  0  0  0
  6 12  2  0  0  0  0
  7  8  1  0  0  0  0
  7 10  1  0  0  0  0
  8  9  1  0  0  0  0
 10 11  1  0  0  0  0
 11 12  1  0  0  0  0
M  END
>  <CHROM.1>
-81.39572100,-61.16502818,-150.09724309,44.84594657,11.93828254,13.14534632
0.56880997,1.09913649,-0.04827231

>  <Name>
ligand

>  <RI>
0

>  <Rbt.Current_Directory>
/home/itssahil/PROJECTS/Mol_Feturizer/New_Systems/rnas/2HO6

>  <Rbt.Executable>
rbdock ($Id: //depot/dev/client3/rdock/2013.1/src/exe/rbdock.cxx#4 $)

>  <Rbt.Library>
libRbt.so (2013.1, Build901 2013/11/27)

>  <Rbt.Parameter_File>
/export/apps/rDock/src/rDock_2013.1_src/data/scripts/dock_solv.prm

>  <Rbt.Receptor>
prm/pocket_docking_4.prm

>  <SCORE>
-8.18128

>  <SCORE.INTER>
-7.28911

>  <SCORE.INTER.CONST>
1

>  <SCORE.INTER.POLAR>
0

>  <SCORE.INTER.ROT>
3

>  <SCORE.INTER.SOLV>
6.30015

>  <SCORE.INTER.VDW>
-12.5595

>  <SCORE.INTER.norm>
-0.607425

>  <SCORE.INTRA>
-0.892171

>  <SCORE.INTRA.DIHEDRAL>
0.599459

>  <SCORE.INTRA.DIHEDRAL.0>
1.88407

>  <SCORE.INTRA.POLAR>
0

>  <SCORE.INTRA.POLAR.0>
0

>  <SCORE.INTRA.REPUL>
0

>  <SCORE.INTRA.REPUL.0>
0

>  <SCORE.INTRA.SOLV>
1.12732

>  <SCORE.INTRA.SOLV.lig_0>
-10.2714

>  <SCORE.INTRA.VDW>
-1.75556

>  <SCORE.INTRA.VDW.0>
0.416923

>  <SCORE.INTRA.norm>
-0.0743475

>  <SCORE.RESTR>
0

>  <SCORE.RESTR.CAVITY>
0

>  <SCORE.RESTR.norm>
0

>  <SCORE.SYSTEM>
0

>  <SCORE.SYSTEM.CONST>
0

>  <SCORE.SYSTEM.DIHEDRAL>
0

>  <SCORE.SYSTEM.SOLV>
0

>  <SCORE.SYSTEM.norm>
0

>  <SCORE.heavy>
12

>  <SCORE.norm>
-0.681773

>  <RMSD>
4.487

$$$$
ligand
 OpenBabel11021811433D
libRbt.so/2013.1/901 2013/11/27
 12 12  0  0  0  0  0  0  0  0999 V2000
   45.4599   15.1106    8.4119 O   0  0  0  0  0  0  0  0  0  0  0  0
   45.4951   10.5643   14.0902 O   0  0  0  0  0  0  0  0  0  0  0  0
   44.2816   14.2591    8.5436 C   0  0  0  0  0  0  0  0  0  0  0  0
   44.7652   12.4261   15.5324 O   0  0  0  0  0  0  0  0  0  0  0  0
   44.4193   13.2918    9.7550 C   0  0  0  0  0  0  0  0  0  0  0  0
   43.9250   11.7136   13.8964 O   0  0  0  0  0  0  0  0  0  0  0  0
   45.7343   13.5456   10.4392 N   0  0  0  0  0  0  0  0  0  0  0  0
   46.8651   13.3650    9.4788 C   0  0  0  0  0  0  0  0  0  0  0  0
   46.6596   14.2977    8.2516 C   0  0  0  0  0  0  0  0  0  0  0  0
   45.9376   12.6354   11.6201 C   0  0  0  0  0  0  0  0  0  0  0  0
   45.1551   13.1396   12.8568 C   0  0  0  0  0  0  0  0  0  0  0  0
   45.3160   11.9874   14.2413 S   0  0  0  0  0  0  0  0  0  0  0  0
  1  3  1  0  0  0  0
  1  9  1  0  0  0  0
  2 12  1  0  0  0  0
  3  5  1  0  0  0  0
  4 12  2  0  0  0  0
  5  7  1  0  0  0  0
  6 12  2  0  0  0  0
  7  8  1  0  0  0  0
  7 10  1  0  0  0  0
  8  9  1  0  0  0  0
 10 11  1  0  0  0  0
 11 12  1  0  0  0  0
M  END
>  <CHROM.1>
-79.43862020,176.34961790,-30.15436113,45.31553830,12.90801860,11.75111636
1.46211542,0.27703929,-1.13604271

>  <Name>
ligand

>  <RI>
0

>  <Rbt.Current_Directory>
/home/itssahil/PROJECTS/Mol_Feturizer/New_Systems/rnas/2HO6

>  <Rbt.Executable>
rbdock ($Id: //depot/dev/client3/rdock/2013.1/src/exe/rbdock.cxx#4 $)

>  <Rbt.Library>
libRbt.so (2013.1, Build901 2013/11/27)

>  <Rbt.Parameter_File>
/export/apps/rDock/src/rDock_2013.1_src/data/scripts/dock_solv.prm

>  <Rbt.Receptor>
prm/pocket_docking_5.prm

>  <SCORE>
-10.0314

>  <SCORE.INTER>
-9.41232

>  <SCORE.INTER.CONST>
1

>  <SCORE.INTER.POLAR>
0

>  <SCORE.INTER.ROT>
3

>  <SCORE.INTER.SOLV>
6.76447

>  <SCORE.INTER.VDW>
-14.1297

>  <SCORE.INTER.norm>
-0.78436

>  <SCORE.INTRA>
-0.619085

>  <SCORE.INTRA.DIHEDRAL>
0.533306

>  <SCORE.INTRA.DIHEDRAL.0>
1.88407

>  <SCORE.INTRA.POLAR>
0

>  <SCORE.INTRA.POLAR.0>
0

>  <SCORE.INTRA.REPUL>
0

>  <SCORE.INTRA.REPUL.0>
0

>  <SCORE.INTRA.SOLV>
-0.0401007

>  <SCORE.INTRA.SOLV.lig_0>
-10.2714

>  <SCORE.INTRA.VDW>
-0.865687

>  <SCORE.INTRA.VDW.0>
0.416923

>  <SCORE.INTRA.norm>
-0.0515904

>  <SCORE.RESTR>
0

>  <SCORE.RESTR.CAVITY>
0

>  <SCORE.RESTR.norm>
0

>  <SCORE.SYSTEM>
0

>  <SCORE.SYSTEM.CONST>
0

>  <SCORE.SYSTEM.DIHEDRAL>
0

>  <SCORE.SYSTEM.SOLV>
0

>  <SCORE.SYSTEM.norm>
0

>  <SCORE.heavy>
12

>  <SCORE.norm>
-0.83595

>  <RMSD>
4.533

$$$$
ligand
 OpenBabel11021811433D
libRbt.so/2013.1/901 2013/11/27
 12 12  0  0  0  0  0  0  0  0999 V2000
   45.4626   14.5027    9.8148 O   0  0  0  0  0  0  0  0  0  0  0  0
   43.8629   13.3555   13.4579 O   0  0  0  0  0  0  0  0  0  0  0  0
   44.3201   13.7852    9.2577 C   0  0  0  0  0  0  0  0  0  0  0  0
   44.7650   12.3579   15.5244 O   0  0  0  0  0  0  0  0  0  0  0  0
   44.1332   12.4029    9.9480 C   0  0  0  0  0  0  0  0  0  0  0  0
   45.7294   13.0261   13.9390 O   0  0  0  0  0  0  0  0  0  0  0  0
   45.1905   12.2343   11.0042 N   0  0  0  0  0  0  0  0  0  0  0  0
   46.5530   12.3518   10.4014 C   0  0  0  0  0  0  0  0  0  0  0  0
   46.6805   13.7153    9.6646 C   0  0  0  0  0  0  0  0  0  0  0  0
   45.0735   10.9102   11.7094 C   0  0  0  0  0  0  0  0  0  0  0  0
   45.5207   11.0215   13.1871 C   0  0  0  0  0  0  0  0  0  0  0  0
   44.5150   12.2299   14.0808 S   0  0  0  0  0  0  0  0  0  0  0  0
  1  3  1  0  0  0  0
  1  9  1  0  0  0  0
  2 12  1  0  0  0  0
  3  5  1  0  0  0  0
  4 12  2  0  0  0  0
  5  7  1  0  0  0  0
  6 12  2  0  0  0  0
  7  8  1  0  0  0  0
  7 10  1  0  0  0  0
  8  9  1  0  0  0  0
 10 11  1  0  0  0  0
 11 12  1  0  0  0  0
M  END
>  <CHROM.1>
-147.62896110,59.39004196,-27.23689206,45.08358314,12.64460987,12.09619513
1.21898811,1.17051491,-1.01179298

>  <Name>
ligand

>  <RI>
0

>  <Rbt.Current_Directory>
/home/itssahil/PROJECTS/Mol_Feturizer/New_Systems/rnas/2HO6

>  <Rbt.Executable>
rbdock ($Id: //depot/dev/client3/rdock/2013.1/src/exe/rbdock.cxx#4 $)

>  <Rbt.Library>
libRbt.so (2013.1, Build901 2013/11/27)

>  <Rbt.Parameter_File>
/export/apps/rDock/src/rDock_2013.1_src/data/scripts/dock_solv.prm

>  <Rbt.Receptor>
prm/pocket_docking_5.prm

>  <SCORE>
-8.32559

>  <SCORE.INTER>
-7.18946

>  <SCORE.INTER.CONST>
1

>  <SCORE.INTER.POLAR>
0

>  <SCORE.INTER.ROT>
3

>  <SCORE.INTER.SOLV>
8.22207

>  <SCORE.INTER.VDW>
-13.1337

>  <SCORE.INTER.norm>
-0.599122

>  <SCORE.INTRA>
-1.13613

>  <SCORE.INTRA.DIHEDRAL>
1.11471

>  <SCORE.INTRA.DIHEDRAL.0>
1.88407

>  <SCORE.INTRA.POLAR>
0

>  <SCORE.INTRA.POLAR.0>
0

>  <SCORE.INTRA.REPUL>
0

>  <SCORE.INTRA.REPUL.0>
0

>  <SCORE.INTRA.SOLV>
0.498133

>  <SCORE.INTRA.SOLV.lig_0>
-10.2714

>  <SCORE.INTRA.VDW>
-1.94255

>  <SCORE.INTRA.VDW.0>
0.416923

>  <SCORE.INTRA.norm>
-0.0946776

>  <SCORE.RESTR>
0

>  <SCORE.RESTR.CAVITY>
0

>  <SCORE.RESTR.norm>
0

>  <SCORE.SYSTEM>
0

>  <SCORE.SYSTEM.CONST>
0

>  <SCORE.SYSTEM.DIHEDRAL>
0

>  <SCORE.SYSTEM.SOLV>
0

>  <SCORE.SYSTEM.norm>
0

>  <SCORE.heavy>
12

>  <SCORE.norm>
-0.693799

>  <RMSD>
4.543

$$$$
ligand
 OpenBabel11021811433D
libRbt.so/2013.1/901 2013/11/27
 12 12  0  0  0  0  0  0  0  0999 V2000
   45.4382   15.0855    8.4203 O   0  0  0  0  0  0  0  0  0  0  0  0
   45.4886   10.5802   14.1230 O   0  0  0  0  0  0  0  0  0  0  0  0
   44.2714   14.2164    8.5389 C   0  0  0  0  0  0  0  0  0  0  0  0
   44.7101   12.4346   15.5493 O   0  0  0  0  0  0  0  0  0  0  0  0
   44.4077   13.2550    9.7552 C   0  0  0  0  0  0  0  0  0  0  0  0
   43.9097   11.7117   13.8979 O   0  0  0  0  0  0  0  0  0  0  0  0
   45.7094   13.5310   10.4562 N   0  0  0  0  0  0  0  0  0  0  0  0
   46.8555   13.3650    9.5116 C   0  0  0  0  0  0  0  0  0  0  0  0
   46.6523   14.2906    8.2786 C   0  0  0  0  0  0  0  0  0  0  0  0
   45.9107   12.6277   11.6426 C   0  0  0  0  0  0  0  0  0  0  0  0
   45.1436   13.1508   12.8811 C   0  0  0  0  0  0  0  0  0  0  0  0
   45.2907   12.0013   14.2694 S   0  0  0  0  0  0  0  0  0  0  0  0
  1  3  1  0  0  0  0
  1  9  1  0  0  0  0
  2 12  1  0  0  0  0
  3  5  1  0  0  0  0
  4 12  2  0  0  0  0
  5  7  1  0  0  0  0
  6 12  2  0  0  0  0
  7  8  1  0  0  0  0
  7 10  1  0  0  0  0
  8  9  1  0  0  0  0
 10 11  1  0  0  0  0
 11 12  1  0  0  0  0
M  END
>  <CHROM.1>
-81.42392762,175.91539613,-27.97031535,45.29586588,12.90304336,11.76926018
1.46088228,0.25945544,-1.14313934

>  <Name>
ligand

>  <RI>
0

>  <Rbt.Current_Directory>
/home/itssahil/PROJECTS/Mol_Feturizer/New_Systems/rnas/2HO6

>  <Rbt.Executable>
rbdock ($Id: //depot/dev/client3/rdock/2013.1/src/exe/rbdock.cxx#4 $)

>  <Rbt.Library>
libRbt.so (2013.1, Build901 2013/11/27)

>  <Rbt.Parameter_File>
/export/apps/rDock/src/rDock_2013.1_src/data/scripts/dock_solv.prm

>  <Rbt.Receptor>
prm/pocket_docking_5.prm

>  <SCORE>
-10.0479

>  <SCORE.INTER>
-9.46403

>  <SCORE.INTER.CONST>
1

>  <SCORE.INTER.POLAR>
0

>  <SCORE.INTER.ROT>
3

>  <SCORE.INTER.SOLV>
6.79467

>  <SCORE.INTER.VDW>
-14.1742

>  <SCORE.INTER.norm>
-0.788669

>  <SCORE.INTRA>
-0.583874

>  <SCORE.INTRA.DIHEDRAL>
0.660918

>  <SCORE.INTRA.DIHEDRAL.0>
1.88407

>  <SCORE.INTRA.POLAR>
0

>  <SCORE.INTRA.POLAR.0>
0

>  <SCORE.INTRA.REPUL>
0

>  <SCORE.INTRA.REPUL.0>
0

>  <SCORE.INTRA.SOLV>
-0.0347515

>  <SCORE.INTRA.SOLV.lig_0>
-10.2714

>  <SCORE.INTRA.VDW>
-0.896957

>  <SCORE.INTRA.VDW.0>
0.416923

>  <SCORE.INTRA.norm>
-0.0486562

>  <SCORE.RESTR>
0

>  <SCORE.RESTR.CAVITY>
0

>  <SCORE.RESTR.norm>
0

>  <SCORE.SYSTEM>
0

>  <SCORE.SYSTEM.CONST>
0

>  <SCORE.SYSTEM.DIHEDRAL>
0

>  <SCORE.SYSTEM.SOLV>
0

>  <SCORE.SYSTEM.norm>
0

>  <SCORE.heavy>
12

>  <SCORE.norm>
-0.837325

>  <RMSD>
4.544

$$$$
ligand
 OpenBabel11021811433D
libRbt.so/2013.1/901 2013/11/27
 12 12  0  0  0  0  0  0  0  0999 V2000
   45.3987   15.1521    8.2954 O   0  0  0  0  0  0  0  0  0  0  0  0
   45.5586   10.7410   14.0596 O   0  0  0  0  0  0  0  0  0  0  0  0
   44.2428   14.2710    8.4304 C   0  0  0  0  0  0  0  0  0  0  0  0
   44.6359   12.5624   15.4418 O   0  0  0  0  0  0  0  0  0  0  0  0
   44.3929   13.3309    9.6615 C   0  0  0  0  0  0  0  0  0  0  0  0
   43.9354   11.7916   13.7669 O   0  0  0  0  0  0  0  0  0  0  0  0
   45.6925   13.6338   10.3552 N   0  0  0  0  0  0  0  0  0  0  0  0
   46.8388   13.4665    9.4110 C   0  0  0  0  0  0  0  0  0  0  0  0
   46.6221   14.3698    8.1639 C   0  0  0  0  0  0  0  0  0  0  0  0
   45.9070   12.7520   11.5555 C   0  0  0  0  0  0  0  0  0  0  0  0
   45.1344   13.2844   12.7866 C   0  0  0  0  0  0  0  0  0  0  0  0
   45.2853   12.1514   14.1879 S   0  0  0  0  0  0  0  0  0  0  0  0
  1  3  1  0  0  0  0
  1  9  1  0  0  0  0
  2 12  1  0  0  0  0
  3  5  1  0  0  0  0
  4 12  2  0  0  0  0
  5  7  1  0  0  0  0
  6 12  2  0  0  0  0
  7  8  1  0  0  0  0
  7 10  1  0  0  0  0
  8  9  1  0  0  0  0
 10 11  1  0  0  0  0
 11 12  1  0  0  0  0
M  END
>  <CHROM.1>
-81.34593771,175.38028802,-24.71760179,45.28483176,13.01216757,11.67010031
1.46550628,0.25412406,-1.15511716

>  <Name>
ligand

>  <RI>
0

>  <Rbt.Current_Directory>
/home/itssahil/PROJECTS/Mol_Feturizer/New_Systems/rnas/2HO6

>  <Rbt.Executable>
rbdock ($Id: //depot/dev/client3/rdock/2013.1/src/exe/rbdock.cxx#4 $)

>  <Rbt.Library>
libRbt.so (2013.1, Build901 2013/11/27)

>  <Rbt.Parameter_File>
/export/apps/rDock/src/rDock_2013.1_src/data/scripts/dock_solv.prm

>  <Rbt.Receptor>
prm/pocket_docking_6.prm

>  <SCORE>
-10.0662

>  <SCORE.INTER>
-9.51862

>  <SCORE.INTER.CONST>
1

>  <SCORE.INTER.POLAR>
0

>  <SCORE.INTER.ROT>
3

>  <SCORE.INTER.SOLV>
6.87479

>  <SCORE.INTER.VDW>
-14.2373

>  <SCORE.INTER.norm>
-0.793218

>  <SCORE.INTRA>
-0.54758

>  <SCORE.INTRA.DIHEDRAL>
0.678727

>  <SCORE.INTRA.DIHEDRAL.0>
1.88407

>  <SCORE.INTRA.POLAR>
0

>  <SCORE.INTRA.POLAR.0>
0

>  <SCORE.INTRA.REPUL>
0

>  <SCORE.INTRA.REPUL.0>
0

>  <SCORE.INTRA.SOLV>
-0.0190958

>  <SCORE.INTRA.SOLV.lig_0>
-10.2714

>  <SCORE.INTRA.VDW>
-0.877396

>  <SCORE.INTRA.VDW.0>
0.416923

>  <SCORE.INTRA.norm>
-0.0456317

>  <SCORE.RESTR>
0

>  <SCORE.RESTR.CAVITY>
0

>  <SCORE.RESTR.norm>
0

>  <SCORE.SYSTEM>
0

>  <SCORE.SYSTEM.CONST>
0

>  <SCORE.SYSTEM.DIHEDRAL>
0

>  <SCORE.SYSTEM.SOLV>
0

>  <SCORE.SYSTEM.norm>
0

>  <SCORE.heavy>
12

>  <SCORE.norm>
-0.83885

>  <RMSD>
4.590

$$$$
ligand
 OpenBabel11021811433D
libRbt.so/2013.1/901 2013/11/27
 12 12  0  0  0  0  0  0  0  0999 V2000
   45.3011   14.6912    9.4475 O   0  0  0  0  0  0  0  0  0  0  0  0
   44.9917   12.4755   15.4815 O   0  0  0  0  0  0  0  0  0  0  0  0
   44.1599   13.8705    9.0540 C   0  0  0  0  0  0  0  0  0  0  0  0
   43.7827   13.1092   13.4282 O   0  0  0  0  0  0  0  0  0  0  0  0
   44.1260   12.5347    9.8520 C   0  0  0  0  0  0  0  0  0  0  0  0
   44.1806   11.3116   14.1356 O   0  0  0  0  0  0  0  0  0  0  0  0
   45.2851   12.5053   10.8099 N   0  0  0  0  0  0  0  0  0  0  0  0
   46.5757   12.6551   10.0713 C   0  0  0  0  0  0  0  0  0  0  0  0
   46.5474   13.9653    9.2342 C   0  0  0  0  0  0  0  0  0  0  0  0
   45.3184   11.2325   11.6119 C   0  0  0  0  0  0  0  0  0  0  0  0
   45.9936   11.4548   12.9869 C   0  0  0  0  0  0  0  0  0  0  0  0
   44.9856   12.5247   14.0401 S   0  0  0  0  0  0  0  0  0  0  0  0
  1  3  1  0  0  0  0
  1  9  1  0  0  0  0
  2 12  1  0  0  0  0
  3  5  1  0  0  0  0
  4 12  2  0  0  0  0
  5  7  1  0  0  0  0
  6 12  2  0  0  0  0
  7  8  1  0  0  0  0
  7 10  1  0  0  0  0
  8  9  1  0  0  0  0
 10 11  1  0  0  0  0
 11 12  1  0  0  0  0
M  END
>  <CHROM.1>
-152.06916978,67.55057848,152.12603237,45.07104015,12.68671472,11.95733643
1.41887452,0.68457246,-1.18389202

>  <Name>
ligand

>  <RI>
0

>  <Rbt.Current_Directory>
/home/itssahil/PROJECTS/Mol_Feturizer/New_Systems/rnas/2HO6

>  <Rbt.Executable>
rbdock ($Id: //depot/dev/client3/rdock/2013.1/src/exe/rbdock.cxx#4 $)

>  <Rbt.Library>
libRbt.so (2013.1, Build901 2013/11/27)

>  <Rbt.Parameter_File>
/export/apps/rDock/src/rDock_2013.1_src/data/scripts/dock_solv.prm

>  <Rbt.Receptor>
prm/pocket_docking_6.prm

>  <SCORE>
-9.02555

>  <SCORE.INTER>
-9.36169

>  <SCORE.INTER.CONST>
1

>  <SCORE.INTER.POLAR>
0

>  <SCORE.INTER.ROT>
3

>  <SCORE.INTER.SOLV>
5.48414

>  <SCORE.INTER.VDW>
-13.6692

>  <SCORE.INTER.norm>
-0.780141

>  <SCORE.INTRA>
0.336145

>  <SCORE.INTRA.DIHEDRAL>
1.19136

>  <SCORE.INTRA.DIHEDRAL.0>
1.88407

>  <SCORE.INTRA.POLAR>
0

>  <SCORE.INTRA.POLAR.0>
0

>  <SCORE.INTRA.REPUL>
0

>  <SCORE.INTRA.REPUL.0>
0

>  <SCORE.INTRA.SOLV>
1.02006

>  <SCORE.INTRA.SOLV.lig_0>
-10.2714

>  <SCORE.INTRA.VDW>
-0.769566

>  <SCORE.INTRA.VDW.0>
0.416923

>  <SCORE.INTRA.norm>
0.0280121

>  <SCORE.RESTR>
0

>  <SCORE.RESTR.CAVITY>
0

>  <SCORE.RESTR.norm>
0

>  <SCORE.SYSTEM>
0

>  <SCORE.SYSTEM.CONST>
0

>  <SCORE.SYSTEM.DIHEDRAL>
0

>  <SCORE.SYSTEM.SOLV>
0

>  <SCORE.SYSTEM.norm>
0

>  <SCORE.heavy>
12

>  <SCORE.norm>
-0.752129

>  <RMSD>
4.614

$$$$
ligand
 OpenBabel11021811433D
libRbt.so/2013.1/901 2013/11/27
 12 12  0  0  0  0  0  0  0  0999 V2000
   45.3061   14.5879    9.7202 O   0  0  0  0  0  0  0  0  0  0  0  0
   44.6583   13.5207   14.0090 O   0  0  0  0  0  0  0  0  0  0  0  0
   44.1821   13.8162    9.1990 C   0  0  0  0  0  0  0  0  0  0  0  0
   43.9983   11.4479   15.1695 O   0  0  0  0  0  0  0  0  0  0  0  0
   44.1091   12.4105    9.8628 C   0  0  0  0  0  0  0  0  0  0  0  0
   45.8037   12.1678   14.8346 O   0  0  0  0  0  0  0  0  0  0  0  0
   45.2236   12.2818   10.8645 N   0  0  0  0  0  0  0  0  0  0  0  0
   46.5466   12.4931   10.2024 C   0  0  0  0  0  0  0  0  0  0  0  0
   46.5593   13.8776    9.4944 C   0  0  0  0  0  0  0  0  0  0  0  0
   45.2176   10.9379   11.5414 C   0  0  0  0  0  0  0  0  0  0  0  0
   45.7185   11.0446   13.0021 C   0  0  0  0  0  0  0  0  0  0  0  0
   44.6151   12.0792   13.9931 S   0  0  0  0  0  0  0  0  0  0  0  0
  1  3  1  0  0  0  0
  1  9  1  0  0  0  0
  2 12  1  0  0  0  0
  3  5  1  0  0  0  0
  4 12  2  0  0  0  0
  5  7  1  0  0  0  0
  6 12  2  0  0  0  0
  7  8  1  0  0  0  0
  7 10  1  0  0  0  0
  8  9  1  0  0  0  0
 10 11  1  0  0  0  0
 11 12  1  0  0  0  0
M  END
>  <CHROM.1>
-147.24958445,63.23042436,-81.67596670,45.10184911,12.52650344,12.09123855
1.24533693,1.22698126,-0.95344872

>  <Name>
ligand

>  <RI>
0

>  <Rbt.Current_Directory>
/home/itssahil/PROJECTS/Mol_Feturizer/New_Systems/rnas/2HO6

>  <Rbt.Executable>
rbdock ($Id: //depot/dev/client3/rdock/2013.1/src/exe/rbdock.cxx#4 $)

>  <Rbt.Library>
libRbt.so (2013.1, Build901 2013/11/27)

>  <Rbt.Parameter_File>
/export/apps/rDock/src/rDock_2013.1_src/data/scripts/dock_solv.prm

>  <Rbt.Receptor>
prm/pocket_docking_5.prm

>  <SCORE>
-8.50106

>  <SCORE.INTER>
-7.66191

>  <SCORE.INTER.CONST>
1

>  <SCORE.INTER.POLAR>
0

>  <SCORE.INTER.ROT>
3

>  <SCORE.INTER.SOLV>
7.58278

>  <SCORE.INTER.VDW>
-13.2355

>  <SCORE.INTER.norm>
-0.638492

>  <SCORE.INTRA>
-0.839155

>  <SCORE.INTRA.DIHEDRAL>
1.30775

>  <SCORE.INTRA.DIHEDRAL.0>
1.88407

>  <SCORE.INTRA.POLAR>
0

>  <SCORE.INTRA.POLAR.0>
0

>  <SCORE.INTRA.REPUL>
0

>  <SCORE.INTRA.REPUL.0>
0

>  <SCORE.INTRA.SOLV>
0.23115

>  <SCORE.INTRA.SOLV.lig_0>
-10.2714

>  <SCORE.INTRA.VDW>
-1.60861

>  <SCORE.INTRA.VDW.0>
0.416923

>  <SCORE.INTRA.norm>
-0.0699296

>  <SCORE.RESTR>
0

>  <SCORE.RESTR.CAVITY>
0

>  <SCORE.RESTR.norm>
0

>  <SCORE.SYSTEM>
0

>  <SCORE.SYSTEM.CONST>
0

>  <SCORE.SYSTEM.DIHEDRAL>
0

>  <SCORE.SYSTEM.SOLV>
0

>  <SCORE.SYSTEM.norm>
0

>  <SCORE.heavy>
12

>  <SCORE.norm>
-0.708422

>  <RMSD>
4.621

$$$$
ligand
 OpenBabel11021811433D
libRbt.so/2013.1/901 2013/11/27
 12 12  0  0  0  0  0  0  0  0999 V2000
   45.1472   14.6888   10.3008 O   0  0  0  0  0  0  0  0  0  0  0  0
   44.4918   13.4465   14.1181 O   0  0  0  0  0  0  0  0  0  0  0  0
   44.2299   13.8841    9.4997 C   0  0  0  0  0  0  0  0  0  0  0  0
   43.9951   11.5106   15.5620 O   0  0  0  0  0  0  0  0  0  0  0  0
   44.1549   12.4225   10.0290 C   0  0  0  0  0  0  0  0  0  0  0  0
   45.7416   12.1963   14.9541 O   0  0  0  0  0  0  0  0  0  0  0  0
   45.0491   12.2889   11.2309 N   0  0  0  0  0  0  0  0  0  0  0  0
   46.4536   12.6595   10.8795 C   0  0  0  0  0  0  0  0  0  0  0  0
   46.4807   14.0994   10.2929 C   0  0  0  0  0  0  0  0  0  0  0  0
   45.0310   10.8926   11.7917 C   0  0  0  0  0  0  0  0  0  0  0  0
   45.4745   10.8791   13.2745 C   0  0  0  0  0  0  0  0  0  0  0  0
   44.4698   12.0118   14.2633 S   0  0  0  0  0  0  0  0  0  0  0  0
  1  3  1  0  0  0  0
  1  9  1  0  0  0  0
  2 12  1  0  0  0  0
  3  5  1  0  0  0  0
  4 12  2  0  0  0  0
  5  7  1  0  0  0  0
  6 12  2  0  0  0  0
  7  8  1  0  0  0  0
  7 10  1  0  0  0  0
  8  9  1  0  0  0  0
 10 11  1  0  0  0  0
 11 12  1  0  0  0  0
M  END
>  <CHROM.1>
-157.96531386,54.87365827,-67.04073440,44.99636153,12.54419232,12.43928601
0.27800327,1.45874158,0.07787043

>  <Name>
ligand

>  <RI>
0

>  <Rbt.Current_Directory>
/home/itssahil/PROJECTS/Mol_Feturizer/New_Systems/rnas/2HO6

>  <Rbt.Executable>
rbdock ($Id: //depot/dev/client3/rdock/2013.1/src/exe/rbdock.cxx#4 $)

>  <Rbt.Library>
libRbt.so (2013.1, Build901 2013/11/27)

>  <Rbt.Parameter_File>
/export/apps/rDock/src/rDock_2013.1_src/data/scripts/dock_solv.prm

>  <Rbt.Receptor>
prm/pocket_docking_5.prm

>  <SCORE>
-8.17315

>  <SCORE.INTER>
-7.04814

>  <SCORE.INTER.CONST>
1

>  <SCORE.INTER.POLAR>
0

>  <SCORE.INTER.ROT>
3

>  <SCORE.INTER.SOLV>
7.30281

>  <SCORE.INTER.VDW>
-12.733

>  <SCORE.INTER.norm>
-0.587345

>  <SCORE.INTRA>
-1.12501

>  <SCORE.INTRA.DIHEDRAL>
0.670038

>  <SCORE.INTRA.DIHEDRAL.0>
1.88407

>  <SCORE.INTRA.POLAR>
0

>  <SCORE.INTRA.POLAR.0>
0

>  <SCORE.INTRA.REPUL>
0

>  <SCORE.INTRA.REPUL.0>
0

>  <SCORE.INTRA.SOLV>
0.274912

>  <SCORE.INTRA.SOLV.lig_0>
-10.2714

>  <SCORE.INTRA.VDW>
-1.59748

>  <SCORE.INTRA.VDW.0>
0.416923

>  <SCORE.INTRA.norm>
-0.0937507

>  <SCORE.RESTR>
0

>  <SCORE.RESTR.CAVITY>
0

>  <SCORE.RESTR.norm>
0

>  <SCORE.SYSTEM>
0

>  <SCORE.SYSTEM.CONST>
0

>  <SCORE.SYSTEM.DIHEDRAL>
0

>  <SCORE.SYSTEM.SOLV>
0

>  <SCORE.SYSTEM.norm>
0

>  <SCORE.heavy>
12

>  <SCORE.norm>
-0.681096

>  <RMSD>
4.622

$$$$
ligand
 OpenBabel11021811433D
libRbt.so/2013.1/901 2013/11/27
 12 12  0  0  0  0  0  0  0  0999 V2000
   44.4182   14.5090   10.4888 O   0  0  0  0  0  0  0  0  0  0  0  0
   44.1117   11.5371   15.8640 O   0  0  0  0  0  0  0  0  0  0  0  0
   44.1126   13.2472    9.8216 C   0  0  0  0  0  0  0  0  0  0  0  0
   44.6610   13.3210   14.2531 O   0  0  0  0  0  0  0  0  0  0  0  0
   44.8329   12.0551   10.5161 C   0  0  0  0  0  0  0  0  0  0  0  0
   43.5767   11.6947   13.9897 O   0  0  0  0  0  0  0  0  0  0  0  0
   45.6201   12.5724   11.6885 N   0  0  0  0  0  0  0  0  0  0  0  0
   46.6036   13.6049   11.2413 C   0  0  0  0  0  0  0  0  0  0  0  0
   45.8568   14.7462   10.4943 C   0  0  0  0  0  0  0  0  0  0  0  0
   46.3514   11.4692   12.4044 C   0  0  0  0  0  0  0  0  0  0  0  0
   45.4327   10.7622   13.4301 C   0  0  0  0  0  0  0  0  0  0  0  0
   44.8404   11.9256   14.6815 S   0  0  0  0  0  0  0  0  0  0  0  0
  1  3  1  0  0  0  0
  1  9  1  0  0  0  0
  2 12  1  0  0  0  0
  3  5  1  0  0  0  0
  4 12  2  0  0  0  0
  5  7  1  0  0  0  0
  6 12  2  0  0  0  0
  7  8  1  0  0  0  0
  7 10  1  0  0  0  0
  8  9  1  0  0  0  0
 10 11  1  0  0  0  0
 11 12  1  0  0  0  0
M  END
>  <CHROM.1>
-84.28663331,-60.27199884,-171.61979121,44.98247436,12.56177816,12.66794927
1.34860947,0.88904414,-0.96711487

>  <Name>
ligand

>  <RI>
0

>  <Rbt.Current_Directory>
/home/itssahil/PROJECTS/Mol_Feturizer/New_Systems/rnas/2HO6

>  <Rbt.Executable>
rbdock ($Id: //depot/dev/client3/rdock/2013.1/src/exe/rbdock.cxx#4 $)

>  <Rbt.Library>
libRbt.so (2013.1, Build901 2013/11/27)

>  <Rbt.Parameter_File>
/export/apps/rDock/src/rDock_2013.1_src/data/scripts/dock_solv.prm

>  <Rbt.Receptor>
prm/pocket_docking_4.prm

>  <SCORE>
-8.77508

>  <SCORE.INTER>
-8.02791

>  <SCORE.INTER.CONST>
1

>  <SCORE.INTER.POLAR>
0

>  <SCORE.INTER.ROT>
3

>  <SCORE.INTER.SOLV>
5.29747

>  <SCORE.INTER.VDW>
-12.7178

>  <SCORE.INTER.norm>
-0.668993

>  <SCORE.INTRA>
-0.747165

>  <SCORE.INTRA.DIHEDRAL>
0.79615

>  <SCORE.INTRA.DIHEDRAL.0>
1.88407

>  <SCORE.INTRA.POLAR>
0

>  <SCORE.INTRA.POLAR.0>
0

>  <SCORE.INTRA.REPUL>
0

>  <SCORE.INTRA.REPUL.0>
0

>  <SCORE.INTRA.SOLV>
1.39144

>  <SCORE.INTRA.SOLV.lig_0>
-10.2714

>  <SCORE.INTRA.VDW>
-1.84096

>  <SCORE.INTRA.VDW.0>
0.416923

>  <SCORE.INTRA.norm>
-0.0622638

>  <SCORE.RESTR>
0

>  <SCORE.RESTR.CAVITY>
0

>  <SCORE.RESTR.norm>
0

>  <SCORE.SYSTEM>
0

>  <SCORE.SYSTEM.CONST>
0

>  <SCORE.SYSTEM.DIHEDRAL>
0

>  <SCORE.SYSTEM.SOLV>
0

>  <SCORE.SYSTEM.norm>
0

>  <SCORE.heavy>
12

>  <SCORE.norm>
-0.731256

>  <RMSD>
4.633

$$$$
ligand
 OpenBabel11021811433D
libRbt.so/2013.1/901 2013/11/27
 12 12  0  0  0  0  0  0  0  0999 V2000
   45.2440   14.5515    9.5707 O   0  0  0  0  0  0  0  0  0  0  0  0
   44.9870   12.3975   15.5176 O   0  0  0  0  0  0  0  0  0  0  0  0
   44.1032   13.6811    9.3029 C   0  0  0  0  0  0  0  0  0  0  0  0
   44.9111   13.8355   13.5162 O   0  0  0  0  0  0  0  0  0  0  0  0
   44.2081   12.3530   10.1073 C   0  0  0  0  0  0  0  0  0  0  0  0
   43.5886   12.5197   14.1563 O   0  0  0  0  0  0  0  0  0  0  0  0
   45.4607   12.3802   10.9393 N   0  0  0  0  0  0  0  0  0  0  0  0
   46.6602   12.5752   10.0694 C   0  0  0  0  0  0  0  0  0  0  0  0
   46.4905   13.8750    9.2326 C   0  0  0  0  0  0  0  0  0  0  0  0
   45.6301   11.1177   11.7404 C   0  0  0  0  0  0  0  0  0  0  0  0
   44.6869   11.1026   12.9676 C   0  0  0  0  0  0  0  0  0  0  0  0
   45.0451   12.4834   14.0791 S   0  0  0  0  0  0  0  0  0  0  0  0
  1  3  1  0  0  0  0
  1  9  1  0  0  0  0
  2 12  1  0  0  0  0
  3  5  1  0  0  0  0
  4 12  2  0  0  0  0
  5  7  1  0  0  0  0
  6 12  2  0  0  0  0
  7  8  1  0  0  0  0
  7 10  1  0  0  0  0
  8  9  1  0  0  0  0
 10 11  1  0  0  0  0
 11 12  1  0  0  0  0
M  END
>  <CHROM.1>
-76.35494251,-61.06508590,-142.65764960,45.06458317,12.73948439,12.03925149
1.13110442,1.21808567,-0.93826904

>  <Name>
ligand

>  <RI>
0

>  <Rbt.Current_Directory>
/home/itssahil/PROJECTS/Mol_Feturizer/New_Systems/rnas/2HO6

>  <Rbt.Executable>
rbdock ($Id: //depot/dev/client3/rdock/2013.1/src/exe/rbdock.cxx#4 $)

>  <Rbt.Library>
libRbt.so (2013.1, Build901 2013/11/27)

>  <Rbt.Parameter_File>
/export/apps/rDock/src/rDock_2013.1_src/data/scripts/dock_solv.prm

>  <Rbt.Receptor>
prm/pocket_docking_5.prm

>  <SCORE>
-10.0031

>  <SCORE.INTER>
-9.04468

>  <SCORE.INTER.CONST>
1

>  <SCORE.INTER.POLAR>
0

>  <SCORE.INTER.ROT>
3

>  <SCORE.INTER.SOLV>
6.45166

>  <SCORE.INTER.VDW>
-13.7803

>  <SCORE.INTER.norm>
-0.753723

>  <SCORE.INTRA>
-0.95841

>  <SCORE.INTRA.DIHEDRAL>
0.335485

>  <SCORE.INTRA.DIHEDRAL.0>
1.88407

>  <SCORE.INTRA.POLAR>
0

>  <SCORE.INTRA.POLAR.0>
0

>  <SCORE.INTRA.REPUL>
0

>  <SCORE.INTRA.REPUL.0>
0

>  <SCORE.INTRA.SOLV>
1.03491

>  <SCORE.INTRA.SOLV.lig_0>
-10.2714

>  <SCORE.INTRA.VDW>
-1.64361

>  <SCORE.INTRA.VDW.0>
0.416923

>  <SCORE.INTRA.norm>
-0.0798675

>  <SCORE.RESTR>
0

>  <SCORE.RESTR.CAVITY>
0

>  <SCORE.RESTR.norm>
0

>  <SCORE.SYSTEM>
0

>  <SCORE.SYSTEM.CONST>
0

>  <SCORE.SYSTEM.DIHEDRAL>
0

>  <SCORE.SYSTEM.SOLV>
0

>  <SCORE.SYSTEM.norm>
0

>  <SCORE.heavy>
12

>  <SCORE.norm>
-0.833591

>  <RMSD>
4.668

$$$$
ligand
 OpenBabel11021811433D
libRbt.so/2013.1/901 2013/11/27
 12 12  0  0  0  0  0  0  0  0999 V2000
   45.0623   14.5776    9.6422 O   0  0  0  0  0  0  0  0  0  0  0  0
   44.9779   12.3650   15.5360 O   0  0  0  0  0  0  0  0  0  0  0  0
   43.9840   13.6210    9.4123 C   0  0  0  0  0  0  0  0  0  0  0  0
   44.9292   13.7821   13.5189 O   0  0  0  0  0  0  0  0  0  0  0  0
   44.2300   12.2979   10.1939 C   0  0  0  0  0  0  0  0  0  0  0  0
   43.6530   12.3944   14.0982 O   0  0  0  0  0  0  0  0  0  0  0  0
   45.5118   12.4176   10.9714 N   0  0  0  0  0  0  0  0  0  0  0  0
   46.6524   12.7169   10.0533 C   0  0  0  0  0  0  0  0  0  0  0  0
   46.3428   14.0069    9.2419 C   0  0  0  0  0  0  0  0  0  0  0  0
   45.8166   11.1652   11.7478 C   0  0  0  0  0  0  0  0  0  0  0  0
   44.8977   11.0369   12.9867 C   0  0  0  0  0  0  0  0  0  0  0  0
   45.1112   12.4443   14.1021 S   0  0  0  0  0  0  0  0  0  0  0  0
  1  3  1  0  0  0  0
  1  9  1  0  0  0  0
  2 12  1  0  0  0  0
  3  5  1  0  0  0  0
  4 12  2  0  0  0  0
  5  7  1  0  0  0  0
  6 12  2  0  0  0  0
  7  8  1  0  0  0  0
  7 10  1  0  0  0  0
  8  9  1  0  0  0  0
 10 11  1  0  0  0  0
 11 12  1  0  0  0  0
M  END
>  <CHROM.1>
-74.32485842,-59.96587970,-147.75828751,45.08068665,12.73058930,12.06377556
1.29775172,1.11567849,-1.08313954

>  <Name>
ligand

>  <RI>
0

>  <Rbt.Current_Directory>
/home/itssahil/PROJECTS/Mol_Feturizer/New_Systems/rnas/2HO6

>  <Rbt.Executable>
rbdock ($Id: //depot/dev/client3/rdock/2013.1/src/exe/rbdock.cxx#4 $)

>  <Rbt.Library>
libRbt.so (2013.1, Build901 2013/11/27)

>  <Rbt.Parameter_File>
/export/apps/rDock/src/rDock_2013.1_src/data/scripts/dock_solv.prm

>  <Rbt.Receptor>
prm/pocket_docking_5.prm

>  <SCORE>
-10.1496

>  <SCORE.INTER>
-9.20723

>  <SCORE.INTER.CONST>
1

>  <SCORE.INTER.POLAR>
0

>  <SCORE.INTER.ROT>
3

>  <SCORE.INTER.SOLV>
6.24602

>  <SCORE.INTER.VDW>
-13.8202

>  <SCORE.INTER.norm>
-0.767269

>  <SCORE.INTRA>
-0.942406

>  <SCORE.INTRA.DIHEDRAL>
0.225225

>  <SCORE.INTRA.DIHEDRAL.0>
1.88407

>  <SCORE.INTRA.POLAR>
0

>  <SCORE.INTRA.POLAR.0>
0

>  <SCORE.INTRA.REPUL>
0

>  <SCORE.INTRA.REPUL.0>
0

>  <SCORE.INTRA.SOLV>
1.14007

>  <SCORE.INTRA.SOLV.lig_0>
-10.2714

>  <SCORE.INTRA.VDW>
-1.62505

>  <SCORE.INTRA.VDW.0>
0.416923

>  <SCORE.INTRA.norm>
-0.0785338

>  <SCORE.RESTR>
0

>  <SCORE.RESTR.CAVITY>
0

>  <SCORE.RESTR.norm>
0

>  <SCORE.SYSTEM>
0

>  <SCORE.SYSTEM.CONST>
0

>  <SCORE.SYSTEM.DIHEDRAL>
0

>  <SCORE.SYSTEM.SOLV>
0

>  <SCORE.SYSTEM.norm>
0

>  <SCORE.heavy>
12

>  <SCORE.norm>
-0.845803

>  <RMSD>
4.680

$$$$
ligand
 OpenBabel11021811433D
libRbt.so/2013.1/901 2013/11/27
 12 12  0  0  0  0  0  0  0  0999 V2000
   45.0299   14.5767    9.6354 O   0  0  0  0  0  0  0  0  0  0  0  0
   44.9751   12.3770   15.5548 O   0  0  0  0  0  0  0  0  0  0  0  0
   43.9618   13.6064    9.4154 C   0  0  0  0  0  0  0  0  0  0  0  0
   44.7648   13.7962   13.5495 O   0  0  0  0  0  0  0  0  0  0  0  0
   44.2208   12.2948   10.2121 C   0  0  0  0  0  0  0  0  0  0  0  0
   43.5973   12.3317   14.1678 O   0  0  0  0  0  0  0  0  0  0  0  0
   45.5006   12.4366   10.9892 N   0  0  0  0  0  0  0  0  0  0  0  0
   46.6389   12.7373   10.0686 C   0  0  0  0  0  0  0  0  0  0  0  0
   46.3166   14.0148    9.2424 C   0  0  0  0  0  0  0  0  0  0  0  0
   45.8177   11.1962   11.7798 C   0  0  0  0  0  0  0  0  0  0  0  0
   44.8787   11.0562   13.0023 C   0  0  0  0  0  0  0  0  0  0  0  0
   45.0490   12.4696   14.1173 S   0  0  0  0  0  0  0  0  0  0  0  0
  1  3  1  0  0  0  0
  1  9  1  0  0  0  0
  2 12  1  0  0  0  0
  3  5  1  0  0  0  0
  4 12  2  0  0  0  0
  5  7  1  0  0  0  0
  6 12  2  0  0  0  0
  7  8  1  0  0  0  0
  7 10  1  0  0  0  0
  8  9  1  0  0  0  0
 10 11  1  0  0  0  0
 11 12  1  0  0  0  0
M  END
>  <CHROM.1>
-73.08290788,-60.35803730,-143.65424248,45.04216966,12.73745712,12.08293469
1.30770672,1.06378402,-1.10025938

>  <Name>
ligand

>  <RI>
0

>  <Rbt.Current_Directory>
/home/itssahil/PROJECTS/Mol_Feturizer/New_Systems/rnas/2HO6

>  <Rbt.Executable>
rbdock ($Id: //depot/dev/client3/rdock/2013.1/src/exe/rbdock.cxx#4 $)

>  <Rbt.Library>
libRbt.so (2013.1, Build901 2013/11/27)

>  <Rbt.Parameter_File>
/export/apps/rDock/src/rDock_2013.1_src/data/scripts/dock_solv.prm

>  <Rbt.Receptor>
prm/pocket_docking_7.prm

>  <SCORE>
-10.1157

>  <SCORE.INTER>
-9.16963

>  <SCORE.INTER.CONST>
1

>  <SCORE.INTER.POLAR>
0

>  <SCORE.INTER.ROT>
3

>  <SCORE.INTER.SOLV>
6.16905

>  <SCORE.INTER.VDW>
-13.7694

>  <SCORE.INTER.norm>
-0.764136

>  <SCORE.INTRA>
-0.946068

>  <SCORE.INTRA.DIHEDRAL>
0.177338

>  <SCORE.INTRA.DIHEDRAL.0>
1.88407

>  <SCORE.INTRA.POLAR>
0

>  <SCORE.INTRA.POLAR.0>
0

>  <SCORE.INTRA.REPUL>
0

>  <SCORE.INTRA.REPUL.0>
0

>  <SCORE.INTRA.SOLV>
1.07582

>  <SCORE.INTRA.SOLV.lig_0>
-10.2714

>  <SCORE.INTRA.VDW>
-1.57265

>  <SCORE.INTRA.VDW.0>
0.416923

>  <SCORE.INTRA.norm>
-0.078839

>  <SCORE.RESTR>
0

>  <SCORE.RESTR.CAVITY>
0

>  <SCORE.RESTR.norm>
0

>  <SCORE.SYSTEM>
0

>  <SCORE.SYSTEM.CONST>
0

>  <SCORE.SYSTEM.DIHEDRAL>
0

>  <SCORE.SYSTEM.SOLV>
0

>  <SCORE.SYSTEM.norm>
0

>  <SCORE.heavy>
12

>  <SCORE.norm>
-0.842975

>  <RMSD>
4.697

$$$$
ligand
 OpenBabel11021811433D
libRbt.so/2013.1/901 2013/11/27
 12 12  0  0  0  0  0  0  0  0999 V2000
   44.9512   14.5781    9.6505 O   0  0  0  0  0  0  0  0  0  0  0  0
   44.9815   12.3629   15.5427 O   0  0  0  0  0  0  0  0  0  0  0  0
   43.8747   13.6100    9.4640 C   0  0  0  0  0  0  0  0  0  0  0  0
   44.9362   13.7781   13.5242 O   0  0  0  0  0  0  0  0  0  0  0  0
   44.1620   12.2928   10.2415 C   0  0  0  0  0  0  0  0  0  0  0  0
   43.6634   12.3852   14.0985 O   0  0  0  0  0  0  0  0  0  0  0  0
   45.4701   12.4284   10.9712 N   0  0  0  0  0  0  0  0  0  0  0  0
   46.5735   12.7347   10.0107 C   0  0  0  0  0  0  0  0  0  0  0  0
   46.2218   14.0179    9.2059 C   0  0  0  0  0  0  0  0  0  0  0  0
   45.8154   11.1825   11.7410 C   0  0  0  0  0  0  0  0  0  0  0  0
   44.9195   11.0324   12.9942 C   0  0  0  0  0  0  0  0  0  0  0  0
   45.1213   12.4416   14.1094 S   0  0  0  0  0  0  0  0  0  0  0  0
  1  3  1  0  0  0  0
  1  9  1  0  0  0  0
  2 12  1  0  0  0  0
  3  5  1  0  0  0  0
  4 12  2  0  0  0  0
  5  7  1  0  0  0  0
  6 12  2  0  0  0  0
  7  8  1  0  0  0  0
  7 10  1  0  0  0  0
  8  9  1  0  0  0  0
 10 11  1  0  0  0  0
 11 12  1  0  0  0  0
M  END
>  <CHROM.1>
-72.89852081,-60.07661532,-149.29515997,45.04616500,12.73153821,12.06821199
1.35929296,1.09014044,-1.13964913

>  <Name>
ligand

>  <RI>
0

>  <Rbt.Current_Directory>
/home/itssahil/PROJECTS/Mol_Feturizer/New_Systems/rnas/2HO6

>  <Rbt.Executable>
rbdock ($Id: //depot/dev/client3/rdock/2013.1/src/exe/rbdock.cxx#4 $)

>  <Rbt.Library>
libRbt.so (2013.1, Build901 2013/11/27)

>  <Rbt.Parameter_File>
/export/apps/rDock/src/rDock_2013.1_src/data/scripts/dock_solv.prm

>  <Rbt.Receptor>
prm/pocket_docking_6.prm

>  <SCORE>
-10.157

>  <SCORE.INTER>
-9.22895

>  <SCORE.INTER.CONST>
1

>  <SCORE.INTER.POLAR>
0

>  <SCORE.INTER.ROT>
3

>  <SCORE.INTER.SOLV>
6.34631

>  <SCORE.INTER.VDW>
-13.8681

>  <SCORE.INTER.norm>
-0.769079

>  <SCORE.INTRA>
-0.928082

>  <SCORE.INTRA.DIHEDRAL>
0.160727

>  <SCORE.INTRA.DIHEDRAL.0>
1.88407

>  <SCORE.INTRA.POLAR>
0

>  <SCORE.INTRA.POLAR.0>
0

>  <SCORE.INTRA.REPUL>
0

>  <SCORE.INTRA.REPUL.0>
0

>  <SCORE.INTRA.SOLV>
1.16341

>  <SCORE.INTRA.SOLV.lig_0>
-10.2714

>  <SCORE.INTRA.VDW>
-1.59015

>  <SCORE.INTRA.VDW.0>
0.416923

>  <SCORE.INTRA.norm>
-0.0773402

>  <SCORE.RESTR>
0

>  <SCORE.RESTR.CAVITY>
0

>  <SCORE.RESTR.norm>
0

>  <SCORE.SYSTEM>
0

>  <SCORE.SYSTEM.CONST>
0

>  <SCORE.SYSTEM.DIHEDRAL>
0

>  <SCORE.SYSTEM.SOLV>
0

>  <SCORE.SYSTEM.norm>
0

>  <SCORE.heavy>
12

>  <SCORE.norm>
-0.846419

>  <RMSD>
4.735

$$$$
ligand
 OpenBabel11021811433D
libRbt.so/2013.1/901 2013/11/27
 12 12  0  0  0  0  0  0  0  0999 V2000
   44.9437   14.5834    9.6547 O   0  0  0  0  0  0  0  0  0  0  0  0
   44.9774   12.3541   15.5579 O   0  0  0  0  0  0  0  0  0  0  0  0
   43.8740   13.6074    9.4709 C   0  0  0  0  0  0  0  0  0  0  0  0
   44.7902   13.7786   13.5541 O   0  0  0  0  0  0  0  0  0  0  0  0
   44.1680   12.2963   10.2563 C   0  0  0  0  0  0  0  0  0  0  0  0
   43.6146   12.3137   14.1560 O   0  0  0  0  0  0  0  0  0  0  0  0
   45.4734   12.4443   10.9882 N   0  0  0  0  0  0  0  0  0  0  0  0
   46.5770   12.7525   10.0287 C   0  0  0  0  0  0  0  0  0  0  0  0
   46.2190   14.0291    9.2161 C   0  0  0  0  0  0  0  0  0  0  0  0
   45.8249   11.2048   11.7656 C   0  0  0  0  0  0  0  0  0  0  0  0
   44.9072   11.0399   13.0012 C   0  0  0  0  0  0  0  0  0  0  0  0
   45.0669   12.4503   14.1216 S   0  0  0  0  0  0  0  0  0  0  0  0
  1  3  1  0  0  0  0
  1  9  1  0  0  0  0
  2 12  1  0  0  0  0
  3  5  1  0  0  0  0
  4 12  2  0  0  0  0
  5  7  1  0  0  0  0
  6 12  2  0  0  0  0
  7  8  1  0  0  0  0
  7 10  1  0  0  0  0
  8  9  1  0  0  0  0
 10 11  1  0  0  0  0
 11 12  1  0  0  0  0
M  END
>  <CHROM.1>
-71.70231252,-60.25987484,-145.55014034,45.02066497,12.73232203,12.08614390
1.35433580,1.04363062,-1.13710429

>  <Name>
ligand

>  <RI>
0

>  <Rbt.Current_Directory>
/home/itssahil/PROJECTS/Mol_Feturizer/New_Systems/rnas/2HO6

>  <Rbt.Executable>
rbdock ($Id: //depot/dev/client3/rdock/2013.1/src/exe/rbdock.cxx#4 $)

>  <Rbt.Library>
libRbt.so (2013.1, Build901 2013/11/27)

>  <Rbt.Parameter_File>
/export/apps/rDock/src/rDock_2013.1_src/data/scripts/dock_solv.prm

>  <Rbt.Receptor>
prm/pocket_docking_5.prm

>  <SCORE>
-10.1423

>  <SCORE.INTER>
-9.21464

>  <SCORE.INTER.CONST>
1

>  <SCORE.INTER.POLAR>
0

>  <SCORE.INTER.ROT>
3

>  <SCORE.INTER.SOLV>
6.2282

>  <SCORE.INTER.VDW>
-13.8192

>  <SCORE.INTER.norm>
-0.767887

>  <SCORE.INTRA>
-0.927627

>  <SCORE.INTRA.DIHEDRAL>
0.116849

>  <SCORE.INTRA.DIHEDRAL.0>
1.88407

>  <SCORE.INTRA.POLAR>
0

>  <SCORE.INTRA.POLAR.0>
0

>  <SCORE.INTRA.REPUL>
0

>  <SCORE.INTRA.REPUL.0>
0

>  <SCORE.INTRA.SOLV>
1.11071

>  <SCORE.INTRA.SOLV.lig_0>
-10.2714

>  <SCORE.INTRA.VDW>
-1.5414

>  <SCORE.INTRA.VDW.0>
0.416923

>  <SCORE.INTRA.norm>
-0.0773022

>  <SCORE.RESTR>
0

>  <SCORE.RESTR.CAVITY>
0

>  <SCORE.RESTR.norm>
0

>  <SCORE.SYSTEM>
0

>  <SCORE.SYSTEM.CONST>
0

>  <SCORE.SYSTEM.DIHEDRAL>
0

>  <SCORE.SYSTEM.SOLV>
0

>  <SCORE.SYSTEM.norm>
0

>  <SCORE.heavy>
12

>  <SCORE.norm>
-0.845189

>  <RMSD>
4.736

$$$$
ligand
 OpenBabel11021811433D
libRbt.so/2013.1/901 2013/11/27
 12 12  0  0  0  0  0  0  0  0999 V2000
   44.9534   14.5893    9.6350 O   0  0  0  0  0  0  0  0  0  0  0  0
   44.9575   12.3584   15.5571 O   0  0  0  0  0  0  0  0  0  0  0  0
   43.8784   13.6173    9.4611 C   0  0  0  0  0  0  0  0  0  0  0  0
   44.7729   13.7930   13.5604 O   0  0  0  0  0  0  0  0  0  0  0  0
   44.1681   12.3105   10.2551 C   0  0  0  0  0  0  0  0  0  0  0  0
   43.5972   12.3243   14.1527 O   0  0  0  0  0  0  0  0  0  0  0  0
   45.4761   12.4574   10.9826 N   0  0  0  0  0  0  0  0  0  0  0  0
   46.5787   12.7532   10.0180 C   0  0  0  0  0  0  0  0  0  0  0  0
   46.2248   14.0257    9.1971 C   0  0  0  0  0  0  0  0  0  0  0  0
   45.8236   11.2218   11.7680 C   0  0  0  0  0  0  0  0  0  0  0  0
   44.8926   11.0573   12.9936 C   0  0  0  0  0  0  0  0  0  0  0  0
   45.0494   12.4620   14.1215 S   0  0  0  0  0  0  0  0  0  0  0  0
  1  3  1  0  0  0  0
  1  9  1  0  0  0  0
  2 12  1  0  0  0  0
  3  5  1  0  0  0  0
  4 12  2  0  0  0  0
  5  7  1  0  0  0  0
  6 12  2  0  0  0  0
  7  8  1  0  0  0  0
  7 10  1  0  0  0  0
  8  9  1  0  0  0  0
 10 11  1  0  0  0  0
 11 12  1  0  0  0  0
M  END
>  <CHROM.1>
-70.72957371,-60.97505956,-144.93943500,45.01400801,12.74213200,12.08095972
1.34921520,1.02995027,-1.13611580

>  <Name>
ligand

>  <RI>
0

>  <Rbt.Current_Directory>
/home/itssahil/PROJECTS/Mol_Feturizer/New_Systems/rnas/2HO6

>  <Rbt.Executable>
rbdock ($Id: //depot/dev/client3/rdock/2013.1/src/exe/rbdock.cxx#4 $)

>  <Rbt.Library>
libRbt.so (2013.1, Build901 2013/11/27)

>  <Rbt.Parameter_File>
/export/apps/rDock/src/rDock_2013.1_src/data/scripts/dock_solv.prm

>  <Rbt.Receptor>
prm/pocket_docking_5.prm

>  <SCORE>
-10.1479

>  <SCORE.INTER>
-9.2337

>  <SCORE.INTER.CONST>
1

>  <SCORE.INTER.POLAR>
0

>  <SCORE.INTER.ROT>
3

>  <SCORE.INTER.SOLV>
6.22342

>  <SCORE.INTER.VDW>
-13.8303

>  <SCORE.INTER.norm>
-0.769475

>  <SCORE.INTRA>
-0.914159

>  <SCORE.INTRA.DIHEDRAL>
0.084116

>  <SCORE.INTRA.DIHEDRAL.0>
1.88407

>  <SCORE.INTRA.POLAR>
0

>  <SCORE.INTRA.POLAR.0>
0

>  <SCORE.INTRA.REPUL>
0

>  <SCORE.INTRA.REPUL.0>
0

>  <SCORE.INTRA.SOLV>
1.08983

>  <SCORE.INTRA.SOLV.lig_0>
-10.2714

>  <SCORE.INTRA.VDW>
-1.50113

>  <SCORE.INTRA.VDW.0>
0.416923

>  <SCORE.INTRA.norm>
-0.0761799

>  <SCORE.RESTR>
0

>  <SCORE.RESTR.CAVITY>
0

>  <SCORE.RESTR.norm>
0

>  <SCORE.SYSTEM>
0

>  <SCORE.SYSTEM.CONST>
0

>  <SCORE.SYSTEM.DIHEDRAL>
0

>  <SCORE.SYSTEM.SOLV>
0

>  <SCORE.SYSTEM.norm>
0

>  <SCORE.heavy>
12

>  <SCORE.norm>
-0.845655

>  <RMSD>
4.737

$$$$
ligand
 OpenBabel11021811433D
libRbt.so/2013.1/901 2013/11/27
 12 12  0  0  0  0  0  0  0  0999 V2000
   44.9513   14.5627    9.6689 O   0  0  0  0  0  0  0  0  0  0  0  0
   44.9482   12.3728   15.5562 O   0  0  0  0  0  0  0  0  0  0  0  0
   43.8584   13.6098    9.5007 C   0  0  0  0  0  0  0  0  0  0  0  0
   44.9512   13.7715   13.5258 O   0  0  0  0  0  0  0  0  0  0  0  0
   44.1368   12.2916   10.2797 C   0  0  0  0  0  0  0  0  0  0  0  0
   43.6502   12.4024   14.0940 O   0  0  0  0  0  0  0  0  0  0  0  0
   45.4564   12.4108   10.9913 N   0  0  0  0  0  0  0  0  0  0  0  0
   46.5512   12.6971   10.0150 C   0  0  0  0  0  0  0  0  0  0  0  0
   46.2076   13.9823    9.2097 C   0  0  0  0  0  0  0  0  0  0  0  0
   45.7937   11.1629   11.7615 C   0  0  0  0  0  0  0  0  0  0  0  0
   44.9008   11.0220   13.0180 C   0  0  0  0  0  0  0  0  0  0  0  0
   45.1085   12.4374   14.1243 S   0  0  0  0  0  0  0  0  0  0  0  0
  1  3  1  0  0  0  0
  1  9  1  0  0  0  0
  2 12  1  0  0  0  0
  3  5  1  0  0  0  0
  4 12  2  0  0  0  0
  5  7  1  0  0  0  0
  6 12  2  0  0  0  0
  7  8  1  0  0  0  0
  7 10  1  0  0  0  0
  8  9  1  0  0  0  0
 10 11  1  0  0  0  0
 11 12  1  0  0  0  0
M  END
>  <CHROM.1>
-72.21284147,-59.61725380,-150.48617781,45.03194875,12.72246121,12.08371160
1.35633541,1.08981599,-1.14061452

>  <Name>
ligand

>  <RI>
0

>  <Rbt.Current_Directory>
/home/itssahil/PROJECTS/Mol_Feturizer/New_Systems/rnas/2HO6

>  <Rbt.Executable>
rbdock ($Id: //depot/dev/client3/rdock/2013.1/src/exe/rbdock.cxx#4 $)

>  <Rbt.Library>
libRbt.so (2013.1, Build901 2013/11/27)

>  <Rbt.Parameter_File>
/export/apps/rDock/src/rDock_2013.1_src/data/scripts/dock_solv.prm

>  <Rbt.Receptor>
prm/pocket_docking_5.prm

>  <SCORE>
-10.1668

>  <SCORE.INTER>
-9.25006

>  <SCORE.INTER.CONST>
1

>  <SCORE.INTER.POLAR>
0

>  <SCORE.INTER.ROT>
3

>  <SCORE.INTER.SOLV>
6.3675

>  <SCORE.INTER.VDW>
-13.8892

>  <SCORE.INTER.norm>
-0.770838

>  <SCORE.INTRA>
-0.916764

>  <SCORE.INTRA.DIHEDRAL>
0.131814

>  <SCORE.INTRA.DIHEDRAL.0>
1.88407

>  <SCORE.INTRA.POLAR>
0

>  <SCORE.INTRA.POLAR.0>
0

>  <SCORE.INTRA.REPUL>
0

>  <SCORE.INTRA.REPUL.0>
0

>  <SCORE.INTRA.SOLV>
1.19197

>  <SCORE.INTRA.SOLV.lig_0>
-10.2714

>  <SCORE.INTRA.VDW>
-1.57866

>  <SCORE.INTRA.VDW.0>
0.416923

>  <SCORE.INTRA.norm>
-0.076397

>  <SCORE.RESTR>
0

>  <SCORE.RESTR.CAVITY>
0

>  <SCORE.RESTR.norm>
0

>  <SCORE.SYSTEM>
0

>  <SCORE.SYSTEM.CONST>
0

>  <SCORE.SYSTEM.DIHEDRAL>
0

>  <SCORE.SYSTEM.SOLV>
0

>  <SCORE.SYSTEM.norm>
0

>  <SCORE.heavy>
12

>  <SCORE.norm>
-0.847235

>  <RMSD>
4.746

$$$$
ligand
 OpenBabel11021811433D
libRbt.so/2013.1/901 2013/11/27
 12 12  0  0  0  0  0  0  0  0999 V2000
   45.3434   15.3374    8.0310 O   0  0  0  0  0  0  0  0  0  0  0  0
   45.9396   11.7090   14.3020 O   0  0  0  0  0  0  0  0  0  0  0  0
   44.2221   14.4133    8.1696 C   0  0  0  0  0  0  0  0  0  0  0  0
   44.0888   13.0555   15.2189 O   0  0  0  0  0  0  0  0  0  0  0  0
   44.3399   13.5783    9.4777 C   0  0  0  0  0  0  0  0  0  0  0  0
   44.1248   11.9216   13.6055 O   0  0  0  0  0  0  0  0  0  0  0  0
   45.5804   13.9969   10.2177 N   0  0  0  0  0  0  0  0  0  0  0  0
   46.7879   13.8149    9.3559 C   0  0  0  0  0  0  0  0  0  0  0  0
   46.6063   14.6088    8.0311 C   0  0  0  0  0  0  0  0  0  0  0  0
   45.7616   13.2209   11.4941 C   0  0  0  0  0  0  0  0  0  0  0  0
   44.7747   13.7006   12.5858 C   0  0  0  0  0  0  0  0  0  0  0  0
   45.0901   12.8656   14.1585 S   0  0  0  0  0  0  0  0  0  0  0  0
  1  3  1  0  0  0  0
  1  9  1  0  0  0  0
  2 12  1  0  0  0  0
  3  5  1  0  0  0  0
  4 12  2  0  0  0  0
  5  7  1  0  0  0  0
  6 12  2  0  0  0  0
  7  8  1  0  0  0  0
  7 10  1  0  0  0  0
  8  9  1  0  0  0  0
 10 11  1  0  0  0  0
 11 12  1  0  0  0  0
M  END
>  <CHROM.1>
-74.74763010,-175.12927651,-12.60616356,45.19525269,13.43707386,11.55726733
1.45811992,0.17011344,-1.22691768

>  <Name>
ligand

>  <RI>
0

>  <Rbt.Current_Directory>
/home/itssahil/PROJECTS/Mol_Feturizer/New_Systems/rnas/2HO6

>  <Rbt.Executable>
rbdock ($Id: //depot/dev/client3/rdock/2013.1/src/exe/rbdock.cxx#4 $)

>  <Rbt.Library>
libRbt.so (2013.1, Build901 2013/11/27)

>  <Rbt.Parameter_File>
/export/apps/rDock/src/rDock_2013.1_src/data/scripts/dock_solv.prm

>  <Rbt.Receptor>
prm/pocket_docking_8.prm

>  <SCORE>
-10.1133

>  <SCORE.INTER>
-9.72802

>  <SCORE.INTER.CONST>
1

>  <SCORE.INTER.POLAR>
0

>  <SCORE.INTER.ROT>
3

>  <SCORE.INTER.SOLV>
6.75558

>  <SCORE.INTER.VDW>
-14.3372

>  <SCORE.INTER.norm>
-0.810668

>  <SCORE.INTRA>
-0.38532

>  <SCORE.INTRA.DIHEDRAL>
0.37205

>  <SCORE.INTRA.DIHEDRAL.0>
1.88407

>  <SCORE.INTRA.POLAR>
0

>  <SCORE.INTRA.POLAR.0>
0

>  <SCORE.INTRA.REPUL>
0

>  <SCORE.INTRA.REPUL.0>
0

>  <SCORE.INTRA.SOLV>
-0.00312884

>  <SCORE.INTRA.SOLV.lig_0>
-10.2714

>  <SCORE.INTRA.VDW>
-0.569781

>  <SCORE.INTRA.VDW.0>
0.416923

>  <SCORE.INTRA.norm>
-0.03211

>  <SCORE.RESTR>
0

>  <SCORE.RESTR.CAVITY>
0

>  <SCORE.RESTR.norm>
0

>  <SCORE.SYSTEM>
0

>  <SCORE.SYSTEM.CONST>
0

>  <SCORE.SYSTEM.DIHEDRAL>
0

>  <SCORE.SYSTEM.SOLV>
0

>  <SCORE.SYSTEM.norm>
0

>  <SCORE.heavy>
12

>  <SCORE.norm>
-0.842778

>  <RMSD>
4.771

$$$$
ligand
 OpenBabel11021811433D
libRbt.so/2013.1/901 2013/11/27
 12 12  0  0  0  0  0  0  0  0999 V2000
   44.0359   14.2938    9.7337 O   0  0  0  0  0  0  0  0  0  0  0  0
   44.7051   12.3431   15.6364 O   0  0  0  0  0  0  0  0  0  0  0  0
   43.9000   12.8513    9.5570 C   0  0  0  0  0  0  0  0  0  0  0  0
   44.2888   13.6932   13.6157 O   0  0  0  0  0  0  0  0  0  0  0  0
   44.9259   12.0780   10.4355 C   0  0  0  0  0  0  0  0  0  0  0  0
   44.0470   11.7552   13.8913 O   0  0  0  0  0  0  0  0  0  0  0  0
   45.7428   13.0663   11.2216 N   0  0  0  0  0  0  0  0  0  0  0  0
   46.4362   14.0183   10.3016 C   0  0  0  0  0  0  0  0  0  0  0  0
   45.3876   14.7228    9.3948 C   0  0  0  0  0  0  0  0  0  0  0  0
   46.7648   12.3846   12.0906 C   0  0  0  0  0  0  0  0  0  0  0  0
   46.0872   11.5866   13.2308 C   0  0  0  0  0  0  0  0  0  0  0  0
   45.1068   12.6748   14.2915 S   0  0  0  0  0  0  0  0  0  0  0  0
  1  3  1  0  0  0  0
  1  9  1  0  0  0  0
  2 12  1  0  0  0  0
  3  5  1  0  0  0  0
  4 12  2  0  0  0  0
  5  7  1  0  0  0  0
  6 12  2  0  0  0  0
  7  8  1  0  0  0  0
  7 10  1  0  0  0  0
  8  9  1  0  0  0  0
 10 11  1  0  0  0  0
 11 12  1  0  0  0  0
M  END
>  <CHROM.1>
-67.82577749,-60.23688916,-159.90249894,45.08329111,12.93225369,12.21906938
1.54573058,0.28012966,-1.27865066

>  <Name>
ligand

>  <RI>
0

>  <Rbt.Current_Directory>
/home/itssahil/PROJECTS/Mol_Feturizer/New_Systems/rnas/2HO6

>  <Rbt.Executable>
rbdock ($Id: //depot/dev/client3/rdock/2013.1/src/exe/rbdock.cxx#4 $)

>  <Rbt.Library>
libRbt.so (2013.1, Build901 2013/11/27)

>  <Rbt.Parameter_File>
/export/apps/rDock/src/rDock_2013.1_src/data/scripts/dock_solv.prm

>  <Rbt.Receptor>
prm/pocket_docking_5.prm

>  <SCORE>
-10.0648

>  <SCORE.INTER>
-9.27268

>  <SCORE.INTER.CONST>
1

>  <SCORE.INTER.POLAR>
0

>  <SCORE.INTER.ROT>
3

>  <SCORE.INTER.SOLV>
5.28925

>  <SCORE.INTER.VDW>
-13.5449

>  <SCORE.INTER.norm>
-0.772724

>  <SCORE.INTRA>
-0.792164

>  <SCORE.INTRA.DIHEDRAL>
-0.0189516

>  <SCORE.INTRA.DIHEDRAL.0>
1.88407

>  <SCORE.INTRA.POLAR>
0

>  <SCORE.INTRA.POLAR.0>
0

>  <SCORE.INTRA.REPUL>
0

>  <SCORE.INTRA.REPUL.0>
0

>  <SCORE.INTRA.SOLV>
1.3176

>  <SCORE.INTRA.SOLV.lig_0>
-10.2714

>  <SCORE.INTRA.VDW>
-1.44149

>  <SCORE.INTRA.VDW.0>
0.416923

>  <SCORE.INTRA.norm>
-0.0660137

>  <SCORE.RESTR>
0

>  <SCORE.RESTR.CAVITY>
0

>  <SCORE.RESTR.norm>
0

>  <SCORE.SYSTEM>
0

>  <SCORE.SYSTEM.CONST>
0

>  <SCORE.SYSTEM.DIHEDRAL>
0

>  <SCORE.SYSTEM.SOLV>
0

>  <SCORE.SYSTEM.norm>
0

>  <SCORE.heavy>
12

>  <SCORE.norm>
-0.838737

>  <RMSD>
4.777

$$$$
ligand
 OpenBabel11021811433D
libRbt.so/2013.1/901 2013/11/27
 12 12  0  0  0  0  0  0  0  0999 V2000
   44.7791   14.4556    9.6277 O   0  0  0  0  0  0  0  0  0  0  0  0
   43.9024   13.7012   14.6893 O   0  0  0  0  0  0  0  0  0  0  0  0
   43.7075   13.4946    9.8704 C   0  0  0  0  0  0  0  0  0  0  0  0
   43.5400   11.2644   14.5889 O   0  0  0  0  0  0  0  0  0  0  0  0
   44.1666   12.3761   10.8504 C   0  0  0  0  0  0  0  0  0  0  0  0
   44.9552   12.2766   15.5177 O   0  0  0  0  0  0  0  0  0  0  0  0
   45.5874   12.6406   11.2669 N   0  0  0  0  0  0  0  0  0  0  0  0
   46.4790   12.7020   10.0691 C   0  0  0  0  0  0  0  0  0  0  0  0
   45.9522   13.7828    9.0828 C   0  0  0  0  0  0  0  0  0  0  0  0
   46.1003   11.5887   12.2126 C   0  0  0  0  0  0  0  0  0  0  0  0
   46.0542   12.0832   13.6786 C   0  0  0  0  0  0  0  0  0  0  0  0
   44.3551   12.4237   14.1959 S   0  0  0  0  0  0  0  0  0  0  0  0
  1  3  1  0  0  0  0
  1  9  1  0  0  0  0
  2 12  1  0  0  0  0
  3  5  1  0  0  0  0
  4 12  2  0  0  0  0
  5  7  1  0  0  0  0
  6 12  2  0  0  0  0
  7  8  1  0  0  0  0
  7 10  1  0  0  0  0
  8  9  1  0  0  0  0
 10 11  1  0  0  0  0
 11 12  1  0  0  0  0
M  END
>  <CHROM.1>
-100.34807290,62.47994263,-122.48424478,44.88098650,12.71159852,12.38837653
1.38564222,0.48379521,-1.24834120

>  <Name>
ligand

>  <RI>
0

>  <Rbt.Current_Directory>
/home/itssahil/PROJECTS/Mol_Feturizer/New_Systems/rnas/2HO6

>  <Rbt.Executable>
rbdock ($Id: //depot/dev/client3/rdock/2013.1/src/exe/rbdock.cxx#4 $)

>  <Rbt.Library>
libRbt.so (2013.1, Build901 2013/11/27)

>  <Rbt.Parameter_File>
/export/apps/rDock/src/rDock_2013.1_src/data/scripts/dock_solv.prm

>  <Rbt.Receptor>
prm/pocket_docking_5.prm

>  <SCORE>
-8.8337

>  <SCORE.INTER>
-8.22997

>  <SCORE.INTER.CONST>
1

>  <SCORE.INTER.POLAR>
0

>  <SCORE.INTER.ROT>
3

>  <SCORE.INTER.SOLV>
6.63245

>  <SCORE.INTER.VDW>
-13.2975

>  <SCORE.INTER.norm>
-0.685831

>  <SCORE.INTRA>
-0.603729

>  <SCORE.INTRA.DIHEDRAL>
1.82928

>  <SCORE.INTRA.DIHEDRAL.0>
1.88407

>  <SCORE.INTRA.POLAR>
0

>  <SCORE.INTRA.POLAR.0>
0

>  <SCORE.INTRA.REPUL>
0

>  <SCORE.INTRA.REPUL.0>
0

>  <SCORE.INTRA.SOLV>
0.354433

>  <SCORE.INTRA.SOLV.lig_0>
-10.2714

>  <SCORE.INTRA.VDW>
-1.69559

>  <SCORE.INTRA.VDW.0>
0.416923

>  <SCORE.INTRA.norm>
-0.0503107

>  <SCORE.RESTR>
0

>  <SCORE.RESTR.CAVITY>
0

>  <SCORE.RESTR.norm>
0

>  <SCORE.SYSTEM>
0

>  <SCORE.SYSTEM.CONST>
0

>  <SCORE.SYSTEM.DIHEDRAL>
0

>  <SCORE.SYSTEM.SOLV>
0

>  <SCORE.SYSTEM.norm>
0

>  <SCORE.heavy>
12

>  <SCORE.norm>
-0.736141

>  <RMSD>
4.794

$$$$
ligand
 OpenBabel11021811433D
libRbt.so/2013.1/901 2013/11/27
 12 12  0  0  0  0  0  0  0  0999 V2000
   44.0209   14.3062    9.7243 O   0  0  0  0  0  0  0  0  0  0  0  0
   44.6506   12.3445   15.6416 O   0  0  0  0  0  0  0  0  0  0  0  0
   43.8804   12.8644    9.5449 C   0  0  0  0  0  0  0  0  0  0  0  0
   44.2881   13.7364   13.6390 O   0  0  0  0  0  0  0  0  0  0  0  0
   44.8960   12.0859   10.4306 C   0  0  0  0  0  0  0  0  0  0  0  0
   43.9924   11.8016   13.8821 O   0  0  0  0  0  0  0  0  0  0  0  0
   45.7108   13.0698   11.2243 N   0  0  0  0  0  0  0  0  0  0  0  0
   46.4154   14.0199   10.3109 C   0  0  0  0  0  0  0  0  0  0  0  0
   45.3770   14.7299    9.3966 C   0  0  0  0  0  0  0  0  0  0  0  0
   46.7230   12.3829   12.1006 C   0  0  0  0  0  0  0  0  0  0  0  0
   46.0332   11.5887   13.2361 C   0  0  0  0  0  0  0  0  0  0  0  0
   45.0727   12.6861   14.3055 S   0  0  0  0  0  0  0  0  0  0  0  0
  1  3  1  0  0  0  0
  1  9  1  0  0  0  0
  2 12  1  0  0  0  0
  3  5  1  0  0  0  0
  4 12  2  0  0  0  0
  5  7  1  0  0  0  0
  6 12  2  0  0  0  0
  7  8  1  0  0  0  0
  7 10  1  0  0  0  0
  8  9  1  0  0  0  0
 10 11  1  0  0  0  0
 11 12  1  0  0  0  0
M  END
>  <CHROM.1>
-67.93740202,-61.15566072,-160.83117576,45.05230770,12.94505758,12.22308869
1.54111067,0.29195109,-1.28044183

>  <Name>
ligand

>  <RI>
0

>  <Rbt.Current_Directory>
/home/itssahil/PROJECTS/Mol_Feturizer/New_Systems/rnas/2HO6

>  <Rbt.Executable>
rbdock ($Id: //depot/dev/client3/rdock/2013.1/src/exe/rbdock.cxx#4 $)

>  <Rbt.Library>
libRbt.so (2013.1, Build901 2013/11/27)

>  <Rbt.Parameter_File>
/export/apps/rDock/src/rDock_2013.1_src/data/scripts/dock_solv.prm

>  <Rbt.Receptor>
prm/pocket_docking_6.prm

>  <SCORE>
-10.0868

>  <SCORE.INTER>
-9.29713

>  <SCORE.INTER.CONST>
1

>  <SCORE.INTER.POLAR>
0

>  <SCORE.INTER.ROT>
3

>  <SCORE.INTER.SOLV>
5.33882

>  <SCORE.INTER.VDW>
-13.5777

>  <SCORE.INTER.norm>
-0.774761

>  <SCORE.INTRA>
-0.789705

>  <SCORE.INTRA.DIHEDRAL>
-0.00965087

>  <SCORE.INTRA.DIHEDRAL.0>
1.88407

>  <SCORE.INTRA.POLAR>
0

>  <SCORE.INTRA.POLAR.0>
0

>  <SCORE.INTRA.REPUL>
0

>  <SCORE.INTRA.REPUL.0>
0

>  <SCORE.INTRA.SOLV>
1.3047

>  <SCORE.INTRA.SOLV.lig_0>
-10.2714

>  <SCORE.INTRA.VDW>
-1.43723

>  <SCORE.INTRA.VDW.0>
0.416923

>  <SCORE.INTRA.norm>
-0.0658088

>  <SCORE.RESTR>
0

>  <SCORE.RESTR.CAVITY>
0

>  <SCORE.RESTR.norm>
0

>  <SCORE.SYSTEM>
0

>  <SCORE.SYSTEM.CONST>
0

>  <SCORE.SYSTEM.DIHEDRAL>
0

>  <SCORE.SYSTEM.SOLV>
0

>  <SCORE.SYSTEM.norm>
0

>  <SCORE.heavy>
12

>  <SCORE.norm>
-0.840569

>  <RMSD>
4.798

$$$$
ligand
 OpenBabel11021811433D
libRbt.so/2013.1/901 2013/11/27
 12 12  0  0  0  0  0  0  0  0999 V2000
   45.6633   14.8568    8.4262 O   0  0  0  0  0  0  0  0  0  0  0  0
   42.7959   11.9263   14.7462 O   0  0  0  0  0  0  0  0  0  0  0  0
   44.3353   14.2510    8.4344 C   0  0  0  0  0  0  0  0  0  0  0  0
   45.1517   12.2816   15.3811 O   0  0  0  0  0  0  0  0  0  0  0  0
   44.1209   13.3834    9.7086 C   0  0  0  0  0  0  0  0  0  0  0  0
   43.7658   13.6133   14.9387 O   0  0  0  0  0  0  0  0  0  0  0  0
   45.3577   13.4495   10.5618 N   0  0  0  0  0  0  0  0  0  0  0  0
   46.5490   12.9819    9.7900 C   0  0  0  0  0  0  0  0  0  0  0  0
   46.6930   13.8266    8.4923 C   0  0  0  0  0  0  0  0  0  0  0  0
   45.2221   12.6232   11.8120 C   0  0  0  0  0  0  0  0  0  0  0  0
   44.4542   13.3947   12.9125 C   0  0  0  0  0  0  0  0  0  0  0  0
   44.1179   12.3319   14.3364 S   0  0  0  0  0  0  0  0  0  0  0  0
  1  3  1  0  0  0  0
  1  9  1  0  0  0  0
  2 12  1  0  0  0  0
  3  5  1  0  0  0  0
  4 12  2  0  0  0  0
  5  7  1  0  0  0  0
  6 12  2  0  0  0  0
  7  8  1  0  0  0  0
  7 10  1  0  0  0  0
  8  9  1  0  0  0  0
 10 11  1  0  0  0  0
 11 12  1  0  0  0  0
M  END
>  <CHROM.1>
-82.18245446,173.10909642,-114.08231541,44.76334468,13.15572102,11.95077104
1.30931605,0.17151634,-1.27927471

>  <Name>
ligand

>  <RI>
0

>  <Rbt.Current_Directory>
/home/itssahil/PROJECTS/Mol_Feturizer/New_Systems/rnas/2HO6

>  <Rbt.Executable>
rbdock ($Id: //depot/dev/client3/rdock/2013.1/src/exe/rbdock.cxx#4 $)

>  <Rbt.Library>
libRbt.so (2013.1, Build901 2013/11/27)

>  <Rbt.Parameter_File>
/export/apps/rDock/src/rDock_2013.1_src/data/scripts/dock_solv.prm

>  <Rbt.Receptor>
prm/pocket_docking_5.prm

>  <SCORE>
-8.53203

>  <SCORE.INTER>
-8.09734

>  <SCORE.INTER.CONST>
1

>  <SCORE.INTER.POLAR>
0

>  <SCORE.INTER.ROT>
3

>  <SCORE.INTER.SOLV>
8.27846

>  <SCORE.INTER.VDW>
-13.7577

>  <SCORE.INTER.norm>
-0.674778

>  <SCORE.INTRA>
-0.434688

>  <SCORE.INTRA.DIHEDRAL>
0.928598

>  <SCORE.INTRA.DIHEDRAL.0>
1.88407

>  <SCORE.INTRA.POLAR>
0

>  <SCORE.INTRA.POLAR.0>
0

>  <SCORE.INTRA.REPUL>
0

>  <SCORE.INTRA.REPUL.0>
0

>  <SCORE.INTRA.SOLV>
0.0224819

>  <SCORE.INTRA.SOLV.lig_0>
-10.2714

>  <SCORE.INTRA.VDW>
-0.910228

>  <SCORE.INTRA.VDW.0>
0.416923

>  <SCORE.INTRA.norm>
-0.036224

>  <SCORE.RESTR>
0

>  <SCORE.RESTR.CAVITY>
0

>  <SCORE.RESTR.norm>
0

>  <SCORE.SYSTEM>
0

>  <SCORE.SYSTEM.CONST>
0

>  <SCORE.SYSTEM.DIHEDRAL>
0

>  <SCORE.SYSTEM.SOLV>
0

>  <SCORE.SYSTEM.norm>
0

>  <SCORE.heavy>
12

>  <SCORE.norm>
-0.711002

>  <RMSD>
4.799

$$$$
ligand
 OpenBabel11021811433D
libRbt.so/2013.1/901 2013/11/27
 12 12  0  0  0  0  0  0  0  0999 V2000
   46.0256   13.7128    8.2563 O   0  0  0  0  0  0  0  0  0  0  0  0
   44.7064   12.0501   15.6925 O   0  0  0  0  0  0  0  0  0  0  0  0
   46.9969   14.3895    9.1104 C   0  0  0  0  0  0  0  0  0  0  0  0
   43.1406   13.7109   14.7601 O   0  0  0  0  0  0  0  0  0  0  0  0
   46.4706   14.5165   10.5695 C   0  0  0  0  0  0  0  0  0  0  0  0
   43.5725   11.9009   14.1063 O   0  0  0  0  0  0  0  0  0  0  0  0
   45.1113   13.8790   10.6586 N   0  0  0  0  0  0  0  0  0  0  0  0
   44.1697   14.5216    9.6921 C   0  0  0  0  0  0  0  0  0  0  0  0
   44.7588   14.4346    8.2555 C   0  0  0  0  0  0  0  0  0  0  0  0
   44.5370   13.9731   12.0463 C   0  0  0  0  0  0  0  0  0  0  0  0
   45.1172   12.8733   12.9680 C   0  0  0  0  0  0  0  0  0  0  0  0
   44.4082   12.9769   14.6284 S   0  0  0  0  0  0  0  0  0  0  0  0
  1  3  1  0  0  0  0
  1  9  1  0  0  0  0
  2 12  1  0  0  0  0
  3  5  1  0  0  0  0
  4 12  2  0  0  0  0
  5  7  1  0  0  0  0
  6 12  2  0  0  0  0
  7  8  1  0  0  0  0
  7 10  1  0  0  0  0
  8  9  1  0  0  0  0
 10 11  1  0  0  0  0
 11 12  1  0  0  0  0
M  END
>  <CHROM.1>
-80.86671145,-179.26525912,177.06323260,44.84793935,13.49254704,12.05795652
-1.30992836,-0.14922780,1.87337310

>  <Name>
ligand

>  <RI>
0

>  <Rbt.Current_Directory>
/home/itssahil/PROJECTS/Mol_Feturizer/New_Systems/rnas/2HO6

>  <Rbt.Executable>
rbdock ($Id: //depot/dev/client3/rdock/2013.1/src/exe/rbdock.cxx#4 $)

>  <Rbt.Library>
libRbt.so (2013.1, Build901 2013/11/27)

>  <Rbt.Parameter_File>
/export/apps/rDock/src/rDock_2013.1_src/data/scripts/dock_solv.prm

>  <Rbt.Receptor>
prm/pocket_docking_6.prm

>  <SCORE>
-9.23181

>  <SCORE.INTER>
-8.90965

>  <SCORE.INTER.CONST>
1

>  <SCORE.INTER.POLAR>
0

>  <SCORE.INTER.ROT>
3

>  <SCORE.INTER.SOLV>
5.53232

>  <SCORE.INTER.VDW>
-13.3839

>  <SCORE.INTER.norm>
-0.74247

>  <SCORE.INTRA>
-0.322161

>  <SCORE.INTRA.DIHEDRAL>
0.636147

>  <SCORE.INTRA.DIHEDRAL.0>
1.88407

>  <SCORE.INTRA.POLAR>
0

>  <SCORE.INTRA.POLAR.0>
0

>  <SCORE.INTRA.REPUL>
0

>  <SCORE.INTRA.REPUL.0>
0

>  <SCORE.INTRA.SOLV>
0.188877

>  <SCORE.INTRA.SOLV.lig_0>
-10.2714

>  <SCORE.INTRA.VDW>
-0.734673

>  <SCORE.INTRA.VDW.0>
0.416923

>  <SCORE.INTRA.norm>
-0.0268468

>  <SCORE.RESTR>
0

>  <SCORE.RESTR.CAVITY>
0

>  <SCORE.RESTR.norm>
0

>  <SCORE.SYSTEM>
0

>  <SCORE.SYSTEM.CONST>
0

>  <SCORE.SYSTEM.DIHEDRAL>
0

>  <SCORE.SYSTEM.SOLV>
0

>  <SCORE.SYSTEM.norm>
0

>  <SCORE.heavy>
12

>  <SCORE.norm>
-0.769317

>  <RMSD>
4.806

$$$$
ligand
 OpenBabel11021811433D
libRbt.so/2013.1/901 2013/11/27
 12 12  0  0  0  0  0  0  0  0999 V2000
   43.9332   14.2649    9.7445 O   0  0  0  0  0  0  0  0  0  0  0  0
   44.7113   12.2889   15.5974 O   0  0  0  0  0  0  0  0  0  0  0  0
   43.8420   12.8197    9.5610 C   0  0  0  0  0  0  0  0  0  0  0  0
   44.3693   13.7371   13.6314 O   0  0  0  0  0  0  0  0  0  0  0  0
   44.9087   12.0759   10.4160 C   0  0  0  0  0  0  0  0  0  0  0  0
   44.0844   11.7938   13.8125 O   0  0  0  0  0  0  0  0  0  0  0  0
   45.7066   13.0861   11.1937 N   0  0  0  0  0  0  0  0  0  0  0  0
   46.3512   14.0660   10.2675 C   0  0  0  0  0  0  0  0  0  0  0  0
   45.2636   14.7406    9.3842 C   0  0  0  0  0  0  0  0  0  0  0  0
   46.7661   12.4338   12.0399 C   0  0  0  0  0  0  0  0  0  0  0  0
   46.1363   11.6146   13.1924 C   0  0  0  0  0  0  0  0  0  0  0  0
   45.1514   12.6730   14.2787 S   0  0  0  0  0  0  0  0  0  0  0  0
  1  3  1  0  0  0  0
  1  9  1  0  0  0  0
  2 12  1  0  0  0  0
  3  5  1  0  0  0  0
  4 12  2  0  0  0  0
  5  7  1  0  0  0  0
  6 12  2  0  0  0  0
  7  8  1  0  0  0  0
  7 10  1  0  0  0  0
  8  9  1  0  0  0  0
 10 11  1  0  0  0  0
 11 12  1  0  0  0  0
M  END
>  <CHROM.1>
-68.19777644,-60.43502447,-164.37391475,45.07290344,12.94120426,12.19664091
1.57378208,0.26784425,-1.28571757

>  <Name>
ligand

>  <RI>
0

>  <Rbt.Current_Directory>
/home/itssahil/PROJECTS/Mol_Feturizer/New_Systems/rnas/2HO6

>  <Rbt.Executable>
rbdock ($Id: //depot/dev/client3/rdock/2013.1/src/exe/rbdock.cxx#4 $)

>  <Rbt.Library>
libRbt.so (2013.1, Build901 2013/11/27)

>  <Rbt.Parameter_File>
/export/apps/rDock/src/rDock_2013.1_src/data/scripts/dock_solv.prm

>  <Rbt.Receptor>
prm/pocket_docking_6.prm

>  <SCORE>
-10.0966

>  <SCORE.INTER>
-9.32732

>  <SCORE.INTER.CONST>
1

>  <SCORE.INTER.POLAR>
0

>  <SCORE.INTER.ROT>
3

>  <SCORE.INTER.SOLV>
5.42745

>  <SCORE.INTER.VDW>
-13.6274

>  <SCORE.INTER.norm>
-0.777277

>  <SCORE.INTRA>
-0.769316

>  <SCORE.INTRA.DIHEDRAL>
-0.000119863

>  <SCORE.INTRA.DIHEDRAL.0>
1.88407

>  <SCORE.INTRA.POLAR>
0

>  <SCORE.INTRA.POLAR.0>
0

>  <SCORE.INTRA.REPUL>
0

>  <SCORE.INTRA.REPUL.0>
0

>  <SCORE.INTRA.SOLV>
1.36419

>  <SCORE.INTRA.SOLV.lig_0>
-10.2714

>  <SCORE.INTRA.VDW>
-1.45135

>  <SCORE.INTRA.VDW.0>
0.416923

>  <SCORE.INTRA.norm>
-0.0641097

>  <SCORE.RESTR>
0

>  <SCORE.RESTR.CAVITY>
0

>  <SCORE.RESTR.norm>
0

>  <SCORE.SYSTEM>
0

>  <SCORE.SYSTEM.CONST>
0

>  <SCORE.SYSTEM.DIHEDRAL>
0

>  <SCORE.SYSTEM.SOLV>
0

>  <SCORE.SYSTEM.norm>
0

>  <SCORE.heavy>
12

>  <SCORE.norm>
-0.841386

>  <RMSD>
4.814

$$$$
ligand
 OpenBabel11021811433D
libRbt.so/2013.1/901 2013/11/27
 12 12  0  0  0  0  0  0  0  0999 V2000
   44.9957   11.4303   10.3157 O   0  0  0  0  0  0  0  0  0  0  0  0
   43.7812    9.5759   14.0606 O   0  0  0  0  0  0  0  0  0  0  0  0
   46.0930   10.5910   10.7871 C   0  0  0  0  0  0  0  0  0  0  0  0
   42.4047   10.4039   15.9312 O   0  0  0  0  0  0  0  0  0  0  0  0
   46.3949   10.8524   12.2913 C   0  0  0  0  0  0  0  0  0  0  0  0
   42.6911   11.1971   14.1482 O   0  0  0  0  0  0  0  0  0  0  0  0
   45.4393   11.8912   12.8107 N   0  0  0  0  0  0  0  0  0  0  0  0
   45.5552   13.1507   12.0147 C   0  0  0  0  0  0  0  0  0  0  0  0
   45.3134   12.8399   10.5103 C   0  0  0  0  0  0  0  0  0  0  0  0
   45.6807   12.1997   14.2636 C   0  0  0  0  0  0  0  0  0  0  0  0
   44.3545   12.2100   15.0616 C   0  0  0  0  0  0  0  0  0  0  0  0
   43.6038   10.5651   15.0951 S   0  0  0  0  0  0  0  0  0  0  0  0
  1  3  1  0  0  0  0
  1  9  1  0  0  0  0
  2 12  1  0  0  0  0
  3  5  1  0  0  0  0
  4 12  2  0  0  0  0
  5  7  1  0  0  0  0
  6 12  2  0  0  0  0
  7  8  1  0  0  0  0
  7 10  1  0  0  0  0
  8  9  1  0  0  0  0
 10 11  1  0  0  0  0
 11 12  1  0  0  0  0
M  END
>  <CHROM.1>
-133.20064721,65.18798203,-28.35512839,44.54143800,11.29977054,13.31263782
0.51722092,-0.96498949,-2.25163768

>  <Name>
ligand

>  <RI>
0

>  <Rbt.Current_Directory>
/home/itssahil/PROJECTS/Mol_Feturizer/New_Systems/rnas/2HO6

>  <Rbt.Executable>
rbdock ($Id: //depot/dev/client3/rdock/2013.1/src/exe/rbdock.cxx#4 $)

>  <Rbt.Library>
libRbt.so (2013.1, Build901 2013/11/27)

>  <Rbt.Parameter_File>
/export/apps/rDock/src/rDock_2013.1_src/data/scripts/dock_solv.prm

>  <Rbt.Receptor>
prm/pocket_docking_4.prm

>  <SCORE>
-9.0845

>  <SCORE.INTER>
-8.25296

>  <SCORE.INTER.CONST>
1

>  <SCORE.INTER.POLAR>
0

>  <SCORE.INTER.ROT>
3

>  <SCORE.INTER.SOLV>
8.38236

>  <SCORE.INTER.VDW>
-13.8961

>  <SCORE.INTER.norm>
-0.687747

>  <SCORE.INTRA>
-0.83154

>  <SCORE.INTRA.DIHEDRAL>
2.01416

>  <SCORE.INTRA.DIHEDRAL.0>
1.88407

>  <SCORE.INTRA.POLAR>
0

>  <SCORE.INTRA.POLAR.0>
0

>  <SCORE.INTRA.REPUL>
0

>  <SCORE.INTRA.REPUL.0>
0

>  <SCORE.INTRA.SOLV>
0.423422

>  <SCORE.INTRA.SOLV.lig_0>
-10.2714

>  <SCORE.INTRA.VDW>
-2.05033

>  <SCORE.INTRA.VDW.0>
0.416923

>  <SCORE.INTRA.norm>
-0.069295

>  <SCORE.RESTR>
0

>  <SCORE.RESTR.CAVITY>
0

>  <SCORE.RESTR.norm>
0

>  <SCORE.SYSTEM>
0

>  <SCORE.SYSTEM.CONST>
0

>  <SCORE.SYSTEM.DIHEDRAL>
0

>  <SCORE.SYSTEM.SOLV>
0

>  <SCORE.SYSTEM.norm>
0

>  <SCORE.heavy>
12

>  <SCORE.norm>
-0.757042

>  <RMSD>
4.823

$$$$
ligand
 OpenBabel11021811433D
libRbt.so/2013.1/901 2013/11/27
 12 12  0  0  0  0  0  0  0  0999 V2000
   44.9844   11.4309   10.3233 O   0  0  0  0  0  0  0  0  0  0  0  0
   43.7691    9.5835   14.0586 O   0  0  0  0  0  0  0  0  0  0  0  0
   46.0812   10.5914   10.7954 C   0  0  0  0  0  0  0  0  0  0  0  0
   42.4032   10.4013   15.9414 O   0  0  0  0  0  0  0  0  0  0  0  0
   46.3841   10.8548   12.2990 C   0  0  0  0  0  0  0  0  0  0  0  0
   42.6788   11.2036   14.1608 O   0  0  0  0  0  0  0  0  0  0  0  0
   45.4297   11.8951   12.8175 N   0  0  0  0  0  0  0  0  0  0  0  0
   45.5463   13.1534   12.0195 C   0  0  0  0  0  0  0  0  0  0  0  0
   45.3034   12.8405   10.5157 C   0  0  0  0  0  0  0  0  0  0  0  0
   45.6722   12.2056   14.2697 C   0  0  0  0  0  0  0  0  0  0  0  0
   44.3470   12.2128   15.0695 C   0  0  0  0  0  0  0  0  0  0  0  0
   43.5973   10.5674   15.0991 S   0  0  0  0  0  0  0  0  0  0  0  0
  1  3  1  0  0  0  0
  1  9  1  0  0  0  0
  2 12  1  0  0  0  0
  3  5  1  0  0  0  0
  4 12  2  0  0  0  0
  5  7  1  0  0  0  0
  6 12  2  0  0  0  0
  7  8  1  0  0  0  0
  7 10  1  0  0  0  0
  8  9  1  0  0  0  0
 10 11  1  0  0  0  0
 11 12  1  0  0  0  0
M  END
>  <CHROM.1>
-132.97910929,64.93429566,-28.64120436,44.53245071,11.30249179,13.31905033
0.52052546,-0.96442178,-2.24813084

>  <Name>
ligand

>  <RI>
0

>  <Rbt.Current_Directory>
/home/itssahil/PROJECTS/Mol_Feturizer/New_Systems/rnas/2HO6

>  <Rbt.Executable>
rbdock ($Id: //depot/dev/client3/rdock/2013.1/src/exe/rbdock.cxx#4 $)

>  <Rbt.Library>
libRbt.so (2013.1, Build901 2013/11/27)

>  <Rbt.Parameter_File>
/export/apps/rDock/src/rDock_2013.1_src/data/scripts/dock_solv.prm

>  <Rbt.Receptor>
prm/pocket_docking_4.prm

>  <SCORE>
-9.08867

>  <SCORE.INTER>
-8.25088

>  <SCORE.INTER.CONST>
1

>  <SCORE.INTER.POLAR>
0

>  <SCORE.INTER.ROT>
3

>  <SCORE.INTER.SOLV>
8.39698

>  <SCORE.INTER.VDW>
-13.8996

>  <SCORE.INTER.norm>
-0.687573

>  <SCORE.INTRA>
-0.837791

>  <SCORE.INTRA.DIHEDRAL>
2.01374

>  <SCORE.INTRA.DIHEDRAL.0>
1.88407

>  <SCORE.INTRA.POLAR>
0

>  <SCORE.INTRA.POLAR.0>
0

>  <SCORE.INTRA.REPUL>
0

>  <SCORE.INTRA.REPUL.0>
0

>  <SCORE.INTRA.SOLV>
0.42041

>  <SCORE.INTRA.SOLV.lig_0>
-10.2714

>  <SCORE.INTRA.VDW>
-2.05487

>  <SCORE.INTRA.VDW.0>
0.416923

>  <SCORE.INTRA.norm>
-0.0698159

>  <SCORE.RESTR>
0

>  <SCORE.RESTR.CAVITY>
0

>  <SCORE.RESTR.norm>
0

>  <SCORE.SYSTEM>
0

>  <SCORE.SYSTEM.CONST>
0

>  <SCORE.SYSTEM.DIHEDRAL>
0

>  <SCORE.SYSTEM.SOLV>
0

>  <SCORE.SYSTEM.norm>
0

>  <SCORE.heavy>
12

>  <SCORE.norm>
-0.757389

>  <RMSD>
4.831

$$$$
ligand
 OpenBabel11021811433D
libRbt.so/2013.1/901 2013/11/27
 12 12  0  0  0  0  0  0  0  0999 V2000
   44.2734   14.8377   10.1635 O   0  0  0  0  0  0  0  0  0  0  0  0
   43.7200   13.6289   14.8877 O   0  0  0  0  0  0  0  0  0  0  0  0
   43.9111   13.5912    9.4958 C   0  0  0  0  0  0  0  0  0  0  0  0
   43.4317   11.1811   14.9525 O   0  0  0  0  0  0  0  0  0  0  0  0
   44.4715   12.3588   10.2634 C   0  0  0  0  0  0  0  0  0  0  0  0
   44.8861   12.2848   15.6986 O   0  0  0  0  0  0  0  0  0  0  0  0
   45.2100   12.8345   11.4842 N   0  0  0  0  0  0  0  0  0  0  0  0
   46.3098   13.7693   11.0968 C   0  0  0  0  0  0  0  0  0  0  0  0
   45.7226   14.9522   10.2758 C   0  0  0  0  0  0  0  0  0  0  0  0
   45.7874   11.6902   12.2724 C   0  0  0  0  0  0  0  0  0  0  0  0
   45.8309   12.0176   13.7846 C   0  0  0  0  0  0  0  0  0  0  0  0
   44.1715   12.3387   14.4276 S   0  0  0  0  0  0  0  0  0  0  0  0
  1  3  1  0  0  0  0
  1  9  1  0  0  0  0
  2 12  1  0  0  0  0
  3  5  1  0  0  0  0
  4 12  2  0  0  0  0
  5  7  1  0  0  0  0
  6 12  2  0  0  0  0
  7  8  1  0  0  0  0
  7 10  1  0  0  0  0
  8  9  1  0  0  0  0
 10 11  1  0  0  0  0
 11 12  1  0  0  0  0
M  END
>  <CHROM.1>
-148.66169816,60.32454395,-112.11315778,44.72138044,12.90074715,12.65054048
1.38942352,0.77087996,-1.08430031

>  <Name>
ligand

>  <RI>
0

>  <Rbt.Current_Directory>
/home/itssahil/PROJECTS/Mol_Feturizer/New_Systems/rnas/2HO6

>  <Rbt.Executable>
rbdock ($Id: //depot/dev/client3/rdock/2013.1/src/exe/rbdock.cxx#4 $)

>  <Rbt.Library>
libRbt.so (2013.1, Build901 2013/11/27)

>  <Rbt.Parameter_File>
/export/apps/rDock/src/rDock_2013.1_src/data/scripts/dock_solv.prm

>  <Rbt.Receptor>
prm/pocket_docking_5.prm

>  <SCORE>
-8.82875

>  <SCORE.INTER>
-8.07942

>  <SCORE.INTER.CONST>
1

>  <SCORE.INTER.POLAR>
0

>  <SCORE.INTER.ROT>
3

>  <SCORE.INTER.SOLV>
6.14928

>  <SCORE.INTER.VDW>
-13.036

>  <SCORE.INTER.norm>
-0.673285

>  <SCORE.INTRA>
-0.749334

>  <SCORE.INTRA.DIHEDRAL>
1.16302

>  <SCORE.INTRA.DIHEDRAL.0>
1.88407

>  <SCORE.INTRA.POLAR>
0

>  <SCORE.INTRA.POLAR.0>
0

>  <SCORE.INTRA.REPUL>
0

>  <SCORE.INTRA.REPUL.0>
0

>  <SCORE.INTRA.SOLV>
0.279282

>  <SCORE.INTRA.SOLV.lig_0>
-10.2714

>  <SCORE.INTRA.VDW>
-1.47048

>  <SCORE.INTRA.VDW.0>
0.416923

>  <SCORE.INTRA.norm>
-0.0624445

>  <SCORE.RESTR>
0

>  <SCORE.RESTR.CAVITY>
0

>  <SCORE.RESTR.norm>
0

>  <SCORE.SYSTEM>
0

>  <SCORE.SYSTEM.CONST>
0

>  <SCORE.SYSTEM.DIHEDRAL>
0

>  <SCORE.SYSTEM.SOLV>
0

>  <SCORE.SYSTEM.norm>
0

>  <SCORE.heavy>
12

>  <SCORE.norm>
-0.735729

>  <RMSD>
4.872

$$$$
ligand
 OpenBabel11021811433D
libRbt.so/2013.1/901 2013/11/27
 12 12  0  0  0  0  0  0  0  0999 V2000
   44.2613   14.8341   10.1150 O   0  0  0  0  0  0  0  0  0  0  0  0
   43.7704   13.7117   14.9329 O   0  0  0  0  0  0  0  0  0  0  0  0
   43.9469   13.5851    9.4281 C   0  0  0  0  0  0  0  0  0  0  0  0
   43.3745   11.2784   14.8925 O   0  0  0  0  0  0  0  0  0  0  0  0
   44.5001   12.3585   10.2102 C   0  0  0  0  0  0  0  0  0  0  0  0
   44.8720   12.2843   15.6898 O   0  0  0  0  0  0  0  0  0  0  0  0
   45.1834   12.8405   11.4602 N   0  0  0  0  0  0  0  0  0  0  0  0
   46.2800   13.7969   11.1193 C   0  0  0  0  0  0  0  0  0  0  0  0
   45.7029   14.9738   10.2824 C   0  0  0  0  0  0  0  0  0  0  0  0
   45.7513   11.7023   12.2641 C   0  0  0  0  0  0  0  0  0  0  0  0
   45.8143   12.0569   13.7695 C   0  0  0  0  0  0  0  0  0  0  0  0
   44.1672   12.4234   14.4199 S   0  0  0  0  0  0  0  0  0  0  0  0
  1  3  1  0  0  0  0
  1  9  1  0  0  0  0
  2 12  1  0  0  0  0
  3  5  1  0  0  0  0
  4 12  2  0  0  0  0
  5  7  1  0  0  0  0
  6 12  2  0  0  0  0
  7  8  1  0  0  0  0
  7 10  1  0  0  0  0
  8  9  1  0  0  0  0
 10 11  1  0  0  0  0
 11 12  1  0  0  0  0
M  END
>  <CHROM.1>
-152.22789225,60.01761899,-115.93988892,44.71329024,12.93645756,12.63328625
1.35342302,0.93352390,-1.05259885

>  <Name>
ligand

>  <RI>
0

>  <Rbt.Current_Directory>
/home/itssahil/PROJECTS/Mol_Feturizer/New_Systems/rnas/2HO6

>  <Rbt.Executable>
rbdock ($Id: //depot/dev/client3/rdock/2013.1/src/exe/rbdock.cxx#4 $)

>  <Rbt.Library>
libRbt.so (2013.1, Build901 2013/11/27)

>  <Rbt.Parameter_File>
/export/apps/rDock/src/rDock_2013.1_src/data/scripts/dock_solv.prm

>  <Rbt.Receptor>
prm/pocket_docking_8.prm

>  <SCORE>
-8.9726

>  <SCORE.INTER>
-8.18241

>  <SCORE.INTER.CONST>
1

>  <SCORE.INTER.POLAR>
0

>  <SCORE.INTER.ROT>
3

>  <SCORE.INTER.SOLV>
6.16143

>  <SCORE.INTER.VDW>
-13.1088

>  <SCORE.INTER.norm>
-0.681868

>  <SCORE.INTRA>
-0.790191

>  <SCORE.INTRA.DIHEDRAL>
0.92718

>  <SCORE.INTRA.DIHEDRAL.0>
1.88407

>  <SCORE.INTRA.POLAR>
0

>  <SCORE.INTRA.POLAR.0>
0

>  <SCORE.INTRA.REPUL>
0

>  <SCORE.INTRA.REPUL.0>
0

>  <SCORE.INTRA.SOLV>
0.292802

>  <SCORE.INTRA.SOLV.lig_0>
-10.2714

>  <SCORE.INTRA.VDW>
-1.40018

>  <SCORE.INTRA.VDW.0>
0.416923

>  <SCORE.INTRA.norm>
-0.0658492

>  <SCORE.RESTR>
0

>  <SCORE.RESTR.CAVITY>
0

>  <SCORE.RESTR.norm>
0

>  <SCORE.SYSTEM>
0

>  <SCORE.SYSTEM.CONST>
0

>  <SCORE.SYSTEM.DIHEDRAL>
0

>  <SCORE.SYSTEM.SOLV>
0

>  <SCORE.SYSTEM.norm>
0

>  <SCORE.heavy>
12

>  <SCORE.norm>
-0.747717

>  <RMSD>
4.884

$$$$
ligand
 OpenBabel11021811433D
libRbt.so/2013.1/901 2013/11/27
 12 12  0  0  0  0  0  0  0  0999 V2000
   45.8083   13.7906    8.2522 O   0  0  0  0  0  0  0  0  0  0  0  0
   44.7119   11.9937   15.6704 O   0  0  0  0  0  0  0  0  0  0  0  0
   46.7032   14.7797    8.8452 C   0  0  0  0  0  0  0  0  0  0  0  0
   43.1928   13.7751   14.8970 O   0  0  0  0  0  0  0  0  0  0  0  0
   46.4108   14.9643   10.3626 C   0  0  0  0  0  0  0  0  0  0  0  0
   43.4114   11.9388   14.2111 O   0  0  0  0  0  0  0  0  0  0  0  0
   45.2923   14.0421   10.7632 N   0  0  0  0  0  0  0  0  0  0  0  0
   44.0719   14.3169    9.9455 C   0  0  0  0  0  0  0  0  0  0  0  0
   44.4176   14.1884    8.4348 C   0  0  0  0  0  0  0  0  0  0  0  0
   44.9507   14.1746   12.2226 C   0  0  0  0  0  0  0  0  0  0  0  0
   44.9010   12.7906   12.9139 C   0  0  0  0  0  0  0  0  0  0  0  0
   44.3785   12.9444   14.6383 S   0  0  0  0  0  0  0  0  0  0  0  0
  1  3  1  0  0  0  0
  1  9  1  0  0  0  0
  2 12  1  0  0  0  0
  3  5  1  0  0  0  0
  4 12  2  0  0  0  0
  5  7  1  0  0  0  0
  6 12  2  0  0  0  0
  7  8  1  0  0  0  0
  7 10  1  0  0  0  0
  8  9  1  0  0  0  0
 10 11  1  0  0  0  0
 11 12  1  0  0  0  0
M  END
>  <CHROM.1>
-130.01729490,-176.06281773,-154.92096370,44.78669025,13.54566467,12.09083576
1.31941236,-0.22490825,-1.34571223

>  <Name>
ligand

>  <RI>
0

>  <Rbt.Current_Directory>
/home/itssahil/PROJECTS/Mol_Feturizer/New_Systems/rnas/2HO6

>  <Rbt.Executable>
rbdock ($Id: //depot/dev/client3/rdock/2013.1/src/exe/rbdock.cxx#4 $)

>  <Rbt.Library>
libRbt.so (2013.1, Build901 2013/11/27)

>  <Rbt.Parameter_File>
/export/apps/rDock/src/rDock_2013.1_src/data/scripts/dock_solv.prm

>  <Rbt.Receptor>
prm/pocket_docking_5.prm

>  <SCORE>
-8.98818

>  <SCORE.INTER>
-8.92307

>  <SCORE.INTER.CONST>
1

>  <SCORE.INTER.POLAR>
0

>  <SCORE.INTER.ROT>
3

>  <SCORE.INTER.SOLV>
5.85352

>  <SCORE.INTER.VDW>
-13.4999

>  <SCORE.INTER.norm>
-0.743589

>  <SCORE.INTRA>
-0.0651116

>  <SCORE.INTRA.DIHEDRAL>
2.09305

>  <SCORE.INTRA.DIHEDRAL.0>
1.88407

>  <SCORE.INTRA.POLAR>
0

>  <SCORE.INTRA.POLAR.0>
0

>  <SCORE.INTRA.REPUL>
0

>  <SCORE.INTRA.REPUL.0>
0

>  <SCORE.INTRA.SOLV>
0.114394

>  <SCORE.INTRA.SOLV.lig_0>
-10.2714

>  <SCORE.INTRA.VDW>
-1.16883

>  <SCORE.INTRA.VDW.0>
0.416923

>  <SCORE.INTRA.norm>
-0.00542596

>  <SCORE.RESTR>
0

>  <SCORE.RESTR.CAVITY>
0

>  <SCORE.RESTR.norm>
0

>  <SCORE.SYSTEM>
0

>  <SCORE.SYSTEM.CONST>
0

>  <SCORE.SYSTEM.DIHEDRAL>
0

>  <SCORE.SYSTEM.SOLV>
0

>  <SCORE.SYSTEM.norm>
0

>  <SCORE.heavy>
12

>  <SCORE.norm>
-0.749015

>  <RMSD>
4.912

$$$$
ligand
 OpenBabel11021811433D
libRbt.so/2013.1/901 2013/11/27
 12 12  0  0  0  0  0  0  0  0999 V2000
   44.2903   14.3516   10.6127 O   0  0  0  0  0  0  0  0  0  0  0  0
   44.4884   12.4493   15.6786 O   0  0  0  0  0  0  0  0  0  0  0  0
   44.1975   13.1330    9.8144 C   0  0  0  0  0  0  0  0  0  0  0  0
   42.3680   11.3657   15.0392 O   0  0  0  0  0  0  0  0  0  0  0  0
   44.7338   11.9025   10.6021 C   0  0  0  0  0  0  0  0  0  0  0  0
   44.0517   10.5434   15.6547 O   0  0  0  0  0  0  0  0  0  0  0  0
   45.1734   12.3482   11.9696 N   0  0  0  0  0  0  0  0  0  0  0  0
   46.2185   13.4110   11.8606 C   0  0  0  0  0  0  0  0  0  0  0  0
   45.6714   14.5940   11.0124 C   0  0  0  0  0  0  0  0  0  0  0  0
   45.7128   11.2052   12.7861 C   0  0  0  0  0  0  0  0  0  0  0  0
   44.5830   10.4955   13.5708 C   0  0  0  0  0  0  0  0  0  0  0  0
   43.7793   11.6334   14.7238 S   0  0  0  0  0  0  0  0  0  0  0  0
  1  3  1  0  0  0  0
  1  9  1  0  0  0  0
  2 12  1  0  0  0  0
  3  5  1  0  0  0  0
  4 12  2  0  0  0  0
  5  7  1  0  0  0  0
  6 12  2  0  0  0  0
  7  8  1  0  0  0  0
  7 10  1  0  0  0  0
  8  9  1  0  0  0  0
 10 11  1  0  0  0  0
 11 12  1  0  0  0  0
M  END
>  <CHROM.1>
-88.46269050,-61.04533654,-51.30094768,44.49613792,12.22104383,13.01760971
0.65708889,1.25808302,-0.21393975

>  <Name>
ligand

>  <RI>
0

>  <Rbt.Current_Directory>
/home/itssahil/PROJECTS/Mol_Feturizer/New_Systems/rnas/2HO6

>  <Rbt.Executable>
rbdock ($Id: //depot/dev/client3/rdock/2013.1/src/exe/rbdock.cxx#4 $)

>  <Rbt.Library>
libRbt.so (2013.1, Build901 2013/11/27)

>  <Rbt.Parameter_File>
/export/apps/rDock/src/rDock_2013.1_src/data/scripts/dock_solv.prm

>  <Rbt.Receptor>
prm/pocket_docking_6.prm

>  <SCORE>
-8.18121

>  <SCORE.INTER>
-7.27811

>  <SCORE.INTER.CONST>
1

>  <SCORE.INTER.POLAR>
0

>  <SCORE.INTER.ROT>
3

>  <SCORE.INTER.SOLV>
6.4986

>  <SCORE.INTER.VDW>
-12.6183

>  <SCORE.INTER.norm>
-0.606509

>  <SCORE.INTRA>
-0.903103

>  <SCORE.INTRA.DIHEDRAL>
1.05832

>  <SCORE.INTRA.DIHEDRAL.0>
1.88407

>  <SCORE.INTRA.POLAR>
0

>  <SCORE.INTRA.POLAR.0>
0

>  <SCORE.INTRA.REPUL>
0

>  <SCORE.INTRA.REPUL.0>
0

>  <SCORE.INTRA.SOLV>
0.166485

>  <SCORE.INTRA.SOLV.lig_0>
-10.2714

>  <SCORE.INTRA.VDW>
-1.5155

>  <SCORE.INTRA.VDW.0>
0.416923

>  <SCORE.INTRA.norm>
-0.0752586

>  <SCORE.RESTR>
0

>  <SCORE.RESTR.CAVITY>
0

>  <SCORE.RESTR.norm>
0

>  <SCORE.SYSTEM>
0

>  <SCORE.SYSTEM.CONST>
0

>  <SCORE.SYSTEM.DIHEDRAL>
0

>  <SCORE.SYSTEM.SOLV>
0

>  <SCORE.SYSTEM.norm>
0

>  <SCORE.heavy>
12

>  <SCORE.norm>
-0.681767

>  <RMSD>
4.935

$$$$
ligand
 OpenBabel11021811433D
libRbt.so/2013.1/901 2013/11/27
 12 12  0  0  0  0  0  0  0  0999 V2000
   44.3439   14.8360   10.2762 O   0  0  0  0  0  0  0  0  0  0  0  0
   43.8429   13.6473   14.8337 O   0  0  0  0  0  0  0  0  0  0  0  0
   43.8948   13.7240    9.4440 C   0  0  0  0  0  0  0  0  0  0  0  0
   43.2067   11.3148   15.3174 O   0  0  0  0  0  0  0  0  0  0  0  0
   44.1898   12.3564   10.1259 C   0  0  0  0  0  0  0  0  0  0  0  0
   44.9208   12.2331   15.6473 O   0  0  0  0  0  0  0  0  0  0  0  0
   44.8402   12.6026   11.4595 N   0  0  0  0  0  0  0  0  0  0  0  0
   46.0944   13.3973   11.2890 C   0  0  0  0  0  0  0  0  0  0  0  0
   45.7724   14.7250   10.5461 C   0  0  0  0  0  0  0  0  0  0  0  0
   45.1615   11.3174   12.1732 C   0  0  0  0  0  0  0  0  0  0  0  0
   45.4540   11.5677   13.6724 C   0  0  0  0  0  0  0  0  0  0  0  0
   44.0051   12.2509   14.5115 S   0  0  0  0  0  0  0  0  0  0  0  0
  1  3  1  0  0  0  0
  1  9  1  0  0  0  0
  2 12  1  0  0  0  0
  3  5  1  0  0  0  0
  4 12  2  0  0  0  0
  5  7  1  0  0  0  0
  6 12  2  0  0  0  0
  7  8  1  0  0  0  0
  7 10  1  0  0  0  0
  8  9  1  0  0  0  0
 10 11  1  0  0  0  0
 11 12  1  0  0  0  0
M  END
>  <CHROM.1>
-164.13917955,62.36617832,-101.23083912,44.56156581,12.78438083,12.69774371
0.89365652,1.36559849,-0.55573452

>  <Name>
ligand

>  <RI>
0

>  <Rbt.Current_Directory>
/home/itssahil/PROJECTS/Mol_Feturizer/New_Systems/rnas/2HO6

>  <Rbt.Executable>
rbdock ($Id: //depot/dev/client3/rdock/2013.1/src/exe/rbdock.cxx#4 $)

>  <Rbt.Library>
libRbt.so (2013.1, Build901 2013/11/27)

>  <Rbt.Parameter_File>
/export/apps/rDock/src/rDock_2013.1_src/data/scripts/dock_solv.prm

>  <Rbt.Receptor>
prm/pocket_docking_5.prm

>  <SCORE>
-8.78931

>  <SCORE.INTER>
-7.99567

>  <SCORE.INTER.CONST>
1

>  <SCORE.INTER.POLAR>
0

>  <SCORE.INTER.ROT>
3

>  <SCORE.INTER.SOLV>
6.77929

>  <SCORE.INTER.VDW>
-13.1902

>  <SCORE.INTER.norm>
-0.666306

>  <SCORE.INTRA>
-0.793641

>  <SCORE.INTRA.DIHEDRAL>
0.341557

>  <SCORE.INTRA.DIHEDRAL.0>
1.88407

>  <SCORE.INTRA.POLAR>
0

>  <SCORE.INTRA.POLAR.0>
0

>  <SCORE.INTRA.REPUL>
0

>  <SCORE.INTRA.REPUL.0>
0

>  <SCORE.INTRA.SOLV>
0.220808

>  <SCORE.INTRA.SOLV.lig_0>
-10.2714

>  <SCORE.INTRA.VDW>
-1.07482

>  <SCORE.INTRA.VDW.0>
0.416923

>  <SCORE.INTRA.norm>
-0.0661368

>  <SCORE.RESTR>
0

>  <SCORE.RESTR.CAVITY>
0

>  <SCORE.RESTR.norm>
0

>  <SCORE.SYSTEM>
0

>  <SCORE.SYSTEM.CONST>
0

>  <SCORE.SYSTEM.DIHEDRAL>
0

>  <SCORE.SYSTEM.SOLV>
0

>  <SCORE.SYSTEM.norm>
0

>  <SCORE.heavy>
12

>  <SCORE.norm>
-0.732442

>  <RMSD>
4.978

$$$$
ligand
 OpenBabel11021811433D
libRbt.so/2013.1/901 2013/11/27
 12 12  0  0  0  0  0  0  0  0999 V2000
   46.5561   11.8506   10.8496 O   0  0  0  0  0  0  0  0  0  0  0  0
   43.8047   15.2957   13.4492 O   0  0  0  0  0  0  0  0  0  0  0  0
   46.0332   10.4908   10.9406 C   0  0  0  0  0  0  0  0  0  0  0  0
   41.9912   13.6326   13.2933 O   0  0  0  0  0  0  0  0  0  0  0  0
   45.2146   10.2895   12.2488 C   0  0  0  0  0  0  0  0  0  0  0  0
   42.7527   14.4997   14.8927 O   0  0  0  0  0  0  0  0  0  0  0  0
   45.1976   11.5799   13.0212 N   0  0  0  0  0  0  0  0  0  0  0  0
   46.5919   12.0238   13.3252 C   0  0  0  0  0  0  0  0  0  0  0  0
   47.3983   12.1500   12.0015 C   0  0  0  0  0  0  0  0  0  0  0  0
   44.4265   11.4543   14.3072 C   0  0  0  0  0  0  0  0  0  0  0  0
   44.1264   12.8445   14.9180 C   0  0  0  0  0  0  0  0  0  0  0  0
   43.3717   13.9421   13.6949 S   0  0  0  0  0  0  0  0  0  0  0  0
  1  3  1  0  0  0  0
  1  9  1  0  0  0  0
  2 12  1  0  0  0  0
  3  5  1  0  0  0  0
  4 12  2  0  0  0  0
  5  7  1  0  0  0  0
  6 12  2  0  0  0  0
  7  8  1  0  0  0  0
  7 10  1  0  0  0  0
  8  9  1  0  0  0  0
 10 11  1  0  0  0  0
 11 12  1  0  0  0  0
M  END
>  <CHROM.1>
-166.33704573,51.24165393,-131.90012389,44.61598353,12.69147810,13.13748193
-0.49431667,0.71648702,-0.21962553

>  <Name>
ligand

>  <RI>
0

>  <Rbt.Current_Directory>
/home/itssahil/PROJECTS/Mol_Feturizer/New_Systems/rnas/2HO6

>  <Rbt.Executable>
rbdock ($Id: //depot/dev/client3/rdock/2013.1/src/exe/rbdock.cxx#4 $)

>  <Rbt.Library>
libRbt.so (2013.1, Build901 2013/11/27)

>  <Rbt.Parameter_File>
/export/apps/rDock/src/rDock_2013.1_src/data/scripts/dock_solv.prm

>  <Rbt.Receptor>
prm/pocket_docking_6.prm

>  <SCORE>
-9.0945

>  <SCORE.INTER>
-8.45544

>  <SCORE.INTER.CONST>
1

>  <SCORE.INTER.POLAR>
0

>  <SCORE.INTER.ROT>
3

>  <SCORE.INTER.SOLV>
8.09511

>  <SCORE.INTER.VDW>
-13.9353

>  <SCORE.INTER.norm>
-0.70462

>  <SCORE.INTRA>
-0.639059

>  <SCORE.INTRA.DIHEDRAL>
0.415733

>  <SCORE.INTRA.DIHEDRAL.0>
1.88407

>  <SCORE.INTRA.POLAR>
0

>  <SCORE.INTRA.POLAR.0>
0

>  <SCORE.INTRA.REPUL>
0

>  <SCORE.INTRA.REPUL.0>
0

>  <SCORE.INTRA.SOLV>
0.426109

>  <SCORE.INTRA.SOLV.lig_0>
-10.2714

>  <SCORE.INTRA.VDW>
-1.05998

>  <SCORE.INTRA.VDW.0>
0.416923

>  <SCORE.INTRA.norm>
-0.053255

>  <SCORE.RESTR>
0

>  <SCORE.RESTR.CAVITY>
0

>  <SCORE.RESTR.norm>
0

>  <SCORE.SYSTEM>
0

>  <SCORE.SYSTEM.CONST>
0

>  <SCORE.SYSTEM.DIHEDRAL>
0

>  <SCORE.SYSTEM.SOLV>
0

>  <SCORE.SYSTEM.norm>
0

>  <SCORE.heavy>
12

>  <SCORE.norm>
-0.757875

>  <RMSD>
4.987

$$$$
ligand
 OpenBabel11021811433D
libRbt.so/2013.1/901 2013/11/27
 12 12  0  0  0  0  0  0  0  0999 V2000
   43.4524   14.0421   10.1627 O   0  0  0  0  0  0  0  0  0  0  0  0
   43.8505   13.5613   14.6505 O   0  0  0  0  0  0  0  0  0  0  0  0
   43.9575   12.7945    9.5979 C   0  0  0  0  0  0  0  0  0  0  0  0
   43.2917   11.2807   15.4028 O   0  0  0  0  0  0  0  0  0  0  0  0
   45.0052   12.1341   10.5404 C   0  0  0  0  0  0  0  0  0  0  0  0
   44.9808   12.2796   15.6012 O   0  0  0  0  0  0  0  0  0  0  0  0
   45.1661   12.9857   11.7695 N   0  0  0  0  0  0  0  0  0  0  0  0
   45.5826   14.3708   11.3931 C   0  0  0  0  0  0  0  0  0  0  0  0
   44.5486   14.9736   10.4003 C   0  0  0  0  0  0  0  0  0  0  0  0
   46.1748   12.4078   12.7249 C   0  0  0  0  0  0  0  0  0  0  0  0
   45.5103   11.4116   13.7056 C   0  0  0  0  0  0  0  0  0  0  0  0
   44.0514   12.1427   14.4848 S   0  0  0  0  0  0  0  0  0  0  0  0
  1  3  1  0  0  0  0
  1  9  1  0  0  0  0
  2 12  1  0  0  0  0
  3  5  1  0  0  0  0
  4 12  2  0  0  0  0
  5  7  1  0  0  0  0
  6 12  2  0  0  0  0
  7  8  1  0  0  0  0
  7 10  1  0  0  0  0
  8  9  1  0  0  0  0
 10 11  1  0  0  0  0
 11 12  1  0  0  0  0
M  END
>  <CHROM.1>
-88.17219019,-50.59080516,-24.93543127,44.54717632,12.79523969,12.77475772
1.50800331,0.68952781,-1.18598087

>  <Name>
ligand

>  <RI>
0

>  <Rbt.Current_Directory>
/home/itssahil/PROJECTS/Mol_Feturizer/New_Systems/rnas/2HO6

>  <Rbt.Executable>
rbdock ($Id: //depot/dev/client3/rdock/2013.1/src/exe/rbdock.cxx#4 $)

>  <Rbt.Library>
libRbt.so (2013.1, Build901 2013/11/27)

>  <Rbt.Parameter_File>
/export/apps/rDock/src/rDock_2013.1_src/data/scripts/dock_solv.prm

>  <Rbt.Receptor>
prm/pocket_docking_4.prm

>  <SCORE>
-9.04587

>  <SCORE.INTER>
-8.13704

>  <SCORE.INTER.CONST>
1

>  <SCORE.INTER.POLAR>
0

>  <SCORE.INTER.ROT>
3

>  <SCORE.INTER.SOLV>
6.9924

>  <SCORE.INTER.VDW>
-13.3555

>  <SCORE.INTER.norm>
-0.678087

>  <SCORE.INTRA>
-0.910009

>  <SCORE.INTRA.DIHEDRAL>
1.34278

>  <SCORE.INTRA.DIHEDRAL.0>
1.88407

>  <SCORE.INTRA.POLAR>
0

>  <SCORE.INTRA.POLAR.0>
0

>  <SCORE.INTRA.REPUL>
0

>  <SCORE.INTRA.REPUL.0>
0

>  <SCORE.INTRA.SOLV>
0.242759

>  <SCORE.INTRA.SOLV.lig_0>
-10.2714

>  <SCORE.INTRA.VDW>
-1.70278

>  <SCORE.INTRA.VDW.0>
0.416923

>  <SCORE.INTRA.norm>
-0.0758341

>  <SCORE.RESTR>
0.00117635

>  <SCORE.RESTR.CAVITY>
0.00117635

>  <SCORE.RESTR.norm>
9.80294e-05

>  <SCORE.SYSTEM>
0

>  <SCORE.SYSTEM.CONST>
0

>  <SCORE.SYSTEM.DIHEDRAL>
0

>  <SCORE.SYSTEM.SOLV>
0

>  <SCORE.SYSTEM.norm>
0

>  <SCORE.heavy>
12

>  <SCORE.norm>
-0.753823

>  <RMSD>
5.124

$$$$
ligand
 OpenBabel11021811433D
libRbt.so/2013.1/901 2013/11/27
 12 12  0  0  0  0  0  0  0  0999 V2000
   45.7930   11.2517   13.7699 O   0  0  0  0  0  0  0  0  0  0  0  0
   49.9743   11.5842   13.0059 O   0  0  0  0  0  0  0  0  0  0  0  0
   45.8456   10.4856   12.5285 C   0  0  0  0  0  0  0  0  0  0  0  0
   51.6068   12.5146   11.4094 O   0  0  0  0  0  0  0  0  0  0  0  0
   46.5974   11.2707   11.4147 C   0  0  0  0  0  0  0  0  0  0  0  0
   50.6905   13.4015   12.9141 O   0  0  0  0  0  0  0  0  0  0  0  0
   47.0614   12.5889   11.9705 N   0  0  0  0  0  0  0  0  0  0  0  0
   45.8999   13.3742   12.4880 C   0  0  0  0  0  0  0  0  0  0  0  0
   45.1345   12.5336   13.5491 C   0  0  0  0  0  0  0  0  0  0  0  0
   47.7923   13.4066   10.9404 C   0  0  0  0  0  0  0  0  0  0  0  0
   49.1667   13.8792   11.4729 C   0  0  0  0  0  0  0  0  0  0  0  0
   50.2191   12.4703   11.8945 S   0  0  0  0  0  0  0  0  0  0  0  0
  1  3  1  0  0  0  0
  1  9  1  0  0  0  0
  2 12  1  0  0  0  0
  3  5  1  0  0  0  0
  4 12  2  0  0  0  0
  5  7  1  0  0  0  0
  6 12  2  0  0  0  0
  7  8  1  0  0  0  0
  7 10  1  0  0  0  0
  8  9  1  0  0  0  0
 10 11  1  0  0  0  0
 11 12  1  0  0  0  0
M  END
>  <CHROM.1>
-128.09558281,60.36834956,-69.24574349,48.25196546,12.39508210,12.26419435
-2.90191691,0.06025508,-0.51317336

>  <Name>
ligand

>  <RI>
0

>  <Rbt.Current_Directory>
/home/itssahil/PROJECTS/Mol_Feturizer/New_Systems/rnas/2HO6

>  <Rbt.Executable>
rbdock ($Id: //depot/dev/client3/rdock/2013.1/src/exe/rbdock.cxx#4 $)

>  <Rbt.Library>
libRbt.so (2013.1, Build901 2013/11/27)

>  <Rbt.Parameter_File>
/export/apps/rDock/src/rDock_2013.1_src/data/scripts/dock_solv.prm

>  <Rbt.Receptor>
prm/pocket_docking_2.prm

>  <SCORE>
-2.7164

>  <SCORE.INTER>
-1.98945

>  <SCORE.INTER.CONST>
1

>  <SCORE.INTER.POLAR>
0

>  <SCORE.INTER.ROT>
3

>  <SCORE.INTER.SOLV>
5.3795

>  <SCORE.INTER.VDW>
-8.71946

>  <SCORE.INTER.norm>
-0.165787

>  <SCORE.INTRA>
-0.727102

>  <SCORE.INTRA.DIHEDRAL>
2.19338

>  <SCORE.INTRA.DIHEDRAL.0>
1.88407

>  <SCORE.INTRA.POLAR>
0

>  <SCORE.INTRA.POLAR.0>
0

>  <SCORE.INTRA.REPUL>
0

>  <SCORE.INTRA.REPUL.0>
0

>  <SCORE.INTRA.SOLV>
0.208301

>  <SCORE.INTRA.SOLV.lig_0>
-10.2714

>  <SCORE.INTRA.VDW>
-1.92794

>  <SCORE.INTRA.VDW.0>
0.416923

>  <SCORE.INTRA.norm>
-0.0605918

>  <SCORE.RESTR>
0.000146747

>  <SCORE.RESTR.CAVITY>
0.000146747

>  <SCORE.RESTR.norm>
1.22289e-05

>  <SCORE.SYSTEM>
0

>  <SCORE.SYSTEM.CONST>
0

>  <SCORE.SYSTEM.DIHEDRAL>
0

>  <SCORE.SYSTEM.SOLV>
0

>  <SCORE.SYSTEM.norm>
0

>  <SCORE.heavy>
12

>  <SCORE.norm>
-0.226367

>  <RMSD>
5.160

$$$$
ligand
 OpenBabel11021811433D
libRbt.so/2013.1/901 2013/11/27
 12 12  0  0  0  0  0  0  0  0999 V2000
   43.1785   13.7671   10.2258 O   0  0  0  0  0  0  0  0  0  0  0  0
   44.1908   11.4708   16.0039 O   0  0  0  0  0  0  0  0  0  0  0  0
   43.9031   12.6294    9.6679 C   0  0  0  0  0  0  0  0  0  0  0  0
   43.9315   13.4658   14.5783 O   0  0  0  0  0  0  0  0  0  0  0  0
   45.0995   12.2242   10.5771 C   0  0  0  0  0  0  0  0  0  0  0  0
   43.7767   11.5599   14.0948 O   0  0  0  0  0  0  0  0  0  0  0  0
   45.1332   13.1297   11.7774 N   0  0  0  0  0  0  0  0  0  0  0  0
   45.2450   14.5575   11.3502 C   0  0  0  0  0  0  0  0  0  0  0  0
   44.0717   14.9075   10.3915 C   0  0  0  0  0  0  0  0  0  0  0  0
   46.2752   12.7978   12.6993 C   0  0  0  0  0  0  0  0  0  0  0  0
   45.8863   11.6742   13.6902 C   0  0  0  0  0  0  0  0  0  0  0  0
   44.7253   12.2808   14.9370 S   0  0  0  0  0  0  0  0  0  0  0  0
  1  3  1  0  0  0  0
  1  9  1  0  0  0  0
  2 12  1  0  0  0  0
  3  5  1  0  0  0  0
  4 12  2  0  0  0  0
  5  7  1  0  0  0  0
  6 12  2  0  0  0  0
  7  8  1  0  0  0  0
  7 10  1  0  0  0  0
  8  9  1  0  0  0  0
 10 11  1  0  0  0  0
 11 12  1  0  0  0  0
M  END
>  <CHROM.1>
-85.57510438,-72.00883220,-179.37265538,44.59347086,12.80471233,12.77565867
1.63438160,0.55817567,-1.26540268

>  <Name>
ligand

>  <RI>
0

>  <Rbt.Current_Directory>
/home/itssahil/PROJECTS/Mol_Feturizer/New_Systems/rnas/2HO6

>  <Rbt.Executable>
rbdock ($Id: //depot/dev/client3/rdock/2013.1/src/exe/rbdock.cxx#4 $)

>  <Rbt.Library>
libRbt.so (2013.1, Build901 2013/11/27)

>  <Rbt.Parameter_File>
/export/apps/rDock/src/rDock_2013.1_src/data/scripts/dock_solv.prm

>  <Rbt.Receptor>
prm/pocket_docking_6.prm

>  <SCORE>
-9.9288

>  <SCORE.INTER>
-9.5122

>  <SCORE.INTER.CONST>
1

>  <SCORE.INTER.POLAR>
0

>  <SCORE.INTER.ROT>
3

>  <SCORE.INTER.SOLV>
6.40098

>  <SCORE.INTER.VDW>
-14.0751

>  <SCORE.INTER.norm>
-0.792683

>  <SCORE.INTRA>
-0.416602

>  <SCORE.INTRA.DIHEDRAL>
1.4304

>  <SCORE.INTRA.DIHEDRAL.0>
1.88407

>  <SCORE.INTRA.POLAR>
0

>  <SCORE.INTRA.POLAR.0>
0

>  <SCORE.INTRA.REPUL>
0

>  <SCORE.INTRA.REPUL.0>
0

>  <SCORE.INTRA.SOLV>
1.21222

>  <SCORE.INTRA.SOLV.lig_0>
-10.2714

>  <SCORE.INTRA.VDW>
-1.73791

>  <SCORE.INTRA.VDW.0>
0.416923

>  <SCORE.INTRA.norm>
-0.0347168

>  <SCORE.RESTR>
0

>  <SCORE.RESTR.CAVITY>
0

>  <SCORE.RESTR.norm>
0

>  <SCORE.SYSTEM>
0

>  <SCORE.SYSTEM.CONST>
0

>  <SCORE.SYSTEM.DIHEDRAL>
0

>  <SCORE.SYSTEM.SOLV>
0

>  <SCORE.SYSTEM.norm>
0

>  <SCORE.heavy>
12

>  <SCORE.norm>
-0.8274

>  <RMSD>
5.182

$$$$
ligand
 OpenBabel11021811433D
libRbt.so/2013.1/901 2013/11/27
 12 12  0  0  0  0  0  0  0  0999 V2000
   45.2737   12.4664    9.9168 O   0  0  0  0  0  0  0  0  0  0  0  0
   45.8426   12.3012   14.1454 O   0  0  0  0  0  0  0  0  0  0  0  0
   46.0977   13.6553   10.1119 C   0  0  0  0  0  0  0  0  0  0  0  0
   44.1763   11.5143   15.7834 O   0  0  0  0  0  0  0  0  0  0  0  0
   45.5895   14.5004   11.3159 C   0  0  0  0  0  0  0  0  0  0  0  0
   44.0295   11.6445   13.8209 O   0  0  0  0  0  0  0  0  0  0  0  0
   44.3994   13.8154   11.9293 N   0  0  0  0  0  0  0  0  0  0  0  0
   43.3211   13.6322   10.9108 C   0  0  0  0  0  0  0  0  0  0  0  0
   43.8826   12.8424    9.6946 C   0  0  0  0  0  0  0  0  0  0  0  0
   43.8497   14.5856   13.0993 C   0  0  0  0  0  0  0  0  0  0  0  0
   43.2943   13.6329   14.1855 C   0  0  0  0  0  0  0  0  0  0  0  0
   44.5921   12.5457   14.8210 S   0  0  0  0  0  0  0  0  0  0  0  0
  1  3  1  0  0  0  0
  1  9  1  0  0  0  0
  2 12  1  0  0  0  0
  3  5  1  0  0  0  0
  4 12  2  0  0  0  0
  5  7  1  0  0  0  0
  6 12  2  0  0  0  0
  7  8  1  0  0  0  0
  7 10  1  0  0  0  0
  8  9  1  0  0  0  0
 10 11  1  0  0  0  0
 11 12  1  0  0  0  0
M  END
>  <CHROM.1>
-145.81715970,60.64667894,-17.80113402,44.54715318,12.99842896,12.73365274
-1.44035245,-0.71259559,1.90067247

>  <Name>
ligand

>  <RI>
0

>  <Rbt.Current_Directory>
/home/itssahil/PROJECTS/Mol_Feturizer/New_Systems/rnas/2HO6

>  <Rbt.Executable>
rbdock ($Id: //depot/dev/client3/rdock/2013.1/src/exe/rbdock.cxx#4 $)

>  <Rbt.Library>
libRbt.so (2013.1, Build901 2013/11/27)

>  <Rbt.Parameter_File>
/export/apps/rDock/src/rDock_2013.1_src/data/scripts/dock_solv.prm

>  <Rbt.Receptor>
prm/pocket_docking_4.prm

>  <SCORE>
-10.851

>  <SCORE.INTER>
-9.87651

>  <SCORE.INTER.CONST>
1

>  <SCORE.INTER.POLAR>
0

>  <SCORE.INTER.ROT>
3

>  <SCORE.INTER.SOLV>
6.7977

>  <SCORE.INTER.VDW>
-14.4502

>  <SCORE.INTER.norm>
-0.823042

>  <SCORE.INTRA>
-0.974506

>  <SCORE.INTRA.DIHEDRAL>
1.2483

>  <SCORE.INTRA.DIHEDRAL.0>
1.88407

>  <SCORE.INTRA.POLAR>
0

>  <SCORE.INTRA.POLAR.0>
0

>  <SCORE.INTRA.REPUL>
0

>  <SCORE.INTRA.REPUL.0>
0

>  <SCORE.INTRA.SOLV>
0.606574

>  <SCORE.INTRA.SOLV.lig_0>
-10.2714

>  <SCORE.INTRA.VDW>
-1.90194

>  <SCORE.INTRA.VDW.0>
0.416923

>  <SCORE.INTRA.norm>
-0.0812089

>  <SCORE.RESTR>
0

>  <SCORE.RESTR.CAVITY>
0

>  <SCORE.RESTR.norm>
0

>  <SCORE.SYSTEM>
0

>  <SCORE.SYSTEM.CONST>
0

>  <SCORE.SYSTEM.DIHEDRAL>
0

>  <SCORE.SYSTEM.SOLV>
0

>  <SCORE.SYSTEM.norm>
0

>  <SCORE.heavy>
12

>  <SCORE.norm>
-0.904251

>  <RMSD>
5.184

$$$$
ligand
 OpenBabel11021811433D
libRbt.so/2013.1/901 2013/11/27
 12 12  0  0  0  0  0  0  0  0999 V2000
   45.0696   12.1372   10.0586 O   0  0  0  0  0  0  0  0  0  0  0  0
   45.8591   12.2577   14.3601 O   0  0  0  0  0  0  0  0  0  0  0  0
   46.1467   13.0447   10.4420 C   0  0  0  0  0  0  0  0  0  0  0  0
   44.1390   11.3909   15.8992 O   0  0  0  0  0  0  0  0  0  0  0  0
   45.7226   13.9482   11.6361 C   0  0  0  0  0  0  0  0  0  0  0  0
   44.0689   11.5935   13.9386 O   0  0  0  0  0  0  0  0  0  0  0  0
   44.3200   13.5933   12.0467 N   0  0  0  0  0  0  0  0  0  0  0  0
   43.3826   13.7546   10.8939 C   0  0  0  0  0  0  0  0  0  0  0  0
   43.8741   12.8900    9.6984 C   0  0  0  0  0  0  0  0  0  0  0  0
   43.8408   14.4376   13.1964 C   0  0  0  0  0  0  0  0  0  0  0  0
   43.2945   13.5584   14.3472 C   0  0  0  0  0  0  0  0  0  0  0  0
   44.5797   12.4625   14.9935 S   0  0  0  0  0  0  0  0  0  0  0  0
  1  3  1  0  0  0  0
  1  9  1  0  0  0  0
  2 12  1  0  0  0  0
  3  5  1  0  0  0  0
  4 12  2  0  0  0  0
  5  7  1  0  0  0  0
  6 12  2  0  0  0  0
  7  8  1  0  0  0  0
  7 10  1  0  0  0  0
  8  9  1  0  0  0  0
 10 11  1  0  0  0  0
 11 12  1  0  0  0  0
M  END
>  <CHROM.1>
-127.89357304,60.90058411,-10.76916591,44.54045197,12.83582641,12.88388463
-1.47704406,-0.66405926,1.82649591

>  <Name>
ligand

>  <RI>
0

>  <Rbt.Current_Directory>
/home/itssahil/PROJECTS/Mol_Feturizer/New_Systems/rnas/2HO6

>  <Rbt.Executable>
rbdock ($Id: //depot/dev/client3/rdock/2013.1/src/exe/rbdock.cxx#4 $)

>  <Rbt.Library>
libRbt.so (2013.1, Build901 2013/11/27)

>  <Rbt.Parameter_File>
/export/apps/rDock/src/rDock_2013.1_src/data/scripts/dock_solv.prm

>  <Rbt.Receptor>
prm/pocket_docking_5.prm

>  <SCORE>
-11.0211

>  <SCORE.INTER>
-10.5136

>  <SCORE.INTER.CONST>
1

>  <SCORE.INTER.POLAR>
0

>  <SCORE.INTER.ROT>
3

>  <SCORE.INTER.SOLV>
6.88781

>  <SCORE.INTER.VDW>
-14.905

>  <SCORE.INTER.norm>
-0.876131

>  <SCORE.INTRA>
-0.507511

>  <SCORE.INTRA.DIHEDRAL>
2.15391

>  <SCORE.INTRA.DIHEDRAL.0>
1.88407

>  <SCORE.INTRA.POLAR>
0

>  <SCORE.INTRA.POLAR.0>
0

>  <SCORE.INTRA.REPUL>
0

>  <SCORE.INTRA.REPUL.0>
0

>  <SCORE.INTRA.SOLV>
0.665584

>  <SCORE.INTRA.SOLV.lig_0>
-10.2714

>  <SCORE.INTRA.VDW>
-1.91726

>  <SCORE.INTRA.VDW.0>
0.416923

>  <SCORE.INTRA.norm>
-0.0422926

>  <SCORE.RESTR>
0

>  <SCORE.RESTR.CAVITY>
0

>  <SCORE.RESTR.norm>
0

>  <SCORE.SYSTEM>
0

>  <SCORE.SYSTEM.CONST>
0

>  <SCORE.SYSTEM.DIHEDRAL>
0

>  <SCORE.SYSTEM.SOLV>
0

>  <SCORE.SYSTEM.norm>
0

>  <SCORE.heavy>
12

>  <SCORE.norm>
-0.918424

>  <RMSD>
5.192

$$$$
ligand
 OpenBabel11021811433D
libRbt.so/2013.1/901 2013/11/27
 12 12  0  0  0  0  0  0  0  0999 V2000
   45.0702   12.1392   10.0528 O   0  0  0  0  0  0  0  0  0  0  0  0
   45.8657   12.2711   14.3402 O   0  0  0  0  0  0  0  0  0  0  0  0
   46.1442   13.0473   10.4434 C   0  0  0  0  0  0  0  0  0  0  0  0
   44.1645   11.3955   15.8954 O   0  0  0  0  0  0  0  0  0  0  0  0
   45.7126   13.9485   11.6366 C   0  0  0  0  0  0  0  0  0  0  0  0
   44.0777   11.5911   13.9347 O   0  0  0  0  0  0  0  0  0  0  0  0
   44.3082   13.5913   12.0390 N   0  0  0  0  0  0  0  0  0  0  0  0
   43.3769   13.7534   10.8814 C   0  0  0  0  0  0  0  0  0  0  0  0
   43.8758   12.8912    9.6873 C   0  0  0  0  0  0  0  0  0  0  0  0
   43.8219   14.4333   13.1874 C   0  0  0  0  0  0  0  0  0  0  0  0
   43.2907   13.5510   14.3429 C   0  0  0  0  0  0  0  0  0  0  0  0
   44.5896   12.4676   14.9828 S   0  0  0  0  0  0  0  0  0  0  0  0
  1  3  1  0  0  0  0
  1  9  1  0  0  0  0
  2 12  1  0  0  0  0
  3  5  1  0  0  0  0
  4 12  2  0  0  0  0
  5  7  1  0  0  0  0
  6 12  2  0  0  0  0
  7  8  1  0  0  0  0
  7 10  1  0  0  0  0
  8  9  1  0  0  0  0
 10 11  1  0  0  0  0
 11 12  1  0  0  0  0
M  END
>  <CHROM.1>
-127.01032159,60.59381038,-10.90521809,44.54181913,12.83732778,12.87629855
-1.48230507,-0.65789387,1.82217701

>  <Name>
ligand

>  <RI>
0

>  <Rbt.Current_Directory>
/home/itssahil/PROJECTS/Mol_Feturizer/New_Systems/rnas/2HO6

>  <Rbt.Executable>
rbdock ($Id: //depot/dev/client3/rdock/2013.1/src/exe/rbdock.cxx#4 $)

>  <Rbt.Library>
libRbt.so (2013.1, Build901 2013/11/27)

>  <Rbt.Parameter_File>
/export/apps/rDock/src/rDock_2013.1_src/data/scripts/dock_solv.prm

>  <Rbt.Receptor>
prm/pocket_docking_5.prm

>  <SCORE>
-11.03

>  <SCORE.INTER>
-10.5277

>  <SCORE.INTER.CONST>
1

>  <SCORE.INTER.POLAR>
0

>  <SCORE.INTER.ROT>
3

>  <SCORE.INTER.SOLV>
6.90719

>  <SCORE.INTER.VDW>
-14.9208

>  <SCORE.INTER.norm>
-0.877306

>  <SCORE.INTRA>
-0.502315

>  <SCORE.INTRA.DIHEDRAL>
2.17613

>  <SCORE.INTRA.DIHEDRAL.0>
1.88407

>  <SCORE.INTRA.POLAR>
0

>  <SCORE.INTRA.POLAR.0>
0

>  <SCORE.INTRA.REPUL>
0

>  <SCORE.INTRA.REPUL.0>
0

>  <SCORE.INTRA.SOLV>
0.662308

>  <SCORE.INTRA.SOLV.lig_0>
-10.2714

>  <SCORE.INTRA.VDW>
-1.92153

>  <SCORE.INTRA.VDW.0>
0.416923

>  <SCORE.INTRA.norm>
-0.0418596

>  <SCORE.RESTR>
0

>  <SCORE.RESTR.CAVITY>
0

>  <SCORE.RESTR.norm>
0

>  <SCORE.SYSTEM>
0

>  <SCORE.SYSTEM.CONST>
0

>  <SCORE.SYSTEM.DIHEDRAL>
0

>  <SCORE.SYSTEM.SOLV>
0

>  <SCORE.SYSTEM.norm>
0

>  <SCORE.heavy>
12

>  <SCORE.norm>
-0.919166

>  <RMSD>
5.194

$$$$
ligand
 OpenBabel11021811433D
libRbt.so/2013.1/901 2013/11/27
 12 12  0  0  0  0  0  0  0  0999 V2000
   45.0368   12.1519   10.0467 O   0  0  0  0  0  0  0  0  0  0  0  0
   45.8381   12.2609   14.2784 O   0  0  0  0  0  0  0  0  0  0  0  0
   46.1240   13.0413   10.4439 C   0  0  0  0  0  0  0  0  0  0  0  0
   44.1661   11.4353   15.8916 O   0  0  0  0  0  0  0  0  0  0  0  0
   45.7011   13.9494   11.6350 C   0  0  0  0  0  0  0  0  0  0  0  0
   44.0261   11.6123   13.9322 O   0  0  0  0  0  0  0  0  0  0  0  0
   44.2885   13.6162   12.0293 N   0  0  0  0  0  0  0  0  0  0  0  0
   43.3667   13.7947   10.8665 C   0  0  0  0  0  0  0  0  0  0  0  0
   43.8575   12.9245    9.6748 C   0  0  0  0  0  0  0  0  0  0  0  0
   43.8101   14.4659   13.1753 C   0  0  0  0  0  0  0  0  0  0  0  0
   43.2896   13.5915   14.3415 C   0  0  0  0  0  0  0  0  0  0  0  0
   44.5852   12.4893   14.9554 S   0  0  0  0  0  0  0  0  0  0  0  0
  1  3  1  0  0  0  0
  1  9  1  0  0  0  0
  2 12  1  0  0  0  0
  3  5  1  0  0  0  0
  4 12  2  0  0  0  0
  5  7  1  0  0  0  0
  6 12  2  0  0  0  0
  7  8  1  0  0  0  0
  7 10  1  0  0  0  0
  8  9  1  0  0  0  0
 10 11  1  0  0  0  0
 11 12  1  0  0  0  0
M  END
>  <CHROM.1>
-125.61056158,59.37125205,-11.74555471,44.52525250,12.85825897,12.86193521
-1.48303807,-0.67707193,1.82218626

>  <Name>
ligand

>  <RI>
0

>  <Rbt.Current_Directory>
/home/itssahil/PROJECTS/Mol_Feturizer/New_Systems/rnas/2HO6

>  <Rbt.Executable>
rbdock ($Id: //depot/dev/client3/rdock/2013.1/src/exe/rbdock.cxx#4 $)

>  <Rbt.Library>
libRbt.so (2013.1, Build901 2013/11/27)

>  <Rbt.Parameter_File>
/export/apps/rDock/src/rDock_2013.1_src/data/scripts/dock_solv.prm

>  <Rbt.Receptor>
prm/pocket_docking_6.prm

>  <SCORE>
-10.9918

>  <SCORE.INTER>
-10.4775

>  <SCORE.INTER.CONST>
1

>  <SCORE.INTER.POLAR>
0

>  <SCORE.INTER.ROT>
3

>  <SCORE.INTER.SOLV>
6.94295

>  <SCORE.INTER.VDW>
-14.8993

>  <SCORE.INTER.norm>
-0.873126

>  <SCORE.INTRA>
-0.514282

>  <SCORE.INTRA.DIHEDRAL>
2.2072

>  <SCORE.INTRA.DIHEDRAL.0>
1.88407

>  <SCORE.INTRA.POLAR>
0

>  <SCORE.INTRA.POLAR.0>
0

>  <SCORE.INTRA.REPUL>
0

>  <SCORE.INTRA.REPUL.0>
0

>  <SCORE.INTRA.SOLV>
0.648526

>  <SCORE.INTRA.SOLV.lig_0>
-10.2714

>  <SCORE.INTRA.VDW>
-1.94215

>  <SCORE.INTRA.VDW.0>
0.416923

>  <SCORE.INTRA.norm>
-0.0428568

>  <SCORE.RESTR>
0

>  <SCORE.RESTR.CAVITY>
0

>  <SCORE.RESTR.norm>
0

>  <SCORE.SYSTEM>
0

>  <SCORE.SYSTEM.CONST>
0

>  <SCORE.SYSTEM.DIHEDRAL>
0

>  <SCORE.SYSTEM.SOLV>
0

>  <SCORE.SYSTEM.norm>
0

>  <SCORE.heavy>
12

>  <SCORE.norm>
-0.915983

>  <RMSD>
5.203

$$$$
ligand
 OpenBabel11021811433D
libRbt.so/2013.1/901 2013/11/27
 12 12  0  0  0  0  0  0  0  0999 V2000
   45.1380   12.2930   10.0225 O   0  0  0  0  0  0  0  0  0  0  0  0
   45.8484   12.2979   14.3364 O   0  0  0  0  0  0  0  0  0  0  0  0
   46.1263   13.3161   10.3499 C   0  0  0  0  0  0  0  0  0  0  0  0
   44.1428   11.4154   15.8829 O   0  0  0  0  0  0  0  0  0  0  0  0
   45.6612   14.1815   11.5569 C   0  0  0  0  0  0  0  0  0  0  0  0
   44.0687   11.6021   13.9208 O   0  0  0  0  0  0  0  0  0  0  0  0
   44.3257   13.6811   12.0344 N   0  0  0  0  0  0  0  0  0  0  0  0
   43.3248   13.7271   10.9255 C   0  0  0  0  0  0  0  0  0  0  0  0
   43.8524   12.9077    9.7137 C   0  0  0  0  0  0  0  0  0  0  0  0
   43.8104   14.4812   13.2000 C   0  0  0  0  0  0  0  0  0  0  0  0
   43.2634   13.5574   14.3150 C   0  0  0  0  0  0  0  0  0  0  0  0
   44.5660   12.4870   14.9689 S   0  0  0  0  0  0  0  0  0  0  0  0
  1  3  1  0  0  0  0
  1  9  1  0  0  0  0
  2 12  1  0  0  0  0
  3  5  1  0  0  0  0
  4 12  2  0  0  0  0
  5  7  1  0  0  0  0
  6 12  2  0  0  0  0
  7  8  1  0  0  0  0
  7 10  1  0  0  0  0
  8  9  1  0  0  0  0
 10 11  1  0  0  0  0
 11 12  1  0  0  0  0
M  END
>  <CHROM.1>
-134.49209922,61.79532944,-13.29089789,44.52756840,12.90390824,12.86016072
-1.47088520,-0.62931173,1.85183850

>  <Name>
ligand

>  <RI>
0

>  <Rbt.Current_Directory>
/home/itssahil/PROJECTS/Mol_Feturizer/New_Systems/rnas/2HO6

>  <Rbt.Executable>
rbdock ($Id: //depot/dev/client3/rdock/2013.1/src/exe/rbdock.cxx#4 $)

>  <Rbt.Library>
libRbt.so (2013.1, Build901 2013/11/27)

>  <Rbt.Parameter_File>
/export/apps/rDock/src/rDock_2013.1_src/data/scripts/dock_solv.prm

>  <Rbt.Receptor>
prm/pocket_docking_5.prm

>  <SCORE>
-11.0665

>  <SCORE.INTER>
-10.3884

>  <SCORE.INTER.CONST>
1

>  <SCORE.INTER.POLAR>
0

>  <SCORE.INTER.ROT>
3

>  <SCORE.INTER.SOLV>
6.84791

>  <SCORE.INTER.VDW>
-14.8082

>  <SCORE.INTER.norm>
-0.865698

>  <SCORE.INTRA>
-0.678091

>  <SCORE.INTRA.DIHEDRAL>
1.90385

>  <SCORE.INTRA.DIHEDRAL.0>
1.88407

>  <SCORE.INTRA.POLAR>
0

>  <SCORE.INTRA.POLAR.0>
0

>  <SCORE.INTRA.REPUL>
0

>  <SCORE.INTRA.REPUL.0>
0

>  <SCORE.INTRA.SOLV>
0.633994

>  <SCORE.INTRA.SOLV.lig_0>
-10.2714

>  <SCORE.INTRA.VDW>
-1.94701

>  <SCORE.INTRA.VDW.0>
0.416923

>  <SCORE.INTRA.norm>
-0.0565076

>  <SCORE.RESTR>
0

>  <SCORE.RESTR.CAVITY>
0

>  <SCORE.RESTR.norm>
0

>  <SCORE.SYSTEM>
0

>  <SCORE.SYSTEM.CONST>
0

>  <SCORE.SYSTEM.DIHEDRAL>
0

>  <SCORE.SYSTEM.SOLV>
0

>  <SCORE.SYSTEM.norm>
0

>  <SCORE.heavy>
12

>  <SCORE.norm>
-0.922206

>  <RMSD>
5.204

$$$$
ligand
 OpenBabel11021811433D
libRbt.so/2013.1/901 2013/11/27
 12 12  0  0  0  0  0  0  0  0999 V2000
   45.0008   12.1817   10.0332 O   0  0  0  0  0  0  0  0  0  0  0  0
   45.8441   12.2923   14.3240 O   0  0  0  0  0  0  0  0  0  0  0  0
   46.0963   13.0703   10.4086 C   0  0  0  0  0  0  0  0  0  0  0  0
   44.1280   11.4365   15.8739 O   0  0  0  0  0  0  0  0  0  0  0  0
   45.6978   13.9785   11.6080 C   0  0  0  0  0  0  0  0  0  0  0  0
   44.0421   11.6522   13.9153 O   0  0  0  0  0  0  0  0  0  0  0  0
   44.2932   13.6462   12.0304 N   0  0  0  0  0  0  0  0  0  0  0  0
   43.3485   13.8254   10.8863 C   0  0  0  0  0  0  0  0  0  0  0  0
   43.8148   12.9550    9.6850 C   0  0  0  0  0  0  0  0  0  0  0  0
   43.8384   14.4962   13.1858 C   0  0  0  0  0  0  0  0  0  0  0  0
   43.2953   13.6236   14.3431 C   0  0  0  0  0  0  0  0  0  0  0  0
   44.5731   12.5084   14.9706 S   0  0  0  0  0  0  0  0  0  0  0  0
  1  3  1  0  0  0  0
  1  9  1  0  0  0  0
  2 12  1  0  0  0  0
  3  5  1  0  0  0  0
  4 12  2  0  0  0  0
  5  7  1  0  0  0  0
  6 12  2  0  0  0  0
  7  8  1  0  0  0  0
  7 10  1  0  0  0  0
  8  9  1  0  0  0  0
 10 11  1  0  0  0  0
 11 12  1  0  0  0  0
M  END
>  <CHROM.1>
-127.56917578,60.73357299,-10.36015217,44.51512596,12.88509584,12.86284347
-1.48723334,-0.68103531,1.82126493

>  <Name>
ligand

>  <RI>
0

>  <Rbt.Current_Directory>
/home/itssahil/PROJECTS/Mol_Feturizer/New_Systems/rnas/2HO6

>  <Rbt.Executable>
rbdock ($Id: //depot/dev/client3/rdock/2013.1/src/exe/rbdock.cxx#4 $)

>  <Rbt.Library>
libRbt.so (2013.1, Build901 2013/11/27)

>  <Rbt.Parameter_File>
/export/apps/rDock/src/rDock_2013.1_src/data/scripts/dock_solv.prm

>  <Rbt.Receptor>
prm/pocket_docking_5.prm

>  <SCORE>
-11.0188

>  <SCORE.INTER>
-10.5317

>  <SCORE.INTER.CONST>
1

>  <SCORE.INTER.POLAR>
0

>  <SCORE.INTER.ROT>
3

>  <SCORE.INTER.SOLV>
6.93944

>  <SCORE.INTER.VDW>
-14.9343

>  <SCORE.INTER.norm>
-0.877639

>  <SCORE.INTRA>
-0.487152

>  <SCORE.INTRA.DIHEDRAL>
2.16364

>  <SCORE.INTRA.DIHEDRAL.0>
1.88407

>  <SCORE.INTRA.POLAR>
0

>  <SCORE.INTRA.POLAR.0>
0

>  <SCORE.INTRA.REPUL>
0

>  <SCORE.INTRA.REPUL.0>
0

>  <SCORE.INTRA.SOLV>
0.672996

>  <SCORE.INTRA.SOLV.lig_0>
-10.2714

>  <SCORE.INTRA.VDW>
-1.90547

>  <SCORE.INTRA.VDW.0>
0.416923

>  <SCORE.INTRA.norm>
-0.040596

>  <SCORE.RESTR>
0

>  <SCORE.RESTR.CAVITY>
0

>  <SCORE.RESTR.norm>
0

>  <SCORE.SYSTEM>
0

>  <SCORE.SYSTEM.CONST>
0

>  <SCORE.SYSTEM.DIHEDRAL>
0

>  <SCORE.SYSTEM.SOLV>
0

>  <SCORE.SYSTEM.norm>
0

>  <SCORE.heavy>
12

>  <SCORE.norm>
-0.918235

>  <RMSD>
5.218

$$$$
ligand
 OpenBabel11021811433D
libRbt.so/2013.1/901 2013/11/27
 12 12  0  0  0  0  0  0  0  0999 V2000
   45.2556   12.1704   14.0995 O   0  0  0  0  0  0  0  0  0  0  0  0
   49.6285   13.7375   12.2516 O   0  0  0  0  0  0  0  0  0  0  0  0
   45.0656   10.7888   13.6686 C   0  0  0  0  0  0  0  0  0  0  0  0
   51.0732   11.9992   13.2365 O   0  0  0  0  0  0  0  0  0  0  0  0
   45.9922   10.4420   12.4672 C   0  0  0  0  0  0  0  0  0  0  0  0
   50.7735   12.4420   11.3381 O   0  0  0  0  0  0  0  0  0  0  0  0
   46.8238   11.6473   12.1243 N   0  0  0  0  0  0  0  0  0  0  0  0
   45.9451   12.8128   11.8035 C   0  0  0  0  0  0  0  0  0  0  0  0
   44.9887   13.0881   12.9984 C   0  0  0  0  0  0  0  0  0  0  0  0
   47.7412   11.3839   10.9610 C   0  0  0  0  0  0  0  0  0  0  0  0
   49.1656   11.0170   11.4432 C   0  0  0  0  0  0  0  0  0  0  0  0
   49.8617   12.3314   12.4718 S   0  0  0  0  0  0  0  0  0  0  0  0
  1  3  1  0  0  0  0
  1  9  1  0  0  0  0
  2 12  1  0  0  0  0
  3  5  1  0  0  0  0
  4 12  2  0  0  0  0
  5  7  1  0  0  0  0
  6 12  2  0  0  0  0
  7  8  1  0  0  0  0
  7 10  1  0  0  0  0
  8  9  1  0  0  0  0
 10 11  1  0  0  0  0
 11 12  1  0  0  0  0
M  END
>  <CHROM.1>
-97.49662470,-57.91886706,-35.66468532,47.95488979,12.04458987,12.42476342
3.12939942,-0.20661051,-2.63335650

>  <Name>
ligand

>  <RI>
0

>  <Rbt.Current_Directory>
/home/itssahil/PROJECTS/Mol_Feturizer/New_Systems/rnas/2HO6

>  <Rbt.Executable>
rbdock ($Id: //depot/dev/client3/rdock/2013.1/src/exe/rbdock.cxx#4 $)

>  <Rbt.Library>
libRbt.so (2013.1, Build901 2013/11/27)

>  <Rbt.Parameter_File>
/export/apps/rDock/src/rDock_2013.1_src/data/scripts/dock_solv.prm

>  <Rbt.Receptor>
prm/pocket_docking_2.prm

>  <SCORE>
-3.80501

>  <SCORE.INTER>
-2.99791

>  <SCORE.INTER.CONST>
1

>  <SCORE.INTER.POLAR>
0

>  <SCORE.INTER.ROT>
3

>  <SCORE.INTER.SOLV>
5.25888

>  <SCORE.INTER.VDW>
-9.35157

>  <SCORE.INTER.norm>
-0.249826

>  <SCORE.INTRA>
-0.807094

>  <SCORE.INTRA.DIHEDRAL>
1.58866

>  <SCORE.INTRA.DIHEDRAL.0>
1.88407

>  <SCORE.INTRA.POLAR>
0

>  <SCORE.INTRA.POLAR.0>
0

>  <SCORE.INTRA.REPUL>
0

>  <SCORE.INTRA.REPUL.0>
0

>  <SCORE.INTRA.SOLV>
0.176235

>  <SCORE.INTRA.SOLV.lig_0>
-10.2714

>  <SCORE.INTRA.VDW>
-1.68954

>  <SCORE.INTRA.VDW.0>
0.416923

>  <SCORE.INTRA.norm>
-0.0672578

>  <SCORE.RESTR>
0

>  <SCORE.RESTR.CAVITY>
0

>  <SCORE.RESTR.norm>
0

>  <SCORE.SYSTEM>
0

>  <SCORE.SYSTEM.CONST>
0

>  <SCORE.SYSTEM.DIHEDRAL>
0

>  <SCORE.SYSTEM.SOLV>
0

>  <SCORE.SYSTEM.norm>
0

>  <SCORE.heavy>
12

>  <SCORE.norm>
-0.317084

>  <RMSD>
5.222

$$$$
ligand
 OpenBabel11021811433D
libRbt.so/2013.1/901 2013/11/27
 12 12  0  0  0  0  0  0  0  0999 V2000
   45.2184   12.4963    9.9046 O   0  0  0  0  0  0  0  0  0  0  0  0
   45.9168   12.3345   14.1016 O   0  0  0  0  0  0  0  0  0  0  0  0
   45.9455   13.7592    9.9885 C   0  0  0  0  0  0  0  0  0  0  0  0
   44.3142   11.5450   15.8009 O   0  0  0  0  0  0  0  0  0  0  0  0
   45.4650   14.6051   11.2032 C   0  0  0  0  0  0  0  0  0  0  0  0
   44.0962   11.6686   13.8446 O   0  0  0  0  0  0  0  0  0  0  0  0
   44.3962   13.8449   11.9393 N   0  0  0  0  0  0  0  0  0  0  0  0
   43.2581   13.5276   11.0241 C   0  0  0  0  0  0  0  0  0  0  0  0
   43.7855   12.7408    9.7908 C   0  0  0  0  0  0  0  0  0  0  0  0
   43.8784   14.6112   13.1262 C   0  0  0  0  0  0  0  0  0  0  0  0
   43.3653   13.6547   14.2296 C   0  0  0  0  0  0  0  0  0  0  0  0
   44.6902   12.5754   14.8211 S   0  0  0  0  0  0  0  0  0  0  0  0
  1  3  1  0  0  0  0
  1  9  1  0  0  0  0
  2 12  1  0  0  0  0
  3  5  1  0  0  0  0
  4 12  2  0  0  0  0
  5  7  1  0  0  0  0
  6 12  2  0  0  0  0
  7  8  1  0  0  0  0
  7 10  1  0  0  0  0
  8  9  1  0  0  0  0
 10 11  1  0  0  0  0
 11 12  1  0  0  0  0
M  END
>  <CHROM.1>
-151.74074896,60.53416645,-18.07301987,44.55719223,13.01876286,12.73636606
-1.47761749,-0.82344620,1.88203128

>  <Name>
ligand

>  <RI>
0

>  <Rbt.Current_Directory>
/home/itssahil/PROJECTS/Mol_Feturizer/New_Systems/rnas/2HO6

>  <Rbt.Executable>
rbdock ($Id: //depot/dev/client3/rdock/2013.1/src/exe/rbdock.cxx#4 $)

>  <Rbt.Library>
libRbt.so (2013.1, Build901 2013/11/27)

>  <Rbt.Parameter_File>
/export/apps/rDock/src/rDock_2013.1_src/data/scripts/dock_solv.prm

>  <Rbt.Receptor>
prm/pocket_docking_7.prm

>  <SCORE>
-10.9506

>  <SCORE.INTER>
-9.90605

>  <SCORE.INTER.CONST>
1

>  <SCORE.INTER.POLAR>
0

>  <SCORE.INTER.ROT>
3

>  <SCORE.INTER.SOLV>
6.97502

>  <SCORE.INTER.VDW>
-14.529

>  <SCORE.INTER.norm>
-0.825504

>  <SCORE.INTRA>
-1.04452

>  <SCORE.INTRA.DIHEDRAL>
0.877144

>  <SCORE.INTRA.DIHEDRAL.0>
1.88407

>  <SCORE.INTRA.POLAR>
0

>  <SCORE.INTRA.POLAR.0>
0

>  <SCORE.INTRA.REPUL>
0

>  <SCORE.INTRA.REPUL.0>
0

>  <SCORE.INTRA.SOLV>
0.631634

>  <SCORE.INTRA.SOLV.lig_0>
-10.2714

>  <SCORE.INTRA.VDW>
-1.79891

>  <SCORE.INTRA.VDW.0>
0.416923

>  <SCORE.INTRA.norm>
-0.087043

>  <SCORE.RESTR>
0

>  <SCORE.RESTR.CAVITY>
0

>  <SCORE.RESTR.norm>
0

>  <SCORE.SYSTEM>
0

>  <SCORE.SYSTEM.CONST>
0

>  <SCORE.SYSTEM.DIHEDRAL>
0

>  <SCORE.SYSTEM.SOLV>
0

>  <SCORE.SYSTEM.norm>
0

>  <SCORE.heavy>
12

>  <SCORE.norm>
-0.912547

>  <RMSD>
5.235

$$$$
ligand
 OpenBabel11021811433D
libRbt.so/2013.1/901 2013/11/27
 12 12  0  0  0  0  0  0  0  0999 V2000
   45.1981   12.4867    9.9402 O   0  0  0  0  0  0  0  0  0  0  0  0
   45.8547   12.4050   14.1332 O   0  0  0  0  0  0  0  0  0  0  0  0
   46.0047   13.6943   10.0875 C   0  0  0  0  0  0  0  0  0  0  0  0
   44.2011   11.5482   15.7490 O   0  0  0  0  0  0  0  0  0  0  0  0
   45.5124   14.5566   11.2859 C   0  0  0  0  0  0  0  0  0  0  0  0
   44.0462   11.7436   13.7925 O   0  0  0  0  0  0  0  0  0  0  0  0
   44.3516   13.8641   11.9453 N   0  0  0  0  0  0  0  0  0  0  0  0
   43.2508   13.6389   10.9599 C   0  0  0  0  0  0  0  0  0  0  0  0
   43.7949   12.8325    9.7467 C   0  0  0  0  0  0  0  0  0  0  0  0
   43.8183   14.6500   13.1125 C   0  0  0  0  0  0  0  0  0  0  0  0
   43.2949   13.7119   14.2268 C   0  0  0  0  0  0  0  0  0  0  0  0
   44.6044   12.6153   14.8208 S   0  0  0  0  0  0  0  0  0  0  0  0
  1  3  1  0  0  0  0
  1  9  1  0  0  0  0
  2 12  1  0  0  0  0
  3  5  1  0  0  0  0
  4 12  2  0  0  0  0
  5  7  1  0  0  0  0
  6 12  2  0  0  0  0
  7  8  1  0  0  0  0
  7 10  1  0  0  0  0
  8  9  1  0  0  0  0
 10 11  1  0  0  0  0
 11 12  1  0  0  0  0
M  END
>  <CHROM.1>
-146.43855773,58.97293826,-14.47614529,44.51802668,13.05160453,12.73784178
-1.46142801,-0.74861508,1.88005306

>  <Name>
ligand

>  <RI>
0

>  <Rbt.Current_Directory>
/home/itssahil/PROJECTS/Mol_Feturizer/New_Systems/rnas/2HO6

>  <Rbt.Executable>
rbdock ($Id: //depot/dev/client3/rdock/2013.1/src/exe/rbdock.cxx#4 $)

>  <Rbt.Library>
libRbt.so (2013.1, Build901 2013/11/27)

>  <Rbt.Parameter_File>
/export/apps/rDock/src/rDock_2013.1_src/data/scripts/dock_solv.prm

>  <Rbt.Receptor>
prm/pocket_docking_4.prm

>  <SCORE>
-10.9102

>  <SCORE.INTER>
-10.0018

>  <SCORE.INTER.CONST>
1

>  <SCORE.INTER.POLAR>
0

>  <SCORE.INTER.ROT>
3

>  <SCORE.INTER.SOLV>
6.83099

>  <SCORE.INTER.VDW>
-14.5449

>  <SCORE.INTER.norm>
-0.833485

>  <SCORE.INTRA>
-0.908538

>  <SCORE.INTRA.DIHEDRAL>
1.22256

>  <SCORE.INTRA.DIHEDRAL.0>
1.88407

>  <SCORE.INTRA.POLAR>
0

>  <SCORE.INTRA.POLAR.0>
0

>  <SCORE.INTRA.REPUL>
0

>  <SCORE.INTRA.REPUL.0>
0

>  <SCORE.INTRA.SOLV>
0.669125

>  <SCORE.INTRA.SOLV.lig_0>
-10.2714

>  <SCORE.INTRA.VDW>
-1.85438

>  <SCORE.INTRA.VDW.0>
0.416923

>  <SCORE.INTRA.norm>
-0.0757115

>  <SCORE.RESTR>
0.000168845

>  <SCORE.RESTR.CAVITY>
0.000168845

>  <SCORE.RESTR.norm>
1.40704e-05

>  <SCORE.SYSTEM>
0

>  <SCORE.SYSTEM.CONST>
0

>  <SCORE.SYSTEM.DIHEDRAL>
0

>  <SCORE.SYSTEM.SOLV>
0

>  <SCORE.SYSTEM.norm>
0

>  <SCORE.heavy>
12

>  <SCORE.norm>
-0.909182

>  <RMSD>
5.237

$$$$
ligand
 OpenBabel11021811433D
libRbt.so/2013.1/901 2013/11/27
 12 12  0  0  0  0  0  0  0  0999 V2000
   45.2155   12.4857    9.9418 O   0  0  0  0  0  0  0  0  0  0  0  0
   45.8856   12.4620   14.1234 O   0  0  0  0  0  0  0  0  0  0  0  0
   45.9871   13.7180   10.0707 C   0  0  0  0  0  0  0  0  0  0  0  0
   44.2377   11.5251   15.7000 O   0  0  0  0  0  0  0  0  0  0  0  0
   45.4766   14.5792   11.2623 C   0  0  0  0  0  0  0  0  0  0  0  0
   44.0975   11.7653   13.7474 O   0  0  0  0  0  0  0  0  0  0  0  0
   44.3405   13.8605   11.9365 N   0  0  0  0  0  0  0  0  0  0  0  0
   43.2410   13.5919   10.9605 C   0  0  0  0  0  0  0  0  0  0  0  0
   43.8017   12.7880    9.7531 C   0  0  0  0  0  0  0  0  0  0  0  0
   43.7911   14.6437   13.0980 C   0  0  0  0  0  0  0  0  0  0  0  0
   43.2935   13.7032   14.2221 C   0  0  0  0  0  0  0  0  0  0  0  0
   44.6237   12.6245   14.8028 S   0  0  0  0  0  0  0  0  0  0  0  0
  1  3  1  0  0  0  0
  1  9  1  0  0  0  0
  2 12  1  0  0  0  0
  3  5  1  0  0  0  0
  4 12  2  0  0  0  0
  5  7  1  0  0  0  0
  6 12  2  0  0  0  0
  7  8  1  0  0  0  0
  7 10  1  0  0  0  0
  8  9  1  0  0  0  0
 10 11  1  0  0  0  0
 11 12  1  0  0  0  0
M  END
>  <CHROM.1>
-146.80872076,57.99883072,-12.26675165,44.52547103,13.05300818,12.72198816
-1.46956582,-0.74992926,1.87189223

>  <Name>
ligand

>  <RI>
0

>  <Rbt.Current_Directory>
/home/itssahil/PROJECTS/Mol_Feturizer/New_Systems/rnas/2HO6

>  <Rbt.Executable>
rbdock ($Id: //depot/dev/client3/rdock/2013.1/src/exe/rbdock.cxx#4 $)

>  <Rbt.Library>
libRbt.so (2013.1, Build901 2013/11/27)

>  <Rbt.Parameter_File>
/export/apps/rDock/src/rDock_2013.1_src/data/scripts/dock_solv.prm

>  <Rbt.Receptor>
prm/pocket_docking_4.prm

>  <SCORE>
-10.8087

>  <SCORE.INTER>
-9.97085

>  <SCORE.INTER.CONST>
1

>  <SCORE.INTER.POLAR>
0

>  <SCORE.INTER.ROT>
3

>  <SCORE.INTER.SOLV>
6.80298

>  <SCORE.INTER.VDW>
-14.5149

>  <SCORE.INTER.norm>
-0.830904

>  <SCORE.INTRA>
-0.837889

>  <SCORE.INTRA.DIHEDRAL>
1.21826

>  <SCORE.INTRA.DIHEDRAL.0>
1.88407

>  <SCORE.INTRA.POLAR>
0

>  <SCORE.INTRA.POLAR.0>
0

>  <SCORE.INTRA.REPUL>
0

>  <SCORE.INTRA.REPUL.0>
0

>  <SCORE.INTRA.SOLV>
0.712565

>  <SCORE.INTRA.SOLV.lig_0>
-10.2714

>  <SCORE.INTRA.VDW>
-1.8033

>  <SCORE.INTRA.VDW.0>
0.416923

>  <SCORE.INTRA.norm>
-0.069824

>  <SCORE.RESTR>
0

>  <SCORE.RESTR.CAVITY>
0

>  <SCORE.RESTR.norm>
0

>  <SCORE.SYSTEM>
0

>  <SCORE.SYSTEM.CONST>
0

>  <SCORE.SYSTEM.DIHEDRAL>
0

>  <SCORE.SYSTEM.SOLV>
0

>  <SCORE.SYSTEM.norm>
0

>  <SCORE.heavy>
12

>  <SCORE.norm>
-0.900728

>  <RMSD>
5.243

$$$$
ligand
 OpenBabel11021811433D
libRbt.so/2013.1/901 2013/11/27
 12 12  0  0  0  0  0  0  0  0999 V2000
   44.8910   12.1484   14.0999 O   0  0  0  0  0  0  0  0  0  0  0  0
   48.6692   14.0447   11.2135 O   0  0  0  0  0  0  0  0  0  0  0  0
   44.5599   10.8135   13.6108 C   0  0  0  0  0  0  0  0  0  0  0  0
   50.5402   13.6378   12.7669 O   0  0  0  0  0  0  0  0  0  0  0  0
   45.6309   10.3018   12.6042 C   0  0  0  0  0  0  0  0  0  0  0  0
   50.2316   12.8950   10.9661 O   0  0  0  0  0  0  0  0  0  0  0  0
   46.7029   11.3460   12.4545 N   0  0  0  0  0  0  0  0  0  0  0  0
   46.1108   12.6389   11.9949 C   0  0  0  0  0  0  0  0  0  0  0  0
   45.0004   13.0851   12.9879 C   0  0  0  0  0  0  0  0  0  0  0  0
   47.7716   10.9185   11.4852 C   0  0  0  0  0  0  0  0  0  0  0  0
   49.1783   11.3228   11.9887 C   0  0  0  0  0  0  0  0  0  0  0  0
   49.3375   13.1209   12.0967 S   0  0  0  0  0  0  0  0  0  0  0  0
  1  3  1  0  0  0  0
  1  9  1  0  0  0  0
  2 12  1  0  0  0  0
  3  5  1  0  0  0  0
  4 12  2  0  0  0  0
  5  7  1  0  0  0  0
  6 12  2  0  0  0  0
  7  8  1  0  0  0  0
  7 10  1  0  0  0  0
  8  9  1  0  0  0  0
 10 11  1  0  0  0  0
 11 12  1  0  0  0  0
M  END
>  <CHROM.1>
-139.91936335,-63.49386333,-32.28150778,47.61534131,12.31632920,12.32789849
2.87607923,-0.34425820,-2.96411544

>  <Name>
ligand

>  <RI>
0

>  <Rbt.Current_Directory>
/home/itssahil/PROJECTS/Mol_Feturizer/New_Systems/rnas/2HO6

>  <Rbt.Executable>
rbdock ($Id: //depot/dev/client3/rdock/2013.1/src/exe/rbdock.cxx#4 $)

>  <Rbt.Library>
libRbt.so (2013.1, Build901 2013/11/27)

>  <Rbt.Parameter_File>
/export/apps/rDock/src/rDock_2013.1_src/data/scripts/dock_solv.prm

>  <Rbt.Receptor>
prm/pocket_docking_2.prm

>  <SCORE>
-4.26471

>  <SCORE.INTER>
-3.62088

>  <SCORE.INTER.CONST>
1

>  <SCORE.INTER.POLAR>
0

>  <SCORE.INTER.ROT>
3

>  <SCORE.INTER.SOLV>
6.07992

>  <SCORE.INTER.VDW>
-10.0406

>  <SCORE.INTER.norm>
-0.30174

>  <SCORE.INTRA>
-0.643828

>  <SCORE.INTRA.DIHEDRAL>
1.61924

>  <SCORE.INTRA.DIHEDRAL.0>
1.88407

>  <SCORE.INTRA.POLAR>
0

>  <SCORE.INTRA.POLAR.0>
0

>  <SCORE.INTRA.REPUL>
0

>  <SCORE.INTRA.REPUL.0>
0

>  <SCORE.INTRA.SOLV>
0.106136

>  <SCORE.INTRA.SOLV.lig_0>
-10.2714

>  <SCORE.INTRA.VDW>
-1.50652

>  <SCORE.INTRA.VDW.0>
0.416923

>  <SCORE.INTRA.norm>
-0.0536523

>  <SCORE.RESTR>
0

>  <SCORE.RESTR.CAVITY>
0

>  <SCORE.RESTR.norm>
0

>  <SCORE.SYSTEM>
0

>  <SCORE.SYSTEM.CONST>
0

>  <SCORE.SYSTEM.DIHEDRAL>
0

>  <SCORE.SYSTEM.SOLV>
0

>  <SCORE.SYSTEM.norm>
0

>  <SCORE.heavy>
12

>  <SCORE.norm>
-0.355392

>  <RMSD>
5.264

$$$$
ligand
 OpenBabel11021811433D
libRbt.so/2013.1/901 2013/11/27
 12 12  0  0  0  0  0  0  0  0999 V2000
   44.5862   12.3447    9.9657 O   0  0  0  0  0  0  0  0  0  0  0  0
   42.1807   10.4493   15.0941 O   0  0  0  0  0  0  0  0  0  0  0  0
   45.8775   12.7790   10.4895 C   0  0  0  0  0  0  0  0  0  0  0  0
   44.0295    9.7532   13.6187 O   0  0  0  0  0  0  0  0  0  0  0  0
   45.7634   13.2099   11.9806 C   0  0  0  0  0  0  0  0  0  0  0  0
   44.0753   10.2384   15.5299 O   0  0  0  0  0  0  0  0  0  0  0  0
   44.3419   13.0280   12.4371 N   0  0  0  0  0  0  0  0  0  0  0  0
   43.4127   13.8226   11.5776 C   0  0  0  0  0  0  0  0  0  0  0  0
   43.6016   13.4129   10.0894 C   0  0  0  0  0  0  0  0  0  0  0  0
   44.1572   13.4349   13.8739 C   0  0  0  0  0  0  0  0  0  0  0  0
   44.4115   12.2445   14.8300 C   0  0  0  0  0  0  0  0  0  0  0  0
   43.3811   10.8255   14.3887 S   0  0  0  0  0  0  0  0  0  0  0  0
  1  3  1  0  0  0  0
  1  9  1  0  0  0  0
  2 12  1  0  0  0  0
  3  5  1  0  0  0  0
  4 12  2  0  0  0  0
  5  7  1  0  0  0  0
  6 12  2  0  0  0  0
  7  8  1  0  0  0  0
  7 10  1  0  0  0  0
  8  9  1  0  0  0  0
 10 11  1  0  0  0  0
 11 12  1  0  0  0  0
M  END
>  <CHROM.1>
-89.35445215,-54.50426205,-102.31943239,44.06238804,11.94930812,12.99798194
0.29971618,-1.31169950,-2.27777459

>  <Name>
ligand

>  <RI>
0

>  <Rbt.Current_Directory>
/home/itssahil/PROJECTS/Mol_Feturizer/New_Systems/rnas/2HO6

>  <Rbt.Executable>
rbdock ($Id: //depot/dev/client3/rdock/2013.1/src/exe/rbdock.cxx#4 $)

>  <Rbt.Library>
libRbt.so (2013.1, Build901 2013/11/27)

>  <Rbt.Parameter_File>
/export/apps/rDock/src/rDock_2013.1_src/data/scripts/dock_solv.prm

>  <Rbt.Receptor>
prm/pocket_docking_4.prm

>  <SCORE>
-8.40938

>  <SCORE.INTER>
-7.61872

>  <SCORE.INTER.CONST>
1

>  <SCORE.INTER.POLAR>
0

>  <SCORE.INTER.ROT>
3

>  <SCORE.INTER.SOLV>
8.13186

>  <SCORE.INTER.VDW>
-13.3898

>  <SCORE.INTER.norm>
-0.634893

>  <SCORE.INTRA>
-0.790661

>  <SCORE.INTRA.DIHEDRAL>
1.33723

>  <SCORE.INTRA.DIHEDRAL.0>
1.88407

>  <SCORE.INTRA.POLAR>
0

>  <SCORE.INTRA.POLAR.0>
0

>  <SCORE.INTRA.REPUL>
0

>  <SCORE.INTRA.REPUL.0>
0

>  <SCORE.INTRA.SOLV>
0.507161

>  <SCORE.INTRA.SOLV.lig_0>
-10.2714

>  <SCORE.INTRA.VDW>
-1.71285

>  <SCORE.INTRA.VDW.0>
0.416923

>  <SCORE.INTRA.norm>
-0.0658884

>  <SCORE.RESTR>
0

>  <SCORE.RESTR.CAVITY>
0

>  <SCORE.RESTR.norm>
0

>  <SCORE.SYSTEM>
0

>  <SCORE.SYSTEM.CONST>
0

>  <SCORE.SYSTEM.DIHEDRAL>
0

>  <SCORE.SYSTEM.SOLV>
0

>  <SCORE.SYSTEM.norm>
0

>  <SCORE.heavy>
12

>  <SCORE.norm>
-0.700782

>  <RMSD>
5.300

$$$$
ligand
 OpenBabel11021811433D
libRbt.so/2013.1/901 2013/11/27
 12 12  0  0  0  0  0  0  0  0999 V2000
   45.4736   10.7027   14.0149 O   0  0  0  0  0  0  0  0  0  0  0  0
   49.4749   11.5258   13.0207 O   0  0  0  0  0  0  0  0  0  0  0  0
   44.8561   10.1584   12.8094 C   0  0  0  0  0  0  0  0  0  0  0  0
   50.9608   12.4595   11.2888 O   0  0  0  0  0  0  0  0  0  0  0  0
   45.4204   10.8425   11.5305 C   0  0  0  0  0  0  0  0  0  0  0  0
   49.8578   13.4021   12.6249 O   0  0  0  0  0  0  0  0  0  0  0  0
   46.4559   11.8566   11.9321 N   0  0  0  0  0  0  0  0  0  0  0  0
   45.8642   12.8657   12.8622 C   0  0  0  0  0  0  0  0  0  0  0  0
   45.2520   12.1416   14.0947 C   0  0  0  0  0  0  0  0  0  0  0  0
   47.0402   12.5647   10.7399 C   0  0  0  0  0  0  0  0  0  0  0  0
   48.3157   13.3521   11.1260 C   0  0  0  0  0  0  0  0  0  0  0  0
   49.5898   12.2458   11.7763 S   0  0  0  0  0  0  0  0  0  0  0  0
  1  3  1  0  0  0  0
  1  9  1  0  0  0  0
  2 12  1  0  0  0  0
  3  5  1  0  0  0  0
  4 12  2  0  0  0  0
  5  7  1  0  0  0  0
  6 12  2  0  0  0  0
  7  8  1  0  0  0  0
  7 10  1  0  0  0  0
  8  9  1  0  0  0  0
 10 11  1  0  0  0  0
 11 12  1  0  0  0  0
M  END
>  <CHROM.1>
-166.76607946,60.44693129,-66.75215848,47.64882216,12.03224836,12.28510721
-2.81245217,-0.18849230,-1.22137367

>  <Name>
ligand

>  <RI>
0

>  <Rbt.Current_Directory>
/home/itssahil/PROJECTS/Mol_Feturizer/New_Systems/rnas/2HO6

>  <Rbt.Executable>
rbdock ($Id: //depot/dev/client3/rdock/2013.1/src/exe/rbdock.cxx#4 $)

>  <Rbt.Library>
libRbt.so (2013.1, Build901 2013/11/27)

>  <Rbt.Parameter_File>
/export/apps/rDock/src/rDock_2013.1_src/data/scripts/dock_solv.prm

>  <Rbt.Receptor>
prm/pocket_docking_2.prm

>  <SCORE>
-4.13945

>  <SCORE.INTER>
-3.15755

>  <SCORE.INTER.CONST>
1

>  <SCORE.INTER.POLAR>
0

>  <SCORE.INTER.ROT>
3

>  <SCORE.INTER.SOLV>
6.29406

>  <SCORE.INTER.VDW>
-9.80306

>  <SCORE.INTER.norm>
-0.263129

>  <SCORE.INTRA>
-0.981901

>  <SCORE.INTRA.DIHEDRAL>
0.157792

>  <SCORE.INTRA.DIHEDRAL.0>
1.88407

>  <SCORE.INTRA.POLAR>
0

>  <SCORE.INTRA.POLAR.0>
0

>  <SCORE.INTRA.REPUL>
0

>  <SCORE.INTRA.REPUL.0>
0

>  <SCORE.INTRA.SOLV>
0.286339

>  <SCORE.INTRA.SOLV.lig_0>
-10.2714

>  <SCORE.INTRA.VDW>
-1.20397

>  <SCORE.INTRA.VDW.0>
0.416923

>  <SCORE.INTRA.norm>
-0.0818251

>  <SCORE.RESTR>
0

>  <SCORE.RESTR.CAVITY>
0

>  <SCORE.RESTR.norm>
0

>  <SCORE.SYSTEM>
0

>  <SCORE.SYSTEM.CONST>
0

>  <SCORE.SYSTEM.DIHEDRAL>
0

>  <SCORE.SYSTEM.SOLV>
0

>  <SCORE.SYSTEM.norm>
0

>  <SCORE.heavy>
12

>  <SCORE.norm>
-0.344954

>  <RMSD>
5.345

$$$$
ligand
 OpenBabel11021811433D
libRbt.so/2013.1/901 2013/11/27
 12 12  0  0  0  0  0  0  0  0999 V2000
   45.3228   10.9195   14.0805 O   0  0  0  0  0  0  0  0  0  0  0  0
   48.7745   14.4598   11.6212 O   0  0  0  0  0  0  0  0  0  0  0  0
   44.8065   10.1951   12.9232 C   0  0  0  0  0  0  0  0  0  0  0  0
   50.7149   13.6094   12.8825 O   0  0  0  0  0  0  0  0  0  0  0  0
   45.7535   10.3455   11.6973 C   0  0  0  0  0  0  0  0  0  0  0  0
   50.3295   13.4808   10.9525 O   0  0  0  0  0  0  0  0  0  0  0  0
   46.9357   11.1881   12.0902 N   0  0  0  0  0  0  0  0  0  0  0  0
   46.4827   12.5240   12.5837 C   0  0  0  0  0  0  0  0  0  0  0  0
   45.4879   12.3331   13.7637 C   0  0  0  0  0  0  0  0  0  0  0  0
   47.8925   11.3817   10.9451 C   0  0  0  0  0  0  0  0  0  0  0  0
   49.3303   11.6433   11.4551 C   0  0  0  0  0  0  0  0  0  0  0  0
   49.4858   13.3134   12.1310 S   0  0  0  0  0  0  0  0  0  0  0  0
  1  3  1  0  0  0  0
  1  9  1  0  0  0  0
  2 12  1  0  0  0  0
  3  5  1  0  0  0  0
  4 12  2  0  0  0  0
  5  7  1  0  0  0  0
  6 12  2  0  0  0  0
  7  8  1  0  0  0  0
  7 10  1  0  0  0  0
  8  9  1  0  0  0  0
 10 11  1  0  0  0  0
 11 12  1  0  0  0  0
M  END
>  <CHROM.1>
-153.78274760,-73.93144126,-34.01028925,47.83174666,12.26807846,12.25353361
2.93662779,-0.52647559,-2.38934924

>  <Name>
ligand

>  <RI>
0

>  <Rbt.Current_Directory>
/home/itssahil/PROJECTS/Mol_Feturizer/New_Systems/rnas/2HO6

>  <Rbt.Executable>
rbdock ($Id: //depot/dev/client3/rdock/2013.1/src/exe/rbdock.cxx#4 $)

>  <Rbt.Library>
libRbt.so (2013.1, Build901 2013/11/27)

>  <Rbt.Parameter_File>
/export/apps/rDock/src/rDock_2013.1_src/data/scripts/dock_solv.prm

>  <Rbt.Receptor>
prm/pocket_docking_2.prm

>  <SCORE>
-4.69544

>  <SCORE.INTER>
-4.30265

>  <SCORE.INTER.CONST>
1

>  <SCORE.INTER.POLAR>
0

>  <SCORE.INTER.ROT>
3

>  <SCORE.INTER.SOLV>
6.71876

>  <SCORE.INTER.VDW>
-10.708

>  <SCORE.INTER.norm>
-0.358554

>  <SCORE.INTRA>
-0.39279

>  <SCORE.INTRA.DIHEDRAL>
1.42917

>  <SCORE.INTRA.DIHEDRAL.0>
1.88407

>  <SCORE.INTRA.POLAR>
0

>  <SCORE.INTRA.POLAR.0>
0

>  <SCORE.INTRA.REPUL>
0

>  <SCORE.INTRA.REPUL.0>
0

>  <SCORE.INTRA.SOLV>
0.102096

>  <SCORE.INTRA.SOLV.lig_0>
-10.2714

>  <SCORE.INTRA.VDW>
-1.15842

>  <SCORE.INTRA.VDW.0>
0.416923

>  <SCORE.INTRA.norm>
-0.0327325

>  <SCORE.RESTR>
0

>  <SCORE.RESTR.CAVITY>
0

>  <SCORE.RESTR.norm>
0

>  <SCORE.SYSTEM>
0

>  <SCORE.SYSTEM.CONST>
0

>  <SCORE.SYSTEM.DIHEDRAL>
0

>  <SCORE.SYSTEM.SOLV>
0

>  <SCORE.SYSTEM.norm>
0

>  <SCORE.heavy>
12

>  <SCORE.norm>
-0.391286

>  <RMSD>
5.348

$$$$
ligand
 OpenBabel11021811433D
libRbt.so/2013.1/901 2013/11/27
 12 12  0  0  0  0  0  0  0  0999 V2000
   45.3166   10.9158   14.0774 O   0  0  0  0  0  0  0  0  0  0  0  0
   48.7753   14.4644   11.6148 O   0  0  0  0  0  0  0  0  0  0  0  0
   44.8023   10.1968   12.9159 C   0  0  0  0  0  0  0  0  0  0  0  0
   50.7473   13.6265   12.8348 O   0  0  0  0  0  0  0  0  0  0  0  0
   45.7507   10.3538   11.6920 C   0  0  0  0  0  0  0  0  0  0  0  0
   50.3137   13.4798   10.9163 O   0  0  0  0  0  0  0  0  0  0  0  0
   46.9319   11.1951   12.0907 N   0  0  0  0  0  0  0  0  0  0  0  0
   46.4775   12.5283   12.5902 C   0  0  0  0  0  0  0  0  0  0  0  0
   45.4813   12.3310   13.7679 C   0  0  0  0  0  0  0  0  0  0  0  0
   47.8902   11.3949   10.9478 C   0  0  0  0  0  0  0  0  0  0  0  0
   49.3287   11.6467   11.4609 C   0  0  0  0  0  0  0  0  0  0  0  0
   49.5000   13.3230   12.1172 S   0  0  0  0  0  0  0  0  0  0  0  0
  1  3  1  0  0  0  0
  1  9  1  0  0  0  0
  2 12  1  0  0  0  0
  3  5  1  0  0  0  0
  4 12  2  0  0  0  0
  5  7  1  0  0  0  0
  6 12  2  0  0  0  0
  7  8  1  0  0  0  0
  7 10  1  0  0  0  0
  8  9  1  0  0  0  0
 10 11  1  0  0  0  0
 11 12  1  0  0  0  0
M  END
>  <CHROM.1>
-153.45389004,-75.21084624,-32.18930434,47.83309960,12.27364702,12.24404284
2.93779592,-0.52738665,-2.39273249

>  <Name>
ligand

>  <RI>
0

>  <Rbt.Current_Directory>
/home/itssahil/PROJECTS/Mol_Feturizer/New_Systems/rnas/2HO6

>  <Rbt.Executable>
rbdock ($Id: //depot/dev/client3/rdock/2013.1/src/exe/rbdock.cxx#4 $)

>  <Rbt.Library>
libRbt.so (2013.1, Build901 2013/11/27)

>  <Rbt.Parameter_File>
/export/apps/rDock/src/rDock_2013.1_src/data/scripts/dock_solv.prm

>  <Rbt.Receptor>
prm/pocket_docking_2.prm

>  <SCORE>
-4.68973

>  <SCORE.INTER>
-4.32856

>  <SCORE.INTER.CONST>
1

>  <SCORE.INTER.POLAR>
0

>  <SCORE.INTER.ROT>
3

>  <SCORE.INTER.SOLV>
6.67726

>  <SCORE.INTER.VDW>
-10.7115

>  <SCORE.INTER.norm>
-0.360713

>  <SCORE.INTRA>
-0.361176

>  <SCORE.INTRA.DIHEDRAL>
1.57712

>  <SCORE.INTRA.DIHEDRAL.0>
1.88407

>  <SCORE.INTRA.POLAR>
0

>  <SCORE.INTRA.POLAR.0>
0

>  <SCORE.INTRA.REPUL>
0

>  <SCORE.INTRA.REPUL.0>
0

>  <SCORE.INTRA.SOLV>
0.0965455

>  <SCORE.INTRA.SOLV.lig_0>
-10.2714

>  <SCORE.INTRA.VDW>
-1.19801

>  <SCORE.INTRA.VDW.0>
0.416923

>  <SCORE.INTRA.norm>
-0.030098

>  <SCORE.RESTR>
0

>  <SCORE.RESTR.CAVITY>
0

>  <SCORE.RESTR.norm>
0

>  <SCORE.SYSTEM>
0

>  <SCORE.SYSTEM.CONST>
0

>  <SCORE.SYSTEM.DIHEDRAL>
0

>  <SCORE.SYSTEM.SOLV>
0

>  <SCORE.SYSTEM.norm>
0

>  <SCORE.heavy>
12

>  <SCORE.norm>
-0.390811

>  <RMSD>
5.355

$$$$
ligand
 OpenBabel11021811433D
libRbt.so/2013.1/901 2013/11/27
 12 12  0  0  0  0  0  0  0  0999 V2000
   45.3298   10.9016   14.0829 O   0  0  0  0  0  0  0  0  0  0  0  0
   48.8488   14.4369   11.6905 O   0  0  0  0  0  0  0  0  0  0  0  0
   44.8128   10.1828   12.9224 C   0  0  0  0  0  0  0  0  0  0  0  0
   50.7923   13.5066   12.8890 O   0  0  0  0  0  0  0  0  0  0  0  0
   45.7525   10.3495   11.6932 C   0  0  0  0  0  0  0  0  0  0  0  0
   50.3647   13.4374   10.9648 O   0  0  0  0  0  0  0  0  0  0  0  0
   46.9308   11.1972   12.0870 N   0  0  0  0  0  0  0  0  0  0  0  0
   46.4710   12.5260   12.5934 C   0  0  0  0  0  0  0  0  0  0  0  0
   45.4834   12.3188   13.7766 C   0  0  0  0  0  0  0  0  0  0  0  0
   47.8806   11.4066   10.9388 C   0  0  0  0  0  0  0  0  0  0  0  0
   49.3299   11.6128   11.4416 C   0  0  0  0  0  0  0  0  0  0  0  0
   49.5411   13.2605   12.1562 S   0  0  0  0  0  0  0  0  0  0  0  0
  1  3  1  0  0  0  0
  1  9  1  0  0  0  0
  2 12  1  0  0  0  0
  3  5  1  0  0  0  0
  4 12  2  0  0  0  0
  5  7  1  0  0  0  0
  6 12  2  0  0  0  0
  7  8  1  0  0  0  0
  7 10  1  0  0  0  0
  8  9  1  0  0  0  0
 10 11  1  0  0  0  0
 11 12  1  0  0  0  0
M  END
>  <CHROM.1>
-151.30692446,-74.61055756,-33.28042019,47.85481496,12.24271357,12.26474601
2.95171179,-0.51590107,-2.36992403

>  <Name>
ligand

>  <RI>
0

>  <Rbt.Current_Directory>
/home/itssahil/PROJECTS/Mol_Feturizer/New_Systems/rnas/2HO6

>  <Rbt.Executable>
rbdock ($Id: //depot/dev/client3/rdock/2013.1/src/exe/rbdock.cxx#4 $)

>  <Rbt.Library>
libRbt.so (2013.1, Build901 2013/11/27)

>  <Rbt.Parameter_File>
/export/apps/rDock/src/rDock_2013.1_src/data/scripts/dock_solv.prm

>  <Rbt.Receptor>
prm/pocket_docking_2.prm

>  <SCORE>
-4.68923

>  <SCORE.INTER>
-4.26299

>  <SCORE.INTER.CONST>
1

>  <SCORE.INTER.POLAR>
0

>  <SCORE.INTER.ROT>
3

>  <SCORE.INTER.SOLV>
6.68407

>  <SCORE.INTER.VDW>
-10.67

>  <SCORE.INTER.norm>
-0.355249

>  <SCORE.INTRA>
-0.426597

>  <SCORE.INTRA.DIHEDRAL>
1.64788

>  <SCORE.INTRA.DIHEDRAL.0>
1.88407

>  <SCORE.INTRA.POLAR>
0

>  <SCORE.INTRA.POLAR.0>
0

>  <SCORE.INTRA.REPUL>
0

>  <SCORE.INTRA.REPUL.0>
0

>  <SCORE.INTRA.SOLV>
0.0923308

>  <SCORE.INTRA.SOLV.lig_0>
-10.2714

>  <SCORE.INTRA.VDW>
-1.2967

>  <SCORE.INTRA.VDW.0>
0.416923

>  <SCORE.INTRA.norm>
-0.0355498

>  <SCORE.RESTR>
0.000350957

>  <SCORE.RESTR.CAVITY>
0.000350957

>  <SCORE.RESTR.norm>
2.92464e-05

>  <SCORE.SYSTEM>
0

>  <SCORE.SYSTEM.CONST>
0

>  <SCORE.SYSTEM.DIHEDRAL>
0

>  <SCORE.SYSTEM.SOLV>
0

>  <SCORE.SYSTEM.norm>
0

>  <SCORE.heavy>
12

>  <SCORE.norm>
-0.39077

>  <RMSD>
5.360

$$$$
ligand
 OpenBabel11021811433D
libRbt.so/2013.1/901 2013/11/27
 12 12  0  0  0  0  0  0  0  0999 V2000
   45.3285   10.8750   14.0812 O   0  0  0  0  0  0  0  0  0  0  0  0
   48.8523   14.4466   11.7260 O   0  0  0  0  0  0  0  0  0  0  0  0
   44.7965   10.1957   12.9038 C   0  0  0  0  0  0  0  0  0  0  0  0
   50.7786   13.4952   12.9358 O   0  0  0  0  0  0  0  0  0  0  0  0
   45.7354   10.3798   11.6763 C   0  0  0  0  0  0  0  0  0  0  0  0
   50.3734   13.4506   11.0061 O   0  0  0  0  0  0  0  0  0  0  0  0
   46.9283   11.1976   12.0885 N   0  0  0  0  0  0  0  0  0  0  0  0
   46.4916   12.5197   12.6315 C   0  0  0  0  0  0  0  0  0  0  0  0
   45.5042   12.2971   13.8121 C   0  0  0  0  0  0  0  0  0  0  0  0
   47.8781   11.4220   10.9432 C   0  0  0  0  0  0  0  0  0  0  0  0
   49.3270   11.6240   11.4487 C   0  0  0  0  0  0  0  0  0  0  0  0
   49.5353   13.2623   12.1855 S   0  0  0  0  0  0  0  0  0  0  0  0
  1  3  1  0  0  0  0
  1  9  1  0  0  0  0
  2 12  1  0  0  0  0
  3  5  1  0  0  0  0
  4 12  2  0  0  0  0
  5  7  1  0  0  0  0
  6 12  2  0  0  0  0
  7  8  1  0  0  0  0
  7 10  1  0  0  0  0
  8  9  1  0  0  0  0
 10 11  1  0  0  0  0
 11 12  1  0  0  0  0
M  END
>  <CHROM.1>
-152.62104619,-74.52228289,-34.01558880,47.85364344,12.24478915,12.28329818
2.95952787,-0.51738600,-2.34181643

>  <Name>
ligand

>  <RI>
0

>  <Rbt.Current_Directory>
/home/itssahil/PROJECTS/Mol_Feturizer/New_Systems/rnas/2HO6

>  <Rbt.Executable>
rbdock ($Id: //depot/dev/client3/rdock/2013.1/src/exe/rbdock.cxx#4 $)

>  <Rbt.Library>
libRbt.so (2013.1, Build901 2013/11/27)

>  <Rbt.Parameter_File>
/export/apps/rDock/src/rDock_2013.1_src/data/scripts/dock_solv.prm

>  <Rbt.Receptor>
prm/pocket_docking_2.prm

>  <SCORE>
-4.67154

>  <SCORE.INTER>
-4.26121

>  <SCORE.INTER.CONST>
1

>  <SCORE.INTER.POLAR>
0

>  <SCORE.INTER.ROT>
3

>  <SCORE.INTER.SOLV>
6.75861

>  <SCORE.INTER.VDW>
-10.6937

>  <SCORE.INTER.norm>
-0.355101

>  <SCORE.INTRA>
-0.410339

>  <SCORE.INTRA.DIHEDRAL>
1.55786

>  <SCORE.INTRA.DIHEDRAL.0>
1.88407

>  <SCORE.INTRA.POLAR>
0

>  <SCORE.INTRA.POLAR.0>
0

>  <SCORE.INTRA.REPUL>
0

>  <SCORE.INTRA.REPUL.0>
0

>  <SCORE.INTRA.SOLV>
0.0964825

>  <SCORE.INTRA.SOLV.lig_0>
-10.2714

>  <SCORE.INTRA.VDW>
-1.23751

>  <SCORE.INTRA.VDW.0>
0.416923

>  <SCORE.INTRA.norm>
-0.0341949

>  <SCORE.RESTR>
1.01296e-05

>  <SCORE.RESTR.CAVITY>
1.01296e-05

>  <SCORE.RESTR.norm>
8.44133e-07

>  <SCORE.SYSTEM>
0

>  <SCORE.SYSTEM.CONST>
0

>  <SCORE.SYSTEM.DIHEDRAL>
0

>  <SCORE.SYSTEM.SOLV>
0

>  <SCORE.SYSTEM.norm>
0

>  <SCORE.heavy>
12

>  <SCORE.norm>
-0.389295

>  <RMSD>
5.362

$$$$
ligand
 OpenBabel11021811433D
libRbt.so/2013.1/901 2013/11/27
 12 12  0  0  0  0  0  0  0  0999 V2000
   44.6178   12.2685   10.1400 O   0  0  0  0  0  0  0  0  0  0  0  0
   42.2132   10.5131   15.1636 O   0  0  0  0  0  0  0  0  0  0  0  0
   45.8766   12.6345   10.7821 C   0  0  0  0  0  0  0  0  0  0  0  0
   44.3890    9.8440   14.2163 O   0  0  0  0  0  0  0  0  0  0  0  0
   45.6399   13.1465   12.2326 C   0  0  0  0  0  0  0  0  0  0  0  0
   43.9869   10.6344   15.9780 O   0  0  0  0  0  0  0  0  0  0  0  0
   44.1686   13.0905   12.5394 N   0  0  0  0  0  0  0  0  0  0  0  0
   43.3987   13.9059   11.5515 C   0  0  0  0  0  0  0  0  0  0  0  0
   43.7108   13.4097   10.1111 C   0  0  0  0  0  0  0  0  0  0  0  0
   43.8658   13.5811   13.9293 C   0  0  0  0  0  0  0  0  0  0  0  0
   44.2585   12.5273   14.9929 C   0  0  0  0  0  0  0  0  0  0  0  0
   43.4903   10.9291   14.6381 S   0  0  0  0  0  0  0  0  0  0  0  0
  1  3  1  0  0  0  0
  1  9  1  0  0  0  0
  2 12  1  0  0  0  0
  3  5  1  0  0  0  0
  4 12  2  0  0  0  0
  5  7  1  0  0  0  0
  6 12  2  0  0  0  0
  7  8  1  0  0  0  0
  7 10  1  0  0  0  0
  8  9  1  0  0  0  0
 10 11  1  0  0  0  0
 11 12  1  0  0  0  0
M  END
>  <CHROM.1>
-75.42810687,-53.81146734,-91.56523720,44.06131760,12.03176110,13.20753336
-1.04792389,-1.12970900,2.55455943

>  <Name>
ligand

>  <RI>
0

>  <Rbt.Current_Directory>
/home/itssahil/PROJECTS/Mol_Feturizer/New_Systems/rnas/2HO6

>  <Rbt.Executable>
rbdock ($Id: //depot/dev/client3/rdock/2013.1/src/exe/rbdock.cxx#4 $)

>  <Rbt.Library>
libRbt.so (2013.1, Build901 2013/11/27)

>  <Rbt.Parameter_File>
/export/apps/rDock/src/rDock_2013.1_src/data/scripts/dock_solv.prm

>  <Rbt.Receptor>
prm/pocket_docking_4.prm

>  <SCORE>
-8.86856

>  <SCORE.INTER>
-7.98051

>  <SCORE.INTER.CONST>
1

>  <SCORE.INTER.POLAR>
0

>  <SCORE.INTER.ROT>
3

>  <SCORE.INTER.SOLV>
7.8456

>  <SCORE.INTER.VDW>
-13.5355

>  <SCORE.INTER.norm>
-0.665042

>  <SCORE.INTRA>
-0.888057

>  <SCORE.INTRA.DIHEDRAL>
0.566778

>  <SCORE.INTRA.DIHEDRAL.0>
1.88407

>  <SCORE.INTRA.POLAR>
0

>  <SCORE.INTRA.POLAR.0>
0

>  <SCORE.INTRA.REPUL>
0

>  <SCORE.INTRA.REPUL.0>
0

>  <SCORE.INTRA.SOLV>
0.461276

>  <SCORE.INTRA.SOLV.lig_0>
-10.2714

>  <SCORE.INTRA.VDW>
-1.40208

>  <SCORE.INTRA.VDW.0>
0.416923

>  <SCORE.INTRA.norm>
-0.0740047

>  <SCORE.RESTR>
0

>  <SCORE.RESTR.CAVITY>
0

>  <SCORE.RESTR.norm>
0

>  <SCORE.SYSTEM>
0

>  <SCORE.SYSTEM.CONST>
0

>  <SCORE.SYSTEM.DIHEDRAL>
0

>  <SCORE.SYSTEM.SOLV>
0

>  <SCORE.SYSTEM.norm>
0

>  <SCORE.heavy>
12

>  <SCORE.norm>
-0.739047

>  <RMSD>
5.364

$$$$
ligand
 OpenBabel11021811433D
libRbt.so/2013.1/901 2013/11/27
 12 12  0  0  0  0  0  0  0  0999 V2000
   43.3777   14.2405   10.6471 O   0  0  0  0  0  0  0  0  0  0  0  0
   44.5501   12.3977   15.6178 O   0  0  0  0  0  0  0  0  0  0  0  0
   43.9965   13.3873    9.6373 C   0  0  0  0  0  0  0  0  0  0  0  0
   42.3380   11.4256   15.1264 O   0  0  0  0  0  0  0  0  0  0  0  0
   44.7569   12.1990   10.2945 C   0  0  0  0  0  0  0  0  0  0  0  0
   44.0168   10.5163   15.6211 O   0  0  0  0  0  0  0  0  0  0  0  0
   44.6049   12.2844   11.7883 N   0  0  0  0  0  0  0  0  0  0  0  0
   45.1212   13.5938   12.2908 C   0  0  0  0  0  0  0  0  0  0  0  0
   44.3864   14.7563   11.5649 C   0  0  0  0  0  0  0  0  0  0  0  0
   45.3252   11.1656   12.4909 C   0  0  0  0  0  0  0  0  0  0  0  0
   44.3983   10.4528   13.5050 C   0  0  0  0  0  0  0  0  0  0  0  0
   43.7356   11.6235   14.7135 S   0  0  0  0  0  0  0  0  0  0  0  0
  1  3  1  0  0  0  0
  1  9  1  0  0  0  0
  2 12  1  0  0  0  0
  3  5  1  0  0  0  0
  4 12  2  0  0  0  0
  5  7  1  0  0  0  0
  6 12  2  0  0  0  0
  7  8  1  0  0  0  0
  7 10  1  0  0  0  0
  8  9  1  0  0  0  0
 10 11  1  0  0  0  0
 11 12  1  0  0  0  0
M  END
>  <CHROM.1>
-129.50157158,-56.93883737,-60.95981562,44.14626246,12.26287832,13.01496547
1.32122696,1.16348408,-0.87251750

>  <Name>
ligand

>  <RI>
0

>  <Rbt.Current_Directory>
/home/itssahil/PROJECTS/Mol_Feturizer/New_Systems/rnas/2HO6

>  <Rbt.Executable>
rbdock ($Id: //depot/dev/client3/rdock/2013.1/src/exe/rbdock.cxx#4 $)

>  <Rbt.Library>
libRbt.so (2013.1, Build901 2013/11/27)

>  <Rbt.Parameter_File>
/export/apps/rDock/src/rDock_2013.1_src/data/scripts/dock_solv.prm

>  <Rbt.Receptor>
prm/pocket_docking_6.prm

>  <SCORE>
-8.69745

>  <SCORE.INTER>
-8.06751

>  <SCORE.INTER.CONST>
1

>  <SCORE.INTER.POLAR>
0

>  <SCORE.INTER.ROT>
3

>  <SCORE.INTER.SOLV>
7.18878

>  <SCORE.INTER.VDW>
-13.3746

>  <SCORE.INTER.norm>
-0.672293

>  <SCORE.INTRA>
-0.629936

>  <SCORE.INTRA.DIHEDRAL>
2.15155

>  <SCORE.INTRA.DIHEDRAL.0>
1.88407

>  <SCORE.INTRA.POLAR>
0

>  <SCORE.INTRA.POLAR.0>
0

>  <SCORE.INTRA.REPUL>
0

>  <SCORE.INTRA.REPUL.0>
0

>  <SCORE.INTRA.SOLV>
0.173438

>  <SCORE.INTRA.SOLV.lig_0>
-10.2714

>  <SCORE.INTRA.VDW>
-1.79243

>  <SCORE.INTRA.VDW.0>
0.416923

>  <SCORE.INTRA.norm>
-0.0524946

>  <SCORE.RESTR>
0

>  <SCORE.RESTR.CAVITY>
0

>  <SCORE.RESTR.norm>
0

>  <SCORE.SYSTEM>
0

>  <SCORE.SYSTEM.CONST>
0

>  <SCORE.SYSTEM.DIHEDRAL>
0

>  <SCORE.SYSTEM.SOLV>
0

>  <SCORE.SYSTEM.norm>
0

>  <SCORE.heavy>
12

>  <SCORE.norm>
-0.724787

>  <RMSD>
5.371

$$$$
ligand
 OpenBabel11021811433D
libRbt.so/2013.1/901 2013/11/27
 12 12  0  0  0  0  0  0  0  0999 V2000
   44.3795   12.2542    9.9576 O   0  0  0  0  0  0  0  0  0  0  0  0
   42.4007   10.4100   15.6457 O   0  0  0  0  0  0  0  0  0  0  0  0
   45.7206   12.5972   10.4209 C   0  0  0  0  0  0  0  0  0  0  0  0
   43.3928   10.0887   13.4115 O   0  0  0  0  0  0  0  0  0  0  0  0
   45.7010   13.0608   11.9064 C   0  0  0  0  0  0  0  0  0  0  0  0
   44.2791   10.1428   15.1726 O   0  0  0  0  0  0  0  0  0  0  0  0
   44.2899   12.9961   12.4226 N   0  0  0  0  0  0  0  0  0  0  0  0
   43.3889   13.8448   11.5850 C   0  0  0  0  0  0  0  0  0  0  0  0
   43.4847   13.3966   10.0990 C   0  0  0  0  0  0  0  0  0  0  0  0
   44.1959   13.4403   13.8572 C   0  0  0  0  0  0  0  0  0  0  0  0
   44.4447   12.2594   14.8264 C   0  0  0  0  0  0  0  0  0  0  0  0
   43.2165   10.9536   14.5878 S   0  0  0  0  0  0  0  0  0  0  0  0
  1  3  1  0  0  0  0
  1  9  1  0  0  0  0
  2 12  1  0  0  0  0
  3  5  1  0  0  0  0
  4 12  2  0  0  0  0
  5  7  1  0  0  0  0
  6 12  2  0  0  0  0
  7  8  1  0  0  0  0
  7 10  1  0  0  0  0
  8  9  1  0  0  0  0
 10 11  1  0  0  0  0
 11 12  1  0  0  0  0
M  END
>  <CHROM.1>
-87.48237362,-60.65375227,-126.03059400,43.97607646,11.95522591,13.01749400
0.84555125,-1.20866160,-1.75431578

>  <Name>
ligand

>  <RI>
0

>  <Rbt.Current_Directory>
/home/itssahil/PROJECTS/Mol_Feturizer/New_Systems/rnas/2HO6

>  <Rbt.Executable>
rbdock ($Id: //depot/dev/client3/rdock/2013.1/src/exe/rbdock.cxx#4 $)

>  <Rbt.Library>
libRbt.so (2013.1, Build901 2013/11/27)

>  <Rbt.Parameter_File>
/export/apps/rDock/src/rDock_2013.1_src/data/scripts/dock_solv.prm

>  <Rbt.Receptor>
prm/pocket_docking_4.prm

>  <SCORE>
-8.24151

>  <SCORE.INTER>
-7.39971

>  <SCORE.INTER.CONST>
1

>  <SCORE.INTER.POLAR>
0

>  <SCORE.INTER.ROT>
3

>  <SCORE.INTER.SOLV>
8.00936

>  <SCORE.INTER.VDW>
-13.2029

>  <SCORE.INTER.norm>
-0.616642

>  <SCORE.INTRA>
-0.841802

>  <SCORE.INTRA.DIHEDRAL>
1.03147

>  <SCORE.INTRA.DIHEDRAL.0>
1.88407

>  <SCORE.INTRA.POLAR>
0

>  <SCORE.INTRA.POLAR.0>
0

>  <SCORE.INTRA.REPUL>
0

>  <SCORE.INTRA.REPUL.0>
0

>  <SCORE.INTRA.SOLV>
0.737526

>  <SCORE.INTRA.SOLV.lig_0>
-10.2714

>  <SCORE.INTRA.VDW>
-1.7263

>  <SCORE.INTRA.VDW.0>
0.416923

>  <SCORE.INTRA.norm>
-0.0701501

>  <SCORE.RESTR>
0

>  <SCORE.RESTR.CAVITY>
0

>  <SCORE.RESTR.norm>
0

>  <SCORE.SYSTEM>
0

>  <SCORE.SYSTEM.CONST>
0

>  <SCORE.SYSTEM.DIHEDRAL>
0

>  <SCORE.SYSTEM.SOLV>
0

>  <SCORE.SYSTEM.norm>
0

>  <SCORE.heavy>
12

>  <SCORE.norm>
-0.686792

>  <RMSD>
5.390

$$$$
ligand
 OpenBabel11021811433D
libRbt.so/2013.1/901 2013/11/27
 12 12  0  0  0  0  0  0  0  0999 V2000
   44.9987   11.3961   14.4982 O   0  0  0  0  0  0  0  0  0  0  0  0
   48.2687   14.5080   11.5121 O   0  0  0  0  0  0  0  0  0  0  0  0
   44.4828   10.4106   13.5530 C   0  0  0  0  0  0  0  0  0  0  0  0
   50.3588   13.7324   12.5653 O   0  0  0  0  0  0  0  0  0  0  0  0
   45.3315   10.3843   12.2487 C   0  0  0  0  0  0  0  0  0  0  0  0
   49.7181   13.4615   10.7197 O   0  0  0  0  0  0  0  0  0  0  0  0
   46.4491   11.3833   12.3696 N   0  0  0  0  0  0  0  0  0  0  0  0
   45.9012   12.7503   12.6243 C   0  0  0  0  0  0  0  0  0  0  0  0
   45.0060   12.7237   13.8956 C   0  0  0  0  0  0  0  0  0  0  0  0
   47.3086   11.4165   11.1349 C   0  0  0  0  0  0  0  0  0  0  0  0
   48.7914   11.6804   11.4919 C   0  0  0  0  0  0  0  0  0  0  0  0
   49.0395   13.3952   12.0097 S   0  0  0  0  0  0  0  0  0  0  0  0
  1  3  1  0  0  0  0
  1  9  1  0  0  0  0
  2 12  1  0  0  0  0
  3  5  1  0  0  0  0
  4 12  2  0  0  0  0
  5  7  1  0  0  0  0
  6 12  2  0  0  0  0
  7  8  1  0  0  0  0
  7 10  1  0  0  0  0
  8  9  1  0  0  0  0
 10 11  1  0  0  0  0
 11 12  1  0  0  0  0
M  END
>  <CHROM.1>
-145.02402797,-72.22769761,-31.29431388,47.36318316,12.41552455,12.34788351
2.96357936,-0.56063415,-2.54825601

>  <Name>
ligand

>  <RI>
0

>  <Rbt.Current_Directory>
/home/itssahil/PROJECTS/Mol_Feturizer/New_Systems/rnas/2HO6

>  <Rbt.Executable>
rbdock ($Id: //depot/dev/client3/rdock/2013.1/src/exe/rbdock.cxx#4 $)

>  <Rbt.Library>
libRbt.so (2013.1, Build901 2013/11/27)

>  <Rbt.Parameter_File>
/export/apps/rDock/src/rDock_2013.1_src/data/scripts/dock_solv.prm

>  <Rbt.Receptor>
prm/pocket_docking_2.prm

>  <SCORE>
-5.41972

>  <SCORE.INTER>
-5.01855

>  <SCORE.INTER.CONST>
1

>  <SCORE.INTER.POLAR>
0

>  <SCORE.INTER.ROT>
3

>  <SCORE.INTER.SOLV>
6.41298

>  <SCORE.INTER.VDW>
-11.0834

>  <SCORE.INTER.norm>
-0.418212

>  <SCORE.INTRA>
-0.529462

>  <SCORE.INTRA.DIHEDRAL>
1.81806

>  <SCORE.INTRA.DIHEDRAL.0>
1.88407

>  <SCORE.INTRA.POLAR>
0

>  <SCORE.INTRA.POLAR.0>
0

>  <SCORE.INTRA.REPUL>
0

>  <SCORE.INTRA.REPUL.0>
0

>  <SCORE.INTRA.SOLV>
0.0847914

>  <SCORE.INTRA.SOLV.lig_0>
-10.2714

>  <SCORE.INTRA.VDW>
-1.48089

>  <SCORE.INTRA.VDW.0>
0.416923

>  <SCORE.INTRA.norm>
-0.0441218

>  <SCORE.RESTR>
0.128286

>  <SCORE.RESTR.CAVITY>
0.128286

>  <SCORE.RESTR.norm>
0.0106905

>  <SCORE.SYSTEM>
0

>  <SCORE.SYSTEM.CONST>
0

>  <SCORE.SYSTEM.DIHEDRAL>
0

>  <SCORE.SYSTEM.SOLV>
0

>  <SCORE.SYSTEM.norm>
0

>  <SCORE.heavy>
12

>  <SCORE.norm>
-0.451643

>  <RMSD>
5.401

$$$$
ligand
 OpenBabel11021811433D
libRbt.so/2013.1/901 2013/11/27
 12 12  0  0  0  0  0  0  0  0999 V2000
   45.3879   10.7752   14.0881 O   0  0  0  0  0  0  0  0  0  0  0  0
   49.8176   14.0294   12.5137 O   0  0  0  0  0  0  0  0  0  0  0  0
   44.8218   10.1636   12.8897 C   0  0  0  0  0  0  0  0  0  0  0  0
   50.2631   11.6488   12.9759 O   0  0  0  0  0  0  0  0  0  0  0  0
   45.4560   10.7612   11.6002 C   0  0  0  0  0  0  0  0  0  0  0  0
   50.6254   12.6898   11.3403 O   0  0  0  0  0  0  0  0  0  0  0  0
   46.4846   11.7874   11.9887 N   0  0  0  0  0  0  0  0  0  0  0  0
   45.8624   12.8583   12.8251 C   0  0  0  0  0  0  0  0  0  0  0  0
   45.1820   12.2185   14.0685 C   0  0  0  0  0  0  0  0  0  0  0  0
   47.1348   12.4141   10.7852 C   0  0  0  0  0  0  0  0  0  0  0  0
   48.6485   12.0944   10.7366 C   0  0  0  0  0  0  0  0  0  0  0  0
   49.4792   12.6539   12.2423 S   0  0  0  0  0  0  0  0  0  0  0  0
  1  3  1  0  0  0  0
  1  9  1  0  0  0  0
  2 12  1  0  0  0  0
  3  5  1  0  0  0  0
  4 12  2  0  0  0  0
  5  7  1  0  0  0  0
  6 12  2  0  0  0  0
  7  8  1  0  0  0  0
  7 10  1  0  0  0  0
  8  9  1  0  0  0  0
 10 11  1  0  0  0  0
 11 12  1  0  0  0  0
M  END
>  <CHROM.1>
-116.41231732,-57.42202742,-76.97105220,47.68535084,12.07917867,12.34492411
-2.97933447,-0.34957791,-1.71506326

>  <Name>
ligand

>  <RI>
0

>  <Rbt.Current_Directory>
/home/itssahil/PROJECTS/Mol_Feturizer/New_Systems/rnas/2HO6

>  <Rbt.Executable>
rbdock ($Id: //depot/dev/client3/rdock/2013.1/src/exe/rbdock.cxx#4 $)

>  <Rbt.Library>
libRbt.so (2013.1, Build901 2013/11/27)

>  <Rbt.Parameter_File>
/export/apps/rDock/src/rDock_2013.1_src/data/scripts/dock_solv.prm

>  <Rbt.Receptor>
prm/pocket_docking_2.prm

>  <SCORE>
-4.4385

>  <SCORE.INTER>
-3.99397

>  <SCORE.INTER.CONST>
1

>  <SCORE.INTER.POLAR>
0

>  <SCORE.INTER.ROT>
3

>  <SCORE.INTER.SOLV>
6.10331

>  <SCORE.INTER.VDW>
-10.2971

>  <SCORE.INTER.norm>
-0.332831

>  <SCORE.INTRA>
-0.444527

>  <SCORE.INTRA.DIHEDRAL>
2.37744

>  <SCORE.INTRA.DIHEDRAL.0>
1.88407

>  <SCORE.INTRA.POLAR>
0

>  <SCORE.INTRA.POLAR.0>
0

>  <SCORE.INTRA.REPUL>
0

>  <SCORE.INTRA.REPUL.0>
0

>  <SCORE.INTRA.SOLV>
0.261151

>  <SCORE.INTRA.SOLV.lig_0>
-10.2714

>  <SCORE.INTRA.VDW>
-1.76382

>  <SCORE.INTRA.VDW.0>
0.416923

>  <SCORE.INTRA.norm>
-0.0370439

>  <SCORE.RESTR>
0

>  <SCORE.RESTR.CAVITY>
0

>  <SCORE.RESTR.norm>
0

>  <SCORE.SYSTEM>
0

>  <SCORE.SYSTEM.CONST>
0

>  <SCORE.SYSTEM.DIHEDRAL>
0

>  <SCORE.SYSTEM.SOLV>
0

>  <SCORE.SYSTEM.norm>
0

>  <SCORE.heavy>
12

>  <SCORE.norm>
-0.369875

>  <RMSD>
5.404

$$$$
ligand
 OpenBabel11021811433D
libRbt.so/2013.1/901 2013/11/27
 12 12  0  0  0  0  0  0  0  0999 V2000
   45.0027   11.3987   14.4983 O   0  0  0  0  0  0  0  0  0  0  0  0
   48.3127   14.5339   11.4607 O   0  0  0  0  0  0  0  0  0  0  0  0
   44.4847   10.4089   13.5588 C   0  0  0  0  0  0  0  0  0  0  0  0
   50.3081   13.6977   12.6431 O   0  0  0  0  0  0  0  0  0  0  0  0
   45.3193   10.3896   12.2453 C   0  0  0  0  0  0  0  0  0  0  0  0
   49.7841   13.4550   10.7572 O   0  0  0  0  0  0  0  0  0  0  0  0
   46.4299   11.3980   12.3541 N   0  0  0  0  0  0  0  0  0  0  0  0
   45.8734   12.7603   12.6148 C   0  0  0  0  0  0  0  0  0  0  0  0
   44.9924   12.7264   13.8958 C   0  0  0  0  0  0  0  0  0  0  0  0
   47.2755   11.4383   11.1101 C   0  0  0  0  0  0  0  0  0  0  0  0
   48.7632   11.6938   11.4525 C   0  0  0  0  0  0  0  0  0  0  0  0
   49.0203   13.3984   11.9991 S   0  0  0  0  0  0  0  0  0  0  0  0
  1  3  1  0  0  0  0
  1  9  1  0  0  0  0
  2 12  1  0  0  0  0
  3  5  1  0  0  0  0
  4 12  2  0  0  0  0
  5  7  1  0  0  0  0
  6 12  2  0  0  0  0
  7  8  1  0  0  0  0
  7 10  1  0  0  0  0
  8  9  1  0  0  0  0
 10 11  1  0  0  0  0
 11 12  1  0  0  0  0
M  END
>  <CHROM.1>
-144.19251221,-71.59868386,-36.09085544,47.35566046,12.41980445,12.34517505
2.97536684,-0.56285117,-2.52598354

>  <Name>
ligand

>  <RI>
0

>  <Rbt.Current_Directory>
/home/itssahil/PROJECTS/Mol_Feturizer/New_Systems/rnas/2HO6

>  <Rbt.Executable>
rbdock ($Id: //depot/dev/client3/rdock/2013.1/src/exe/rbdock.cxx#4 $)

>  <Rbt.Library>
libRbt.so (2013.1, Build901 2013/11/27)

>  <Rbt.Parameter_File>
/export/apps/rDock/src/rDock_2013.1_src/data/scripts/dock_solv.prm

>  <Rbt.Receptor>
prm/pocket_docking_2.prm

>  <SCORE>
-5.4374

>  <SCORE.INTER>
-5.00074

>  <SCORE.INTER.CONST>
1

>  <SCORE.INTER.POLAR>
0

>  <SCORE.INTER.ROT>
3

>  <SCORE.INTER.SOLV>
6.40035

>  <SCORE.INTER.VDW>
-11.0673

>  <SCORE.INTER.norm>
-0.416728

>  <SCORE.INTRA>
-0.566108

>  <SCORE.INTRA.DIHEDRAL>
1.81577

>  <SCORE.INTRA.DIHEDRAL.0>
1.88407

>  <SCORE.INTRA.POLAR>
0

>  <SCORE.INTRA.POLAR.0>
0

>  <SCORE.INTRA.REPUL>
0

>  <SCORE.INTRA.REPUL.0>
0

>  <SCORE.INTRA.SOLV>
0.083262

>  <SCORE.INTRA.SOLV.lig_0>
-10.2714

>  <SCORE.INTRA.VDW>
-1.51562

>  <SCORE.INTRA.VDW.0>
0.416923

>  <SCORE.INTRA.norm>
-0.0471757

>  <SCORE.RESTR>
0.129441

>  <SCORE.RESTR.CAVITY>
0.129441

>  <SCORE.RESTR.norm>
0.0107867

>  <SCORE.SYSTEM>
0

>  <SCORE.SYSTEM.CONST>
0

>  <SCORE.SYSTEM.DIHEDRAL>
0

>  <SCORE.SYSTEM.SOLV>
0

>  <SCORE.SYSTEM.norm>
0

>  <SCORE.heavy>
12

>  <SCORE.norm>
-0.453117

>  <RMSD>
5.405

$$$$
ligand
 OpenBabel11021811433D
libRbt.so/2013.1/901 2013/11/27
 12 12  0  0  0  0  0  0  0  0999 V2000
   45.4911   10.8305   14.0614 O   0  0  0  0  0  0  0  0  0  0  0  0
   49.1161   14.8533   11.9434 O   0  0  0  0  0  0  0  0  0  0  0  0
   44.8117   10.2194   12.9230 C   0  0  0  0  0  0  0  0  0  0  0  0
   50.2477   12.8247   12.7702 O   0  0  0  0  0  0  0  0  0  0  0  0
   45.3460   10.7895   11.5770 C   0  0  0  0  0  0  0  0  0  0  0  0
   50.2585   13.6077   10.9600 O   0  0  0  0  0  0  0  0  0  0  0  0
   46.4257   11.7964   11.8641 N   0  0  0  0  0  0  0  0  0  0  0  0
   45.9002   12.8895   12.7375 C   0  0  0  0  0  0  0  0  0  0  0  0
   45.3152   12.2777   14.0419 C   0  0  0  0  0  0  0  0  0  0  0  0
   46.9839   12.3962   10.6020 C   0  0  0  0  0  0  0  0  0  0  0  0
   48.5316   12.3742   10.6087 C   0  0  0  0  0  0  0  0  0  0  0  0
   49.1902   13.4130   11.9344 S   0  0  0  0  0  0  0  0  0  0  0  0
  1  3  1  0  0  0  0
  1  9  1  0  0  0  0
  2 12  1  0  0  0  0
  3  5  1  0  0  0  0
  4 12  2  0  0  0  0
  5  7  1  0  0  0  0
  6 12  2  0  0  0  0
  7  8  1  0  0  0  0
  7 10  1  0  0  0  0
  8  9  1  0  0  0  0
 10 11  1  0  0  0  0
 11 12  1  0  0  0  0
M  END
>  <CHROM.1>
-131.58844929,-64.05381217,-69.84913540,47.53694520,12.48156565,12.15768863
-3.01031691,-0.55794941,-1.82742876

>  <Name>
ligand

>  <RI>
0

>  <Rbt.Current_Directory>
/home/itssahil/PROJECTS/Mol_Feturizer/New_Systems/rnas/2HO6

>  <Rbt.Executable>
rbdock ($Id: //depot/dev/client3/rdock/2013.1/src/exe/rbdock.cxx#4 $)

>  <Rbt.Library>
libRbt.so (2013.1, Build901 2013/11/27)

>  <Rbt.Parameter_File>
/export/apps/rDock/src/rDock_2013.1_src/data/scripts/dock_solv.prm

>  <Rbt.Receptor>
prm/pocket_docking_2.prm

>  <SCORE>
-4.35168

>  <SCORE.INTER>
-3.79153

>  <SCORE.INTER.CONST>
1

>  <SCORE.INTER.POLAR>
0

>  <SCORE.INTER.ROT>
3

>  <SCORE.INTER.SOLV>
5.91841

>  <SCORE.INTER.VDW>
-10.1005

>  <SCORE.INTER.norm>
-0.31596

>  <SCORE.INTRA>
-0.560158

>  <SCORE.INTRA.DIHEDRAL>
2.13678

>  <SCORE.INTRA.DIHEDRAL.0>
1.88407

>  <SCORE.INTRA.POLAR>
0

>  <SCORE.INTRA.POLAR.0>
0

>  <SCORE.INTRA.REPUL>
0

>  <SCORE.INTRA.REPUL.0>
0

>  <SCORE.INTRA.SOLV>
0.20283

>  <SCORE.INTRA.SOLV.lig_0>
-10.2714

>  <SCORE.INTRA.VDW>
-1.72996

>  <SCORE.INTRA.VDW.0>
0.416923

>  <SCORE.INTRA.norm>
-0.0466799

>  <SCORE.RESTR>
0

>  <SCORE.RESTR.CAVITY>
0

>  <SCORE.RESTR.norm>
0

>  <SCORE.SYSTEM>
0

>  <SCORE.SYSTEM.CONST>
0

>  <SCORE.SYSTEM.DIHEDRAL>
0

>  <SCORE.SYSTEM.SOLV>
0

>  <SCORE.SYSTEM.norm>
0

>  <SCORE.heavy>
12

>  <SCORE.norm>
-0.36264

>  <RMSD>
5.407

$$$$
ligand
 OpenBabel11021811433D
libRbt.so/2013.1/901 2013/11/27
 12 12  0  0  0  0  0  0  0  0999 V2000
   45.5030   10.8478   14.0742 O   0  0  0  0  0  0  0  0  0  0  0  0
   49.0869   14.8864   11.8484 O   0  0  0  0  0  0  0  0  0  0  0  0
   44.8354   10.2133   12.9417 C   0  0  0  0  0  0  0  0  0  0  0  0
   50.3130   12.9187   12.6876 O   0  0  0  0  0  0  0  0  0  0  0  0
   45.3685   10.7710   11.5901 C   0  0  0  0  0  0  0  0  0  0  0  0
   50.2354   13.6517   10.8582 O   0  0  0  0  0  0  0  0  0  0  0  0
   46.4353   11.7942   11.8675 N   0  0  0  0  0  0  0  0  0  0  0  0
   45.8937   12.8930   12.7236 C   0  0  0  0  0  0  0  0  0  0  0  0
   45.3104   12.2925   14.0341 C   0  0  0  0  0  0  0  0  0  0  0  0
   46.9917   12.3831   10.5994 C   0  0  0  0  0  0  0  0  0  0  0  0
   48.5393   12.3540   10.6007 C   0  0  0  0  0  0  0  0  0  0  0  0
   49.2084   13.4494   11.8745 S   0  0  0  0  0  0  0  0  0  0  0  0
  1  3  1  0  0  0  0
  1  9  1  0  0  0  0
  2 12  1  0  0  0  0
  3  5  1  0  0  0  0
  4 12  2  0  0  0  0
  5  7  1  0  0  0  0
  6 12  2  0  0  0  0
  7  8  1  0  0  0  0
  7 10  1  0  0  0  0
  8  9  1  0  0  0  0
 10 11  1  0  0  0  0
 11 12  1  0  0  0  0
M  END
>  <CHROM.1>
-130.48810574,-66.30569293,-66.87049861,47.54632834,12.50006190,12.12605338
-3.01500957,-0.57111457,-1.86051949

>  <Name>
ligand

>  <RI>
0

>  <Rbt.Current_Directory>
/home/itssahil/PROJECTS/Mol_Feturizer/New_Systems/rnas/2HO6

>  <Rbt.Executable>
rbdock ($Id: //depot/dev/client3/rdock/2013.1/src/exe/rbdock.cxx#4 $)

>  <Rbt.Library>
libRbt.so (2013.1, Build901 2013/11/27)

>  <Rbt.Parameter_File>
/export/apps/rDock/src/rDock_2013.1_src/data/scripts/dock_solv.prm

>  <Rbt.Receptor>
prm/pocket_docking_2.prm

>  <SCORE>
-4.39353

>  <SCORE.INTER>
-3.89317

>  <SCORE.INTER.CONST>
1

>  <SCORE.INTER.POLAR>
0

>  <SCORE.INTER.ROT>
3

>  <SCORE.INTER.SOLV>
5.85485

>  <SCORE.INTER.VDW>
-10.1471

>  <SCORE.INTER.norm>
-0.324431

>  <SCORE.INTRA>
-0.500361

>  <SCORE.INTRA.DIHEDRAL>
2.254

>  <SCORE.INTRA.DIHEDRAL.0>
1.88407

>  <SCORE.INTRA.POLAR>
0

>  <SCORE.INTRA.POLAR.0>
0

>  <SCORE.INTRA.REPUL>
0

>  <SCORE.INTRA.REPUL.0>
0

>  <SCORE.INTRA.SOLV>
0.170325

>  <SCORE.INTRA.SOLV.lig_0>
-10.2714

>  <SCORE.INTRA.VDW>
-1.71252

>  <SCORE.INTRA.VDW.0>
0.416923

>  <SCORE.INTRA.norm>
-0.0416967

>  <SCORE.RESTR>
0

>  <SCORE.RESTR.CAVITY>
0

>  <SCORE.RESTR.norm>
0

>  <SCORE.SYSTEM>
0

>  <SCORE.SYSTEM.CONST>
0

>  <SCORE.SYSTEM.DIHEDRAL>
0

>  <SCORE.SYSTEM.SOLV>
0

>  <SCORE.SYSTEM.norm>
0

>  <SCORE.heavy>
12

>  <SCORE.norm>
-0.366128

>  <RMSD>
5.414

$$$$
ligand
 OpenBabel11021811433D
libRbt.so/2013.1/901 2013/11/27
 12 12  0  0  0  0  0  0  0  0999 V2000
   45.0038   11.3997   14.4855 O   0  0  0  0  0  0  0  0  0  0  0  0
   49.5179   13.4925   12.3276 O   0  0  0  0  0  0  0  0  0  0  0  0
   44.4605   10.4040   13.5667 C   0  0  0  0  0  0  0  0  0  0  0  0
   50.5416   11.4689   13.2953 O   0  0  0  0  0  0  0  0  0  0  0  0
   45.2626   10.3723   12.2334 C   0  0  0  0  0  0  0  0  0  0  0  0
   50.4872   12.0605   11.4145 O   0  0  0  0  0  0  0  0  0  0  0  0
   46.3779   11.3786   12.3070 N   0  0  0  0  0  0  0  0  0  0  0  0
   45.8313   12.7443   12.5706 C   0  0  0  0  0  0  0  0  0  0  0  0
   44.9820   12.7226   13.8730 C   0  0  0  0  0  0  0  0  0  0  0  0
   47.1928   11.4070   11.0423 C   0  0  0  0  0  0  0  0  0  0  0  0
   48.6483   10.9499   11.3038 C   0  0  0  0  0  0  0  0  0  0  0  0
   49.4777   12.0576   12.4680 S   0  0  0  0  0  0  0  0  0  0  0  0
  1  3  1  0  0  0  0
  1  9  1  0  0  0  0
  2 12  1  0  0  0  0
  3  5  1  0  0  0  0
  4 12  2  0  0  0  0
  5  7  1  0  0  0  0
  6 12  2  0  0  0  0
  7  8  1  0  0  0  0
  7 10  1  0  0  0  0
  8  9  1  0  0  0  0
 10 11  1  0  0  0  0
 11 12  1  0  0  0  0
M  END
>  <CHROM.1>
-115.55300822,-61.81231068,-51.17239670,47.58005830,11.75389120,12.57661447
-3.05832920,-0.26236940,-2.27682642

>  <Name>
ligand

>  <RI>
0

>  <Rbt.Current_Directory>
/home/itssahil/PROJECTS/Mol_Feturizer/New_Systems/rnas/2HO6

>  <Rbt.Executable>
rbdock ($Id: //depot/dev/client3/rdock/2013.1/src/exe/rbdock.cxx#4 $)

>  <Rbt.Library>
libRbt.so (2013.1, Build901 2013/11/27)

>  <Rbt.Parameter_File>
/export/apps/rDock/src/rDock_2013.1_src/data/scripts/dock_solv.prm

>  <Rbt.Receptor>
prm/pocket_docking_2.prm

>  <SCORE>
-5.20826

>  <SCORE.INTER>
-4.74294

>  <SCORE.INTER.CONST>
1

>  <SCORE.INTER.POLAR>
0

>  <SCORE.INTER.ROT>
3

>  <SCORE.INTER.SOLV>
6.72969

>  <SCORE.INTER.VDW>
-11.0052

>  <SCORE.INTER.norm>
-0.395245

>  <SCORE.INTRA>
-0.58903

>  <SCORE.INTRA.DIHEDRAL>
2.26304

>  <SCORE.INTRA.DIHEDRAL.0>
1.88407

>  <SCORE.INTRA.POLAR>
0

>  <SCORE.INTRA.POLAR.0>
0

>  <SCORE.INTRA.REPUL>
0

>  <SCORE.INTRA.REPUL.0>
0

>  <SCORE.INTRA.SOLV>
0.118925

>  <SCORE.INTRA.SOLV.lig_0>
-10.2714

>  <SCORE.INTRA.VDW>
-1.78001

>  <SCORE.INTRA.VDW.0>
0.416923

>  <SCORE.INTRA.norm>
-0.0490859

>  <SCORE.RESTR>
0.12371

>  <SCORE.RESTR.CAVITY>
0.12371

>  <SCORE.RESTR.norm>
0.0103092

>  <SCORE.SYSTEM>
0

>  <SCORE.SYSTEM.CONST>
0

>  <SCORE.SYSTEM.DIHEDRAL>
0

>  <SCORE.SYSTEM.SOLV>
0

>  <SCORE.SYSTEM.norm>
0

>  <SCORE.heavy>
12

>  <SCORE.norm>
-0.434022

>  <RMSD>
5.429

$$$$
ligand
 OpenBabel11021811433D
libRbt.so/2013.1/901 2013/11/27
 12 12  0  0  0  0  0  0  0  0999 V2000
   44.8505   15.0303    9.2120 O   0  0  0  0  0  0  0  0  0  0  0  0
   42.0889   14.7907   12.2882 O   0  0  0  0  0  0  0  0  0  0  0  0
   44.1262   13.8179    8.8430 C   0  0  0  0  0  0  0  0  0  0  0  0
   42.2799   15.3018   14.6927 O   0  0  0  0  0  0  0  0  0  0  0  0
   43.9603   12.8681   10.0647 C   0  0  0  0  0  0  0  0  0  0  0  0
   43.6275   15.4982   13.2660 O   0  0  0  0  0  0  0  0  0  0  0  0
   44.5901   13.5064   11.2722 N   0  0  0  0  0  0  0  0  0  0  0  0
   46.0326   13.7996   11.0141 C   0  0  0  0  0  0  0  0  0  0  0  0
   46.1637   14.6948    9.7494 C   0  0  0  0  0  0  0  0  0  0  0  0
   44.4727   12.6350   12.4933 C   0  0  0  0  0  0  0  0  0  0  0  0
   44.1840   13.4794   13.7580 C   0  0  0  0  0  0  0  0  0  0  0  0
   42.6656   14.4422   13.5634 S   0  0  0  0  0  0  0  0  0  0  0  0
  1  3  1  0  0  0  0
  1  9  1  0  0  0  0
  2 12  1  0  0  0  0
  3  5  1  0  0  0  0
  4 12  2  0  0  0  0
  5  7  1  0  0  0  0
  6 12  2  0  0  0  0
  7  8  1  0  0  0  0
  7 10  1  0  0  0  0
  8  9  1  0  0  0  0
 10 11  1  0  0  0  0
 11 12  1  0  0  0  0
M  END
>  <CHROM.1>
-141.23283398,58.07991653,-22.05004853,43.91926268,14.22268907,11.88684773
0.91803445,0.64269054,-1.29885487

>  <Name>
ligand

>  <RI>
0

>  <Rbt.Current_Directory>
/home/itssahil/PROJECTS/Mol_Feturizer/New_Systems/rnas/2HO6

>  <Rbt.Executable>
rbdock ($Id: //depot/dev/client3/rdock/2013.1/src/exe/rbdock.cxx#4 $)

>  <Rbt.Library>
libRbt.so (2013.1, Build901 2013/11/27)

>  <Rbt.Parameter_File>
/export/apps/rDock/src/rDock_2013.1_src/data/scripts/dock_solv.prm

>  <Rbt.Receptor>
prm/pocket_docking_6.prm

>  <SCORE>
-7.73425

>  <SCORE.INTER>
-6.7381

>  <SCORE.INTER.CONST>
1

>  <SCORE.INTER.POLAR>
0

>  <SCORE.INTER.ROT>
3

>  <SCORE.INTER.SOLV>
6.25319

>  <SCORE.INTER.VDW>
-12.1765

>  <SCORE.INTER.norm>
-0.561508

>  <SCORE.INTRA>
-0.996153

>  <SCORE.INTRA.DIHEDRAL>
1.52573

>  <SCORE.INTRA.DIHEDRAL.0>
1.88407

>  <SCORE.INTRA.POLAR>
0

>  <SCORE.INTRA.POLAR.0>
0

>  <SCORE.INTRA.REPUL>
0

>  <SCORE.INTRA.REPUL.0>
0

>  <SCORE.INTRA.SOLV>
0.533054

>  <SCORE.INTRA.SOLV.lig_0>
-10.2714

>  <SCORE.INTRA.VDW>
-2.02555

>  <SCORE.INTRA.VDW.0>
0.416923

>  <SCORE.INTRA.norm>
-0.0830127

>  <SCORE.RESTR>
0

>  <SCORE.RESTR.CAVITY>
0

>  <SCORE.RESTR.norm>
0

>  <SCORE.SYSTEM>
0

>  <SCORE.SYSTEM.CONST>
0

>  <SCORE.SYSTEM.DIHEDRAL>
0

>  <SCORE.SYSTEM.SOLV>
0

>  <SCORE.SYSTEM.norm>
0

>  <SCORE.heavy>
12

>  <SCORE.norm>
-0.644521

>  <RMSD>
5.431

$$$$
ligand
 OpenBabel11021811433D
libRbt.so/2013.1/901 2013/11/27
 12 12  0  0  0  0  0  0  0  0999 V2000
   45.7098   10.5106   13.5963 O   0  0  0  0  0  0  0  0  0  0  0  0
   50.0847   14.8379   12.3675 O   0  0  0  0  0  0  0  0  0  0  0  0
   45.1897   10.1851   12.2718 C   0  0  0  0  0  0  0  0  0  0  0  0
   50.2564   12.4212   12.8250 O   0  0  0  0  0  0  0  0  0  0  0  0
   45.6909   11.2018   11.2054 C   0  0  0  0  0  0  0  0  0  0  0  0
   50.6756   13.4091   11.1702 O   0  0  0  0  0  0  0  0  0  0  0  0
   46.5839   12.2122   11.8714 N   0  0  0  0  0  0  0  0  0  0  0  0
   45.8524   12.9087   12.9729 C   0  0  0  0  0  0  0  0  0  0  0  0
   45.3096   11.8583   13.9830 C   0  0  0  0  0  0  0  0  0  0  0  0
   47.1002   13.2348   10.8957 C   0  0  0  0  0  0  0  0  0  0  0  0
   48.6181   13.0579   10.6500 C   0  0  0  0  0  0  0  0  0  0  0  0
   49.5711   13.5135   12.1178 S   0  0  0  0  0  0  0  0  0  0  0  0
  1  3  1  0  0  0  0
  1  9  1  0  0  0  0
  2 12  1  0  0  0  0
  3  5  1  0  0  0  0
  4 12  2  0  0  0  0
  5  7  1  0  0  0  0
  6 12  2  0  0  0  0
  7  8  1  0  0  0  0
  7 10  1  0  0  0  0
  8  9  1  0  0  0  0
 10 11  1  0  0  0  0
 11 12  1  0  0  0  0
M  END
>  <CHROM.1>
-110.31304888,-69.53806660,-91.17608157,47.80710352,12.55924346,12.17001445
-2.89882477,-0.46861050,-1.40471160

>  <Name>
ligand

>  <RI>
0

>  <Rbt.Current_Directory>
/home/itssahil/PROJECTS/Mol_Feturizer/New_Systems/rnas/2HO6

>  <Rbt.Executable>
rbdock ($Id: //depot/dev/client3/rdock/2013.1/src/exe/rbdock.cxx#4 $)

>  <Rbt.Library>
libRbt.so (2013.1, Build901 2013/11/27)

>  <Rbt.Parameter_File>
/export/apps/rDock/src/rDock_2013.1_src/data/scripts/dock_solv.prm

>  <Rbt.Receptor>
prm/pocket_docking_2.prm

>  <SCORE>
-3.37781

>  <SCORE.INTER>
-3.21007

>  <SCORE.INTER.CONST>
1

>  <SCORE.INTER.POLAR>
0

>  <SCORE.INTER.ROT>
3

>  <SCORE.INTER.SOLV>
5.9262

>  <SCORE.INTER.VDW>
-9.71545

>  <SCORE.INTER.norm>
-0.267506

>  <SCORE.INTRA>
-0.192656

>  <SCORE.INTRA.DIHEDRAL>
2.61075

>  <SCORE.INTRA.DIHEDRAL.0>
1.88407

>  <SCORE.INTRA.POLAR>
0

>  <SCORE.INTRA.POLAR.0>
0

>  <SCORE.INTRA.REPUL>
0

>  <SCORE.INTRA.REPUL.0>
0

>  <SCORE.INTRA.SOLV>
0.31423

>  <SCORE.INTRA.SOLV.lig_0>
-10.2714

>  <SCORE.INTRA.VDW>
-1.65515

>  <SCORE.INTRA.VDW.0>
0.416923

>  <SCORE.INTRA.norm>
-0.0160547

>  <SCORE.RESTR>
0.0249157

>  <SCORE.RESTR.CAVITY>
0.0249157

>  <SCORE.RESTR.norm>
0.00207631

>  <SCORE.SYSTEM>
0

>  <SCORE.SYSTEM.CONST>
0

>  <SCORE.SYSTEM.DIHEDRAL>
0

>  <SCORE.SYSTEM.SOLV>
0

>  <SCORE.SYSTEM.norm>
0

>  <SCORE.heavy>
12

>  <SCORE.norm>
-0.281484

>  <RMSD>
5.434

$$$$
ligand
 OpenBabel11021811433D
libRbt.so/2013.1/901 2013/11/27
 12 12  0  0  0  0  0  0  0  0999 V2000
   43.2444   13.8535   10.5571 O   0  0  0  0  0  0  0  0  0  0  0  0
   44.5504   12.4881   15.6006 O   0  0  0  0  0  0  0  0  0  0  0  0
   44.0628   13.1120    9.6026 C   0  0  0  0  0  0  0  0  0  0  0  0
   42.4013   11.3904   15.0953 O   0  0  0  0  0  0  0  0  0  0  0  0
   44.9169   12.0259   10.3187 C   0  0  0  0  0  0  0  0  0  0  0  0
   44.0861   10.5938   15.7411 O   0  0  0  0  0  0  0  0  0  0  0  0
   44.6209   12.0611   11.7929 N   0  0  0  0  0  0  0  0  0  0  0  0
   44.9052   13.4187   12.3494 C   0  0  0  0  0  0  0  0  0  0  0  0
   44.0860   14.4841   11.5670 C   0  0  0  0  0  0  0  0  0  0  0  0
   45.4219   11.0375   12.5510 C   0  0  0  0  0  0  0  0  0  0  0  0
   44.5712   10.3684   13.6575 C   0  0  0  0  0  0  0  0  0  0  0  0
   43.8091   11.6089   14.7302 S   0  0  0  0  0  0  0  0  0  0  0  0
  1  3  1  0  0  0  0
  1  9  1  0  0  0  0
  2 12  1  0  0  0  0
  3  5  1  0  0  0  0
  4 12  2  0  0  0  0
  5  7  1  0  0  0  0
  6 12  2  0  0  0  0
  7  8  1  0  0  0  0
  7 10  1  0  0  0  0
  8  9  1  0  0  0  0
 10 11  1  0  0  0  0
 11 12  1  0  0  0  0
M  END
>  <CHROM.1>
-140.12252661,-53.13571005,-65.91875095,44.15804136,12.14337240,13.03553354
1.43025706,1.04157321,-1.04650794

>  <Name>
ligand

>  <RI>
0

>  <Rbt.Current_Directory>
/home/itssahil/PROJECTS/Mol_Feturizer/New_Systems/rnas/2HO6

>  <Rbt.Executable>
rbdock ($Id: //depot/dev/client3/rdock/2013.1/src/exe/rbdock.cxx#4 $)

>  <Rbt.Library>
libRbt.so (2013.1, Build901 2013/11/27)

>  <Rbt.Parameter_File>
/export/apps/rDock/src/rDock_2013.1_src/data/scripts/dock_solv.prm

>  <Rbt.Receptor>
prm/pocket_docking_4.prm

>  <SCORE>
-8.67737

>  <SCORE.INTER>
-8.07446

>  <SCORE.INTER.CONST>
1

>  <SCORE.INTER.POLAR>
0

>  <SCORE.INTER.ROT>
3

>  <SCORE.INTER.SOLV>
7.64174

>  <SCORE.INTER.VDW>
-13.5302

>  <SCORE.INTER.norm>
-0.672872

>  <SCORE.INTRA>
-0.603469

>  <SCORE.INTRA.DIHEDRAL>
1.82136

>  <SCORE.INTRA.DIHEDRAL.0>
1.88407

>  <SCORE.INTRA.POLAR>
0

>  <SCORE.INTRA.POLAR.0>
0

>  <SCORE.INTRA.REPUL>
0

>  <SCORE.INTRA.REPUL.0>
0

>  <SCORE.INTRA.SOLV>
0.244246

>  <SCORE.INTRA.SOLV.lig_0>
-10.2714

>  <SCORE.INTRA.VDW>
-1.63627

>  <SCORE.INTRA.VDW.0>
0.416923

>  <SCORE.INTRA.norm>
-0.0502891

>  <SCORE.RESTR>
0.000568324

>  <SCORE.RESTR.CAVITY>
0.000568324

>  <SCORE.RESTR.norm>
4.73604e-05

>  <SCORE.SYSTEM>
0

>  <SCORE.SYSTEM.CONST>
0

>  <SCORE.SYSTEM.DIHEDRAL>
0

>  <SCORE.SYSTEM.SOLV>
0

>  <SCORE.SYSTEM.norm>
0

>  <SCORE.heavy>
12

>  <SCORE.norm>
-0.723114

>  <RMSD>
5.436

$$$$
ligand
 OpenBabel11021811433D
libRbt.so/2013.1/901 2013/11/27
 12 12  0  0  0  0  0  0  0  0999 V2000
   42.7290   13.8728   10.8708 O   0  0  0  0  0  0  0  0  0  0  0  0
   44.0117   11.1005   16.0593 O   0  0  0  0  0  0  0  0  0  0  0  0
   43.6135   13.1976    9.9261 C   0  0  0  0  0  0  0  0  0  0  0  0
   43.9351   13.2699   14.8901 O   0  0  0  0  0  0  0  0  0  0  0  0
   44.9107   12.7000   10.6275 C   0  0  0  0  0  0  0  0  0  0  0  0
   43.6384   11.4566   14.1731 O   0  0  0  0  0  0  0  0  0  0  0  0
   44.8474   13.0563   12.0873 N   0  0  0  0  0  0  0  0  0  0  0  0
   44.6794   14.5316   12.2570 C   0  0  0  0  0  0  0  0  0  0  0  0
   43.4121   15.0030   11.4889 C   0  0  0  0  0  0  0  0  0  0  0  0
   46.0787   12.6097   12.8280 C   0  0  0  0  0  0  0  0  0  0  0  0
   45.7570   11.4495   13.8007 C   0  0  0  0  0  0  0  0  0  0  0  0
   44.6266   11.9898   15.1047 S   0  0  0  0  0  0  0  0  0  0  0  0
  1  3  1  0  0  0  0
  1  9  1  0  0  0  0
  2 12  1  0  0  0  0
  3  5  1  0  0  0  0
  4 12  2  0  0  0  0
  5  7  1  0  0  0  0
  6 12  2  0  0  0  0
  7  8  1  0  0  0  0
  7 10  1  0  0  0  0
  8  9  1  0  0  0  0
 10 11  1  0  0  0  0
 11 12  1  0  0  0  0
M  END
>  <CHROM.1>
-110.72718117,-64.46494068,171.89464077,44.34713674,12.75552955,13.09982972
1.72762553,0.62556237,-1.21296492

>  <Name>
ligand

>  <RI>
0

>  <Rbt.Current_Directory>
/home/itssahil/PROJECTS/Mol_Feturizer/New_Systems/rnas/2HO6

>  <Rbt.Executable>
rbdock ($Id: //depot/dev/client3/rdock/2013.1/src/exe/rbdock.cxx#4 $)

>  <Rbt.Library>
libRbt.so (2013.1, Build901 2013/11/27)

>  <Rbt.Parameter_File>
/export/apps/rDock/src/rDock_2013.1_src/data/scripts/dock_solv.prm

>  <Rbt.Receptor>
prm/pocket_docking_4.prm

>  <SCORE>
-9.29093

>  <SCORE.INTER>
-9.38101

>  <SCORE.INTER.CONST>
1

>  <SCORE.INTER.POLAR>
0

>  <SCORE.INTER.ROT>
3

>  <SCORE.INTER.SOLV>
6.39919

>  <SCORE.INTER.VDW>
-13.9871

>  <SCORE.INTER.norm>
-0.781751

>  <SCORE.INTRA>
0.0895754

>  <SCORE.INTRA.DIHEDRAL>
2.30183

>  <SCORE.INTRA.DIHEDRAL.0>
1.88407

>  <SCORE.INTRA.POLAR>
0

>  <SCORE.INTRA.POLAR.0>
0

>  <SCORE.INTRA.REPUL>
0

>  <SCORE.INTRA.REPUL.0>
0

>  <SCORE.INTRA.SOLV>
1.5148

>  <SCORE.INTRA.SOLV.lig_0>
-10.2714

>  <SCORE.INTRA.VDW>
-1.81874

>  <SCORE.INTRA.VDW.0>
0.416923

>  <SCORE.INTRA.norm>
0.00746461

>  <SCORE.RESTR>
0.000507532

>  <SCORE.RESTR.CAVITY>
0.000507532

>  <SCORE.RESTR.norm>
4.22943e-05

>  <SCORE.SYSTEM>
0

>  <SCORE.SYSTEM.CONST>
0

>  <SCORE.SYSTEM.DIHEDRAL>
0

>  <SCORE.SYSTEM.SOLV>
0

>  <SCORE.SYSTEM.norm>
0

>  <SCORE.heavy>
12

>  <SCORE.norm>
-0.774244

>  <RMSD>
5.439

$$$$
ligand
 OpenBabel11021811433D
libRbt.so/2013.1/901 2013/11/27
 12 12  0  0  0  0  0  0  0  0999 V2000
   45.3830   13.8731    9.7159 O   0  0  0  0  0  0  0  0  0  0  0  0
   44.0876   10.7891   14.7499 O   0  0  0  0  0  0  0  0  0  0  0  0
   45.2664   15.2294   10.2430 C   0  0  0  0  0  0  0  0  0  0  0  0
   46.0865   12.0910   14.1266 O   0  0  0  0  0  0  0  0  0  0  0  0
   44.3398   15.2693   11.4927 C   0  0  0  0  0  0  0  0  0  0  0  0
   44.8515   12.3526   15.6420 O   0  0  0  0  0  0  0  0  0  0  0  0
   43.8552   13.8769   11.7897 N   0  0  0  0  0  0  0  0  0  0  0  0
   43.1358   13.3121   10.6077 C   0  0  0  0  0  0  0  0  0  0  0  0
   44.0685   13.3494    9.3640 C   0  0  0  0  0  0  0  0  0  0  0  0
   42.9440   13.8429   12.9866 C   0  0  0  0  0  0  0  0  0  0  0  0
   43.7424   13.6068   14.2915 C   0  0  0  0  0  0  0  0  0  0  0  0
   44.6214   12.0274   14.2384 S   0  0  0  0  0  0  0  0  0  0  0  0
  1  3  1  0  0  0  0
  1  9  1  0  0  0  0
  2 12  1  0  0  0  0
  3  5  1  0  0  0  0
  4 12  2  0  0  0  0
  5  7  1  0  0  0  0
  6 12  2  0  0  0  0
  7  8  1  0  0  0  0
  7 10  1  0  0  0  0
  8  9  1  0  0  0  0
 10 11  1  0  0  0  0
 11 12  1  0  0  0  0
M  END
>  <CHROM.1>
-90.43079717,-60.53974589,-92.82220584,44.41897836,13.14164351,12.65017617
-1.61638405,-0.62632261,2.00868986

>  <Name>
ligand

>  <RI>
0

>  <Rbt.Current_Directory>
/home/itssahil/PROJECTS/Mol_Feturizer/New_Systems/rnas/2HO6

>  <Rbt.Executable>
rbdock ($Id: //depot/dev/client3/rdock/2013.1/src/exe/rbdock.cxx#4 $)

>  <Rbt.Library>
libRbt.so (2013.1, Build901 2013/11/27)

>  <Rbt.Parameter_File>
/export/apps/rDock/src/rDock_2013.1_src/data/scripts/dock_solv.prm

>  <Rbt.Receptor>
prm/pocket_docking_6.prm

>  <SCORE>
-8.63758

>  <SCORE.INTER>
-7.88306

>  <SCORE.INTER.CONST>
1

>  <SCORE.INTER.POLAR>
0

>  <SCORE.INTER.ROT>
3

>  <SCORE.INTER.SOLV>
7.42276

>  <SCORE.INTER.VDW>
-13.3296

>  <SCORE.INTER.norm>
-0.656922

>  <SCORE.INTRA>
-0.754518

>  <SCORE.INTRA.DIHEDRAL>
1.29943

>  <SCORE.INTRA.DIHEDRAL.0>
1.88407

>  <SCORE.INTRA.POLAR>
0

>  <SCORE.INTRA.POLAR.0>
0

>  <SCORE.INTRA.REPUL>
0

>  <SCORE.INTRA.REPUL.0>
0

>  <SCORE.INTRA.SOLV>
0.370837

>  <SCORE.INTRA.SOLV.lig_0>
-10.2714

>  <SCORE.INTRA.VDW>
-1.58965

>  <SCORE.INTRA.VDW.0>
0.416923

>  <SCORE.INTRA.norm>
-0.0628765

>  <SCORE.RESTR>
0

>  <SCORE.RESTR.CAVITY>
0

>  <SCORE.RESTR.norm>
0

>  <SCORE.SYSTEM>
0

>  <SCORE.SYSTEM.CONST>
0

>  <SCORE.SYSTEM.DIHEDRAL>
0

>  <SCORE.SYSTEM.SOLV>
0

>  <SCORE.SYSTEM.norm>
0

>  <SCORE.heavy>
12

>  <SCORE.norm>
-0.719798

>  <RMSD>
5.439

$$$$
ligand
 OpenBabel11021811433D
libRbt.so/2013.1/901 2013/11/27
 12 12  0  0  0  0  0  0  0  0999 V2000
   45.2918   10.8059   14.1022 O   0  0  0  0  0  0  0  0  0  0  0  0
   49.9048   13.9038   12.5110 O   0  0  0  0  0  0  0  0  0  0  0  0
   44.8250   10.1333   12.8938 C   0  0  0  0  0  0  0  0  0  0  0  0
   50.6367   11.6013   13.0030 O   0  0  0  0  0  0  0  0  0  0  0  0
   45.5735   10.6572   11.6338 C   0  0  0  0  0  0  0  0  0  0  0  0
   50.7534   12.6119   11.3133 O   0  0  0  0  0  0  0  0  0  0  0  0
   46.5746   11.6978   12.0544 N   0  0  0  0  0  0  0  0  0  0  0  0
   45.8931   12.8154   12.7756 C   0  0  0  0  0  0  0  0  0  0  0  0
   45.1022   12.2470   13.9879 C   0  0  0  0  0  0  0  0  0  0  0  0
   47.3320   12.2554   10.8798 C   0  0  0  0  0  0  0  0  0  0  0  0
   48.8089   11.7926   10.8952 C   0  0  0  0  0  0  0  0  0  0  0  0
   49.6938   12.4914   12.3090 S   0  0  0  0  0  0  0  0  0  0  0  0
  1  3  1  0  0  0  0
  1  9  1  0  0  0  0
  2 12  1  0  0  0  0
  3  5  1  0  0  0  0
  4 12  2  0  0  0  0
  5  7  1  0  0  0  0
  6 12  2  0  0  0  0
  7  8  1  0  0  0  0
  7 10  1  0  0  0  0
  8  9  1  0  0  0  0
 10 11  1  0  0  0  0
 11 12  1  0  0  0  0
M  END
>  <CHROM.1>
-110.01688821,-66.23283178,-62.86436154,47.79883914,11.98374908,12.37324023
-3.04552348,-0.32750079,-1.89645973

>  <Name>
ligand

>  <RI>
0

>  <Rbt.Current_Directory>
/home/itssahil/PROJECTS/Mol_Feturizer/New_Systems/rnas/2HO6

>  <Rbt.Executable>
rbdock ($Id: //depot/dev/client3/rdock/2013.1/src/exe/rbdock.cxx#4 $)

>  <Rbt.Library>
libRbt.so (2013.1, Build901 2013/11/27)

>  <Rbt.Parameter_File>
/export/apps/rDock/src/rDock_2013.1_src/data/scripts/dock_solv.prm

>  <Rbt.Receptor>
prm/pocket_docking_2.prm

>  <SCORE>
-4.22958

>  <SCORE.INTER>
-3.82329

>  <SCORE.INTER.CONST>
1

>  <SCORE.INTER.POLAR>
0

>  <SCORE.INTER.ROT>
3

>  <SCORE.INTER.SOLV>
6.12947

>  <SCORE.INTER.VDW>
-10.192

>  <SCORE.INTER.norm>
-0.318607

>  <SCORE.INTRA>
-0.409579

>  <SCORE.INTRA.DIHEDRAL>
2.33309

>  <SCORE.INTRA.DIHEDRAL.0>
1.88407

>  <SCORE.INTRA.POLAR>
0

>  <SCORE.INTRA.POLAR.0>
0

>  <SCORE.INTRA.REPUL>
0

>  <SCORE.INTRA.REPUL.0>
0

>  <SCORE.INTRA.SOLV>
0.149012

>  <SCORE.INTRA.SOLV.lig_0>
-10.2714

>  <SCORE.INTRA.VDW>
-1.65063

>  <SCORE.INTRA.VDW.0>
0.416923

>  <SCORE.INTRA.norm>
-0.0341316

>  <SCORE.RESTR>
0.00328355

>  <SCORE.RESTR.CAVITY>
0.00328355

>  <SCORE.RESTR.norm>
0.000273629

>  <SCORE.SYSTEM>
0

>  <SCORE.SYSTEM.CONST>
0

>  <SCORE.SYSTEM.DIHEDRAL>
0

>  <SCORE.SYSTEM.SOLV>
0

>  <SCORE.SYSTEM.norm>
0

>  <SCORE.heavy>
12

>  <SCORE.norm>
-0.352465

>  <RMSD>
5.444

$$$$
ligand
 OpenBabel11021811433D
libRbt.so/2013.1/901 2013/11/27
 12 12  0  0  0  0  0  0  0  0999 V2000
   45.4056   14.2522    9.9164 O   0  0  0  0  0  0  0  0  0  0  0  0
   44.1390   10.7703   14.7387 O   0  0  0  0  0  0  0  0  0  0  0  0
   45.1440   15.5713   10.4840 C   0  0  0  0  0  0  0  0  0  0  0  0
   46.0325   12.2057   14.0803 O   0  0  0  0  0  0  0  0  0  0  0  0
   44.1694   15.4797   11.6939 C   0  0  0  0  0  0  0  0  0  0  0  0
   44.8496   12.3465   15.6522 O   0  0  0  0  0  0  0  0  0  0  0  0
   43.8039   14.0388   11.9222 N   0  0  0  0  0  0  0  0  0  0  0  0
   43.1865   13.4563   10.6922 C   0  0  0  0  0  0  0  0  0  0  0  0
   44.1599   13.6252    9.4912 C   0  0  0  0  0  0  0  0  0  0  0  0
   42.8534   13.8770   13.0775 C   0  0  0  0  0  0  0  0  0  0  0  0
   43.6149   13.5763   14.3911 C   0  0  0  0  0  0  0  0  0  0  0  0
   44.5795   12.0533   14.2487 S   0  0  0  0  0  0  0  0  0  0  0  0
  1  3  1  0  0  0  0
  1  9  1  0  0  0  0
  2 12  1  0  0  0  0
  3  5  1  0  0  0  0
  4 12  2  0  0  0  0
  5  7  1  0  0  0  0
  6 12  2  0  0  0  0
  7  8  1  0  0  0  0
  7 10  1  0  0  0  0
  8  9  1  0  0  0  0
 10 11  1  0  0  0  0
 11 12  1  0  0  0  0
M  END
>  <CHROM.1>
-94.00590326,-59.87420672,-98.16757388,44.38320143,13.26671223,12.73503253
-1.61331309,-0.67101007,2.07619709

>  <Name>
ligand

>  <RI>
0

>  <Rbt.Current_Directory>
/home/itssahil/PROJECTS/Mol_Feturizer/New_Systems/rnas/2HO6

>  <Rbt.Executable>
rbdock ($Id: //depot/dev/client3/rdock/2013.1/src/exe/rbdock.cxx#4 $)

>  <Rbt.Library>
libRbt.so (2013.1, Build901 2013/11/27)

>  <Rbt.Parameter_File>
/export/apps/rDock/src/rDock_2013.1_src/data/scripts/dock_solv.prm

>  <Rbt.Receptor>
prm/pocket_docking_6.prm

>  <SCORE>
-8.62697

>  <SCORE.INTER>
-7.94615

>  <SCORE.INTER.CONST>
1

>  <SCORE.INTER.POLAR>
0

>  <SCORE.INTER.ROT>
3

>  <SCORE.INTER.SOLV>
6.88246

>  <SCORE.INTER.VDW>
-13.1916

>  <SCORE.INTER.norm>
-0.662179

>  <SCORE.INTRA>
-0.68082

>  <SCORE.INTRA.DIHEDRAL>
1.51658

>  <SCORE.INTRA.DIHEDRAL.0>
1.88407

>  <SCORE.INTRA.POLAR>
0

>  <SCORE.INTRA.POLAR.0>
0

>  <SCORE.INTRA.REPUL>
0

>  <SCORE.INTRA.REPUL.0>
0

>  <SCORE.INTRA.SOLV>
0.413434

>  <SCORE.INTRA.SOLV.lig_0>
-10.2714

>  <SCORE.INTRA.VDW>
-1.64583

>  <SCORE.INTRA.VDW.0>
0.416923

>  <SCORE.INTRA.norm>
-0.056735

>  <SCORE.RESTR>
0

>  <SCORE.RESTR.CAVITY>
0

>  <SCORE.RESTR.norm>
0

>  <SCORE.SYSTEM>
0

>  <SCORE.SYSTEM.CONST>
0

>  <SCORE.SYSTEM.DIHEDRAL>
0

>  <SCORE.SYSTEM.SOLV>
0

>  <SCORE.SYSTEM.norm>
0

>  <SCORE.heavy>
12

>  <SCORE.norm>
-0.718914

>  <RMSD>
5.460

$$$$
ligand
 OpenBabel11021811433D
libRbt.so/2013.1/901 2013/11/27
 12 12  0  0  0  0  0  0  0  0999 V2000
   45.3523   10.8220   13.9668 O   0  0  0  0  0  0  0  0  0  0  0  0
   49.7154   14.7516   12.1767 O   0  0  0  0  0  0  0  0  0  0  0  0
   45.1037   10.2147   12.6629 C   0  0  0  0  0  0  0  0  0  0  0  0
   49.7009   12.3064   12.4933 O   0  0  0  0  0  0  0  0  0  0  0  0
   45.4956   11.1817   11.5082 C   0  0  0  0  0  0  0  0  0  0  0  0
   50.0164   13.3482   10.8486 O   0  0  0  0  0  0  0  0  0  0  0  0
   46.0342   12.4567   12.0966 N   0  0  0  0  0  0  0  0  0  0  0  0
   45.0209   13.0833   12.9990 C   0  0  0  0  0  0  0  0  0  0  0  0
   44.6043   12.0665   14.0993 C   0  0  0  0  0  0  0  0  0  0  0  0
   46.4270   13.4446   11.0317 C   0  0  0  0  0  0  0  0  0  0  0  0
   47.8873   13.2195   10.5705 C   0  0  0  0  0  0  0  0  0  0  0  0
   49.0477   13.4973   11.9293 S   0  0  0  0  0  0  0  0  0  0  0  0
  1  3  1  0  0  0  0
  1  9  1  0  0  0  0
  2 12  1  0  0  0  0
  3  5  1  0  0  0  0
  4 12  2  0  0  0  0
  5  7  1  0  0  0  0
  6 12  2  0  0  0  0
  7  8  1  0  0  0  0
  7 10  1  0  0  0  0
  8  9  1  0  0  0  0
 10 11  1  0  0  0  0
 11 12  1  0  0  0  0
M  END
>  <CHROM.1>
-87.55224037,-63.12412763,-94.31957414,47.28842708,12.63341612,12.18060163
-2.63539793,-0.18751144,-0.91210119

>  <Name>
ligand

>  <RI>
0

>  <Rbt.Current_Directory>
/home/itssahil/PROJECTS/Mol_Feturizer/New_Systems/rnas/2HO6

>  <Rbt.Executable>
rbdock ($Id: //depot/dev/client3/rdock/2013.1/src/exe/rbdock.cxx#4 $)

>  <Rbt.Library>
libRbt.so (2013.1, Build901 2013/11/27)

>  <Rbt.Parameter_File>
/export/apps/rDock/src/rDock_2013.1_src/data/scripts/dock_solv.prm

>  <Rbt.Receptor>
prm/pocket_docking_2.prm

>  <SCORE>
-4.68987

>  <SCORE.INTER>
-3.91287

>  <SCORE.INTER.CONST>
1

>  <SCORE.INTER.POLAR>
0

>  <SCORE.INTER.ROT>
3

>  <SCORE.INTER.SOLV>
5.54442

>  <SCORE.INTER.VDW>
-10.0567

>  <SCORE.INTER.norm>
-0.326073

>  <SCORE.INTRA>
-0.779986

>  <SCORE.INTRA.DIHEDRAL>
1.15498

>  <SCORE.INTRA.DIHEDRAL.0>
1.88407

>  <SCORE.INTRA.POLAR>
0

>  <SCORE.INTRA.POLAR.0>
0

>  <SCORE.INTRA.REPUL>
0

>  <SCORE.INTRA.REPUL.0>
0

>  <SCORE.INTRA.SOLV>
0.365632

>  <SCORE.INTRA.SOLV.lig_0>
-10.2714

>  <SCORE.INTRA.VDW>
-1.54029

>  <SCORE.INTRA.VDW.0>
0.416923

>  <SCORE.INTRA.norm>
-0.0649989

>  <SCORE.RESTR>
0.00299353

>  <SCORE.RESTR.CAVITY>
0.00299353

>  <SCORE.RESTR.norm>
0.000249461

>  <SCORE.SYSTEM>
0

>  <SCORE.SYSTEM.CONST>
0

>  <SCORE.SYSTEM.DIHEDRAL>
0

>  <SCORE.SYSTEM.SOLV>
0

>  <SCORE.SYSTEM.norm>
0

>  <SCORE.heavy>
12

>  <SCORE.norm>
-0.390822

>  <RMSD>
5.484

$$$$
ligand
 OpenBabel11021811433D
libRbt.so/2013.1/901 2013/11/27
 12 12  0  0  0  0  0  0  0  0999 V2000
   44.3664   12.4107   10.2551 O   0  0  0  0  0  0  0  0  0  0  0  0
   42.0905   10.6435   15.5204 O   0  0  0  0  0  0  0  0  0  0  0  0
   45.6811   12.6773   10.8308 C   0  0  0  0  0  0  0  0  0  0  0  0
   44.0350    9.7539   14.2928 O   0  0  0  0  0  0  0  0  0  0  0  0
   45.5646   13.1162   12.3194 C   0  0  0  0  0  0  0  0  0  0  0  0
   43.9528   10.5274   16.1053 O   0  0  0  0  0  0  0  0  0  0  0  0
   44.1149   13.1147   12.7200 N   0  0  0  0  0  0  0  0  0  0  0  0
   43.3275   14.0221   11.8311 C   0  0  0  0  0  0  0  0  0  0  0  0
   43.5206   13.5947   10.3485 C   0  0  0  0  0  0  0  0  0  0  0  0
   43.9276   13.5389   14.1515 C   0  0  0  0  0  0  0  0  0  0  0  0
   44.3280   12.4066   15.1279 C   0  0  0  0  0  0  0  0  0  0  0  0
   43.3337   10.9229   14.8447 S   0  0  0  0  0  0  0  0  0  0  0  0
  1  3  1  0  0  0  0
  1  9  1  0  0  0  0
  2 12  1  0  0  0  0
  3  5  1  0  0  0  0
  4 12  2  0  0  0  0
  5  7  1  0  0  0  0
  6 12  2  0  0  0  0
  7  8  1  0  0  0  0
  7 10  1  0  0  0  0
  8  9  1  0  0  0  0
 10 11  1  0  0  0  0
 11 12  1  0  0  0  0
M  END
>  <CHROM.1>
-75.57144140,-59.49025012,-90.98731420,43.93984546,12.04957766,13.38324627
-0.94775654,-1.20799765,2.68442855

>  <Name>
ligand

>  <RI>
0

>  <Rbt.Current_Directory>
/home/itssahil/PROJECTS/Mol_Feturizer/New_Systems/rnas/2HO6

>  <Rbt.Executable>
rbdock ($Id: //depot/dev/client3/rdock/2013.1/src/exe/rbdock.cxx#4 $)

>  <Rbt.Library>
libRbt.so (2013.1, Build901 2013/11/27)

>  <Rbt.Parameter_File>
/export/apps/rDock/src/rDock_2013.1_src/data/scripts/dock_solv.prm

>  <Rbt.Receptor>
prm/pocket_docking_6.prm

>  <SCORE>
-9.14027

>  <SCORE.INTER>
-8.24147

>  <SCORE.INTER.CONST>
1

>  <SCORE.INTER.POLAR>
0

>  <SCORE.INTER.ROT>
3

>  <SCORE.INTER.SOLV>
7.71562

>  <SCORE.INTER.VDW>
-13.6662

>  <SCORE.INTER.norm>
-0.686789

>  <SCORE.INTRA>
-0.898805

>  <SCORE.INTRA.DIHEDRAL>
0.430748

>  <SCORE.INTRA.DIHEDRAL.0>
1.88407

>  <SCORE.INTRA.POLAR>
0

>  <SCORE.INTRA.POLAR.0>
0

>  <SCORE.INTRA.REPUL>
0

>  <SCORE.INTRA.REPUL.0>
0

>  <SCORE.INTRA.SOLV>
0.40284

>  <SCORE.INTRA.SOLV.lig_0>
-10.2714

>  <SCORE.INTRA.VDW>
-1.3156

>  <SCORE.INTRA.VDW.0>
0.416923

>  <SCORE.INTRA.norm>
-0.0749004

>  <SCORE.RESTR>
0

>  <SCORE.RESTR.CAVITY>
0

>  <SCORE.RESTR.norm>
0

>  <SCORE.SYSTEM>
0

>  <SCORE.SYSTEM.CONST>
0

>  <SCORE.SYSTEM.DIHEDRAL>
0

>  <SCORE.SYSTEM.SOLV>
0

>  <SCORE.SYSTEM.norm>
0

>  <SCORE.heavy>
12

>  <SCORE.norm>
-0.761689

>  <RMSD>
5.494

$$$$
ligand
 OpenBabel11021811433D
libRbt.so/2013.1/901 2013/11/27
 12 12  0  0  0  0  0  0  0  0999 V2000
   43.8982   12.0686   13.2340 O   0  0  0  0  0  0  0  0  0  0  0  0
   48.5886   14.5575   11.6666 O   0  0  0  0  0  0  0  0  0  0  0  0
   44.9879   12.5286   14.0894 C   0  0  0  0  0  0  0  0  0  0  0  0
   50.0534   12.8235   12.6294 O   0  0  0  0  0  0  0  0  0  0  0  0
   46.3667   12.0480   13.5511 C   0  0  0  0  0  0  0  0  0  0  0  0
   49.7345   13.2750   10.7361 O   0  0  0  0  0  0  0  0  0  0  0  0
   46.1535   11.2607   12.2876 N   0  0  0  0  0  0  0  0  0  0  0  0
   45.2448   10.1018   12.5425 C   0  0  0  0  0  0  0  0  0  0  0  0
   43.9039   10.6135   13.1411 C   0  0  0  0  0  0  0  0  0  0  0  0
   47.4503   10.7564   11.7146 C   0  0  0  0  0  0  0  0  0  0  0  0
   48.1372   11.8384   10.8468 C   0  0  0  0  0  0  0  0  0  0  0  0
   48.8332   13.1518   11.8769 S   0  0  0  0  0  0  0  0  0  0  0  0
  1  3  1  0  0  0  0
  1  9  1  0  0  0  0
  2 12  1  0  0  0  0
  3  5  1  0  0  0  0
  4 12  2  0  0  0  0
  5  7  1  0  0  0  0
  6 12  2  0  0  0  0
  7  8  1  0  0  0  0
  7 10  1  0  0  0  0
  8  9  1  0  0  0  0
 10 11  1  0  0  0  0
 11 12  1  0  0  0  0
M  END
>  <CHROM.1>
-83.84193784,72.71931507,-129.00628567,47.16693780,12.22894128,12.30294687
2.92187695,-0.45034119,-2.71638158

>  <Name>
ligand

>  <RI>
0

>  <Rbt.Current_Directory>
/home/itssahil/PROJECTS/Mol_Feturizer/New_Systems/rnas/2HO6

>  <Rbt.Executable>
rbdock ($Id: //depot/dev/client3/rdock/2013.1/src/exe/rbdock.cxx#4 $)

>  <Rbt.Library>
libRbt.so (2013.1, Build901 2013/11/27)

>  <Rbt.Parameter_File>
/export/apps/rDock/src/rDock_2013.1_src/data/scripts/dock_solv.prm

>  <Rbt.Receptor>
prm/pocket_docking_2.prm

>  <SCORE>
-3.56336

>  <SCORE.INTER>
-3.09766

>  <SCORE.INTER.CONST>
1

>  <SCORE.INTER.POLAR>
0

>  <SCORE.INTER.ROT>
3

>  <SCORE.INTER.SOLV>
6.86805

>  <SCORE.INTER.VDW>
-9.95445

>  <SCORE.INTER.norm>
-0.258138

>  <SCORE.INTRA>
-0.50728

>  <SCORE.INTRA.DIHEDRAL>
1.38318

>  <SCORE.INTRA.DIHEDRAL.0>
1.88407

>  <SCORE.INTRA.POLAR>
0

>  <SCORE.INTRA.POLAR.0>
0

>  <SCORE.INTRA.REPUL>
0

>  <SCORE.INTRA.REPUL.0>
0

>  <SCORE.INTRA.SOLV>
0.313646

>  <SCORE.INTRA.SOLV.lig_0>
-10.2714

>  <SCORE.INTRA.VDW>
-1.3557

>  <SCORE.INTRA.VDW.0>
0.416923

>  <SCORE.INTRA.norm>
-0.0422734

>  <SCORE.RESTR>
0.0415803

>  <SCORE.RESTR.CAVITY>
0.0415803

>  <SCORE.RESTR.norm>
0.00346502

>  <SCORE.SYSTEM>
0

>  <SCORE.SYSTEM.CONST>
0

>  <SCORE.SYSTEM.DIHEDRAL>
0

>  <SCORE.SYSTEM.SOLV>
0

>  <SCORE.SYSTEM.norm>
0

>  <SCORE.heavy>
12

>  <SCORE.norm>
-0.296946

>  <RMSD>
5.519

$$$$
ligand
 OpenBabel11021811433D
libRbt.so/2013.1/901 2013/11/27
 12 12  0  0  0  0  0  0  0  0999 V2000
   44.8426   12.7320   15.0011 O   0  0  0  0  0  0  0  0  0  0  0  0
   48.4469   11.7696   12.9144 O   0  0  0  0  0  0  0  0  0  0  0  0
   44.2005   11.4447   15.2488 C   0  0  0  0  0  0  0  0  0  0  0  0
   49.2865   10.0862   11.3205 O   0  0  0  0  0  0  0  0  0  0  0  0
   44.3871   10.4815   14.0407 C   0  0  0  0  0  0  0  0  0  0  0  0
   48.4824   11.8509   10.9609 O   0  0  0  0  0  0  0  0  0  0  0  0
   45.1976   11.1747   12.9803 N   0  0  0  0  0  0  0  0  0  0  0  0
   44.5272   12.4414   12.5565 C   0  0  0  0  0  0  0  0  0  0  0  0
   44.2974   13.3493   13.7979 C   0  0  0  0  0  0  0  0  0  0  0  0
   45.4105   10.2998   11.7747 C   0  0  0  0  0  0  0  0  0  0  0  0
   46.6095   10.7935   10.9294 C   0  0  0  0  0  0  0  0  0  0  0  0
   48.1342   10.7914   11.9017 S   0  0  0  0  0  0  0  0  0  0  0  0
  1  3  1  0  0  0  0
  1  9  1  0  0  0  0
  2 12  1  0  0  0  0
  3  5  1  0  0  0  0
  4 12  2  0  0  0  0
  5  7  1  0  0  0  0
  6 12  2  0  0  0  0
  7  8  1  0  0  0  0
  7 10  1  0  0  0  0
  8  9  1  0  0  0  0
 10 11  1  0  0  0  0
 11 12  1  0  0  0  0
M  END
>  <CHROM.1>
-160.34535471,59.56749089,-75.00198539,46.40155312,11.38203016,12.69387666
-2.54524945,-0.22848984,-2.29804041

>  <Name>
ligand

>  <RI>
0

>  <Rbt.Current_Directory>
/home/itssahil/PROJECTS/Mol_Feturizer/New_Systems/rnas/2HO6

>  <Rbt.Executable>
rbdock ($Id: //depot/dev/client3/rdock/2013.1/src/exe/rbdock.cxx#4 $)

>  <Rbt.Library>
libRbt.so (2013.1, Build901 2013/11/27)

>  <Rbt.Parameter_File>
/export/apps/rDock/src/rDock_2013.1_src/data/scripts/dock_solv.prm

>  <Rbt.Receptor>
prm/pocket_docking_3.prm

>  <SCORE>
-8.06854

>  <SCORE.INTER>
-7.04984

>  <SCORE.INTER.CONST>
1

>  <SCORE.INTER.POLAR>
0

>  <SCORE.INTER.ROT>
3

>  <SCORE.INTER.SOLV>
7.92072

>  <SCORE.INTER.VDW>
-12.9401

>  <SCORE.INTER.norm>
-0.587486

>  <SCORE.INTRA>
-1.0187

>  <SCORE.INTRA.DIHEDRAL>
0.47346

>  <SCORE.INTRA.DIHEDRAL.0>
1.88407

>  <SCORE.INTRA.POLAR>
0

>  <SCORE.INTRA.POLAR.0>
0

>  <SCORE.INTRA.REPUL>
0

>  <SCORE.INTRA.REPUL.0>
0

>  <SCORE.INTRA.SOLV>
0.260888

>  <SCORE.INTRA.SOLV.lig_0>
-10.2714

>  <SCORE.INTRA.VDW>
-1.38587

>  <SCORE.INTRA.VDW.0>
0.416923

>  <SCORE.INTRA.norm>
-0.0848916

>  <SCORE.RESTR>
0

>  <SCORE.RESTR.CAVITY>
0

>  <SCORE.RESTR.norm>
0

>  <SCORE.SYSTEM>
0

>  <SCORE.SYSTEM.CONST>
0

>  <SCORE.SYSTEM.DIHEDRAL>
0

>  <SCORE.SYSTEM.SOLV>
0

>  <SCORE.SYSTEM.norm>
0

>  <SCORE.heavy>
12

>  <SCORE.norm>
-0.672378

>  <RMSD>
5.535

$$$$
ligand
 OpenBabel11021811433D
libRbt.so/2013.1/901 2013/11/27
 12 12  0  0  0  0  0  0  0  0999 V2000
   44.8399   12.7455   15.0015 O   0  0  0  0  0  0  0  0  0  0  0  0
   48.4946   11.7569   12.8921 O   0  0  0  0  0  0  0  0  0  0  0  0
   44.2003   11.4578   15.2533 C   0  0  0  0  0  0  0  0  0  0  0  0
   49.2897   10.0651   11.2843 O   0  0  0  0  0  0  0  0  0  0  0  0
   44.3948   10.4886   14.0513 C   0  0  0  0  0  0  0  0  0  0  0  0
   48.5007   11.8392   10.9383 O   0  0  0  0  0  0  0  0  0  0  0  0
   45.2081   11.1784   12.9907 N   0  0  0  0  0  0  0  0  0  0  0  0
   44.5361   12.4409   12.5572 C   0  0  0  0  0  0  0  0  0  0  0  0
   44.2983   13.3548   13.7927 C   0  0  0  0  0  0  0  0  0  0  0  0
   45.4287   10.2976   11.7908 C   0  0  0  0  0  0  0  0  0  0  0  0
   46.6153   10.8036   10.9354 C   0  0  0  0  0  0  0  0  0  0  0  0
   48.1549   10.7831   11.8838 S   0  0  0  0  0  0  0  0  0  0  0  0
  1  3  1  0  0  0  0
  1  9  1  0  0  0  0
  2 12  1  0  0  0  0
  3  5  1  0  0  0  0
  4 12  2  0  0  0  0
  5  7  1  0  0  0  0
  6 12  2  0  0  0  0
  7  8  1  0  0  0  0
  7 10  1  0  0  0  0
  8  9  1  0  0  0  0
 10 11  1  0  0  0  0
 11 12  1  0  0  0  0
M  END
>  <CHROM.1>
-161.28671941,61.38732842,-76.08731844,46.41416854,11.38067449,12.68738822
-2.54564392,-0.23680166,-2.31154027

>  <Name>
ligand

>  <RI>
0

>  <Rbt.Current_Directory>
/home/itssahil/PROJECTS/Mol_Feturizer/New_Systems/rnas/2HO6

>  <Rbt.Executable>
rbdock ($Id: //depot/dev/client3/rdock/2013.1/src/exe/rbdock.cxx#4 $)

>  <Rbt.Library>
libRbt.so (2013.1, Build901 2013/11/27)

>  <Rbt.Parameter_File>
/export/apps/rDock/src/rDock_2013.1_src/data/scripts/dock_solv.prm

>  <Rbt.Receptor>
prm/pocket_docking_4.prm

>  <SCORE>
-8.09482

>  <SCORE.INTER>
-7.112

>  <SCORE.INTER.CONST>
1

>  <SCORE.INTER.POLAR>
0

>  <SCORE.INTER.ROT>
3

>  <SCORE.INTER.SOLV>
7.88512

>  <SCORE.INTER.VDW>
-12.9697

>  <SCORE.INTER.norm>
-0.592667

>  <SCORE.INTRA>
-0.982815

>  <SCORE.INTRA.DIHEDRAL>
0.435964

>  <SCORE.INTRA.DIHEDRAL.0>
1.88407

>  <SCORE.INTRA.POLAR>
0

>  <SCORE.INTRA.POLAR.0>
0

>  <SCORE.INTRA.REPUL>
0

>  <SCORE.INTRA.REPUL.0>
0

>  <SCORE.INTRA.SOLV>
0.260082

>  <SCORE.INTRA.SOLV.lig_0>
-10.2714

>  <SCORE.INTRA.VDW>
-1.33084

>  <SCORE.INTRA.VDW.0>
0.416923

>  <SCORE.INTRA.norm>
-0.0819012

>  <SCORE.RESTR>
0

>  <SCORE.RESTR.CAVITY>
0

>  <SCORE.RESTR.norm>
0

>  <SCORE.SYSTEM>
0

>  <SCORE.SYSTEM.CONST>
0

>  <SCORE.SYSTEM.DIHEDRAL>
0

>  <SCORE.SYSTEM.SOLV>
0

>  <SCORE.SYSTEM.norm>
0

>  <SCORE.heavy>
12

>  <SCORE.norm>
-0.674568

>  <RMSD>
5.537

$$$$
ligand
 OpenBabel11021811433D
libRbt.so/2013.1/901 2013/11/27
 12 12  0  0  0  0  0  0  0  0999 V2000
   45.1408   13.6917    9.9395 O   0  0  0  0  0  0  0  0  0  0  0  0
   45.6927   12.7833   13.9684 O   0  0  0  0  0  0  0  0  0  0  0  0
   45.2973   15.1311   10.1243 C   0  0  0  0  0  0  0  0  0  0  0  0
   44.3577   11.6673   15.7153 O   0  0  0  0  0  0  0  0  0  0  0  0
   44.5832   15.6125   11.4206 C   0  0  0  0  0  0  0  0  0  0  0  0
   44.0198   11.7891   13.7759 O   0  0  0  0  0  0  0  0  0  0  0  0
   43.9567   14.4288   12.1049 N   0  0  0  0  0  0  0  0  0  0  0  0
   42.9960   13.7444   11.1872 C   0  0  0  0  0  0  0  0  0  0  0  0
   43.7279   13.3374    9.8769 C   0  0  0  0  0  0  0  0  0  0  0  0
   43.2394   14.8247   13.3670 C   0  0  0  0  0  0  0  0  0  0  0  0
   42.9479   13.5914   14.2557 C   0  0  0  0  0  0  0  0  0  0  0  0
   44.4814   12.7711   14.7513 S   0  0  0  0  0  0  0  0  0  0  0  0
  1  3  1  0  0  0  0
  1  9  1  0  0  0  0
  2 12  1  0  0  0  0
  3  5  1  0  0  0  0
  4 12  2  0  0  0  0
  5  7  1  0  0  0  0
  6 12  2  0  0  0  0
  7  8  1  0  0  0  0
  7 10  1  0  0  0  0
  8  9  1  0  0  0  0
 10 11  1  0  0  0  0
 11 12  1  0  0  0  0
M  END
>  <CHROM.1>
-164.09135300,60.86265024,-28.85402182,44.25359382,13.49004944,12.77876952
-1.52963554,-0.88751193,2.02788845

>  <Name>
ligand

>  <RI>
0

>  <Rbt.Current_Directory>
/home/itssahil/PROJECTS/Mol_Feturizer/New_Systems/rnas/2HO6

>  <Rbt.Executable>
rbdock ($Id: //depot/dev/client3/rdock/2013.1/src/exe/rbdock.cxx#4 $)

>  <Rbt.Library>
libRbt.so (2013.1, Build901 2013/11/27)

>  <Rbt.Parameter_File>
/export/apps/rDock/src/rDock_2013.1_src/data/scripts/dock_solv.prm

>  <Rbt.Receptor>
prm/pocket_docking_7.prm

>  <SCORE>
-10.6574

>  <SCORE.INTER>
-9.52807

>  <SCORE.INTER.CONST>
1

>  <SCORE.INTER.POLAR>
0

>  <SCORE.INTER.ROT>
3

>  <SCORE.INTER.SOLV>
5.89725

>  <SCORE.INTER.VDW>
-13.9178

>  <SCORE.INTER.norm>
-0.794006

>  <SCORE.INTRA>
-1.12929

>  <SCORE.INTRA.DIHEDRAL>
0.183006

>  <SCORE.INTRA.DIHEDRAL.0>
1.88407

>  <SCORE.INTRA.POLAR>
0

>  <SCORE.INTRA.POLAR.0>
0

>  <SCORE.INTRA.REPUL>
0

>  <SCORE.INTRA.REPUL.0>
0

>  <SCORE.INTRA.SOLV>
0.551411

>  <SCORE.INTRA.SOLV.lig_0>
-10.2714

>  <SCORE.INTRA.VDW>
-1.49649

>  <SCORE.INTRA.VDW.0>
0.416923

>  <SCORE.INTRA.norm>
-0.0941071

>  <SCORE.RESTR>
0

>  <SCORE.RESTR.CAVITY>
0

>  <SCORE.RESTR.norm>
0

>  <SCORE.SYSTEM>
0

>  <SCORE.SYSTEM.CONST>
0

>  <SCORE.SYSTEM.DIHEDRAL>
0

>  <SCORE.SYSTEM.SOLV>
0

>  <SCORE.SYSTEM.norm>
0

>  <SCORE.heavy>
12

>  <SCORE.norm>
-0.888113

>  <RMSD>
5.554

$$$$
ligand
 OpenBabel11021811433D
libRbt.so/2013.1/901 2013/11/27
 12 12  0  0  0  0  0  0  0  0999 V2000
   46.1708   11.9143   13.6653 O   0  0  0  0  0  0  0  0  0  0  0  0
   46.6631   14.1568    7.9317 O   0  0  0  0  0  0  0  0  0  0  0  0
   45.6592   10.8119   12.8567 C   0  0  0  0  0  0  0  0  0  0  0  0
   46.5950   14.4860   10.3742 O   0  0  0  0  0  0  0  0  0  0  0  0
   44.7210   11.3303   11.7283 C   0  0  0  0  0  0  0  0  0  0  0  0
   46.4581   12.8135    9.3379 O   0  0  0  0  0  0  0  0  0  0  0  0
   44.6412   12.8301   11.8062 N   0  0  0  0  0  0  0  0  0  0  0  0
   44.1477   13.2568   13.1508 C   0  0  0  0  0  0  0  0  0  0  0  0
   45.0697   12.6663   14.2551 C   0  0  0  0  0  0  0  0  0  0  0  0
   43.7403   13.4003   10.7443 C   0  0  0  0  0  0  0  0  0  0  0  0
   44.3418   13.1986    9.3324 C   0  0  0  0  0  0  0  0  0  0  0  0
   45.8758   14.1366    9.1399 S   0  0  0  0  0  0  0  0  0  0  0  0
  1  3  1  0  0  0  0
  1  9  1  0  0  0  0
  2 12  1  0  0  0  0
  3  5  1  0  0  0  0
  4 12  2  0  0  0  0
  5  7  1  0  0  0  0
  6 12  2  0  0  0  0
  7  8  1  0  0  0  0
  7 10  1  0  0  0  0
  8  9  1  0  0  0  0
 10 11  1  0  0  0  0
 11 12  1  0  0  0  0
M  END
>  <CHROM.1>
-67.37492378,-65.11874311,-179.56779166,45.43607485,13.04737755,10.96764502
-1.76416746,0.18916026,-1.13116570

>  <Name>
ligand

>  <RI>
0

>  <Rbt.Current_Directory>
/home/itssahil/PROJECTS/Mol_Feturizer/New_Systems/rnas/2HO6

>  <Rbt.Executable>
rbdock ($Id: //depot/dev/client3/rdock/2013.1/src/exe/rbdock.cxx#4 $)

>  <Rbt.Library>
libRbt.so (2013.1, Build901 2013/11/27)

>  <Rbt.Parameter_File>
/export/apps/rDock/src/rDock_2013.1_src/data/scripts/dock_solv.prm

>  <Rbt.Receptor>
prm/pocket_docking_6.prm

>  <SCORE>
-7.60807

>  <SCORE.INTER>
-6.98874

>  <SCORE.INTER.CONST>
1

>  <SCORE.INTER.POLAR>
0

>  <SCORE.INTER.ROT>
3

>  <SCORE.INTER.SOLV>
6.83904

>  <SCORE.INTER.VDW>
-12.5388

>  <SCORE.INTER.norm>
-0.582395

>  <SCORE.INTRA>
-0.619328

>  <SCORE.INTRA.DIHEDRAL>
0.121544

>  <SCORE.INTRA.DIHEDRAL.0>
1.88407

>  <SCORE.INTRA.POLAR>
0

>  <SCORE.INTRA.POLAR.0>
0

>  <SCORE.INTRA.REPUL>
0

>  <SCORE.INTRA.REPUL.0>
0

>  <SCORE.INTRA.SOLV>
1.37613

>  <SCORE.INTRA.SOLV.lig_0>
-10.2714

>  <SCORE.INTRA.VDW>
-1.36817

>  <SCORE.INTRA.VDW.0>
0.416923

>  <SCORE.INTRA.norm>
-0.0516107

>  <SCORE.RESTR>
0

>  <SCORE.RESTR.CAVITY>
0

>  <SCORE.RESTR.norm>
0

>  <SCORE.SYSTEM>
0

>  <SCORE.SYSTEM.CONST>
0

>  <SCORE.SYSTEM.DIHEDRAL>
0

>  <SCORE.SYSTEM.SOLV>
0

>  <SCORE.SYSTEM.norm>
0

>  <SCORE.heavy>
12

>  <SCORE.norm>
-0.634006

>  <RMSD>
5.558

$$$$
ligand
 OpenBabel11021811433D
libRbt.so/2013.1/901 2013/11/27
 12 12  0  0  0  0  0  0  0  0999 V2000
   44.4702   12.9396   15.1710 O   0  0  0  0  0  0  0  0  0  0  0  0
   49.2225   13.1527   12.4989 O   0  0  0  0  0  0  0  0  0  0  0  0
   44.2245   11.5018   15.2258 C   0  0  0  0  0  0  0  0  0  0  0  0
   49.0215   10.6954   12.4749 O   0  0  0  0  0  0  0  0  0  0  0  0
   44.7083   10.7986   13.9245 C   0  0  0  0  0  0  0  0  0  0  0  0
   49.1103   11.9533   10.9585 O   0  0  0  0  0  0  0  0  0  0  0  0
   45.3051   11.8268   13.0032 N   0  0  0  0  0  0  0  0  0  0  0  0
   44.3049   12.8937   12.6950 C   0  0  0  0  0  0  0  0  0  0  0  0
   43.7950   13.5277   14.0203 C   0  0  0  0  0  0  0  0  0  0  0  0
   45.7884   11.2146   11.7165 C   0  0  0  0  0  0  0  0  0  0  0  0
   46.9664   12.0223   11.1200 C   0  0  0  0  0  0  0  0  0  0  0  0
   48.3946   12.0029   12.2290 S   0  0  0  0  0  0  0  0  0  0  0  0
  1  3  1  0  0  0  0
  1  9  1  0  0  0  0
  2 12  1  0  0  0  0
  3  5  1  0  0  0  0
  4 12  2  0  0  0  0
  5  7  1  0  0  0  0
  6 12  2  0  0  0  0
  7  8  1  0  0  0  0
  7 10  1  0  0  0  0
  8  9  1  0  0  0  0
 10 11  1  0  0  0  0
 11 12  1  0  0  0  0
M  END
>  <CHROM.1>
-151.45320594,62.90765060,-138.54825926,46.54104632,12.04605140,12.84979439
-2.65758043,-0.11664281,-1.96266566

>  <Name>
ligand

>  <RI>
0

>  <Rbt.Current_Directory>
/home/itssahil/PROJECTS/Mol_Feturizer/New_Systems/rnas/2HO6

>  <Rbt.Executable>
rbdock ($Id: //depot/dev/client3/rdock/2013.1/src/exe/rbdock.cxx#4 $)

>  <Rbt.Library>
libRbt.so (2013.1, Build901 2013/11/27)

>  <Rbt.Parameter_File>
/export/apps/rDock/src/rDock_2013.1_src/data/scripts/dock_solv.prm

>  <Rbt.Receptor>
prm/pocket_docking_3.prm

>  <SCORE>
-6.97105

>  <SCORE.INTER>
-6.27221

>  <SCORE.INTER.CONST>
1

>  <SCORE.INTER.POLAR>
0

>  <SCORE.INTER.ROT>
3

>  <SCORE.INTER.SOLV>
6.62348

>  <SCORE.INTER.VDW>
-11.9893

>  <SCORE.INTER.norm>
-0.522684

>  <SCORE.INTRA>
-0.698843

>  <SCORE.INTRA.DIHEDRAL>
0.924453

>  <SCORE.INTRA.DIHEDRAL.0>
1.88407

>  <SCORE.INTRA.POLAR>
0

>  <SCORE.INTRA.POLAR.0>
0

>  <SCORE.INTRA.REPUL>
0

>  <SCORE.INTRA.REPUL.0>
0

>  <SCORE.INTRA.SOLV>
0.393455

>  <SCORE.INTRA.SOLV.lig_0>
-10.2714

>  <SCORE.INTRA.VDW>
-1.3578

>  <SCORE.INTRA.VDW.0>
0.416923

>  <SCORE.INTRA.norm>
-0.0582369

>  <SCORE.RESTR>
0

>  <SCORE.RESTR.CAVITY>
0

>  <SCORE.RESTR.norm>
0

>  <SCORE.SYSTEM>
0

>  <SCORE.SYSTEM.CONST>
0

>  <SCORE.SYSTEM.DIHEDRAL>
0

>  <SCORE.SYSTEM.SOLV>
0

>  <SCORE.SYSTEM.norm>
0

>  <SCORE.heavy>
12

>  <SCORE.norm>
-0.580921

>  <RMSD>
5.562

$$$$
ligand
 OpenBabel11021811433D
libRbt.so/2013.1/901 2013/11/27
 12 12  0  0  0  0  0  0  0  0999 V2000
   43.1448   13.2845   10.4836 O   0  0  0  0  0  0  0  0  0  0  0  0
   42.1095   10.5067   15.1229 O   0  0  0  0  0  0  0  0  0  0  0  0
   44.5351   13.0323   10.1174 C   0  0  0  0  0  0  0  0  0  0  0  0
   44.1529    9.6131   14.0714 O   0  0  0  0  0  0  0  0  0  0  0  0
   45.4132   12.7869   11.3787 C   0  0  0  0  0  0  0  0  0  0  0  0
   43.8968   10.3212   15.8944 O   0  0  0  0  0  0  0  0  0  0  0  0
   44.5458   12.8684   12.6046 N   0  0  0  0  0  0  0  0  0  0  0  0
   43.8669   14.1980   12.6754 C   0  0  0  0  0  0  0  0  0  0  0  0
   43.0536   14.4372   11.3717 C   0  0  0  0  0  0  0  0  0  0  0  0
   45.3350   12.6477   13.8666 C   0  0  0  0  0  0  0  0  0  0  0  0
   44.4138   12.2248   15.0363 C   0  0  0  0  0  0  0  0  0  0  0  0
   43.4229   10.7787   14.5925 S   0  0  0  0  0  0  0  0  0  0  0  0
  1  3  1  0  0  0  0
  1  9  1  0  0  0  0
  2 12  1  0  0  0  0
  3  5  1  0  0  0  0
  4 12  2  0  0  0  0
  5  7  1  0  0  0  0
  6 12  2  0  0  0  0
  7  8  1  0  0  0  0
  7 10  1  0  0  0  0
  8  9  1  0  0  0  0
 10 11  1  0  0  0  0
 11 12  1  0  0  0  0
M  END
>  <CHROM.1>
-159.37177521,54.45037372,-150.08514155,43.91105599,12.03806647,13.27196020
1.46449128,-0.28697955,-0.94758787

>  <Name>
ligand

>  <RI>
0

>  <Rbt.Current_Directory>
/home/itssahil/PROJECTS/Mol_Feturizer/New_Systems/rnas/2HO6

>  <Rbt.Executable>
rbdock ($Id: //depot/dev/client3/rdock/2013.1/src/exe/rbdock.cxx#4 $)

>  <Rbt.Library>
libRbt.so (2013.1, Build901 2013/11/27)

>  <Rbt.Parameter_File>
/export/apps/rDock/src/rDock_2013.1_src/data/scripts/dock_solv.prm

>  <Rbt.Receptor>
prm/pocket_docking_4.prm

>  <SCORE>
-8.60528

>  <SCORE.INTER>
-7.86697

>  <SCORE.INTER.CONST>
1

>  <SCORE.INTER.POLAR>
0

>  <SCORE.INTER.ROT>
3

>  <SCORE.INTER.SOLV>
8.03883

>  <SCORE.INTER.VDW>
-13.5243

>  <SCORE.INTER.norm>
-0.655581

>  <SCORE.INTRA>
-0.738484

>  <SCORE.INTRA.DIHEDRAL>
0.524011

>  <SCORE.INTRA.DIHEDRAL.0>
1.88407

>  <SCORE.INTRA.POLAR>
0

>  <SCORE.INTRA.POLAR.0>
0

>  <SCORE.INTRA.REPUL>
0

>  <SCORE.INTRA.REPUL.0>
0

>  <SCORE.INTRA.SOLV>
0.568365

>  <SCORE.INTRA.SOLV.lig_0>
-10.2714

>  <SCORE.INTRA.VDW>
-1.28467

>  <SCORE.INTRA.VDW.0>
0.416923

>  <SCORE.INTRA.norm>
-0.0615403

>  <SCORE.RESTR>
0.000173923

>  <SCORE.RESTR.CAVITY>
0.000173923

>  <SCORE.RESTR.norm>
1.44936e-05

>  <SCORE.SYSTEM>
0

>  <SCORE.SYSTEM.CONST>
0

>  <SCORE.SYSTEM.DIHEDRAL>
0

>  <SCORE.SYSTEM.SOLV>
0

>  <SCORE.SYSTEM.norm>
0

>  <SCORE.heavy>
12

>  <SCORE.norm>
-0.717106

>  <RMSD>
5.563

$$$$
ligand
 OpenBabel11021811433D
libRbt.so/2013.1/901 2013/11/27
 12 12  0  0  0  0  0  0  0  0999 V2000
   44.3994   12.9728   15.1613 O   0  0  0  0  0  0  0  0  0  0  0  0
   48.3309   13.2576   12.0876 O   0  0  0  0  0  0  0  0  0  0  0  0
   44.1868   11.5299   15.2200 C   0  0  0  0  0  0  0  0  0  0  0  0
   49.7173   11.3624   12.8395 O   0  0  0  0  0  0  0  0  0  0  0  0
   44.6970   10.8332   13.9253 C   0  0  0  0  0  0  0  0  0  0  0  0
   48.8682   11.6666   11.0855 O   0  0  0  0  0  0  0  0  0  0  0  0
   45.2767   11.8714   13.0045 N   0  0  0  0  0  0  0  0  0  0  0  0
   44.2543   12.9135   12.6844 C   0  0  0  0  0  0  0  0  0  0  0  0
   43.7195   13.5405   14.0031 C   0  0  0  0  0  0  0  0  0  0  0  0
   45.7841   11.2657   11.7239 C   0  0  0  0  0  0  0  0  0  0  0  0
   47.1803   10.6274   11.9212 C   0  0  0  0  0  0  0  0  0  0  0  0
   48.3904   11.8629   12.4501 S   0  0  0  0  0  0  0  0  0  0  0  0
  1  3  1  0  0  0  0
  1  9  1  0  0  0  0
  2 12  1  0  0  0  0
  3  5  1  0  0  0  0
  4 12  2  0  0  0  0
  5  7  1  0  0  0  0
  6 12  2  0  0  0  0
  7  8  1  0  0  0  0
  7 10  1  0  0  0  0
  8  9  1  0  0  0  0
 10 11  1  0  0  0  0
 11 12  1  0  0  0  0
M  END
>  <CHROM.1>
-80.01460644,-60.52329367,-30.13257274,46.49888505,11.97869951,12.94823735
-2.82196741,-0.34446775,-2.65439103

>  <Name>
ligand

>  <RI>
0

>  <Rbt.Current_Directory>
/home/itssahil/PROJECTS/Mol_Feturizer/New_Systems/rnas/2HO6

>  <Rbt.Executable>
rbdock ($Id: //depot/dev/client3/rdock/2013.1/src/exe/rbdock.cxx#4 $)

>  <Rbt.Library>
libRbt.so (2013.1, Build901 2013/11/27)

>  <Rbt.Parameter_File>
/export/apps/rDock/src/rDock_2013.1_src/data/scripts/dock_solv.prm

>  <Rbt.Receptor>
prm/pocket_docking_3.prm

>  <SCORE>
-8.39912

>  <SCORE.INTER>
-7.3542

>  <SCORE.INTER.CONST>
1

>  <SCORE.INTER.POLAR>
0

>  <SCORE.INTER.ROT>
3

>  <SCORE.INTER.SOLV>
6.95234

>  <SCORE.INTER.VDW>
-12.8202

>  <SCORE.INTER.norm>
-0.61285

>  <SCORE.INTRA>
-1.04492

>  <SCORE.INTRA.DIHEDRAL>
0.516277

>  <SCORE.INTRA.DIHEDRAL.0>
1.88407

>  <SCORE.INTRA.POLAR>
0

>  <SCORE.INTRA.POLAR.0>
0

>  <SCORE.INTRA.REPUL>
0

>  <SCORE.INTRA.REPUL.0>
0

>  <SCORE.INTRA.SOLV>
0.209096

>  <SCORE.INTRA.SOLV.lig_0>
-10.2714

>  <SCORE.INTRA.VDW>
-1.40761

>  <SCORE.INTRA.VDW.0>
0.416923

>  <SCORE.INTRA.norm>
-0.0870768

>  <SCORE.RESTR>
0

>  <SCORE.RESTR.CAVITY>
0

>  <SCORE.RESTR.norm>
0

>  <SCORE.SYSTEM>
0

>  <SCORE.SYSTEM.CONST>
0

>  <SCORE.SYSTEM.DIHEDRAL>
0

>  <SCORE.SYSTEM.SOLV>
0

>  <SCORE.SYSTEM.norm>
0

>  <SCORE.heavy>
12

>  <SCORE.norm>
-0.699927

>  <RMSD>
5.566

$$$$
ligand
 OpenBabel11021811433D
libRbt.so/2013.1/901 2013/11/27
 12 12  0  0  0  0  0  0  0  0999 V2000
   42.6672   13.8179   10.9323 O   0  0  0  0  0  0  0  0  0  0  0  0
   43.7515   10.4151   16.1623 O   0  0  0  0  0  0  0  0  0  0  0  0
   43.6032   13.1009   10.0718 C   0  0  0  0  0  0  0  0  0  0  0  0
   42.8927   12.1178   14.5994 O   0  0  0  0  0  0  0  0  0  0  0  0
   44.8036   12.5418   10.8894 C   0  0  0  0  0  0  0  0  0  0  0  0
   43.4228   10.2520   14.2416 O   0  0  0  0  0  0  0  0  0  0  0  0
   44.6208   12.9010   12.3384 N   0  0  0  0  0  0  0  0  0  0  0  0
   44.5082   14.3827   12.4980 C   0  0  0  0  0  0  0  0  0  0  0  0
   43.3425   14.9141   11.6165 C   0  0  0  0  0  0  0  0  0  0  0  0
   45.7545   12.3961   13.1893 C   0  0  0  0  0  0  0  0  0  0  0  0
   45.3825   11.0641   13.8846 C   0  0  0  0  0  0  0  0  0  0  0  0
   44.0264   11.3004   15.0574 S   0  0  0  0  0  0  0  0  0  0  0  0
  1  3  1  0  0  0  0
  1  9  1  0  0  0  0
  2 12  1  0  0  0  0
  3  5  1  0  0  0  0
  4 12  2  0  0  0  0
  5  7  1  0  0  0  0
  6 12  2  0  0  0  0
  7  8  1  0  0  0  0
  7 10  1  0  0  0  0
  8  9  1  0  0  0  0
 10 11  1  0  0  0  0
 11 12  1  0  0  0  0
M  END
>  <CHROM.1>
-98.07602214,-64.69018461,-157.99535492,44.02525786,12.29657351,13.19358750
1.60782037,0.41460910,-0.96708220

>  <Name>
ligand

>  <RI>
0

>  <Rbt.Current_Directory>
/home/itssahil/PROJECTS/Mol_Feturizer/New_Systems/rnas/2HO6

>  <Rbt.Executable>
rbdock ($Id: //depot/dev/client3/rdock/2013.1/src/exe/rbdock.cxx#4 $)

>  <Rbt.Library>
libRbt.so (2013.1, Build901 2013/11/27)

>  <Rbt.Parameter_File>
/export/apps/rDock/src/rDock_2013.1_src/data/scripts/dock_solv.prm

>  <Rbt.Receptor>
prm/pocket_docking_4.prm

>  <SCORE>
-8.76463

>  <SCORE.INTER>
-8.2255

>  <SCORE.INTER.CONST>
1

>  <SCORE.INTER.POLAR>
0

>  <SCORE.INTER.ROT>
3

>  <SCORE.INTER.SOLV>
6.44982

>  <SCORE.INTER.VDW>
-13.2336

>  <SCORE.INTER.norm>
-0.685459

>  <SCORE.INTRA>
-0.539148

>  <SCORE.INTRA.DIHEDRAL>
1.68885

>  <SCORE.INTRA.DIHEDRAL.0>
1.88407

>  <SCORE.INTRA.POLAR>
0

>  <SCORE.INTRA.POLAR.0>
0

>  <SCORE.INTRA.REPUL>
0

>  <SCORE.INTRA.REPUL.0>
0

>  <SCORE.INTRA.SOLV>
1.14253

>  <SCORE.INTRA.SOLV.lig_0>
-10.2714

>  <SCORE.INTRA.VDW>
-1.95484

>  <SCORE.INTRA.VDW.0>
0.416923

>  <SCORE.INTRA.norm>
-0.044929

>  <SCORE.RESTR>
1.95415e-05

>  <SCORE.RESTR.CAVITY>
1.95415e-05

>  <SCORE.RESTR.norm>
1.62846e-06

>  <SCORE.SYSTEM>
0

>  <SCORE.SYSTEM.CONST>
0

>  <SCORE.SYSTEM.DIHEDRAL>
0

>  <SCORE.SYSTEM.SOLV>
0

>  <SCORE.SYSTEM.norm>
0

>  <SCORE.heavy>
12

>  <SCORE.norm>
-0.730386

>  <RMSD>
5.571

$$$$
ligand
 OpenBabel11021811433D
libRbt.so/2013.1/901 2013/11/27
 12 12  0  0  0  0  0  0  0  0999 V2000
   42.9627   13.6622   10.4844 O   0  0  0  0  0  0  0  0  0  0  0  0
   44.4875   12.5453   15.5991 O   0  0  0  0  0  0  0  0  0  0  0  0
   43.9457   13.0831    9.5739 C   0  0  0  0  0  0  0  0  0  0  0  0
   42.3999   11.3044   15.1734 O   0  0  0  0  0  0  0  0  0  0  0  0
   44.8956   12.1028   10.3214 C   0  0  0  0  0  0  0  0  0  0  0  0
   44.1510   10.6273   15.7778 O   0  0  0  0  0  0  0  0  0  0  0  0
   44.4938   12.0376   11.7692 N   0  0  0  0  0  0  0  0  0  0  0  0
   44.5378   13.3990   12.3843 C   0  0  0  0  0  0  0  0  0  0  0  0
   43.6301   14.3664   11.5728 C   0  0  0  0  0  0  0  0  0  0  0  0
   45.3792   11.1098   12.5564 C   0  0  0  0  0  0  0  0  0  0  0  0
   44.5880   10.4030   13.6835 C   0  0  0  0  0  0  0  0  0  0  0  0
   43.7792   11.6076   14.7630 S   0  0  0  0  0  0  0  0  0  0  0  0
  1  3  1  0  0  0  0
  1  9  1  0  0  0  0
  2 12  1  0  0  0  0
  3  5  1  0  0  0  0
  4 12  2  0  0  0  0
  5  7  1  0  0  0  0
  6 12  2  0  0  0  0
  7  8  1  0  0  0  0
  7 10  1  0  0  0  0
  8  9  1  0  0  0  0
 10 11  1  0  0  0  0
 11 12  1  0  0  0  0
M  END
>  <CHROM.1>
-146.63272066,-55.60976319,-65.01692866,44.04945068,12.12735741,13.04589317
1.52584236,0.93295826,-1.15338665

>  <Name>
ligand

>  <RI>
0

>  <Rbt.Current_Directory>
/home/itssahil/PROJECTS/Mol_Feturizer/New_Systems/rnas/2HO6

>  <Rbt.Executable>
rbdock ($Id: //depot/dev/client3/rdock/2013.1/src/exe/rbdock.cxx#4 $)

>  <Rbt.Library>
libRbt.so (2013.1, Build901 2013/11/27)

>  <Rbt.Parameter_File>
/export/apps/rDock/src/rDock_2013.1_src/data/scripts/dock_solv.prm

>  <Rbt.Receptor>
prm/pocket_docking_4.prm

>  <SCORE>
-8.56401

>  <SCORE.INTER>
-8.02092

>  <SCORE.INTER.CONST>
1

>  <SCORE.INTER.POLAR>
0

>  <SCORE.INTER.ROT>
3

>  <SCORE.INTER.SOLV>
8.06182

>  <SCORE.INTER.VDW>
-13.6346

>  <SCORE.INTER.norm>
-0.66841

>  <SCORE.INTRA>
-0.543223

>  <SCORE.INTRA.DIHEDRAL>
1.32369

>  <SCORE.INTRA.DIHEDRAL.0>
1.88407

>  <SCORE.INTRA.POLAR>
0

>  <SCORE.INTRA.POLAR.0>
0

>  <SCORE.INTRA.REPUL>
0

>  <SCORE.INTRA.REPUL.0>
0

>  <SCORE.INTRA.SOLV>
0.248465

>  <SCORE.INTRA.SOLV.lig_0>
-10.2714

>  <SCORE.INTRA.VDW>
-1.3293

>  <SCORE.INTRA.VDW.0>
0.416923

>  <SCORE.INTRA.norm>
-0.0452686

>  <SCORE.RESTR>
0.000130314

>  <SCORE.RESTR.CAVITY>
0.000130314

>  <SCORE.RESTR.norm>
1.08595e-05

>  <SCORE.SYSTEM>
0

>  <SCORE.SYSTEM.CONST>
0

>  <SCORE.SYSTEM.DIHEDRAL>
0

>  <SCORE.SYSTEM.SOLV>
0

>  <SCORE.SYSTEM.norm>
0

>  <SCORE.heavy>
12

>  <SCORE.norm>
-0.713668

>  <RMSD>
5.598

$$$$
ligand
 OpenBabel11021811433D
libRbt.so/2013.1/901 2013/11/27
 12 12  0  0  0  0  0  0  0  0999 V2000
   44.3422   12.9395   15.2390 O   0  0  0  0  0  0  0  0  0  0  0  0
   48.4052   13.2131   11.9431 O   0  0  0  0  0  0  0  0  0  0  0  0
   44.1662   11.4912   15.2843 C   0  0  0  0  0  0  0  0  0  0  0  0
   49.6490   11.3367   12.9488 O   0  0  0  0  0  0  0  0  0  0  0  0
   44.6830   10.8208   13.9783 C   0  0  0  0  0  0  0  0  0  0  0  0
   48.9058   11.5066   11.1298 O   0  0  0  0  0  0  0  0  0  0  0  0
   45.2292   11.8827   13.0639 N   0  0  0  0  0  0  0  0  0  0  0  0
   44.1786   12.9021   12.7628 C   0  0  0  0  0  0  0  0  0  0  0  0
   43.6391   13.5020   14.0923 C   0  0  0  0  0  0  0  0  0  0  0  0
   45.7411   11.3031   11.7731 C   0  0  0  0  0  0  0  0  0  0  0  0
   47.1252   10.6382   11.9680 C   0  0  0  0  0  0  0  0  0  0  0  0
   48.3718   11.8598   12.4409 S   0  0  0  0  0  0  0  0  0  0  0  0
  1  3  1  0  0  0  0
  1  9  1  0  0  0  0
  2 12  1  0  0  0  0
  3  5  1  0  0  0  0
  4 12  2  0  0  0  0
  5  7  1  0  0  0  0
  6 12  2  0  0  0  0
  7  8  1  0  0  0  0
  7 10  1  0  0  0  0
  8  9  1  0  0  0  0
 10 11  1  0  0  0  0
 11 12  1  0  0  0  0
M  END
>  <CHROM.1>
-77.30645015,-64.11007050,-35.87455437,46.47041054,11.95348411,12.98564880
-3.05399409,-0.46559173,3.05159170

>  <Name>
ligand

>  <RI>
0

>  <Rbt.Current_Directory>
/home/itssahil/PROJECTS/Mol_Feturizer/New_Systems/rnas/2HO6

>  <Rbt.Executable>
rbdock ($Id: //depot/dev/client3/rdock/2013.1/src/exe/rbdock.cxx#4 $)

>  <Rbt.Library>
libRbt.so (2013.1, Build901 2013/11/27)

>  <Rbt.Parameter_File>
/export/apps/rDock/src/rDock_2013.1_src/data/scripts/dock_solv.prm

>  <Rbt.Receptor>
prm/pocket_docking_3.prm

>  <SCORE>
-8.21553

>  <SCORE.INTER>
-7.24004

>  <SCORE.INTER.CONST>
1

>  <SCORE.INTER.POLAR>
0

>  <SCORE.INTER.ROT>
3

>  <SCORE.INTER.SOLV>
7.09676

>  <SCORE.INTER.VDW>
-12.7923

>  <SCORE.INTER.norm>
-0.603337

>  <SCORE.INTRA>
-0.975483

>  <SCORE.INTRA.DIHEDRAL>
0.431302

>  <SCORE.INTRA.DIHEDRAL.0>
1.88407

>  <SCORE.INTRA.POLAR>
0

>  <SCORE.INTRA.POLAR.0>
0

>  <SCORE.INTRA.REPUL>
0

>  <SCORE.INTRA.REPUL.0>
0

>  <SCORE.INTRA.SOLV>
0.183154

>  <SCORE.INTRA.SOLV.lig_0>
-10.2714

>  <SCORE.INTRA.VDW>
-1.28271

>  <SCORE.INTRA.VDW.0>
0.416923

>  <SCORE.INTRA.norm>
-0.0812902

>  <SCORE.RESTR>
0

>  <SCORE.RESTR.CAVITY>
0

>  <SCORE.RESTR.norm>
0

>  <SCORE.SYSTEM>
0

>  <SCORE.SYSTEM.CONST>
0

>  <SCORE.SYSTEM.DIHEDRAL>
0

>  <SCORE.SYSTEM.SOLV>
0

>  <SCORE.SYSTEM.norm>
0

>  <SCORE.heavy>
12

>  <SCORE.norm>
-0.684627

>  <RMSD>
5.609

$$$$
ligand
 OpenBabel11021811433D
libRbt.so/2013.1/901 2013/11/27
 12 12  0  0  0  0  0  0  0  0999 V2000
   44.8082   12.4660   15.2198 O   0  0  0  0  0  0  0  0  0  0  0  0
   48.4962   11.7686   12.9389 O   0  0  0  0  0  0  0  0  0  0  0  0
   44.0744   11.2087   15.3271 C   0  0  0  0  0  0  0  0  0  0  0  0
   49.2528   10.1186   11.2703 O   0  0  0  0  0  0  0  0  0  0  0  0
   44.2746   10.3306   14.0579 C   0  0  0  0  0  0  0  0  0  0  0  0
   48.4547   11.9001   10.9883 O   0  0  0  0  0  0  0  0  0  0  0  0
   45.1892   11.0479   13.1035 N   0  0  0  0  0  0  0  0  0  0  0  0
   44.6249   12.3848   12.7460 C   0  0  0  0  0  0  0  0  0  0  0  0
   44.3762   13.2082   14.0415 C   0  0  0  0  0  0  0  0  0  0  0  0
   45.4208   10.2557   11.8453 C   0  0  0  0  0  0  0  0  0  0  0  0
   46.5703   10.8629   11.0051 C   0  0  0  0  0  0  0  0  0  0  0  0
   48.1325   10.8201   11.9150 S   0  0  0  0  0  0  0  0  0  0  0  0
  1  3  1  0  0  0  0
  1  9  1  0  0  0  0
  2 12  1  0  0  0  0
  3  5  1  0  0  0  0
  4 12  2  0  0  0  0
  5  7  1  0  0  0  0
  6 12  2  0  0  0  0
  7  8  1  0  0  0  0
  7 10  1  0  0  0  0
  8  9  1  0  0  0  0
 10 11  1  0  0  0  0
 11 12  1  0  0  0  0
M  END
>  <CHROM.1>
-168.70216226,62.24564803,-79.48909279,46.39024495,11.32193303,12.77187533
-2.57884376,-0.32369927,-2.34268432

>  <Name>
ligand

>  <RI>
0

>  <Rbt.Current_Directory>
/home/itssahil/PROJECTS/Mol_Feturizer/New_Systems/rnas/2HO6

>  <Rbt.Executable>
rbdock ($Id: //depot/dev/client3/rdock/2013.1/src/exe/rbdock.cxx#4 $)

>  <Rbt.Library>
libRbt.so (2013.1, Build901 2013/11/27)

>  <Rbt.Parameter_File>
/export/apps/rDock/src/rDock_2013.1_src/data/scripts/dock_solv.prm

>  <Rbt.Receptor>
prm/pocket_docking_3.prm

>  <SCORE>
-8.13217

>  <SCORE.INTER>
-7.33255

>  <SCORE.INTER.CONST>
1

>  <SCORE.INTER.POLAR>
0

>  <SCORE.INTER.ROT>
3

>  <SCORE.INTER.SOLV>
8.0937

>  <SCORE.INTER.VDW>
-13.1863

>  <SCORE.INTER.norm>
-0.611046

>  <SCORE.INTRA>
-0.799621

>  <SCORE.INTRA.DIHEDRAL>
0.153602

>  <SCORE.INTRA.DIHEDRAL.0>
1.88407

>  <SCORE.INTRA.POLAR>
0

>  <SCORE.INTRA.POLAR.0>
0

>  <SCORE.INTRA.REPUL>
0

>  <SCORE.INTRA.REPUL.0>
0

>  <SCORE.INTRA.SOLV>
0.255777

>  <SCORE.INTRA.SOLV.lig_0>
-10.2714

>  <SCORE.INTRA.VDW>
-1.00431

>  <SCORE.INTRA.VDW.0>
0.416923

>  <SCORE.INTRA.norm>
-0.0666351

>  <SCORE.RESTR>
0

>  <SCORE.RESTR.CAVITY>
0

>  <SCORE.RESTR.norm>
0

>  <SCORE.SYSTEM>
0

>  <SCORE.SYSTEM.CONST>
0

>  <SCORE.SYSTEM.DIHEDRAL>
0

>  <SCORE.SYSTEM.SOLV>
0

>  <SCORE.SYSTEM.norm>
0

>  <SCORE.heavy>
12

>  <SCORE.norm>
-0.677681

>  <RMSD>
5.612

$$$$
ligand
 OpenBabel11021811433D
libRbt.so/2013.1/901 2013/11/27
 12 12  0  0  0  0  0  0  0  0999 V2000
   44.8033   12.4460   15.2819 O   0  0  0  0  0  0  0  0  0  0  0  0
   48.4558   11.7292   12.9662 O   0  0  0  0  0  0  0  0  0  0  0  0
   44.0564   11.1955   15.3765 C   0  0  0  0  0  0  0  0  0  0  0  0
   49.1772   10.0927   11.2689 O   0  0  0  0  0  0  0  0  0  0  0  0
   44.2313   10.3373   14.0900 C   0  0  0  0  0  0  0  0  0  0  0  0
   48.4088   11.8918   11.0181 O   0  0  0  0  0  0  0  0  0  0  0  0
   45.1427   11.0607   13.1371 N   0  0  0  0  0  0  0  0  0  0  0  0
   44.5896   12.4099   12.8095 C   0  0  0  0  0  0  0  0  0  0  0  0
   44.3659   13.2134   14.1219 C   0  0  0  0  0  0  0  0  0  0  0  0
   45.3502   10.2878   11.8628 C   0  0  0  0  0  0  0  0  0  0  0  0
   46.5069   10.8870   11.0267 C   0  0  0  0  0  0  0  0  0  0  0  0
   48.0717   10.8032   11.9292 S   0  0  0  0  0  0  0  0  0  0  0  0
  1  3  1  0  0  0  0
  1  9  1  0  0  0  0
  2 12  1  0  0  0  0
  3  5  1  0  0  0  0
  4 12  2  0  0  0  0
  5  7  1  0  0  0  0
  6 12  2  0  0  0  0
  7  8  1  0  0  0  0
  7 10  1  0  0  0  0
  8  9  1  0  0  0  0
 10 11  1  0  0  0  0
 11 12  1  0  0  0  0
M  END
>  <CHROM.1>
-168.07544331,61.93145322,-79.43541168,46.34571724,11.31814414,12.80544095
-2.55934640,-0.31236138,-2.31376352

>  <Name>
ligand

>  <RI>
0

>  <Rbt.Current_Directory>
/home/itssahil/PROJECTS/Mol_Feturizer/New_Systems/rnas/2HO6

>  <Rbt.Executable>
rbdock ($Id: //depot/dev/client3/rdock/2013.1/src/exe/rbdock.cxx#4 $)

>  <Rbt.Library>
libRbt.so (2013.1, Build901 2013/11/27)

>  <Rbt.Parameter_File>
/export/apps/rDock/src/rDock_2013.1_src/data/scripts/dock_solv.prm

>  <Rbt.Receptor>
prm/pocket_docking_3.prm

>  <SCORE>
-8.16244

>  <SCORE.INTER>
-7.33621

>  <SCORE.INTER.CONST>
1

>  <SCORE.INTER.POLAR>
0

>  <SCORE.INTER.ROT>
3

>  <SCORE.INTER.SOLV>
8.16334

>  <SCORE.INTER.VDW>
-13.2119

>  <SCORE.INTER.norm>
-0.611351

>  <SCORE.INTRA>
-0.826223

>  <SCORE.INTRA.DIHEDRAL>
0.168728

>  <SCORE.INTRA.DIHEDRAL.0>
1.88407

>  <SCORE.INTRA.POLAR>
0

>  <SCORE.INTRA.POLAR.0>
0

>  <SCORE.INTRA.REPUL>
0

>  <SCORE.INTRA.REPUL.0>
0

>  <SCORE.INTRA.SOLV>
0.255635

>  <SCORE.INTRA.SOLV.lig_0>
-10.2714

>  <SCORE.INTRA.VDW>
-1.0384

>  <SCORE.INTRA.VDW.0>
0.416923

>  <SCORE.INTRA.norm>
-0.0688519

>  <SCORE.RESTR>
0

>  <SCORE.RESTR.CAVITY>
0

>  <SCORE.RESTR.norm>
0

>  <SCORE.SYSTEM>
0

>  <SCORE.SYSTEM.CONST>
0

>  <SCORE.SYSTEM.DIHEDRAL>
0

>  <SCORE.SYSTEM.SOLV>
0

>  <SCORE.SYSTEM.norm>
0

>  <SCORE.heavy>
12

>  <SCORE.norm>
-0.680203

>  <RMSD>
5.630

$$$$
ligand
 OpenBabel11021811433D
libRbt.so/2013.1/901 2013/11/27
 12 12  0  0  0  0  0  0  0  0999 V2000
   44.5603   12.5392   15.3051 O   0  0  0  0  0  0  0  0  0  0  0  0
   48.7059   12.9691   12.4499 O   0  0  0  0  0  0  0  0  0  0  0  0
   43.9890   11.1969   15.3537 C   0  0  0  0  0  0  0  0  0  0  0  0
   49.1920   10.5534   12.3644 O   0  0  0  0  0  0  0  0  0  0  0  0
   44.3981   10.3659   14.1030 C   0  0  0  0  0  0  0  0  0  0  0  0
   48.8230   11.8035   10.8842 O   0  0  0  0  0  0  0  0  0  0  0  0
   45.2831   11.2055   13.2234 N   0  0  0  0  0  0  0  0  0  0  0  0
   44.5800   12.4625   12.8245 C   0  0  0  0  0  0  0  0  0  0  0  0
   44.1280   13.2327   14.0976 C   0  0  0  0  0  0  0  0  0  0  0  0
   45.7114   10.4638   11.9863 C   0  0  0  0  0  0  0  0  0  0  0  0
   46.7605   11.2712   11.1843 C   0  0  0  0  0  0  0  0  0  0  0  0
   48.2121   11.6375   12.1987 S   0  0  0  0  0  0  0  0  0  0  0  0
  1  3  1  0  0  0  0
  1  9  1  0  0  0  0
  2 12  1  0  0  0  0
  3  5  1  0  0  0  0
  4 12  2  0  0  0  0
  5  7  1  0  0  0  0
  6 12  2  0  0  0  0
  7  8  1  0  0  0  0
  7 10  1  0  0  0  0
  8  9  1  0  0  0  0
 10 11  1  0  0  0  0
 11 12  1  0  0  0  0
M  END
>  <CHROM.1>
-172.80256185,57.89057843,-123.11150304,46.44865655,11.65461235,12.91366491
-2.83401681,-0.47408069,-2.62909642

>  <Name>
ligand

>  <RI>
0

>  <Rbt.Current_Directory>
/home/itssahil/PROJECTS/Mol_Feturizer/New_Systems/rnas/2HO6

>  <Rbt.Executable>
rbdock ($Id: //depot/dev/client3/rdock/2013.1/src/exe/rbdock.cxx#4 $)

>  <Rbt.Library>
libRbt.so (2013.1, Build901 2013/11/27)

>  <Rbt.Parameter_File>
/export/apps/rDock/src/rDock_2013.1_src/data/scripts/dock_solv.prm

>  <Rbt.Receptor>
prm/pocket_docking_3.prm

>  <SCORE>
-7.98391

>  <SCORE.INTER>
-7.48722

>  <SCORE.INTER.CONST>
1

>  <SCORE.INTER.POLAR>
0

>  <SCORE.INTER.ROT>
3

>  <SCORE.INTER.SOLV>
7.68746

>  <SCORE.INTER.VDW>
-13.154

>  <SCORE.INTER.norm>
-0.623935

>  <SCORE.INTRA>
-0.496688

>  <SCORE.INTRA.DIHEDRAL>
-0.0048527

>  <SCORE.INTRA.DIHEDRAL.0>
1.88407

>  <SCORE.INTRA.POLAR>
0

>  <SCORE.INTRA.POLAR.0>
0

>  <SCORE.INTRA.REPUL>
0

>  <SCORE.INTRA.REPUL.0>
0

>  <SCORE.INTRA.SOLV>
0.310559

>  <SCORE.INTRA.SOLV.lig_0>
-10.2714

>  <SCORE.INTRA.VDW>
-0.649541

>  <SCORE.INTRA.VDW.0>
0.416923

>  <SCORE.INTRA.norm>
-0.0413907

>  <SCORE.RESTR>
0

>  <SCORE.RESTR.CAVITY>
0

>  <SCORE.RESTR.norm>
0

>  <SCORE.SYSTEM>
0

>  <SCORE.SYSTEM.CONST>
0

>  <SCORE.SYSTEM.DIHEDRAL>
0

>  <SCORE.SYSTEM.SOLV>
0

>  <SCORE.SYSTEM.norm>
0

>  <SCORE.heavy>
12

>  <SCORE.norm>
-0.665326

>  <RMSD>
5.636

$$$$
ligand
 OpenBabel11021811433D
libRbt.so/2013.1/901 2013/11/27
 12 12  0  0  0  0  0  0  0  0999 V2000
   42.9216   13.6227   10.5283 O   0  0  0  0  0  0  0  0  0  0  0  0
   44.3433   12.5279   15.6609 O   0  0  0  0  0  0  0  0  0  0  0  0
   43.8945   13.0174    9.6240 C   0  0  0  0  0  0  0  0  0  0  0  0
   42.2949   11.2431   15.1791 O   0  0  0  0  0  0  0  0  0  0  0  0
   44.8452   12.0498   10.3869 C   0  0  0  0  0  0  0  0  0  0  0  0
   44.0420   10.6035   15.8338 O   0  0  0  0  0  0  0  0  0  0  0  0
   44.4544   12.0205   11.8389 N   0  0  0  0  0  0  0  0  0  0  0  0
   44.5101   13.3956   12.4216 C   0  0  0  0  0  0  0  0  0  0  0  0
   43.6010   14.3485   11.5948 C   0  0  0  0  0  0  0  0  0  0  0  0
   45.3412   11.1067   12.6406 C   0  0  0  0  0  0  0  0  0  0  0  0
   44.5424   10.3856   13.7531 C   0  0  0  0  0  0  0  0  0  0  0  0
   43.6786   11.5744   14.8071 S   0  0  0  0  0  0  0  0  0  0  0  0
  1  3  1  0  0  0  0
  1  9  1  0  0  0  0
  2 12  1  0  0  0  0
  3  5  1  0  0  0  0
  4 12  2  0  0  0  0
  5  7  1  0  0  0  0
  6 12  2  0  0  0  0
  7  8  1  0  0  0  0
  7 10  1  0  0  0  0
  8  9  1  0  0  0  0
 10 11  1  0  0  0  0
 11 12  1  0  0  0  0
M  END
>  <CHROM.1>
-144.26830165,-54.91855833,-65.45608595,43.97963311,12.09735886,13.09572694
1.50460502,0.92329120,-1.13675085

>  <Name>
ligand

>  <RI>
0

>  <Rbt.Current_Directory>
/home/itssahil/PROJECTS/Mol_Feturizer/New_Systems/rnas/2HO6

>  <Rbt.Executable>
rbdock ($Id: //depot/dev/client3/rdock/2013.1/src/exe/rbdock.cxx#4 $)

>  <Rbt.Library>
libRbt.so (2013.1, Build901 2013/11/27)

>  <Rbt.Parameter_File>
/export/apps/rDock/src/rDock_2013.1_src/data/scripts/dock_solv.prm

>  <Rbt.Receptor>
prm/pocket_docking_6.prm

>  <SCORE>
-8.80156

>  <SCORE.INTER>
-8.20878

>  <SCORE.INTER.CONST>
1

>  <SCORE.INTER.POLAR>
0

>  <SCORE.INTER.ROT>
3

>  <SCORE.INTER.SOLV>
8.18317

>  <SCORE.INTER.VDW>
-13.8002

>  <SCORE.INTER.norm>
-0.684065

>  <SCORE.INTRA>
-0.592778

>  <SCORE.INTRA.DIHEDRAL>
1.4959

>  <SCORE.INTRA.DIHEDRAL.0>
1.88407

>  <SCORE.INTRA.POLAR>
0

>  <SCORE.INTRA.POLAR.0>
0

>  <SCORE.INTRA.REPUL>
0

>  <SCORE.INTRA.REPUL.0>
0

>  <SCORE.INTRA.SOLV>
0.246831

>  <SCORE.INTRA.SOLV.lig_0>
-10.2714

>  <SCORE.INTRA.VDW>
-1.46414

>  <SCORE.INTRA.VDW.0>
0.416923

>  <SCORE.INTRA.norm>
-0.0493982

>  <SCORE.RESTR>
0

>  <SCORE.RESTR.CAVITY>
0

>  <SCORE.RESTR.norm>
0

>  <SCORE.SYSTEM>
0

>  <SCORE.SYSTEM.CONST>
0

>  <SCORE.SYSTEM.DIHEDRAL>
0

>  <SCORE.SYSTEM.SOLV>
0

>  <SCORE.SYSTEM.norm>
0

>  <SCORE.heavy>
12

>  <SCORE.norm>
-0.733463

>  <RMSD>
5.647

$$$$
ligand
 OpenBabel11021811433D
libRbt.so/2013.1/901 2013/11/27
 12 12  0  0  0  0  0  0  0  0999 V2000
   44.5412   11.4567   15.3334 O   0  0  0  0  0  0  0  0  0  0  0  0
   50.0938   11.8259   12.9518 O   0  0  0  0  0  0  0  0  0  0  0  0
   44.1070   10.4142   14.4085 C   0  0  0  0  0  0  0  0  0  0  0  0
   48.5812   10.1180   12.0167 O   0  0  0  0  0  0  0  0  0  0  0  0
   44.7113   10.6327   12.9910 C   0  0  0  0  0  0  0  0  0  0  0  0
   49.3752   11.6950   11.1378 O   0  0  0  0  0  0  0  0  0  0  0  0
   45.5835   11.8578   13.0123 N   0  0  0  0  0  0  0  0  0  0  0  0
   44.7960   13.0509   13.4483 C   0  0  0  0  0  0  0  0  0  0  0  0
   44.1533   12.7715   14.8365 C   0  0  0  0  0  0  0  0  0  0  0  0
   46.1965   12.1341   11.6662 C   0  0  0  0  0  0  0  0  0  0  0  0
   47.6159   12.7344   11.8099 C   0  0  0  0  0  0  0  0  0  0  0  0
   48.7774   11.5079   12.4555 S   0  0  0  0  0  0  0  0  0  0  0  0
  1  3  1  0  0  0  0
  1  9  1  0  0  0  0
  2 12  1  0  0  0  0
  3  5  1  0  0  0  0
  4 12  2  0  0  0  0
  5  7  1  0  0  0  0
  6 12  2  0  0  0  0
  7  8  1  0  0  0  0
  7 10  1  0  0  0  0
  8  9  1  0  0  0  0
 10 11  1  0  0  0  0
 11 12  1  0  0  0  0
M  END
>  <CHROM.1>
-145.64637699,68.97621484,-166.93391154,46.81693055,11.65031299,12.94865353
-2.98761311,0.41427703,-0.45172928

>  <Name>
ligand

>  <RI>
0

>  <Rbt.Current_Directory>
/home/itssahil/PROJECTS/Mol_Feturizer/New_Systems/rnas/2HO6

>  <Rbt.Executable>
rbdock ($Id: //depot/dev/client3/rdock/2013.1/src/exe/rbdock.cxx#4 $)

>  <Rbt.Library>
libRbt.so (2013.1, Build901 2013/11/27)

>  <Rbt.Parameter_File>
/export/apps/rDock/src/rDock_2013.1_src/data/scripts/dock_solv.prm

>  <Rbt.Receptor>
prm/pocket_docking_3.prm

>  <SCORE>
-7.10161

>  <SCORE.INTER>
-6.71947

>  <SCORE.INTER.CONST>
1

>  <SCORE.INTER.POLAR>
0

>  <SCORE.INTER.ROT>
3

>  <SCORE.INTER.SOLV>
7.33419

>  <SCORE.INTER.VDW>
-12.5244

>  <SCORE.INTER.norm>
-0.559956

>  <SCORE.INTRA>
-0.382143

>  <SCORE.INTRA.DIHEDRAL>
1.54873

>  <SCORE.INTRA.DIHEDRAL.0>
1.88407

>  <SCORE.INTRA.POLAR>
0

>  <SCORE.INTRA.POLAR.0>
0

>  <SCORE.INTRA.REPUL>
0

>  <SCORE.INTRA.REPUL.0>
0

>  <SCORE.INTRA.SOLV>
0.592588

>  <SCORE.INTRA.SOLV.lig_0>
-10.2714

>  <SCORE.INTRA.VDW>
-1.4528

>  <SCORE.INTRA.VDW.0>
0.416923

>  <SCORE.INTRA.norm>
-0.0318453

>  <SCORE.RESTR>
0

>  <SCORE.RESTR.CAVITY>
0

>  <SCORE.RESTR.norm>
0

>  <SCORE.SYSTEM>
0

>  <SCORE.SYSTEM.CONST>
0

>  <SCORE.SYSTEM.DIHEDRAL>
0

>  <SCORE.SYSTEM.SOLV>
0

>  <SCORE.SYSTEM.norm>
0

>  <SCORE.heavy>
12

>  <SCORE.norm>
-0.591801

>  <RMSD>
5.650

$$$$
ligand
 OpenBabel11021811433D
libRbt.so/2013.1/901 2013/11/27
 12 12  0  0  0  0  0  0  0  0999 V2000
   44.8160   11.7940   15.1099 O   0  0  0  0  0  0  0  0  0  0  0  0
   47.1260   13.3365    8.3796 O   0  0  0  0  0  0  0  0  0  0  0  0
   44.7207   10.6959   14.1530 C   0  0  0  0  0  0  0  0  0  0  0  0
   49.4061   12.6976    9.0667 O   0  0  0  0  0  0  0  0  0  0  0  0
   45.2007   11.1380   12.7401 C   0  0  0  0  0  0  0  0  0  0  0  0
   47.7404   11.6442    9.1427 O   0  0  0  0  0  0  0  0  0  0  0  0
   45.6384   12.5757   12.7975 N   0  0  0  0  0  0  0  0  0  0  0  0
   44.5198   13.4424   13.2783 C   0  0  0  0  0  0  0  0  0  0  0  0
   44.0222   12.9313   14.6601 C   0  0  0  0  0  0  0  0  0  0  0  0
   46.1094   13.0731   11.4578 C   0  0  0  0  0  0  0  0  0  0  0  0
   47.5010   12.4952   11.1038 C   0  0  0  0  0  0  0  0  0  0  0  0
   48.0311   13.0378    9.4621 S   0  0  0  0  0  0  0  0  0  0  0  0
  1  3  1  0  0  0  0
  1  9  1  0  0  0  0
  2 12  1  0  0  0  0
  3  5  1  0  0  0  0
  4 12  2  0  0  0  0
  5  7  1  0  0  0  0
  6 12  2  0  0  0  0
  7  8  1  0  0  0  0
  7 10  1  0  0  0  0
  8  9  1  0  0  0  0
 10 11  1  0  0  0  0
 11 12  1  0  0  0  0
M  END
>  <CHROM.1>
-73.96422402,177.52281200,-29.86711059,46.44481183,12.46237294,11.50903050
-2.57925087,0.83902042,-0.56432177

>  <Name>
ligand

>  <RI>
0

>  <Rbt.Current_Directory>
/home/itssahil/PROJECTS/Mol_Feturizer/New_Systems/rnas/2HO6

>  <Rbt.Executable>
rbdock ($Id: //depot/dev/client3/rdock/2013.1/src/exe/rbdock.cxx#4 $)

>  <Rbt.Library>
libRbt.so (2013.1, Build901 2013/11/27)

>  <Rbt.Parameter_File>
/export/apps/rDock/src/rDock_2013.1_src/data/scripts/dock_solv.prm

>  <Rbt.Receptor>
prm/pocket_docking_4.prm

>  <SCORE>
-7.22071

>  <SCORE.INTER>
-6.59505

>  <SCORE.INTER.CONST>
1

>  <SCORE.INTER.POLAR>
0

>  <SCORE.INTER.ROT>
3

>  <SCORE.INTER.SOLV>
5.84757

>  <SCORE.INTER.VDW>
-11.9459

>  <SCORE.INTER.norm>
-0.549588

>  <SCORE.INTRA>
-0.625653

>  <SCORE.INTRA.DIHEDRAL>
0.229918

>  <SCORE.INTRA.DIHEDRAL.0>
1.88407

>  <SCORE.INTRA.POLAR>
0

>  <SCORE.INTRA.POLAR.0>
0

>  <SCORE.INTRA.REPUL>
0

>  <SCORE.INTRA.REPUL.0>
0

>  <SCORE.INTRA.SOLV>
-0.0359729

>  <SCORE.INTRA.SOLV.lig_0>
-10.2714

>  <SCORE.INTRA.VDW>
-0.722626

>  <SCORE.INTRA.VDW.0>
0.416923

>  <SCORE.INTRA.norm>
-0.0521378

>  <SCORE.RESTR>
0

>  <SCORE.RESTR.CAVITY>
0

>  <SCORE.RESTR.norm>
0

>  <SCORE.SYSTEM>
0

>  <SCORE.SYSTEM.CONST>
0

>  <SCORE.SYSTEM.DIHEDRAL>
0

>  <SCORE.SYSTEM.SOLV>
0

>  <SCORE.SYSTEM.norm>
0

>  <SCORE.heavy>
12

>  <SCORE.norm>
-0.601726

>  <RMSD>
5.652

$$$$
ligand
 OpenBabel11021811433D
libRbt.so/2013.1/901 2013/11/27
 12 12  0  0  0  0  0  0  0  0999 V2000
   44.5527   11.9539   15.4473 O   0  0  0  0  0  0  0  0  0  0  0  0
   48.9254   13.1740   12.2296 O   0  0  0  0  0  0  0  0  0  0  0  0
   44.1991   10.6763   14.8363 C   0  0  0  0  0  0  0  0  0  0  0  0
   49.5542   10.8700   12.8421 O   0  0  0  0  0  0  0  0  0  0  0  0
   44.6755   10.6098   13.3562 C   0  0  0  0  0  0  0  0  0  0  0  0
   49.1926   11.6308   11.0587 O   0  0  0  0  0  0  0  0  0  0  0  0
   45.3795   11.8925   13.0087 N   0  0  0  0  0  0  0  0  0  0  0  0
   44.4729   13.0605   13.2272 C   0  0  0  0  0  0  0  0  0  0  0  0
   43.9645   13.0569   14.6968 C   0  0  0  0  0  0  0  0  0  0  0  0
   45.8617   11.9000   11.5833 C   0  0  0  0  0  0  0  0  0  0  0  0
   47.1514   11.0590   11.4242 C   0  0  0  0  0  0  0  0  0  0  0  0
   48.5234   11.7937   12.3450 S   0  0  0  0  0  0  0  0  0  0  0  0
  1  3  1  0  0  0  0
  1  9  1  0  0  0  0
  2 12  1  0  0  0  0
  3  5  1  0  0  0  0
  4 12  2  0  0  0  0
  5  7  1  0  0  0  0
  6 12  2  0  0  0  0
  7  8  1  0  0  0  0
  7 10  1  0  0  0  0
  8  9  1  0  0  0  0
 10 11  1  0  0  0  0
 11 12  1  0  0  0  0
M  END
>  <CHROM.1>
-77.67833214,-65.04580969,-51.60317905,46.63948900,11.80934483,12.93889582
-2.79881720,0.35215759,-0.87164617

>  <Name>
ligand

>  <RI>
0

>  <Rbt.Current_Directory>
/home/itssahil/PROJECTS/Mol_Feturizer/New_Systems/rnas/2HO6

>  <Rbt.Executable>
rbdock ($Id: //depot/dev/client3/rdock/2013.1/src/exe/rbdock.cxx#4 $)

>  <Rbt.Library>
libRbt.so (2013.1, Build901 2013/11/27)

>  <Rbt.Parameter_File>
/export/apps/rDock/src/rDock_2013.1_src/data/scripts/dock_solv.prm

>  <Rbt.Receptor>
prm/pocket_docking_3.prm

>  <SCORE>
-7.97172

>  <SCORE.INTER>
-7.02159

>  <SCORE.INTER.CONST>
1

>  <SCORE.INTER.POLAR>
0

>  <SCORE.INTER.ROT>
3

>  <SCORE.INTER.SOLV>
6.94979

>  <SCORE.INTER.VDW>
-12.5977

>  <SCORE.INTER.norm>
-0.585132

>  <SCORE.INTRA>
-0.950139

>  <SCORE.INTRA.DIHEDRAL>
0.512715

>  <SCORE.INTRA.DIHEDRAL.0>
1.88407

>  <SCORE.INTRA.POLAR>
0

>  <SCORE.INTRA.POLAR.0>
0

>  <SCORE.INTRA.REPUL>
0

>  <SCORE.INTRA.REPUL.0>
0

>  <SCORE.INTRA.SOLV>
0.160876

>  <SCORE.INTRA.SOLV.lig_0>
-10.2714

>  <SCORE.INTRA.VDW>
-1.28693

>  <SCORE.INTRA.VDW.0>
0.416923

>  <SCORE.INTRA.norm>
-0.0791782

>  <SCORE.RESTR>
0

>  <SCORE.RESTR.CAVITY>
0

>  <SCORE.RESTR.norm>
0

>  <SCORE.SYSTEM>
0

>  <SCORE.SYSTEM.CONST>
0

>  <SCORE.SYSTEM.DIHEDRAL>
0

>  <SCORE.SYSTEM.SOLV>
0

>  <SCORE.SYSTEM.norm>
0

>  <SCORE.heavy>
12

>  <SCORE.norm>
-0.66431

>  <RMSD>
5.657

$$$$
ligand
 OpenBabel11021811433D
libRbt.so/2013.1/901 2013/11/27
 12 12  0  0  0  0  0  0  0  0999 V2000
   44.4817   12.2308   15.5532 O   0  0  0  0  0  0  0  0  0  0  0  0
   47.3402   13.5323   11.8237 O   0  0  0  0  0  0  0  0  0  0  0  0
   43.8748   10.9181   15.3553 C   0  0  0  0  0  0  0  0  0  0  0  0
   49.4596   12.4672   12.4970 O   0  0  0  0  0  0  0  0  0  0  0  0
   44.3599   10.2687   14.0268 C   0  0  0  0  0  0  0  0  0  0  0  0
   48.3901   12.1911   10.8630 O   0  0  0  0  0  0  0  0  0  0  0  0
   45.3323   11.1971   13.3526 N   0  0  0  0  0  0  0  0  0  0  0  0
   44.6946   12.5245   13.0980 C   0  0  0  0  0  0  0  0  0  0  0  0
   44.1634   13.1121   14.4361 C   0  0  0  0  0  0  0  0  0  0  0  0
   45.8377   10.6330   12.0524 C   0  0  0  0  0  0  0  0  0  0  0  0
   47.3842   10.6620   11.9931 C   0  0  0  0  0  0  0  0  0  0  0  0
   48.0133   12.3355   12.2651 S   0  0  0  0  0  0  0  0  0  0  0  0
  1  3  1  0  0  0  0
  1  9  1  0  0  0  0
  2 12  1  0  0  0  0
  3  5  1  0  0  0  0
  4 12  2  0  0  0  0
  5  7  1  0  0  0  0
  6 12  2  0  0  0  0
  7  8  1  0  0  0  0
  7 10  1  0  0  0  0
  8  9  1  0  0  0  0
 10 11  1  0  0  0  0
 11 12  1  0  0  0  0
M  END
>  <CHROM.1>
-128.60881490,-55.73173530,-34.18573221,46.34077944,11.91661069,13.01395030
-3.07144353,-0.61722557,-2.77345472

>  <Name>
ligand

>  <RI>
0

>  <Rbt.Current_Directory>
/home/itssahil/PROJECTS/Mol_Feturizer/New_Systems/rnas/2HO6

>  <Rbt.Executable>
rbdock ($Id: //depot/dev/client3/rdock/2013.1/src/exe/rbdock.cxx#4 $)

>  <Rbt.Library>
libRbt.so (2013.1, Build901 2013/11/27)

>  <Rbt.Parameter_File>
/export/apps/rDock/src/rDock_2013.1_src/data/scripts/dock_solv.prm

>  <Rbt.Receptor>
prm/pocket_docking_3.prm

>  <SCORE>
-9.1356

>  <SCORE.INTER>
-8.46073

>  <SCORE.INTER.CONST>
1

>  <SCORE.INTER.POLAR>
0

>  <SCORE.INTER.ROT>
3

>  <SCORE.INTER.SOLV>
7.70315

>  <SCORE.INTER.VDW>
-13.8082

>  <SCORE.INTER.norm>
-0.70506

>  <SCORE.INTRA>
-0.674877

>  <SCORE.INTRA.DIHEDRAL>
2.14964

>  <SCORE.INTRA.DIHEDRAL.0>
1.88407

>  <SCORE.INTRA.POLAR>
0

>  <SCORE.INTRA.POLAR.0>
0

>  <SCORE.INTRA.REPUL>
0

>  <SCORE.INTRA.REPUL.0>
0

>  <SCORE.INTRA.SOLV>
0.135078

>  <SCORE.INTRA.SOLV.lig_0>
-10.2714

>  <SCORE.INTRA.VDW>
-1.81723

>  <SCORE.INTRA.VDW.0>
0.416923

>  <SCORE.INTRA.norm>
-0.0562397

>  <SCORE.RESTR>
0

>  <SCORE.RESTR.CAVITY>
0

>  <SCORE.RESTR.norm>
0

>  <SCORE.SYSTEM>
0

>  <SCORE.SYSTEM.CONST>
0

>  <SCORE.SYSTEM.DIHEDRAL>
0

>  <SCORE.SYSTEM.SOLV>
0

>  <SCORE.SYSTEM.norm>
0

>  <SCORE.heavy>
12

>  <SCORE.norm>
-0.7613

>  <RMSD>
5.671

$$$$
ligand
 OpenBabel11021811433D
libRbt.so/2013.1/901 2013/11/27
 12 12  0  0  0  0  0  0  0  0999 V2000
   44.6422   11.8422   15.3531 O   0  0  0  0  0  0  0  0  0  0  0  0
   48.1223   11.9222   12.7330 O   0  0  0  0  0  0  0  0  0  0  0  0
   44.0363   10.6295   14.8119 C   0  0  0  0  0  0  0  0  0  0  0  0
   48.9558    9.9624   11.4906 O   0  0  0  0  0  0  0  0  0  0  0  0
   44.2448   10.5355   13.2725 C   0  0  0  0  0  0  0  0  0  0  0  0
   48.1843   11.6407   10.7989 O   0  0  0  0  0  0  0  0  0  0  0  0
   45.0326   11.7301   12.8096 N   0  0  0  0  0  0  0  0  0  0  0  0
   44.3265   12.9948   13.1779 C   0  0  0  0  0  0  0  0  0  0  0  0
   44.0763   13.0233   14.7124 C   0  0  0  0  0  0  0  0  0  0  0  0
   45.2650   11.7077   11.3231 C   0  0  0  0  0  0  0  0  0  0  0  0
   46.2955   10.6203   10.9339 C   0  0  0  0  0  0  0  0  0  0  0  0
   47.8073   10.7779   11.9135 S   0  0  0  0  0  0  0  0  0  0  0  0
  1  3  1  0  0  0  0
  1  9  1  0  0  0  0
  2 12  1  0  0  0  0
  3  5  1  0  0  0  0
  4 12  2  0  0  0  0
  5  7  1  0  0  0  0
  6 12  2  0  0  0  0
  7  8  1  0  0  0  0
  7 10  1  0  0  0  0
  8  9  1  0  0  0  0
 10 11  1  0  0  0  0
 11 12  1  0  0  0  0
M  END
>  <CHROM.1>
-72.02809727,-51.87235521,-12.28092832,46.15485646,11.38220843,12.68984745
-2.52323708,0.26802194,-1.56240322

>  <Name>
ligand

>  <RI>
0

>  <Rbt.Current_Directory>
/home/itssahil/PROJECTS/Mol_Feturizer/New_Systems/rnas/2HO6

>  <Rbt.Executable>
rbdock ($Id: //depot/dev/client3/rdock/2013.1/src/exe/rbdock.cxx#4 $)

>  <Rbt.Library>
libRbt.so (2013.1, Build901 2013/11/27)

>  <Rbt.Parameter_File>
/export/apps/rDock/src/rDock_2013.1_src/data/scripts/dock_solv.prm

>  <Rbt.Receptor>
prm/pocket_docking_3.prm

>  <SCORE>
-8.30298

>  <SCORE.INTER>
-7.39895

>  <SCORE.INTER.CONST>
1

>  <SCORE.INTER.POLAR>
0

>  <SCORE.INTER.ROT>
3

>  <SCORE.INTER.SOLV>
7.73484

>  <SCORE.INTER.VDW>
-13.1109

>  <SCORE.INTER.norm>
-0.616579

>  <SCORE.INTRA>
-0.904025

>  <SCORE.INTRA.DIHEDRAL>
0.411747

>  <SCORE.INTRA.DIHEDRAL.0>
1.88407

>  <SCORE.INTRA.POLAR>
0

>  <SCORE.INTRA.POLAR.0>
0

>  <SCORE.INTRA.REPUL>
0

>  <SCORE.INTRA.REPUL.0>
0

>  <SCORE.INTRA.SOLV>
0.299628

>  <SCORE.INTRA.SOLV.lig_0>
-10.2714

>  <SCORE.INTRA.VDW>
-1.25971

>  <SCORE.INTRA.VDW.0>
0.416923

>  <SCORE.INTRA.norm>
-0.0753354

>  <SCORE.RESTR>
0

>  <SCORE.RESTR.CAVITY>
0

>  <SCORE.RESTR.norm>
0

>  <SCORE.SYSTEM>
0

>  <SCORE.SYSTEM.CONST>
0

>  <SCORE.SYSTEM.DIHEDRAL>
0

>  <SCORE.SYSTEM.SOLV>
0

>  <SCORE.SYSTEM.norm>
0

>  <SCORE.heavy>
12

>  <SCORE.norm>
-0.691915

>  <RMSD>
5.674

$$$$
ligand
 OpenBabel11021811433D
libRbt.so/2013.1/901 2013/11/27
 12 12  0  0  0  0  0  0  0  0999 V2000
   44.4481   12.2731   15.5608 O   0  0  0  0  0  0  0  0  0  0  0  0
   47.2187   13.5832   11.7976 O   0  0  0  0  0  0  0  0  0  0  0  0
   43.8578   10.9502   15.3816 C   0  0  0  0  0  0  0  0  0  0  0  0
   49.3937   12.6018   12.4186 O   0  0  0  0  0  0  0  0  0  0  0  0
   44.3506   10.2885   14.0619 C   0  0  0  0  0  0  0  0  0  0  0  0
   48.2835   12.2634   10.8239 O   0  0  0  0  0  0  0  0  0  0  0  0
   45.3108   11.2197   13.3743 N   0  0  0  0  0  0  0  0  0  0  0  0
   44.6562   12.5353   13.1016 C   0  0  0  0  0  0  0  0  0  0  0  0
   44.1181   13.1347   14.4318 C   0  0  0  0  0  0  0  0  0  0  0  0
   45.8228   10.6440   12.0818 C   0  0  0  0  0  0  0  0  0  0  0  0
   47.3671   10.7192   12.0083 C   0  0  0  0  0  0  0  0  0  0  0  0
   47.9462   12.4172   12.2351 S   0  0  0  0  0  0  0  0  0  0  0  0
  1  3  1  0  0  0  0
  1  9  1  0  0  0  0
  2 12  1  0  0  0  0
  3  5  1  0  0  0  0
  4 12  2  0  0  0  0
  5  7  1  0  0  0  0
  6 12  2  0  0  0  0
  7  8  1  0  0  0  0
  7 10  1  0  0  0  0
  8  9  1  0  0  0  0
 10 11  1  0  0  0  0
 11 12  1  0  0  0  0
M  END
>  <CHROM.1>
-129.80885722,-55.89359012,-32.74867406,46.29091224,11.96754898,13.00697097
-3.09840923,-0.63667459,-2.80619670

>  <Name>
ligand

>  <RI>
0

>  <Rbt.Current_Directory>
/home/itssahil/PROJECTS/Mol_Feturizer/New_Systems/rnas/2HO6

>  <Rbt.Executable>
rbdock ($Id: //depot/dev/client3/rdock/2013.1/src/exe/rbdock.cxx#4 $)

>  <Rbt.Library>
libRbt.so (2013.1, Build901 2013/11/27)

>  <Rbt.Parameter_File>
/export/apps/rDock/src/rDock_2013.1_src/data/scripts/dock_solv.prm

>  <Rbt.Receptor>
prm/pocket_docking_4.prm

>  <SCORE>
-9.1921

>  <SCORE.INTER>
-8.5366

>  <SCORE.INTER.CONST>
1

>  <SCORE.INTER.POLAR>
0

>  <SCORE.INTER.ROT>
3

>  <SCORE.INTER.SOLV>
7.6302

>  <SCORE.INTER.VDW>
-13.8345

>  <SCORE.INTER.norm>
-0.711383

>  <SCORE.INTRA>
-0.655505

>  <SCORE.INTRA.DIHEDRAL>
2.10537

>  <SCORE.INTRA.DIHEDRAL.0>
1.88407

>  <SCORE.INTRA.POLAR>
0

>  <SCORE.INTRA.POLAR.0>
0

>  <SCORE.INTRA.REPUL>
0

>  <SCORE.INTRA.REPUL.0>
0

>  <SCORE.INTRA.SOLV>
0.13717

>  <SCORE.INTRA.SOLV.lig_0>
-10.2714

>  <SCORE.INTRA.VDW>
-1.77678

>  <SCORE.INTRA.VDW.0>
0.416923

>  <SCORE.INTRA.norm>
-0.0546254

>  <SCORE.RESTR>
0

>  <SCORE.RESTR.CAVITY>
0

>  <SCORE.RESTR.norm>
0

>  <SCORE.SYSTEM>
0

>  <SCORE.SYSTEM.CONST>
0

>  <SCORE.SYSTEM.DIHEDRAL>
0

>  <SCORE.SYSTEM.SOLV>
0

>  <SCORE.SYSTEM.norm>
0

>  <SCORE.heavy>
12

>  <SCORE.norm>
-0.766008

>  <RMSD>
5.676

$$$$
ligand
 OpenBabel11021811433D
libRbt.so/2013.1/901 2013/11/27
 12 12  0  0  0  0  0  0  0  0999 V2000
   44.4610   12.2717   15.5586 O   0  0  0  0  0  0  0  0  0  0  0  0
   47.3104   13.5519   11.8550 O   0  0  0  0  0  0  0  0  0  0  0  0
   43.8626   10.9530   15.3753 C   0  0  0  0  0  0  0  0  0  0  0  0
   49.4369   12.4770   12.4891 O   0  0  0  0  0  0  0  0  0  0  0  0
   44.3434   10.2968   14.0485 C   0  0  0  0  0  0  0  0  0  0  0  0
   48.3441   12.2174   10.8678 O   0  0  0  0  0  0  0  0  0  0  0  0
   45.3041   11.2271   13.3603 N   0  0  0  0  0  0  0  0  0  0  0  0
   44.6547   12.5477   13.0997 C   0  0  0  0  0  0  0  0  0  0  0  0
   44.1283   13.1418   14.4370 C   0  0  0  0  0  0  0  0  0  0  0  0
   45.8048   10.6567   12.0610 C   0  0  0  0  0  0  0  0  0  0  0  0
   47.3512   10.6801   11.9983 C   0  0  0  0  0  0  0  0  0  0  0  0
   47.9872   12.3499   12.2763 S   0  0  0  0  0  0  0  0  0  0  0  0
  1  3  1  0  0  0  0
  1  9  1  0  0  0  0
  2 12  1  0  0  0  0
  3  5  1  0  0  0  0
  4 12  2  0  0  0  0
  5  7  1  0  0  0  0
  6 12  2  0  0  0  0
  7  8  1  0  0  0  0
  7 10  1  0  0  0  0
  8  9  1  0  0  0  0
 10 11  1  0  0  0  0
 11 12  1  0  0  0  0
M  END
>  <CHROM.1>
-127.88082701,-55.26913760,-33.46010685,46.31238310,11.94052508,13.02334526
-3.06955206,-0.61713377,-2.77728477

>  <Name>
ligand

>  <RI>
0

>  <Rbt.Current_Directory>
/home/itssahil/PROJECTS/Mol_Feturizer/New_Systems/rnas/2HO6

>  <Rbt.Executable>
rbdock ($Id: //depot/dev/client3/rdock/2013.1/src/exe/rbdock.cxx#4 $)

>  <Rbt.Library>
libRbt.so (2013.1, Build901 2013/11/27)

>  <Rbt.Parameter_File>
/export/apps/rDock/src/rDock_2013.1_src/data/scripts/dock_solv.prm

>  <Rbt.Receptor>
prm/pocket_docking_4.prm

>  <SCORE>
-9.17997

>  <SCORE.INTER>
-8.52193

>  <SCORE.INTER.CONST>
1

>  <SCORE.INTER.POLAR>
0

>  <SCORE.INTER.ROT>
3

>  <SCORE.INTER.SOLV>
7.67112

>  <SCORE.INTER.VDW>
-13.8383

>  <SCORE.INTER.norm>
-0.710161

>  <SCORE.INTRA>
-0.658037

>  <SCORE.INTRA.DIHEDRAL>
2.18707

>  <SCORE.INTRA.DIHEDRAL.0>
1.88407

>  <SCORE.INTRA.POLAR>
0

>  <SCORE.INTRA.POLAR.0>
0

>  <SCORE.INTRA.REPUL>
0

>  <SCORE.INTRA.REPUL.0>
0

>  <SCORE.INTRA.SOLV>
0.139172

>  <SCORE.INTRA.SOLV.lig_0>
-10.2714

>  <SCORE.INTRA.VDW>
-1.82116

>  <SCORE.INTRA.VDW.0>
0.416923

>  <SCORE.INTRA.norm>
-0.0548364

>  <SCORE.RESTR>
0

>  <SCORE.RESTR.CAVITY>
0

>  <SCORE.RESTR.norm>
0

>  <SCORE.SYSTEM>
0

>  <SCORE.SYSTEM.CONST>
0

>  <SCORE.SYSTEM.DIHEDRAL>
0

>  <SCORE.SYSTEM.SOLV>
0

>  <SCORE.SYSTEM.norm>
0

>  <SCORE.heavy>
12

>  <SCORE.norm>
-0.764997

>  <RMSD>
5.676

$$$$
ligand
 OpenBabel11021811433D
libRbt.so/2013.1/901 2013/11/27
 12 12  0  0  0  0  0  0  0  0999 V2000
   44.4733   12.1949   15.5549 O   0  0  0  0  0  0  0  0  0  0  0  0
   47.3657   13.5146   11.9007 O   0  0  0  0  0  0  0  0  0  0  0  0
   43.8593   10.8887   15.3366 C   0  0  0  0  0  0  0  0  0  0  0  0
   49.4920   12.4236   12.5070 O   0  0  0  0  0  0  0  0  0  0  0  0
   44.3518   10.2513   14.0050 C   0  0  0  0  0  0  0  0  0  0  0  0
   48.3883   12.1898   10.8892 O   0  0  0  0  0  0  0  0  0  0  0  0
   45.3363   11.1807   13.3501 N   0  0  0  0  0  0  0  0  0  0  0  0
   44.7098   12.5153   13.1052 C   0  0  0  0  0  0  0  0  0  0  0  0
   44.1707   13.0911   14.4454 C   0  0  0  0  0  0  0  0  0  0  0  0
   45.8494   10.6282   12.0480 C   0  0  0  0  0  0  0  0  0  0  0  0
   47.3966   10.6411   12.0052 C   0  0  0  0  0  0  0  0  0  0  0  0
   48.0406   12.3047   12.3016 S   0  0  0  0  0  0  0  0  0  0  0  0
  1  3  1  0  0  0  0
  1  9  1  0  0  0  0
  2 12  1  0  0  0  0
  3  5  1  0  0  0  0
  4 12  2  0  0  0  0
  5  7  1  0  0  0  0
  6 12  2  0  0  0  0
  7  8  1  0  0  0  0
  7 10  1  0  0  0  0
  8  9  1  0  0  0  0
 10 11  1  0  0  0  0
 11 12  1  0  0  0  0
M  END
>  <CHROM.1>
-128.33962959,-55.87765900,-32.27107173,46.35117434,11.89482830,13.02810492
-3.06718841,-0.60661286,-2.76177485

>  <Name>
ligand

>  <RI>
0

>  <Rbt.Current_Directory>
/home/itssahil/PROJECTS/Mol_Feturizer/New_Systems/rnas/2HO6

>  <Rbt.Executable>
rbdock ($Id: //depot/dev/client3/rdock/2013.1/src/exe/rbdock.cxx#4 $)

>  <Rbt.Library>
libRbt.so (2013.1, Build901 2013/11/27)

>  <Rbt.Parameter_File>
/export/apps/rDock/src/rDock_2013.1_src/data/scripts/dock_solv.prm

>  <Rbt.Receptor>
prm/pocket_docking_3.prm

>  <SCORE>
-9.14295

>  <SCORE.INTER>
-8.48566

>  <SCORE.INTER.CONST>
1

>  <SCORE.INTER.POLAR>
0

>  <SCORE.INTER.ROT>
3

>  <SCORE.INTER.SOLV>
7.74369

>  <SCORE.INTER.VDW>
-13.8383

>  <SCORE.INTER.norm>
-0.707139

>  <SCORE.INTRA>
-0.65729

>  <SCORE.INTRA.DIHEDRAL>
2.15352

>  <SCORE.INTRA.DIHEDRAL.0>
1.88407

>  <SCORE.INTRA.POLAR>
0

>  <SCORE.INTRA.POLAR.0>
0

>  <SCORE.INTRA.REPUL>
0

>  <SCORE.INTRA.REPUL.0>
0

>  <SCORE.INTRA.SOLV>
0.13956

>  <SCORE.INTRA.SOLV.lig_0>
-10.2714

>  <SCORE.INTRA.VDW>
-1.80383

>  <SCORE.INTRA.VDW.0>
0.416923

>  <SCORE.INTRA.norm>
-0.0547742

>  <SCORE.RESTR>
0

>  <SCORE.RESTR.CAVITY>
0

>  <SCORE.RESTR.norm>
0

>  <SCORE.SYSTEM>
0

>  <SCORE.SYSTEM.CONST>
0

>  <SCORE.SYSTEM.DIHEDRAL>
0

>  <SCORE.SYSTEM.SOLV>
0

>  <SCORE.SYSTEM.norm>
0

>  <SCORE.heavy>
12

>  <SCORE.norm>
-0.761913

>  <RMSD>
5.677

$$$$
ligand
 OpenBabel11021811433D
libRbt.so/2013.1/901 2013/11/27
 12 12  0  0  0  0  0  0  0  0999 V2000
   44.4556   12.2763   15.5553 O   0  0  0  0  0  0  0  0  0  0  0  0
   47.3482   13.5519   11.8475 O   0  0  0  0  0  0  0  0  0  0  0  0
   43.8512   10.9615   15.3632 C   0  0  0  0  0  0  0  0  0  0  0  0
   49.4473   12.4507   12.5261 O   0  0  0  0  0  0  0  0  0  0  0  0
   44.3325   10.3101   14.0342 C   0  0  0  0  0  0  0  0  0  0  0  0
   48.3834   12.2012   10.8842 O   0  0  0  0  0  0  0  0  0  0  0  0
   45.2996   11.2394   13.3537 N   0  0  0  0  0  0  0  0  0  0  0  0
   44.6575   12.5645   13.0985 C   0  0  0  0  0  0  0  0  0  0  0  0
   44.1303   13.1540   14.4374 C   0  0  0  0  0  0  0  0  0  0  0  0
   45.8011   10.6734   12.0528 C   0  0  0  0  0  0  0  0  0  0  0  0
   47.3480   10.6802   11.9986 C   0  0  0  0  0  0  0  0  0  0  0  0
   48.0006   12.3423   12.2850 S   0  0  0  0  0  0  0  0  0  0  0  0
  1  3  1  0  0  0  0
  1  9  1  0  0  0  0
  2 12  1  0  0  0  0
  3  5  1  0  0  0  0
  4 12  2  0  0  0  0
  5  7  1  0  0  0  0
  6 12  2  0  0  0  0
  7  8  1  0  0  0  0
  7 10  1  0  0  0  0
  8  9  1  0  0  0  0
 10 11  1  0  0  0  0
 11 12  1  0  0  0  0
M  END
>  <CHROM.1>
-127.47499896,-55.54576393,-34.34516478,46.31926201,11.94189929,13.02525781
-3.06177284,-0.60922154,-2.76833322

>  <Name>
ligand

>  <RI>
0

>  <Rbt.Current_Directory>
/home/itssahil/PROJECTS/Mol_Feturizer/New_Systems/rnas/2HO6

>  <Rbt.Executable>
rbdock ($Id: //depot/dev/client3/rdock/2013.1/src/exe/rbdock.cxx#4 $)

>  <Rbt.Library>
libRbt.so (2013.1, Build901 2013/11/27)

>  <Rbt.Parameter_File>
/export/apps/rDock/src/rDock_2013.1_src/data/scripts/dock_solv.prm

>  <Rbt.Receptor>
prm/pocket_docking_4.prm

>  <SCORE>
-9.17658

>  <SCORE.INTER>
-8.50195

>  <SCORE.INTER.CONST>
1

>  <SCORE.INTER.POLAR>
0

>  <SCORE.INTER.ROT>
3

>  <SCORE.INTER.SOLV>
7.67901

>  <SCORE.INTER.VDW>
-13.8276

>  <SCORE.INTER.norm>
-0.708496

>  <SCORE.INTRA>
-0.674625

>  <SCORE.INTRA.DIHEDRAL>
2.18907

>  <SCORE.INTRA.DIHEDRAL.0>
1.88407

>  <SCORE.INTRA.POLAR>
0

>  <SCORE.INTRA.POLAR.0>
0

>  <SCORE.INTRA.REPUL>
0

>  <SCORE.INTRA.REPUL.0>
0

>  <SCORE.INTRA.SOLV>
0.136245

>  <SCORE.INTRA.SOLV.lig_0>
-10.2714

>  <SCORE.INTRA.VDW>
-1.83728

>  <SCORE.INTRA.VDW.0>
0.416923

>  <SCORE.INTRA.norm>
-0.0562187

>  <SCORE.RESTR>
0

>  <SCORE.RESTR.CAVITY>
0

>  <SCORE.RESTR.norm>
0

>  <SCORE.SYSTEM>
0

>  <SCORE.SYSTEM.CONST>
0

>  <SCORE.SYSTEM.DIHEDRAL>
0

>  <SCORE.SYSTEM.SOLV>
0

>  <SCORE.SYSTEM.norm>
0

>  <SCORE.heavy>
12

>  <SCORE.norm>
-0.764715

>  <RMSD>
5.678

$$$$
ligand
 OpenBabel11021811433D
libRbt.so/2013.1/901 2013/11/27
 12 12  0  0  0  0  0  0  0  0999 V2000
   44.4166   12.2571   15.5771 O   0  0  0  0  0  0  0  0  0  0  0  0
   47.0855   13.6833   11.8358 O   0  0  0  0  0  0  0  0  0  0  0  0
   43.8419   10.9299   15.3798 C   0  0  0  0  0  0  0  0  0  0  0  0
   49.3141   12.8190   12.4405 O   0  0  0  0  0  0  0  0  0  0  0  0
   44.3599   10.2830   14.0625 C   0  0  0  0  0  0  0  0  0  0  0  0
   48.2180   12.4329   10.8469 O   0  0  0  0  0  0  0  0  0  0  0  0
   45.3205   11.2287   13.3955 N   0  0  0  0  0  0  0  0  0  0  0  0
   44.6570   12.5398   13.1232 C   0  0  0  0  0  0  0  0  0  0  0  0
   44.0942   13.1239   14.4499 C   0  0  0  0  0  0  0  0  0  0  0  0
   45.8565   10.6677   12.1062 C   0  0  0  0  0  0  0  0  0  0  0  0
   47.3934   10.8302   12.0210 C   0  0  0  0  0  0  0  0  0  0  0  0
   47.8784   12.5558   12.2605 S   0  0  0  0  0  0  0  0  0  0  0  0
  1  3  1  0  0  0  0
  1  9  1  0  0  0  0
  2 12  1  0  0  0  0
  3  5  1  0  0  0  0
  4 12  2  0  0  0  0
  5  7  1  0  0  0  0
  6 12  2  0  0  0  0
  7  8  1  0  0  0  0
  7 10  1  0  0  0  0
  8  9  1  0  0  0  0
 10 11  1  0  0  0  0
 11 12  1  0  0  0  0
M  END
>  <CHROM.1>
-132.98046071,-54.63652631,-33.02535218,46.25707459,12.03727234,13.02635432
-3.14066292,-0.65161427,-2.81865692

>  <Name>
ligand

>  <RI>
0

>  <Rbt.Current_Directory>
/home/itssahil/PROJECTS/Mol_Feturizer/New_Systems/rnas/2HO6

>  <Rbt.Executable>
rbdock ($Id: //depot/dev/client3/rdock/2013.1/src/exe/rbdock.cxx#4 $)

>  <Rbt.Library>
libRbt.so (2013.1, Build901 2013/11/27)

>  <Rbt.Parameter_File>
/export/apps/rDock/src/rDock_2013.1_src/data/scripts/dock_solv.prm

>  <Rbt.Receptor>
prm/pocket_docking_4.prm

>  <SCORE>
-9.21603

>  <SCORE.INTER>
-8.63894

>  <SCORE.INTER.CONST>
1

>  <SCORE.INTER.POLAR>
0

>  <SCORE.INTER.ROT>
3

>  <SCORE.INTER.SOLV>
7.66877

>  <SCORE.INTER.VDW>
-13.9156

>  <SCORE.INTER.norm>
-0.719912

>  <SCORE.INTRA>
-0.57709

>  <SCORE.INTRA.DIHEDRAL>
2.02753

>  <SCORE.INTRA.DIHEDRAL.0>
1.88407

>  <SCORE.INTRA.POLAR>
0

>  <SCORE.INTRA.POLAR.0>
0

>  <SCORE.INTRA.REPUL>
0

>  <SCORE.INTRA.REPUL.0>
0

>  <SCORE.INTRA.SOLV>
0.139104

>  <SCORE.INTRA.SOLV.lig_0>
-10.2714

>  <SCORE.INTRA.VDW>
-1.66041

>  <SCORE.INTRA.VDW.0>
0.416923

>  <SCORE.INTRA.norm>
-0.0480908

>  <SCORE.RESTR>
0

>  <SCORE.RESTR.CAVITY>
0

>  <SCORE.RESTR.norm>
0

>  <SCORE.SYSTEM>
0

>  <SCORE.SYSTEM.CONST>
0

>  <SCORE.SYSTEM.DIHEDRAL>
0

>  <SCORE.SYSTEM.SOLV>
0

>  <SCORE.SYSTEM.norm>
0

>  <SCORE.heavy>
12

>  <SCORE.norm>
-0.768002

>  <RMSD>
5.680

$$$$
ligand
 OpenBabel11021811433D
libRbt.so/2013.1/901 2013/11/27
 12 12  0  0  0  0  0  0  0  0999 V2000
   44.4445   12.2054   15.5959 O   0  0  0  0  0  0  0  0  0  0  0  0
   47.1492   13.6575   11.8127 O   0  0  0  0  0  0  0  0  0  0  0  0
   43.8690   10.8808   15.3838 C   0  0  0  0  0  0  0  0  0  0  0  0
   49.3543   12.7725   12.4711 O   0  0  0  0  0  0  0  0  0  0  0  0
   44.3854   10.2489   14.0587 C   0  0  0  0  0  0  0  0  0  0  0  0
   48.2872   12.3856   10.8582 O   0  0  0  0  0  0  0  0  0  0  0  0
   45.3460   11.2017   13.4018 N   0  0  0  0  0  0  0  0  0  0  0  0
   44.6828   12.5163   13.1452 C   0  0  0  0  0  0  0  0  0  0  0  0
   44.1215   13.0853   14.4791 C   0  0  0  0  0  0  0  0  0  0  0  0
   45.8805   10.6555   12.1056 C   0  0  0  0  0  0  0  0  0  0  0  0
   47.4193   10.8028   12.0282 C   0  0  0  0  0  0  0  0  0  0  0  0
   47.9196   12.5246   12.2633 S   0  0  0  0  0  0  0  0  0  0  0  0
  1  3  1  0  0  0  0
  1  9  1  0  0  0  0
  2 12  1  0  0  0  0
  3  5  1  0  0  0  0
  4 12  2  0  0  0  0
  5  7  1  0  0  0  0
  6 12  2  0  0  0  0
  7  8  1  0  0  0  0
  7 10  1  0  0  0  0
  8  9  1  0  0  0  0
 10 11  1  0  0  0  0
 11 12  1  0  0  0  0
M  END
>  <CHROM.1>
-132.30029994,-55.78043552,-33.95316990,46.29351020,12.00270192,13.03454444
-3.13628780,-0.65033175,-2.81027235

>  <Name>
ligand

>  <RI>
0

>  <Rbt.Current_Directory>
/home/itssahil/PROJECTS/Mol_Feturizer/New_Systems/rnas/2HO6

>  <Rbt.Executable>
rbdock ($Id: //depot/dev/client3/rdock/2013.1/src/exe/rbdock.cxx#4 $)

>  <Rbt.Library>
libRbt.so (2013.1, Build901 2013/11/27)

>  <Rbt.Parameter_File>
/export/apps/rDock/src/rDock_2013.1_src/data/scripts/dock_solv.prm

>  <Rbt.Receptor>
prm/pocket_docking_3.prm

>  <SCORE>
-9.22374

>  <SCORE.INTER>
-8.57523

>  <SCORE.INTER.CONST>
1

>  <SCORE.INTER.POLAR>
0

>  <SCORE.INTER.ROT>
3

>  <SCORE.INTER.SOLV>
7.73042

>  <SCORE.INTER.VDW>
-13.8936

>  <SCORE.INTER.norm>
-0.714603

>  <SCORE.INTRA>
-0.648508

>  <SCORE.INTRA.DIHEDRAL>
2.01484

>  <SCORE.INTRA.DIHEDRAL.0>
1.88407

>  <SCORE.INTRA.POLAR>
0

>  <SCORE.INTRA.POLAR.0>
0

>  <SCORE.INTRA.REPUL>
0

>  <SCORE.INTRA.REPUL.0>
0

>  <SCORE.INTRA.SOLV>
0.132949

>  <SCORE.INTRA.SOLV.lig_0>
-10.2714

>  <SCORE.INTRA.VDW>
-1.7224

>  <SCORE.INTRA.VDW.0>
0.416923

>  <SCORE.INTRA.norm>
-0.0540423

>  <SCORE.RESTR>
0

>  <SCORE.RESTR.CAVITY>
0

>  <SCORE.RESTR.norm>
0

>  <SCORE.SYSTEM>
0

>  <SCORE.SYSTEM.CONST>
0

>  <SCORE.SYSTEM.DIHEDRAL>
0

>  <SCORE.SYSTEM.SOLV>
0

>  <SCORE.SYSTEM.norm>
0

>  <SCORE.heavy>
12

>  <SCORE.norm>
-0.768645

>  <RMSD>
5.681

$$$$
ligand
 OpenBabel11021811433D
libRbt.so/2013.1/901 2013/11/27
 12 12  0  0  0  0  0  0  0  0999 V2000
   44.4602   12.2152   15.5781 O   0  0  0  0  0  0  0  0  0  0  0  0
   47.2200   13.5728   11.8219 O   0  0  0  0  0  0  0  0  0  0  0  0
   43.8791   10.8891   15.3928 C   0  0  0  0  0  0  0  0  0  0  0  0
   49.3861   12.5902   12.4717 O   0  0  0  0  0  0  0  0  0  0  0  0
   44.3703   10.2402   14.0663 C   0  0  0  0  0  0  0  0  0  0  0  0
   48.3069   12.2677   10.8526 O   0  0  0  0  0  0  0  0  0  0  0  0
   45.3200   11.1833   13.3803 N   0  0  0  0  0  0  0  0  0  0  0  0
   44.6541   12.4956   13.1197 C   0  0  0  0  0  0  0  0  0  0  0  0
   44.1181   13.0818   14.4566 C   0  0  0  0  0  0  0  0  0  0  0  0
   45.8299   10.6203   12.0813 C   0  0  0  0  0  0  0  0  0  0  0  0
   47.3733   10.7068   12.0011 C   0  0  0  0  0  0  0  0  0  0  0  0
   47.9428   12.4037   12.2589 S   0  0  0  0  0  0  0  0  0  0  0  0
  1  3  1  0  0  0  0
  1  9  1  0  0  0  0
  2 12  1  0  0  0  0
  3  5  1  0  0  0  0
  4 12  2  0  0  0  0
  5  7  1  0  0  0  0
  6 12  2  0  0  0  0
  7  8  1  0  0  0  0
  7 10  1  0  0  0  0
  8  9  1  0  0  0  0
 10 11  1  0  0  0  0
 11 12  1  0  0  0  0
M  END
>  <CHROM.1>
-129.77041955,-55.14424907,-34.21701144,46.29719227,11.93927447,13.02517767
-3.10122078,-0.63802314,-2.79497251

>  <Name>
ligand

>  <RI>
0

>  <Rbt.Current_Directory>
/home/itssahil/PROJECTS/Mol_Feturizer/New_Systems/rnas/2HO6

>  <Rbt.Executable>
rbdock ($Id: //depot/dev/client3/rdock/2013.1/src/exe/rbdock.cxx#4 $)

>  <Rbt.Library>
libRbt.so (2013.1, Build901 2013/11/27)

>  <Rbt.Parameter_File>
/export/apps/rDock/src/rDock_2013.1_src/data/scripts/dock_solv.prm

>  <Rbt.Receptor>
prm/pocket_docking_3.prm

>  <SCORE>
-9.17704

>  <SCORE.INTER>
-8.52247

>  <SCORE.INTER.CONST>
1

>  <SCORE.INTER.POLAR>
0

>  <SCORE.INTER.ROT>
3

>  <SCORE.INTER.SOLV>
7.73513

>  <SCORE.INTER.VDW>
-13.86

>  <SCORE.INTER.norm>
-0.710206

>  <SCORE.INTRA>
-0.654569

>  <SCORE.INTRA.DIHEDRAL>
2.13177

>  <SCORE.INTRA.DIHEDRAL.0>
1.88407

>  <SCORE.INTRA.POLAR>
0

>  <SCORE.INTRA.POLAR.0>
0

>  <SCORE.INTRA.REPUL>
0

>  <SCORE.INTRA.REPUL.0>
0

>  <SCORE.INTRA.SOLV>
0.136394

>  <SCORE.INTRA.SOLV.lig_0>
-10.2714

>  <SCORE.INTRA.VDW>
-1.78865

>  <SCORE.INTRA.VDW.0>
0.416923

>  <SCORE.INTRA.norm>
-0.0545474

>  <SCORE.RESTR>
0

>  <SCORE.RESTR.CAVITY>
0

>  <SCORE.RESTR.norm>
0

>  <SCORE.SYSTEM>
0

>  <SCORE.SYSTEM.CONST>
0

>  <SCORE.SYSTEM.DIHEDRAL>
0

>  <SCORE.SYSTEM.SOLV>
0

>  <SCORE.SYSTEM.norm>
0

>  <SCORE.heavy>
12

>  <SCORE.norm>
-0.764753

>  <RMSD>
5.682

$$$$
ligand
 OpenBabel11021811433D
libRbt.so/2013.1/901 2013/11/27
 12 12  0  0  0  0  0  0  0  0999 V2000
   44.4267   12.2220   15.5687 O   0  0  0  0  0  0  0  0  0  0  0  0
   47.1756   13.6632   11.8203 O   0  0  0  0  0  0  0  0  0  0  0  0
   43.8458   10.9007   15.3509 C   0  0  0  0  0  0  0  0  0  0  0  0
   49.3657   12.7303   12.4625 O   0  0  0  0  0  0  0  0  0  0  0  0
   44.3581   10.2733   14.0220 C   0  0  0  0  0  0  0  0  0  0  0  0
   48.2879   12.3821   10.8479 O   0  0  0  0  0  0  0  0  0  0  0  0
   45.3215   11.2255   13.3685 N   0  0  0  0  0  0  0  0  0  0  0  0
   44.6631   12.5438   13.1191 C   0  0  0  0  0  0  0  0  0  0  0  0
   44.1057   13.1085   14.4565 C   0  0  0  0  0  0  0  0  0  0  0  0
   45.8523   10.6834   12.0690 C   0  0  0  0  0  0  0  0  0  0  0  0
   47.3941   10.8016   12.0012 C   0  0  0  0  0  0  0  0  0  0  0  0
   47.9263   12.5111   12.2555 S   0  0  0  0  0  0  0  0  0  0  0  0
  1  3  1  0  0  0  0
  1  9  1  0  0  0  0
  2 12  1  0  0  0  0
  3  5  1  0  0  0  0
  4 12  2  0  0  0  0
  5  7  1  0  0  0  0
  6 12  2  0  0  0  0
  7  8  1  0  0  0  0
  7 10  1  0  0  0  0
  8  9  1  0  0  0  0
 10 11  1  0  0  0  0
 11 12  1  0  0  0  0
M  END
>  <CHROM.1>
-131.26629425,-55.87934778,-33.47599140,46.28449120,12.00905724,13.01456574
-3.12237899,-0.64084136,-2.79716843

>  <Name>
ligand

>  <RI>
0

>  <Rbt.Current_Directory>
/home/itssahil/PROJECTS/Mol_Feturizer/New_Systems/rnas/2HO6

>  <Rbt.Executable>
rbdock ($Id: //depot/dev/client3/rdock/2013.1/src/exe/rbdock.cxx#4 $)

>  <Rbt.Library>
libRbt.so (2013.1, Build901 2013/11/27)

>  <Rbt.Parameter_File>
/export/apps/rDock/src/rDock_2013.1_src/data/scripts/dock_solv.prm

>  <Rbt.Receptor>
prm/pocket_docking_3.prm

>  <SCORE>
-9.19474

>  <SCORE.INTER>
-8.54042

>  <SCORE.INTER.CONST>
1

>  <SCORE.INTER.POLAR>
0

>  <SCORE.INTER.ROT>
3

>  <SCORE.INTER.SOLV>
7.66518

>  <SCORE.INTER.VDW>
-13.8487

>  <SCORE.INTER.norm>
-0.711701

>  <SCORE.INTRA>
-0.654325

>  <SCORE.INTRA.DIHEDRAL>
2.05272

>  <SCORE.INTRA.DIHEDRAL.0>
1.88407

>  <SCORE.INTRA.POLAR>
0

>  <SCORE.INTRA.POLAR.0>
0

>  <SCORE.INTRA.REPUL>
0

>  <SCORE.INTRA.REPUL.0>
0

>  <SCORE.INTRA.SOLV>
0.134396

>  <SCORE.INTRA.SOLV.lig_0>
-10.2714

>  <SCORE.INTRA.VDW>
-1.74788

>  <SCORE.INTRA.VDW.0>
0.416923

>  <SCORE.INTRA.norm>
-0.0545271

>  <SCORE.RESTR>
0

>  <SCORE.RESTR.CAVITY>
0

>  <SCORE.RESTR.norm>
0

>  <SCORE.SYSTEM>
0

>  <SCORE.SYSTEM.CONST>
0

>  <SCORE.SYSTEM.DIHEDRAL>
0

>  <SCORE.SYSTEM.SOLV>
0

>  <SCORE.SYSTEM.norm>
0

>  <SCORE.heavy>
12

>  <SCORE.norm>
-0.766228

>  <RMSD>
5.683

$$$$
ligand
 OpenBabel11021811433D
libRbt.so/2013.1/901 2013/11/27
 12 12  0  0  0  0  0  0  0  0999 V2000
   44.4228   12.1999   15.5970 O   0  0  0  0  0  0  0  0  0  0  0  0
   47.0996   13.6759   11.8321 O   0  0  0  0  0  0  0  0  0  0  0  0
   43.8595   10.8704   15.3824 C   0  0  0  0  0  0  0  0  0  0  0  0
   49.3385   12.8535   12.4568 O   0  0  0  0  0  0  0  0  0  0  0  0
   44.3971   10.2378   14.0660 C   0  0  0  0  0  0  0  0  0  0  0  0
   48.2539   12.4282   10.8653 O   0  0  0  0  0  0  0  0  0  0  0  0
   45.3588   11.1953   13.4178 N   0  0  0  0  0  0  0  0  0  0  0  0
   44.6895   12.5041   13.1484 C   0  0  0  0  0  0  0  0  0  0  0  0
   44.1074   13.0736   14.4732 C   0  0  0  0  0  0  0  0  0  0  0  0
   45.9134   10.6485   12.1303 C   0  0  0  0  0  0  0  0  0  0  0  0
   47.4489   10.8307   12.0600 C   0  0  0  0  0  0  0  0  0  0  0  0
   47.9075   12.5666   12.2759 S   0  0  0  0  0  0  0  0  0  0  0  0
  1  3  1  0  0  0  0
  1  9  1  0  0  0  0
  2 12  1  0  0  0  0
  3  5  1  0  0  0  0
  4 12  2  0  0  0  0
  5  7  1  0  0  0  0
  6 12  2  0  0  0  0
  7  8  1  0  0  0  0
  7 10  1  0  0  0  0
  8  9  1  0  0  0  0
 10 11  1  0  0  0  0
 11 12  1  0  0  0  0
M  END
>  <CHROM.1>
-133.36378246,-55.93439366,-32.53486990,46.28668148,12.01865730,13.04318556
3.12161314,-0.65345321,-2.83244598

>  <Name>
ligand

>  <RI>
0

>  <Rbt.Current_Directory>
/home/itssahil/PROJECTS/Mol_Feturizer/New_Systems/rnas/2HO6

>  <Rbt.Executable>
rbdock ($Id: //depot/dev/client3/rdock/2013.1/src/exe/rbdock.cxx#4 $)

>  <Rbt.Library>
libRbt.so (2013.1, Build901 2013/11/27)

>  <Rbt.Parameter_File>
/export/apps/rDock/src/rDock_2013.1_src/data/scripts/dock_solv.prm

>  <Rbt.Receptor>
prm/pocket_docking_4.prm

>  <SCORE>
-9.18209

>  <SCORE.INTER>
-8.57054

>  <SCORE.INTER.CONST>
1

>  <SCORE.INTER.POLAR>
0

>  <SCORE.INTER.ROT>
3

>  <SCORE.INTER.SOLV>
7.74622

>  <SCORE.INTER.VDW>
-13.8958

>  <SCORE.INTER.norm>
-0.714212

>  <SCORE.INTRA>
-0.611553

>  <SCORE.INTRA.DIHEDRAL>
1.96531

>  <SCORE.INTRA.DIHEDRAL.0>
1.88407

>  <SCORE.INTRA.POLAR>
0

>  <SCORE.INTRA.POLAR.0>
0

>  <SCORE.INTRA.REPUL>
0

>  <SCORE.INTRA.REPUL.0>
0

>  <SCORE.INTRA.SOLV>
0.135211

>  <SCORE.INTRA.SOLV.lig_0>
-10.2714

>  <SCORE.INTRA.VDW>
-1.66182

>  <SCORE.INTRA.VDW.0>
0.416923

>  <SCORE.INTRA.norm>
-0.0509628

>  <SCORE.RESTR>
0

>  <SCORE.RESTR.CAVITY>
0

>  <SCORE.RESTR.norm>
0

>  <SCORE.SYSTEM>
0

>  <SCORE.SYSTEM.CONST>
0

>  <SCORE.SYSTEM.DIHEDRAL>
0

>  <SCORE.SYSTEM.SOLV>
0

>  <SCORE.SYSTEM.norm>
0

>  <SCORE.heavy>
12

>  <SCORE.norm>
-0.765174

>  <RMSD>
5.683

$$$$
ligand
 OpenBabel11021811433D
libRbt.so/2013.1/901 2013/11/27
 12 12  0  0  0  0  0  0  0  0999 V2000
   44.4327   12.2470   15.5646 O   0  0  0  0  0  0  0  0  0  0  0  0
   47.1973   13.6127   11.8438 O   0  0  0  0  0  0  0  0  0  0  0  0
   43.8413   10.9276   15.3644 C   0  0  0  0  0  0  0  0  0  0  0  0
   49.3861   12.6335   12.4182 O   0  0  0  0  0  0  0  0  0  0  0  0
   44.3393   10.2836   14.0380 C   0  0  0  0  0  0  0  0  0  0  0  0
   48.2568   12.3171   10.8324 O   0  0  0  0  0  0  0  0  0  0  0  0
   45.3039   11.2228   13.3677 N   0  0  0  0  0  0  0  0  0  0  0  0
   44.6524   12.5430   13.1103 C   0  0  0  0  0  0  0  0  0  0  0  0
   44.1090   13.1246   14.4462 C   0  0  0  0  0  0  0  0  0  0  0  0
   45.8210   10.6644   12.0697 C   0  0  0  0  0  0  0  0  0  0  0  0
   47.3652   10.7463   12.0006 C   0  0  0  0  0  0  0  0  0  0  0  0
   47.9374   12.4434   12.2505 S   0  0  0  0  0  0  0  0  0  0  0  0
  1  3  1  0  0  0  0
  1  9  1  0  0  0  0
  2 12  1  0  0  0  0
  3  5  1  0  0  0  0
  4 12  2  0  0  0  0
  5  7  1  0  0  0  0
  6 12  2  0  0  0  0
  7  8  1  0  0  0  0
  7 10  1  0  0  0  0
  8  9  1  0  0  0  0
 10 11  1  0  0  0  0
 11 12  1  0  0  0  0
M  END
>  <CHROM.1>
-130.15780545,-55.83525185,-31.80397610,46.27989738,11.98069001,13.01109869
-3.10237893,-0.63606473,-2.79526590

>  <Name>
ligand

>  <RI>
0

>  <Rbt.Current_Directory>
/home/itssahil/PROJECTS/Mol_Feturizer/New_Systems/rnas/2HO6

>  <Rbt.Executable>
rbdock ($Id: //depot/dev/client3/rdock/2013.1/src/exe/rbdock.cxx#4 $)

>  <Rbt.Library>
libRbt.so (2013.1, Build901 2013/11/27)

>  <Rbt.Parameter_File>
/export/apps/rDock/src/rDock_2013.1_src/data/scripts/dock_solv.prm

>  <Rbt.Receptor>
prm/pocket_docking_4.prm

>  <SCORE>
-9.14265

>  <SCORE.INTER>
-8.50603

>  <SCORE.INTER.CONST>
1

>  <SCORE.INTER.POLAR>
0

>  <SCORE.INTER.ROT>
3

>  <SCORE.INTER.SOLV>
7.63196

>  <SCORE.INTER.VDW>
-13.8147

>  <SCORE.INTER.norm>
-0.708836

>  <SCORE.INTRA>
-0.636625

>  <SCORE.INTRA.DIHEDRAL>
2.09532

>  <SCORE.INTRA.DIHEDRAL.0>
1.88407

>  <SCORE.INTRA.POLAR>
0

>  <SCORE.INTRA.POLAR.0>
0

>  <SCORE.INTRA.REPUL>
0

>  <SCORE.INTRA.REPUL.0>
0

>  <SCORE.INTRA.SOLV>
0.139649

>  <SCORE.INTRA.SOLV.lig_0>
-10.2714

>  <SCORE.INTRA.VDW>
-1.75411

>  <SCORE.INTRA.VDW.0>
0.416923

>  <SCORE.INTRA.norm>
-0.0530521

>  <SCORE.RESTR>
0

>  <SCORE.RESTR.CAVITY>
0

>  <SCORE.RESTR.norm>
0

>  <SCORE.SYSTEM>
0

>  <SCORE.SYSTEM.CONST>
0

>  <SCORE.SYSTEM.DIHEDRAL>
0

>  <SCORE.SYSTEM.SOLV>
0

>  <SCORE.SYSTEM.norm>
0

>  <SCORE.heavy>
12

>  <SCORE.norm>
-0.761888

>  <RMSD>
5.683

$$$$
ligand
 OpenBabel11021811433D
libRbt.so/2013.1/901 2013/11/27
 12 12  0  0  0  0  0  0  0  0999 V2000
   44.4485   12.2324   15.5710 O   0  0  0  0  0  0  0  0  0  0  0  0
   47.2477   13.5781   11.8104 O   0  0  0  0  0  0  0  0  0  0  0  0
   43.8546   10.9135   15.3745 C   0  0  0  0  0  0  0  0  0  0  0  0
   49.3983   12.5695   12.4715 O   0  0  0  0  0  0  0  0  0  0  0  0
   44.3452   10.2681   14.0460 C   0  0  0  0  0  0  0  0  0  0  0  0
   48.3208   12.2555   10.8496 O   0  0  0  0  0  0  0  0  0  0  0  0
   45.3077   11.2058   13.3705 N   0  0  0  0  0  0  0  0  0  0  0  0
   44.6565   12.5266   13.1154 C   0  0  0  0  0  0  0  0  0  0  0  0
   44.1205   13.1097   14.4537 C   0  0  0  0  0  0  0  0  0  0  0  0
   45.8177   10.6459   12.0702 C   0  0  0  0  0  0  0  0  0  0  0  0
   47.3626   10.7111   12.0003 C   0  0  0  0  0  0  0  0  0  0  0  0
   47.9535   12.4012   12.2542 S   0  0  0  0  0  0  0  0  0  0  0  0
  1  3  1  0  0  0  0
  1  9  1  0  0  0  0
  2 12  1  0  0  0  0
  3  5  1  0  0  0  0
  4 12  2  0  0  0  0
  5  7  1  0  0  0  0
  6 12  2  0  0  0  0
  7  8  1  0  0  0  0
  7 10  1  0  0  0  0
  8  9  1  0  0  0  0
 10 11  1  0  0  0  0
 11 12  1  0  0  0  0
M  END
>  <CHROM.1>
-129.51143685,-55.86941823,-34.01649894,46.29665273,11.94981398,13.01772810
-3.09131457,-0.63164344,-2.78734379

>  <Name>
ligand

>  <RI>
0

>  <Rbt.Current_Directory>
/home/itssahil/PROJECTS/Mol_Feturizer/New_Systems/rnas/2HO6

>  <Rbt.Executable>
rbdock ($Id: //depot/dev/client3/rdock/2013.1/src/exe/rbdock.cxx#4 $)

>  <Rbt.Library>
libRbt.so (2013.1, Build901 2013/11/27)

>  <Rbt.Parameter_File>
/export/apps/rDock/src/rDock_2013.1_src/data/scripts/dock_solv.prm

>  <Rbt.Receptor>
prm/pocket_docking_3.prm

>  <SCORE>
-9.1784

>  <SCORE.INTER>
-8.50535

>  <SCORE.INTER.CONST>
1

>  <SCORE.INTER.POLAR>
0

>  <SCORE.INTER.ROT>
3

>  <SCORE.INTER.SOLV>
7.69676

>  <SCORE.INTER.VDW>
-13.8358

>  <SCORE.INTER.norm>
-0.708779

>  <SCORE.INTRA>
-0.673044

>  <SCORE.INTRA.DIHEDRAL>
2.11612

>  <SCORE.INTRA.DIHEDRAL.0>
1.88407

>  <SCORE.INTRA.POLAR>
0

>  <SCORE.INTRA.POLAR.0>
0

>  <SCORE.INTRA.REPUL>
0

>  <SCORE.INTRA.REPUL.0>
0

>  <SCORE.INTRA.SOLV>
0.134319

>  <SCORE.INTRA.SOLV.lig_0>
-10.2714

>  <SCORE.INTRA.VDW>
-1.79826

>  <SCORE.INTRA.VDW.0>
0.416923

>  <SCORE.INTRA.norm>
-0.056087

>  <SCORE.RESTR>
0

>  <SCORE.RESTR.CAVITY>
0

>  <SCORE.RESTR.norm>
0

>  <SCORE.SYSTEM>
0

>  <SCORE.SYSTEM.CONST>
0

>  <SCORE.SYSTEM.DIHEDRAL>
0

>  <SCORE.SYSTEM.SOLV>
0

>  <SCORE.SYSTEM.norm>
0

>  <SCORE.heavy>
12

>  <SCORE.norm>
-0.764866

>  <RMSD>
5.684

$$$$
ligand
 OpenBabel11021811433D
libRbt.so/2013.1/901 2013/11/27
 12 12  0  0  0  0  0  0  0  0999 V2000
   45.1758   10.4862   13.9638 O   0  0  0  0  0  0  0  0  0  0  0  0
   51.1452   14.4405   11.1118 O   0  0  0  0  0  0  0  0  0  0  0  0
   44.8467   10.0657   12.6053 C   0  0  0  0  0  0  0  0  0  0  0  0
   48.9984   14.9978   10.0348 O   0  0  0  0  0  0  0  0  0  0  0  0
   45.7076   10.8280   11.5566 C   0  0  0  0  0  0  0  0  0  0  0  0
   49.4857   15.0531   11.9452 O   0  0  0  0  0  0  0  0  0  0  0  0
   46.6402   11.7648   12.2740 N   0  0  0  0  0  0  0  0  0  0  0  0
   45.8672   12.7180   13.1269 C   0  0  0  0  0  0  0  0  0  0  0  0
   44.9699   11.9215   14.1161 C   0  0  0  0  0  0  0  0  0  0  0  0
   47.5006   12.5433   11.3160 C   0  0  0  0  0  0  0  0  0  0  0  0
   48.8111   13.0111   11.9939 C   0  0  0  0  0  0  0  0  0  0  0  0
   49.7654   14.0821   10.8928 S   0  0  0  0  0  0  0  0  0  0  0  0
  1  3  1  0  0  0  0
  1  9  1  0  0  0  0
  2 12  1  0  0  0  0
  3  5  1  0  0  0  0
  4 12  2  0  0  0  0
  5  7  1  0  0  0  0
  6 12  2  0  0  0  0
  7  8  1  0  0  0  0
  7 10  1  0  0  0  0
  8  9  1  0  0  0  0
 10 11  1  0  0  0  0
 11 12  1  0  0  0  0
M  END
>  <CHROM.1>
-155.52047955,-174.40041958,-166.02974228,47.68079014,12.83561931,11.95527042
3.13823915,-0.72165063,-2.12718062

>  <Name>
ligand

>  <RI>
0

>  <Rbt.Current_Directory>
/home/itssahil/PROJECTS/Mol_Feturizer/New_Systems/rnas/2HO6

>  <Rbt.Executable>
rbdock ($Id: //depot/dev/client3/rdock/2013.1/src/exe/rbdock.cxx#4 $)

>  <Rbt.Library>
libRbt.so (2013.1, Build901 2013/11/27)

>  <Rbt.Parameter_File>
/export/apps/rDock/src/rDock_2013.1_src/data/scripts/dock_solv.prm

>  <Rbt.Receptor>
prm/pocket_docking_2.prm

>  <SCORE>
-3.13113

>  <SCORE.INTER>
-2.7453

>  <SCORE.INTER.CONST>
1

>  <SCORE.INTER.POLAR>
0

>  <SCORE.INTER.ROT>
3

>  <SCORE.INTER.SOLV>
6.71154

>  <SCORE.INTER.VDW>
-9.66738

>  <SCORE.INTER.norm>
-0.228775

>  <SCORE.INTRA>
-0.385832

>  <SCORE.INTRA.DIHEDRAL>
0.755833

>  <SCORE.INTRA.DIHEDRAL.0>
1.88407

>  <SCORE.INTRA.POLAR>
0

>  <SCORE.INTRA.POLAR.0>
0

>  <SCORE.INTRA.REPUL>
0

>  <SCORE.INTRA.REPUL.0>
0

>  <SCORE.INTRA.SOLV>
0.162311

>  <SCORE.INTRA.SOLV.lig_0>
-10.2714

>  <SCORE.INTRA.VDW>
-0.844904

>  <SCORE.INTRA.VDW.0>
0.416923

>  <SCORE.INTRA.norm>
-0.0321527

>  <SCORE.RESTR>
0

>  <SCORE.RESTR.CAVITY>
0

>  <SCORE.RESTR.norm>
0

>  <SCORE.SYSTEM>
0

>  <SCORE.SYSTEM.CONST>
0

>  <SCORE.SYSTEM.DIHEDRAL>
0

>  <SCORE.SYSTEM.SOLV>
0

>  <SCORE.SYSTEM.norm>
0

>  <SCORE.heavy>
12

>  <SCORE.norm>
-0.260927

>  <RMSD>
5.685

$$$$
ligand
 OpenBabel11021811433D
libRbt.so/2013.1/901 2013/11/27
 12 12  0  0  0  0  0  0  0  0999 V2000
   44.4385   12.2042   15.5862 O   0  0  0  0  0  0  0  0  0  0  0  0
   47.1341   13.6279   11.7820 O   0  0  0  0  0  0  0  0  0  0  0  0
   43.8624   10.8780   15.3861 C   0  0  0  0  0  0  0  0  0  0  0  0
   49.3373   12.7430   12.4472 O   0  0  0  0  0  0  0  0  0  0  0  0
   44.3733   10.2367   14.0633 C   0  0  0  0  0  0  0  0  0  0  0  0
   48.2699   12.3473   10.8366 O   0  0  0  0  0  0  0  0  0  0  0  0
   45.3308   11.1849   13.3955 N   0  0  0  0  0  0  0  0  0  0  0  0
   44.6662   12.4974   13.1323 C   0  0  0  0  0  0  0  0  0  0  0  0
   44.1105   13.0759   14.4645 C   0  0  0  0  0  0  0  0  0  0  0  0
   45.8599   10.6295   12.1010 C   0  0  0  0  0  0  0  0  0  0  0  0
   47.3986   10.7741   12.0170 C   0  0  0  0  0  0  0  0  0  0  0  0
   47.9022   12.4965   12.2406 S   0  0  0  0  0  0  0  0  0  0  0  0
  1  3  1  0  0  0  0
  1  9  1  0  0  0  0
  2 12  1  0  0  0  0
  3  5  1  0  0  0  0
  4 12  2  0  0  0  0
  5  7  1  0  0  0  0
  6 12  2  0  0  0  0
  7  8  1  0  0  0  0
  7 10  1  0  0  0  0
  8  9  1  0  0  0  0
 10 11  1  0  0  0  0
 11 12  1  0  0  0  0
M  END
>  <CHROM.1>
-132.19520500,-55.72710309,-34.19547086,46.27866768,11.98166504,13.02064613
-3.13342108,-0.65290861,-2.81506750

>  <Name>
ligand

>  <RI>
0

>  <Rbt.Current_Directory>
/home/itssahil/PROJECTS/Mol_Feturizer/New_Systems/rnas/2HO6

>  <Rbt.Executable>
rbdock ($Id: //depot/dev/client3/rdock/2013.1/src/exe/rbdock.cxx#4 $)

>  <Rbt.Library>
libRbt.so (2013.1, Build901 2013/11/27)

>  <Rbt.Parameter_File>
/export/apps/rDock/src/rDock_2013.1_src/data/scripts/dock_solv.prm

>  <Rbt.Receptor>
prm/pocket_docking_3.prm

>  <SCORE>
-9.19422

>  <SCORE.INTER>
-8.54225

>  <SCORE.INTER.CONST>
1

>  <SCORE.INTER.POLAR>
0

>  <SCORE.INTER.ROT>
3

>  <SCORE.INTER.SOLV>
7.7286

>  <SCORE.INTER.VDW>
-13.871

>  <SCORE.INTER.norm>
-0.711854

>  <SCORE.INTRA>
-0.651965

>  <SCORE.INTRA.DIHEDRAL>
2.02084

>  <SCORE.INTRA.DIHEDRAL.0>
1.88407

>  <SCORE.INTRA.POLAR>
0

>  <SCORE.INTRA.POLAR.0>
0

>  <SCORE.INTRA.REPUL>
0

>  <SCORE.INTRA.REPUL.0>
0

>  <SCORE.INTRA.SOLV>
0.132642

>  <SCORE.INTRA.SOLV.lig_0>
-10.2714

>  <SCORE.INTRA.VDW>
-1.72871

>  <SCORE.INTRA.VDW.0>
0.416923

>  <SCORE.INTRA.norm>
-0.0543304

>  <SCORE.RESTR>
0

>  <SCORE.RESTR.CAVITY>
0

>  <SCORE.RESTR.norm>
0

>  <SCORE.SYSTEM>
0

>  <SCORE.SYSTEM.CONST>
0

>  <SCORE.SYSTEM.DIHEDRAL>
0

>  <SCORE.SYSTEM.SOLV>
0

>  <SCORE.SYSTEM.norm>
0

>  <SCORE.heavy>
12

>  <SCORE.norm>
-0.766185

>  <RMSD>
5.685

$$$$
ligand
 OpenBabel11021811433D
libRbt.so/2013.1/901 2013/11/27
 12 12  0  0  0  0  0  0  0  0999 V2000
   44.4138   12.2182   15.5985 O   0  0  0  0  0  0  0  0  0  0  0  0
   47.0808   13.6782   11.8290 O   0  0  0  0  0  0  0  0  0  0  0  0
   43.8292   10.8985   15.3813 C   0  0  0  0  0  0  0  0  0  0  0  0
   49.3102   12.8175   12.4357 O   0  0  0  0  0  0  0  0  0  0  0  0
   44.3464   10.2653   14.0570 C   0  0  0  0  0  0  0  0  0  0  0  0
   48.2126   12.4233   10.8451 O   0  0  0  0  0  0  0  0  0  0  0  0
   45.3168   11.2121   13.4060 N   0  0  0  0  0  0  0  0  0  0  0  0
   44.6647   12.5321   13.1494 C   0  0  0  0  0  0  0  0  0  0  0  0
   44.1022   13.1027   14.4821 C   0  0  0  0  0  0  0  0  0  0  0  0
   45.8526   10.6644   12.1110 C   0  0  0  0  0  0  0  0  0  0  0  0
   47.3897   10.8261   12.0280 C   0  0  0  0  0  0  0  0  0  0  0  0
   47.8744   12.5531   12.2584 S   0  0  0  0  0  0  0  0  0  0  0  0
  1  3  1  0  0  0  0
  1  9  1  0  0  0  0
  2 12  1  0  0  0  0
  3  5  1  0  0  0  0
  4 12  2  0  0  0  0
  5  7  1  0  0  0  0
  6 12  2  0  0  0  0
  7  8  1  0  0  0  0
  7 10  1  0  0  0  0
  8  9  1  0  0  0  0
 10 11  1  0  0  0  0
 11 12  1  0  0  0  0
M  END
>  <CHROM.1>
-133.44896094,-55.58408878,-32.84430342,46.25346380,12.02489943,13.03219655
-3.13998184,-0.65554338,-2.81138251

>  <Name>
ligand

>  <RI>
0

>  <Rbt.Current_Directory>
/home/itssahil/PROJECTS/Mol_Feturizer/New_Systems/rnas/2HO6

>  <Rbt.Executable>
rbdock ($Id: //depot/dev/client3/rdock/2013.1/src/exe/rbdock.cxx#4 $)

>  <Rbt.Library>
libRbt.so (2013.1, Build901 2013/11/27)

>  <Rbt.Parameter_File>
/export/apps/rDock/src/rDock_2013.1_src/data/scripts/dock_solv.prm

>  <Rbt.Receptor>
prm/pocket_docking_3.prm

>  <SCORE>
-9.20854

>  <SCORE.INTER>
-8.60524

>  <SCORE.INTER.CONST>
1

>  <SCORE.INTER.POLAR>
0

>  <SCORE.INTER.ROT>
3

>  <SCORE.INTER.SOLV>
7.70558

>  <SCORE.INTER.VDW>
-13.9054

>  <SCORE.INTER.norm>
-0.717103

>  <SCORE.INTRA>
-0.603297

>  <SCORE.INTRA.DIHEDRAL>
1.97268

>  <SCORE.INTRA.DIHEDRAL.0>
1.88407

>  <SCORE.INTRA.POLAR>
0

>  <SCORE.INTRA.POLAR.0>
0

>  <SCORE.INTRA.REPUL>
0

>  <SCORE.INTRA.REPUL.0>
0

>  <SCORE.INTRA.SOLV>
0.13569

>  <SCORE.INTRA.SOLV.lig_0>
-10.2714

>  <SCORE.INTRA.VDW>
-1.65748

>  <SCORE.INTRA.VDW.0>
0.416923

>  <SCORE.INTRA.norm>
-0.0502747

>  <SCORE.RESTR>
0

>  <SCORE.RESTR.CAVITY>
0

>  <SCORE.RESTR.norm>
0

>  <SCORE.SYSTEM>
0

>  <SCORE.SYSTEM.CONST>
0

>  <SCORE.SYSTEM.DIHEDRAL>
0

>  <SCORE.SYSTEM.SOLV>
0

>  <SCORE.SYSTEM.norm>
0

>  <SCORE.heavy>
12

>  <SCORE.norm>
-0.767378

>  <RMSD>
5.690

$$$$
ligand
 OpenBabel11021811433D
libRbt.so/2013.1/901 2013/11/27
 12 12  0  0  0  0  0  0  0  0999 V2000
   44.4171   12.2542   15.5668 O   0  0  0  0  0  0  0  0  0  0  0  0
   47.1759   13.5803   11.8504 O   0  0  0  0  0  0  0  0  0  0  0  0
   43.8348   10.9279   15.3863 C   0  0  0  0  0  0  0  0  0  0  0  0
   49.3741   12.6086   12.4010 O   0  0  0  0  0  0  0  0  0  0  0  0
   44.3338   10.2694   14.0674 C   0  0  0  0  0  0  0  0  0  0  0  0
   48.2245   12.2813   10.8321 O   0  0  0  0  0  0  0  0  0  0  0  0
   45.2898   11.2062   13.3817 N   0  0  0  0  0  0  0  0  0  0  0  0
   44.6281   12.5181   13.1080 C   0  0  0  0  0  0  0  0  0  0  0  0
   44.0842   13.1140   14.4374 C   0  0  0  0  0  0  0  0  0  0  0  0
   45.8075   10.6338   12.0900 C   0  0  0  0  0  0  0  0  0  0  0  0
   47.3517   10.7151   12.0206 C   0  0  0  0  0  0  0  0  0  0  0  0
   47.9237   12.4147   12.2536 S   0  0  0  0  0  0  0  0  0  0  0  0
  1  3  1  0  0  0  0
  1  9  1  0  0  0  0
  2 12  1  0  0  0  0
  3  5  1  0  0  0  0
  4 12  2  0  0  0  0
  5  7  1  0  0  0  0
  6 12  2  0  0  0  0
  7  8  1  0  0  0  0
  7 10  1  0  0  0  0
  8  9  1  0  0  0  0
 10 11  1  0  0  0  0
 11 12  1  0  0  0  0
M  END
>  <CHROM.1>
-129.68386081,-55.79057627,-30.97178299,46.26356352,11.95963008,13.01770202
-3.10582944,-0.63685431,-2.81092613

>  <Name>
ligand

>  <RI>
0

>  <Rbt.Current_Directory>
/home/itssahil/PROJECTS/Mol_Feturizer/New_Systems/rnas/2HO6

>  <Rbt.Executable>
rbdock ($Id: //depot/dev/client3/rdock/2013.1/src/exe/rbdock.cxx#4 $)

>  <Rbt.Library>
libRbt.so (2013.1, Build901 2013/11/27)

>  <Rbt.Parameter_File>
/export/apps/rDock/src/rDock_2013.1_src/data/scripts/dock_solv.prm

>  <Rbt.Receptor>
prm/pocket_docking_3.prm

>  <SCORE>
-9.15424

>  <SCORE.INTER>
-8.52812

>  <SCORE.INTER.CONST>
1

>  <SCORE.INTER.POLAR>
0

>  <SCORE.INTER.ROT>
3

>  <SCORE.INTER.SOLV>
7.65848

>  <SCORE.INTER.VDW>
-13.8382

>  <SCORE.INTER.norm>
-0.710677

>  <SCORE.INTRA>
-0.626116

>  <SCORE.INTRA.DIHEDRAL>
2.11358

>  <SCORE.INTRA.DIHEDRAL.0>
1.88407

>  <SCORE.INTRA.POLAR>
0

>  <SCORE.INTRA.POLAR.0>
0

>  <SCORE.INTRA.REPUL>
0

>  <SCORE.INTRA.REPUL.0>
0

>  <SCORE.INTRA.SOLV>
0.142484

>  <SCORE.INTRA.SOLV.lig_0>
-10.2714

>  <SCORE.INTRA.VDW>
-1.75415

>  <SCORE.INTRA.VDW.0>
0.416923

>  <SCORE.INTRA.norm>
-0.0521763

>  <SCORE.RESTR>
0

>  <SCORE.RESTR.CAVITY>
0

>  <SCORE.RESTR.norm>
0

>  <SCORE.SYSTEM>
0

>  <SCORE.SYSTEM.CONST>
0

>  <SCORE.SYSTEM.DIHEDRAL>
0

>  <SCORE.SYSTEM.SOLV>
0

>  <SCORE.SYSTEM.norm>
0

>  <SCORE.heavy>
12

>  <SCORE.norm>
-0.762853

>  <RMSD>
5.691

$$$$
ligand
 OpenBabel11021811433D
libRbt.so/2013.1/901 2013/11/27
 12 12  0  0  0  0  0  0  0  0999 V2000
   44.4314   12.2266   15.5789 O   0  0  0  0  0  0  0  0  0  0  0  0
   47.2582   13.5845   11.8460 O   0  0  0  0  0  0  0  0  0  0  0  0
   43.8465   10.9048   15.3753 C   0  0  0  0  0  0  0  0  0  0  0  0
   49.4168   12.5627   12.4591 O   0  0  0  0  0  0  0  0  0  0  0  0
   44.3438   10.2686   14.0449 C   0  0  0  0  0  0  0  0  0  0  0  0
   48.3062   12.2624   10.8571 O   0  0  0  0  0  0  0  0  0  0  0  0
   45.3015   11.2155   13.3755 N   0  0  0  0  0  0  0  0  0  0  0  0
   44.6423   12.5332   13.1251 C   0  0  0  0  0  0  0  0  0  0  0  0
   44.0998   13.1068   14.4649 C   0  0  0  0  0  0  0  0  0  0  0  0
   45.8177   10.6649   12.0737 C   0  0  0  0  0  0  0  0  0  0  0  0
   47.3637   10.7160   12.0180 C   0  0  0  0  0  0  0  0  0  0  0  0
   47.9672   12.4020   12.2694 S   0  0  0  0  0  0  0  0  0  0  0  0
  1  3  1  0  0  0  0
  1  9  1  0  0  0  0
  2 12  1  0  0  0  0
  3  5  1  0  0  0  0
  4 12  2  0  0  0  0
  5  7  1  0  0  0  0
  6 12  2  0  0  0  0
  7  8  1  0  0  0  0
  7 10  1  0  0  0  0
  8  9  1  0  0  0  0
 10 11  1  0  0  0  0
 11 12  1  0  0  0  0
M  END
>  <CHROM.1>
-128.44891668,-56.76658870,-32.23450978,46.29513096,11.95208860,13.02680650
-3.09446018,-0.62792902,-2.79134108

>  <Name>
ligand

>  <RI>
0

>  <Rbt.Current_Directory>
/home/itssahil/PROJECTS/Mol_Feturizer/New_Systems/rnas/2HO6

>  <Rbt.Executable>
rbdock ($Id: //depot/dev/client3/rdock/2013.1/src/exe/rbdock.cxx#4 $)

>  <Rbt.Library>
libRbt.so (2013.1, Build901 2013/11/27)

>  <Rbt.Parameter_File>
/export/apps/rDock/src/rDock_2013.1_src/data/scripts/dock_solv.prm

>  <Rbt.Receptor>
prm/pocket_docking_3.prm

>  <SCORE>
-9.14432

>  <SCORE.INTER>
-8.49939

>  <SCORE.INTER.CONST>
1

>  <SCORE.INTER.POLAR>
0

>  <SCORE.INTER.ROT>
3

>  <SCORE.INTER.SOLV>
7.68526

>  <SCORE.INTER.VDW>
-13.828

>  <SCORE.INTER.norm>
-0.708283

>  <SCORE.INTRA>
-0.644924

>  <SCORE.INTRA.DIHEDRAL>
2.12562

>  <SCORE.INTRA.DIHEDRAL.0>
1.88407

>  <SCORE.INTRA.POLAR>
0

>  <SCORE.INTRA.POLAR.0>
0

>  <SCORE.INTRA.REPUL>
0

>  <SCORE.INTRA.REPUL.0>
0

>  <SCORE.INTRA.SOLV>
0.136134

>  <SCORE.INTRA.SOLV.lig_0>
-10.2714

>  <SCORE.INTRA.VDW>
-1.7758

>  <SCORE.INTRA.VDW.0>
0.416923

>  <SCORE.INTRA.norm>
-0.0537436

>  <SCORE.RESTR>
0

>  <SCORE.RESTR.CAVITY>
0

>  <SCORE.RESTR.norm>
0

>  <SCORE.SYSTEM>
0

>  <SCORE.SYSTEM.CONST>
0

>  <SCORE.SYSTEM.DIHEDRAL>
0

>  <SCORE.SYSTEM.SOLV>
0

>  <SCORE.SYSTEM.norm>
0

>  <SCORE.heavy>
12

>  <SCORE.norm>
-0.762027

>  <RMSD>
5.693

$$$$
ligand
 OpenBabel11021811433D
libRbt.so/2013.1/901 2013/11/27
 12 12  0  0  0  0  0  0  0  0999 V2000
   45.0844   10.4051   13.9938 O   0  0  0  0  0  0  0  0  0  0  0  0
   51.1847   13.8144   10.7781 O   0  0  0  0  0  0  0  0  0  0  0  0
   44.7914   10.0013   12.6220 C   0  0  0  0  0  0  0  0  0  0  0  0
   49.3522   15.3941   11.2532 O   0  0  0  0  0  0  0  0  0  0  0  0
   45.7174   10.7360   11.6096 C   0  0  0  0  0  0  0  0  0  0  0  0
   50.3973   14.2848   12.5051 O   0  0  0  0  0  0  0  0  0  0  0  0
   46.6554   11.6362   12.3657 N   0  0  0  0  0  0  0  0  0  0  0  0
   45.8856   12.6136   13.1938 C   0  0  0  0  0  0  0  0  0  0  0  0
   44.9242   11.8463   14.1452 C   0  0  0  0  0  0  0  0  0  0  0  0
   47.5781   12.3868   11.4440 C   0  0  0  0  0  0  0  0  0  0  0  0
   48.8840   12.7936   12.1687 C   0  0  0  0  0  0  0  0  0  0  0  0
   49.8171   14.0000   11.1970 S   0  0  0  0  0  0  0  0  0  0  0  0
  1  3  1  0  0  0  0
  1  9  1  0  0  0  0
  2 12  1  0  0  0  0
  3  5  1  0  0  0  0
  4 12  2  0  0  0  0
  5  7  1  0  0  0  0
  6 12  2  0  0  0  0
  7  8  1  0  0  0  0
  7 10  1  0  0  0  0
  8  9  1  0  0  0  0
 10 11  1  0  0  0  0
 11 12  1  0  0  0  0
M  END
>  <CHROM.1>
-154.99274334,-167.17285841,-123.69957756,47.79598383,12.67260621,12.16740313
2.93354583,-0.62335679,-2.41127136

>  <Name>
ligand

>  <RI>
0

>  <Rbt.Current_Directory>
/home/itssahil/PROJECTS/Mol_Feturizer/New_Systems/rnas/2HO6

>  <Rbt.Executable>
rbdock ($Id: //depot/dev/client3/rdock/2013.1/src/exe/rbdock.cxx#4 $)

>  <Rbt.Library>
libRbt.so (2013.1, Build901 2013/11/27)

>  <Rbt.Parameter_File>
/export/apps/rDock/src/rDock_2013.1_src/data/scripts/dock_solv.prm

>  <Rbt.Receptor>
prm/pocket_docking_2.prm

>  <SCORE>
-3.38468

>  <SCORE.INTER>
-3.18738

>  <SCORE.INTER.CONST>
1

>  <SCORE.INTER.POLAR>
0

>  <SCORE.INTER.ROT>
3

>  <SCORE.INTER.SOLV>
7.46954

>  <SCORE.INTER.VDW>
-10.2148

>  <SCORE.INTER.norm>
-0.265615

>  <SCORE.INTRA>
-0.204636

>  <SCORE.INTRA.DIHEDRAL>
1.32941

>  <SCORE.INTRA.DIHEDRAL.0>
1.88407

>  <SCORE.INTRA.POLAR>
0

>  <SCORE.INTRA.POLAR.0>
0

>  <SCORE.INTRA.REPUL>
0

>  <SCORE.INTRA.REPUL.0>
0

>  <SCORE.INTRA.SOLV>
0.0497307

>  <SCORE.INTRA.SOLV.lig_0>
-10.2714

>  <SCORE.INTRA.VDW>
-0.894207

>  <SCORE.INTRA.VDW.0>
0.416923

>  <SCORE.INTRA.norm>
-0.017053

>  <SCORE.RESTR>
0.00732903

>  <SCORE.RESTR.CAVITY>
0.00732903

>  <SCORE.RESTR.norm>
0.000610752

>  <SCORE.SYSTEM>
0

>  <SCORE.SYSTEM.CONST>
0

>  <SCORE.SYSTEM.DIHEDRAL>
0

>  <SCORE.SYSTEM.SOLV>
0

>  <SCORE.SYSTEM.norm>
0

>  <SCORE.heavy>
12

>  <SCORE.norm>
-0.282057

>  <RMSD>
5.696

$$$$
ligand
 OpenBabel11021811433D
libRbt.so/2013.1/901 2013/11/27
 12 12  0  0  0  0  0  0  0  0999 V2000
   44.4894   11.9579   15.5017 O   0  0  0  0  0  0  0  0  0  0  0  0
   49.4508   12.4782   12.5708 O   0  0  0  0  0  0  0  0  0  0  0  0
   43.9885   10.6852   14.9917 C   0  0  0  0  0  0  0  0  0  0  0  0
   48.4838   10.2465   12.1656 O   0  0  0  0  0  0  0  0  0  0  0  0
   44.3817   10.4836   13.4994 C   0  0  0  0  0  0  0  0  0  0  0  0
   48.8707   11.6896   10.8780 O   0  0  0  0  0  0  0  0  0  0  0  0
   45.1832   11.6695   13.0380 N   0  0  0  0  0  0  0  0  0  0  0  0
   44.4011   12.9300   13.2199 C   0  0  0  0  0  0  0  0  0  0  0  0
   43.9691   13.0645   14.7077 C   0  0  0  0  0  0  0  0  0  0  0  0
   45.5918   11.5441   11.5953 C   0  0  0  0  0  0  0  0  0  0  0  0
   46.8724   12.3629   11.3028 C   0  0  0  0  0  0  0  0  0  0  0  0
   48.2875   11.7032   12.2153 S   0  0  0  0  0  0  0  0  0  0  0  0
  1  3  1  0  0  0  0
  1  9  1  0  0  0  0
  2 12  1  0  0  0  0
  3  5  1  0  0  0  0
  4 12  2  0  0  0  0
  5  7  1  0  0  0  0
  6 12  2  0  0  0  0
  7  8  1  0  0  0  0
  7 10  1  0  0  0  0
  8  9  1  0  0  0  0
 10 11  1  0  0  0  0
 11 12  1  0  0  0  0
M  END
>  <CHROM.1>
-154.55667577,64.77155689,-155.52578773,46.42882175,11.72593031,12.89549892
-2.69054755,0.30792347,-1.06978009

>  <Name>
ligand

>  <RI>
0

>  <Rbt.Current_Directory>
/home/itssahil/PROJECTS/Mol_Feturizer/New_Systems/rnas/2HO6

>  <Rbt.Executable>
rbdock ($Id: //depot/dev/client3/rdock/2013.1/src/exe/rbdock.cxx#4 $)

>  <Rbt.Library>
libRbt.so (2013.1, Build901 2013/11/27)

>  <Rbt.Parameter_File>
/export/apps/rDock/src/rDock_2013.1_src/data/scripts/dock_solv.prm

>  <Rbt.Receptor>
prm/pocket_docking_3.prm

>  <SCORE>
-7.17735

>  <SCORE.INTER>
-6.52125

>  <SCORE.INTER.CONST>
1

>  <SCORE.INTER.POLAR>
0

>  <SCORE.INTER.ROT>
3

>  <SCORE.INTER.SOLV>
7.16115

>  <SCORE.INTER.VDW>
-12.3346

>  <SCORE.INTER.norm>
-0.543438

>  <SCORE.INTRA>
-0.656102

>  <SCORE.INTRA.DIHEDRAL>
0.766303

>  <SCORE.INTRA.DIHEDRAL.0>
1.88407

>  <SCORE.INTRA.POLAR>
0

>  <SCORE.INTRA.POLAR.0>
0

>  <SCORE.INTRA.REPUL>
0

>  <SCORE.INTRA.REPUL.0>
0

>  <SCORE.INTRA.SOLV>
0.510908

>  <SCORE.INTRA.SOLV.lig_0>
-10.2714

>  <SCORE.INTRA.VDW>
-1.29471

>  <SCORE.INTRA.VDW.0>
0.416923

>  <SCORE.INTRA.norm>
-0.0546751

>  <SCORE.RESTR>
0

>  <SCORE.RESTR.CAVITY>
0

>  <SCORE.RESTR.norm>
0

>  <SCORE.SYSTEM>
0

>  <SCORE.SYSTEM.CONST>
0

>  <SCORE.SYSTEM.DIHEDRAL>
0

>  <SCORE.SYSTEM.SOLV>
0

>  <SCORE.SYSTEM.norm>
0

>  <SCORE.heavy>
12

>  <SCORE.norm>
-0.598113

>  <RMSD>
5.709

$$$$
ligand
 OpenBabel11021811433D
libRbt.so/2013.1/901 2013/11/27
 12 12  0  0  0  0  0  0  0  0999 V2000
   44.4949   12.0907   15.5717 O   0  0  0  0  0  0  0  0  0  0  0  0
   48.3675   13.2459   12.1231 O   0  0  0  0  0  0  0  0  0  0  0  0
   43.9810   10.7783   15.1917 C   0  0  0  0  0  0  0  0  0  0  0  0
   49.6826   11.3424   12.9756 O   0  0  0  0  0  0  0  0  0  0  0  0
   44.4468   10.3852   13.7597 C   0  0  0  0  0  0  0  0  0  0  0  0
   48.9905   11.6640   11.1569 O   0  0  0  0  0  0  0  0  0  0  0  0
   45.3099   11.4847   13.2046 N   0  0  0  0  0  0  0  0  0  0  0  0
   44.5604   12.7776   13.1877 C   0  0  0  0  0  0  0  0  0  0  0  0
   44.0540   13.1045   14.6212 C   0  0  0  0  0  0  0  0  0  0  0  0
   45.7907   11.1728   11.8133 C   0  0  0  0  0  0  0  0  0  0  0  0
   47.2358   10.6185   11.8315 C   0  0  0  0  0  0  0  0  0  0  0  0
   48.3949   11.8477   12.4762 S   0  0  0  0  0  0  0  0  0  0  0  0
  1  3  1  0  0  0  0
  1  9  1  0  0  0  0
  2 12  1  0  0  0  0
  3  5  1  0  0  0  0
  4 12  2  0  0  0  0
  5  7  1  0  0  0  0
  6 12  2  0  0  0  0
  7  8  1  0  0  0  0
  7 10  1  0  0  0  0
  8  9  1  0  0  0  0
 10 11  1  0  0  0  0
 11 12  1  0  0  0  0
M  END
>  <CHROM.1>
-98.95560438,-62.95994186,-42.67061306,46.53795201,11.73751569,13.08776365
-2.89051127,-0.43914522,-2.58343807

>  <Name>
ligand

>  <RI>
0

>  <Rbt.Current_Directory>
/home/itssahil/PROJECTS/Mol_Feturizer/New_Systems/rnas/2HO6

>  <Rbt.Executable>
rbdock ($Id: //depot/dev/client3/rdock/2013.1/src/exe/rbdock.cxx#4 $)

>  <Rbt.Library>
libRbt.so (2013.1, Build901 2013/11/27)

>  <Rbt.Parameter_File>
/export/apps/rDock/src/rDock_2013.1_src/data/scripts/dock_solv.prm

>  <Rbt.Receptor>
prm/pocket_docking_3.prm

>  <SCORE>
-8.69776

>  <SCORE.INTER>
-7.95992

>  <SCORE.INTER.CONST>
1

>  <SCORE.INTER.POLAR>
0

>  <SCORE.INTER.ROT>
3

>  <SCORE.INTER.SOLV>
7.61805

>  <SCORE.INTER.VDW>
-13.446

>  <SCORE.INTER.norm>
-0.663326

>  <SCORE.INTRA>
-0.742357

>  <SCORE.INTRA.DIHEDRAL>
1.69331

>  <SCORE.INTRA.DIHEDRAL.0>
1.88407

>  <SCORE.INTRA.POLAR>
0

>  <SCORE.INTRA.POLAR.0>
0

>  <SCORE.INTRA.REPUL>
0

>  <SCORE.INTRA.REPUL.0>
0

>  <SCORE.INTRA.SOLV>
0.139166

>  <SCORE.INTRA.SOLV.lig_0>
-10.2714

>  <SCORE.INTRA.VDW>
-1.65859

>  <SCORE.INTRA.VDW.0>
0.416923

>  <SCORE.INTRA.norm>
-0.0618631

>  <SCORE.RESTR>
0.00451038

>  <SCORE.RESTR.CAVITY>
0.00451038

>  <SCORE.RESTR.norm>
0.000375865

>  <SCORE.SYSTEM>
0

>  <SCORE.SYSTEM.CONST>
0

>  <SCORE.SYSTEM.DIHEDRAL>
0

>  <SCORE.SYSTEM.SOLV>
0

>  <SCORE.SYSTEM.norm>
0

>  <SCORE.heavy>
12

>  <SCORE.norm>
-0.724814

>  <RMSD>
5.711

$$$$
ligand
 OpenBabel11021811433D
libRbt.so/2013.1/901 2013/11/27
 12 12  0  0  0  0  0  0  0  0999 V2000
   43.6501   11.5185   14.3341 O   0  0  0  0  0  0  0  0  0  0  0  0
   43.8622   13.8551    8.3135 O   0  0  0  0  0  0  0  0  0  0  0  0
   44.8265   12.3451   14.5859 C   0  0  0  0  0  0  0  0  0  0  0  0
   43.0324   12.7924   10.3778 O   0  0  0  0  0  0  0  0  0  0  0  0
   45.7498   12.4053   13.3345 C   0  0  0  0  0  0  0  0  0  0  0  0
   44.2101   14.3609   10.1702 O   0  0  0  0  0  0  0  0  0  0  0  0
   45.1304   11.5969   12.2277 N   0  0  0  0  0  0  0  0  0  0  0  0
   44.9187   10.1849   12.6692 C   0  0  0  0  0  0  0  0  0  0  0  0
   44.0486   10.1674   13.9580 C   0  0  0  0  0  0  0  0  0  0  0  0
   45.9780   11.6051   10.9845 C   0  0  0  0  0  0  0  0  0  0  0  0
   45.8200   12.9348   10.2079 C   0  0  0  0  0  0  0  0  0  0  0  0
   44.1678   13.0728    9.4860 S   0  0  0  0  0  0  0  0  0  0  0  0
  1  3  1  0  0  0  0
  1  9  1  0  0  0  0
  2 12  1  0  0  0  0
  3  5  1  0  0  0  0
  4 12  2  0  0  0  0
  5  7  1  0  0  0  0
  6 12  2  0  0  0  0
  7  8  1  0  0  0  0
  7 10  1  0  0  0  0
  8  9  1  0  0  0  0
 10 11  1  0  0  0  0
 11 12  1  0  0  0  0
M  END
>  <CHROM.1>
-77.61818219,-68.82314970,-153.86997597,44.53682875,12.35068284,11.47578903
1.47888926,-0.38146419,2.00020241

>  <Name>
ligand

>  <RI>
0

>  <Rbt.Current_Directory>
/home/itssahil/PROJECTS/Mol_Feturizer/New_Systems/rnas/2HO6

>  <Rbt.Executable>
rbdock ($Id: //depot/dev/client3/rdock/2013.1/src/exe/rbdock.cxx#4 $)

>  <Rbt.Library>
libRbt.so (2013.1, Build901 2013/11/27)

>  <Rbt.Parameter_File>
/export/apps/rDock/src/rDock_2013.1_src/data/scripts/dock_solv.prm

>  <Rbt.Receptor>
prm/pocket_docking_6.prm

>  <SCORE>
-11.1728

>  <SCORE.INTER>
-10.4078

>  <SCORE.INTER.CONST>
1

>  <SCORE.INTER.POLAR>
0

>  <SCORE.INTER.ROT>
3

>  <SCORE.INTER.SOLV>
7.91914

>  <SCORE.INTER.VDW>
-15.1782

>  <SCORE.INTER.norm>
-0.867314

>  <SCORE.INTRA>
-0.765049

>  <SCORE.INTRA.DIHEDRAL>
0.672769

>  <SCORE.INTRA.DIHEDRAL.0>
1.88407

>  <SCORE.INTRA.POLAR>
0

>  <SCORE.INTRA.POLAR.0>
0

>  <SCORE.INTRA.REPUL>
0

>  <SCORE.INTRA.REPUL.0>
0

>  <SCORE.INTRA.SOLV>
1.00111

>  <SCORE.INTRA.SOLV.lig_0>
-10.2714

>  <SCORE.INTRA.VDW>
-1.60199

>  <SCORE.INTRA.VDW.0>
0.416923

>  <SCORE.INTRA.norm>
-0.0637541

>  <SCORE.RESTR>
0

>  <SCORE.RESTR.CAVITY>
0

>  <SCORE.RESTR.norm>
0

>  <SCORE.SYSTEM>
0

>  <SCORE.SYSTEM.CONST>
0

>  <SCORE.SYSTEM.DIHEDRAL>
0

>  <SCORE.SYSTEM.SOLV>
0

>  <SCORE.SYSTEM.norm>
0

>  <SCORE.heavy>
12

>  <SCORE.norm>
-0.931068

>  <RMSD>
5.711

$$$$
ligand
 OpenBabel11021811433D
libRbt.so/2013.1/901 2013/11/27
 12 12  0  0  0  0  0  0  0  0999 V2000
   44.4900   12.1043   15.5908 O   0  0  0  0  0  0  0  0  0  0  0  0
   48.3486   13.2642   12.1591 O   0  0  0  0  0  0  0  0  0  0  0  0
   43.9959   10.7812   15.2223 C   0  0  0  0  0  0  0  0  0  0  0  0
   49.6840   11.3648   12.9887 O   0  0  0  0  0  0  0  0  0  0  0  0
   44.4633   10.3846   13.7917 C   0  0  0  0  0  0  0  0  0  0  0  0
   48.9779   11.6947   11.1769 O   0  0  0  0  0  0  0  0  0  0  0  0
   45.3071   11.4935   13.2257 N   0  0  0  0  0  0  0  0  0  0  0  0
   44.5372   12.7741   13.2015 C   0  0  0  0  0  0  0  0  0  0  0  0
   44.0301   13.1038   14.6341 C   0  0  0  0  0  0  0  0  0  0  0  0
   45.7885   11.1788   11.8352 C   0  0  0  0  0  0  0  0  0  0  0  0
   47.2358   10.6302   11.8545 C   0  0  0  0  0  0  0  0  0  0  0  0
   48.3893   11.8637   12.5012 S   0  0  0  0  0  0  0  0  0  0  0  0
  1  3  1  0  0  0  0
  1  9  1  0  0  0  0
  2 12  1  0  0  0  0
  3  5  1  0  0  0  0
  4 12  2  0  0  0  0
  5  7  1  0  0  0  0
  6 12  2  0  0  0  0
  7  8  1  0  0  0  0
  7 10  1  0  0  0  0
  8  9  1  0  0  0  0
 10 11  1  0  0  0  0
 11 12  1  0  0  0  0
M  END
>  <CHROM.1>
-98.21864234,-62.70993681,-42.04788964,46.53263738,11.74895159,13.11036472
-2.89624418,-0.44213210,-2.59186147

>  <Name>
ligand

>  <RI>
0

>  <Rbt.Current_Directory>
/home/itssahil/PROJECTS/Mol_Feturizer/New_Systems/rnas/2HO6

>  <Rbt.Executable>
rbdock ($Id: //depot/dev/client3/rdock/2013.1/src/exe/rbdock.cxx#4 $)

>  <Rbt.Library>
libRbt.so (2013.1, Build901 2013/11/27)

>  <Rbt.Parameter_File>
/export/apps/rDock/src/rDock_2013.1_src/data/scripts/dock_solv.prm

>  <Rbt.Receptor>
prm/pocket_docking_3.prm

>  <SCORE>
-8.72998

>  <SCORE.INTER>
-7.97457

>  <SCORE.INTER.CONST>
1

>  <SCORE.INTER.POLAR>
0

>  <SCORE.INTER.ROT>
3

>  <SCORE.INTER.SOLV>
7.63255

>  <SCORE.INTER.VDW>
-13.4606

>  <SCORE.INTER.norm>
-0.664547

>  <SCORE.INTRA>
-0.759243

>  <SCORE.INTRA.DIHEDRAL>
1.64674

>  <SCORE.INTRA.DIHEDRAL.0>
1.88407

>  <SCORE.INTRA.POLAR>
0

>  <SCORE.INTRA.POLAR.0>
0

>  <SCORE.INTRA.REPUL>
0

>  <SCORE.INTRA.REPUL.0>
0

>  <SCORE.INTRA.SOLV>
0.142331

>  <SCORE.INTRA.SOLV.lig_0>
-10.2714

>  <SCORE.INTRA.VDW>
-1.65378

>  <SCORE.INTRA.VDW.0>
0.416923

>  <SCORE.INTRA.norm>
-0.0632702

>  <SCORE.RESTR>
0.00383099

>  <SCORE.RESTR.CAVITY>
0.00383099

>  <SCORE.RESTR.norm>
0.000319249

>  <SCORE.SYSTEM>
0

>  <SCORE.SYSTEM.CONST>
0

>  <SCORE.SYSTEM.DIHEDRAL>
0

>  <SCORE.SYSTEM.SOLV>
0

>  <SCORE.SYSTEM.norm>
0

>  <SCORE.heavy>
12

>  <SCORE.norm>
-0.727498

>  <RMSD>
5.714

$$$$
ligand
 OpenBabel11021811433D
libRbt.so/2013.1/901 2013/11/27
 12 12  0  0  0  0  0  0  0  0999 V2000
   44.9715   10.4002   14.0004 O   0  0  0  0  0  0  0  0  0  0  0  0
   51.2308   13.4213   10.7541 O   0  0  0  0  0  0  0  0  0  0  0  0
   44.6958   10.0039   12.6228 C   0  0  0  0  0  0  0  0  0  0  0  0
   49.6595   15.1889   11.4509 O   0  0  0  0  0  0  0  0  0  0  0  0
   45.6676   10.7060   11.6305 C   0  0  0  0  0  0  0  0  0  0  0  0
   50.6239   13.8717   12.5576 O   0  0  0  0  0  0  0  0  0  0  0  0
   46.6176   11.5764   12.4062 N   0  0  0  0  0  0  0  0  0  0  0  0
   45.8622   12.5800   13.2161 C   0  0  0  0  0  0  0  0  0  0  0  0
   44.8553   11.8462   14.1467 C   0  0  0  0  0  0  0  0  0  0  0  0
   47.5847   12.2947   11.5045 C   0  0  0  0  0  0  0  0  0  0  0  0
   48.9067   12.6149   12.2432 C   0  0  0  0  0  0  0  0  0  0  0  0
   49.9295   13.7534   11.2799 S   0  0  0  0  0  0  0  0  0  0  0  0
  1  3  1  0  0  0  0
  1  9  1  0  0  0  0
  2 12  1  0  0  0  0
  3  5  1  0  0  0  0
  4 12  2  0  0  0  0
  5  7  1  0  0  0  0
  6 12  2  0  0  0  0
  7  8  1  0  0  0  0
  7 10  1  0  0  0  0
  8  9  1  0  0  0  0
 10 11  1  0  0  0  0
 11 12  1  0  0  0  0
M  END
>  <CHROM.1>
-152.96467667,-168.73299556,-116.74115825,47.83525304,12.51991710,12.21622309
2.96562340,-0.57019219,-2.40590293

>  <Name>
ligand

>  <RI>
0

>  <Rbt.Current_Directory>
/home/itssahil/PROJECTS/Mol_Feturizer/New_Systems/rnas/2HO6

>  <Rbt.Executable>
rbdock ($Id: //depot/dev/client3/rdock/2013.1/src/exe/rbdock.cxx#4 $)

>  <Rbt.Library>
libRbt.so (2013.1, Build901 2013/11/27)

>  <Rbt.Parameter_File>
/export/apps/rDock/src/rDock_2013.1_src/data/scripts/dock_solv.prm

>  <Rbt.Receptor>
prm/pocket_docking_2.prm

>  <SCORE>
-3.37968

>  <SCORE.INTER>
-3.16792

>  <SCORE.INTER.CONST>
1

>  <SCORE.INTER.POLAR>
0

>  <SCORE.INTER.ROT>
3

>  <SCORE.INTER.SOLV>
7.38102

>  <SCORE.INTER.VDW>
-10.1723

>  <SCORE.INTER.norm>
-0.263994

>  <SCORE.INTRA>
-0.226502

>  <SCORE.INTRA.DIHEDRAL>
1.34554

>  <SCORE.INTRA.DIHEDRAL.0>
1.88407

>  <SCORE.INTRA.POLAR>
0

>  <SCORE.INTRA.POLAR.0>
0

>  <SCORE.INTRA.REPUL>
0

>  <SCORE.INTRA.REPUL.0>
0

>  <SCORE.INTRA.SOLV>
0.0322424

>  <SCORE.INTRA.SOLV.lig_0>
-10.2714

>  <SCORE.INTRA.VDW>
-0.91539

>  <SCORE.INTRA.VDW.0>
0.416923

>  <SCORE.INTRA.norm>
-0.0188751

>  <SCORE.RESTR>
0.014745

>  <SCORE.RESTR.CAVITY>
0.014745

>  <SCORE.RESTR.norm>
0.00122875

>  <SCORE.SYSTEM>
0

>  <SCORE.SYSTEM.CONST>
0

>  <SCORE.SYSTEM.DIHEDRAL>
0

>  <SCORE.SYSTEM.SOLV>
0

>  <SCORE.SYSTEM.norm>
0

>  <SCORE.heavy>
12

>  <SCORE.norm>
-0.28164

>  <RMSD>
5.719

$$$$
ligand
 OpenBabel11021811433D
libRbt.so/2013.1/901 2013/11/27
 12 12  0  0  0  0  0  0  0  0999 V2000
   43.8276   10.7244   13.9493 O   0  0  0  0  0  0  0  0  0  0  0  0
   43.7097   13.9428    8.3088 O   0  0  0  0  0  0  0  0  0  0  0  0
   43.9742   11.9086   14.7899 C   0  0  0  0  0  0  0  0  0  0  0  0
   44.0318   11.9852    9.7727 O   0  0  0  0  0  0  0  0  0  0  0  0
   44.7143   13.0485   14.0316 C   0  0  0  0  0  0  0  0  0  0  0  0
   42.9793   13.6219   10.0941 O   0  0  0  0  0  0  0  0  0  0  0  0
   45.0411   12.5812   12.6399 N   0  0  0  0  0  0  0  0  0  0  0  0
   45.8744   11.3416   12.6885 C   0  0  0  0  0  0  0  0  0  0  0  0
   45.1335   10.2481   13.5092 C   0  0  0  0  0  0  0  0  0  0  0  0
   45.7677   13.6357   11.8497 C   0  0  0  0  0  0  0  0  0  0  0  0
   44.7967   14.4137   10.9291 C   0  0  0  0  0  0  0  0  0  0  0  0
   44.2995   13.4075    9.5112 S   0  0  0  0  0  0  0  0  0  0  0  0
  1  3  1  0  0  0  0
  1  9  1  0  0  0  0
  2 12  1  0  0  0  0
  3  5  1  0  0  0  0
  4 12  2  0  0  0  0
  5  7  1  0  0  0  0
  6 12  2  0  0  0  0
  7  8  1  0  0  0  0
  7 10  1  0  0  0  0
  8  9  1  0  0  0  0
 10 11  1  0  0  0  0
 11 12  1  0  0  0  0
M  END
>  <CHROM.1>
-98.17230362,-73.93040883,-162.58033667,44.45708362,12.64907663,11.57009014
1.17303968,1.21579648,2.38808639

>  <Name>
ligand

>  <RI>
0

>  <Rbt.Current_Directory>
/home/itssahil/PROJECTS/Mol_Feturizer/New_Systems/rnas/2HO6

>  <Rbt.Executable>
rbdock ($Id: //depot/dev/client3/rdock/2013.1/src/exe/rbdock.cxx#4 $)

>  <Rbt.Library>
libRbt.so (2013.1, Build901 2013/11/27)

>  <Rbt.Parameter_File>
/export/apps/rDock/src/rDock_2013.1_src/data/scripts/dock_solv.prm

>  <Rbt.Receptor>
prm/pocket_docking_6.prm

>  <SCORE>
-9.62019

>  <SCORE.INTER>
-9.45773

>  <SCORE.INTER.CONST>
1

>  <SCORE.INTER.POLAR>
0

>  <SCORE.INTER.ROT>
3

>  <SCORE.INTER.SOLV>
7.7118

>  <SCORE.INTER.VDW>
-14.4758

>  <SCORE.INTER.norm>
-0.788144

>  <SCORE.INTRA>
-0.162452

>  <SCORE.INTRA.DIHEDRAL>
2.31956

>  <SCORE.INTRA.DIHEDRAL.0>
1.88407

>  <SCORE.INTRA.POLAR>
0

>  <SCORE.INTRA.POLAR.0>
0

>  <SCORE.INTRA.REPUL>
0

>  <SCORE.INTRA.REPUL.0>
0

>  <SCORE.INTRA.SOLV>
1.03381

>  <SCORE.INTRA.SOLV.lig_0>
-10.2714

>  <SCORE.INTRA.VDW>
-1.83914

>  <SCORE.INTRA.VDW.0>
0.416923

>  <SCORE.INTRA.norm>
-0.0135377

>  <SCORE.RESTR>
0

>  <SCORE.RESTR.CAVITY>
0

>  <SCORE.RESTR.norm>
0

>  <SCORE.SYSTEM>
0

>  <SCORE.SYSTEM.CONST>
0

>  <SCORE.SYSTEM.DIHEDRAL>
0

>  <SCORE.SYSTEM.SOLV>
0

>  <SCORE.SYSTEM.norm>
0

>  <SCORE.heavy>
12

>  <SCORE.norm>
-0.801682

>  <RMSD>
5.719

$$$$
ligand
 OpenBabel11021811433D
libRbt.so/2013.1/901 2013/11/27
 12 12  0  0  0  0  0  0  0  0999 V2000
   45.1296   10.4003   13.9046 O   0  0  0  0  0  0  0  0  0  0  0  0
   50.2365   14.0616    9.9015 O   0  0  0  0  0  0  0  0  0  0  0  0
   44.8290   10.0781   12.5130 C   0  0  0  0  0  0  0  0  0  0  0  0
   50.6313   15.0730   12.1152 O   0  0  0  0  0  0  0  0  0  0  0  0
   45.7359   10.8862   11.5401 C   0  0  0  0  0  0  0  0  0  0  0  0
   50.9450   13.2196   11.5180 O   0  0  0  0  0  0  0  0  0  0  0  0
   46.6692   11.7507   12.3423 N   0  0  0  0  0  0  0  0  0  0  0  0
   45.8946   12.6646   13.2359 C   0  0  0  0  0  0  0  0  0  0  0  0
   44.9522   11.8272   14.1462 C   0  0  0  0  0  0  0  0  0  0  0  0
   47.5734   12.5691   11.4610 C   0  0  0  0  0  0  0  0  0  0  0  0
   48.9239   12.8588   12.1597 C   0  0  0  0  0  0  0  0  0  0  0  0
   49.8435   14.1480   11.2865 S   0  0  0  0  0  0  0  0  0  0  0  0
  1  3  1  0  0  0  0
  1  9  1  0  0  0  0
  2 12  1  0  0  0  0
  3  5  1  0  0  0  0
  4 12  2  0  0  0  0
  5  7  1  0  0  0  0
  6 12  2  0  0  0  0
  7  8  1  0  0  0  0
  7 10  1  0  0  0  0
  8  9  1  0  0  0  0
 10 11  1  0  0  0  0
 11 12  1  0  0  0  0
M  END
>  <CHROM.1>
-150.77090188,-166.55470652,-58.16835412,47.88669404,12.64763375,12.08141582
-3.13839980,-0.62596064,-2.10679223

>  <Name>
ligand

>  <RI>
0

>  <Rbt.Current_Directory>
/home/itssahil/PROJECTS/Mol_Feturizer/New_Systems/rnas/2HO6

>  <Rbt.Executable>
rbdock ($Id: //depot/dev/client3/rdock/2013.1/src/exe/rbdock.cxx#4 $)

>  <Rbt.Library>
libRbt.so (2013.1, Build901 2013/11/27)

>  <Rbt.Parameter_File>
/export/apps/rDock/src/rDock_2013.1_src/data/scripts/dock_solv.prm

>  <Rbt.Receptor>
prm/pocket_docking_2.prm

>  <SCORE>
-3.0683

>  <SCORE.INTER>
-2.91573

>  <SCORE.INTER.CONST>
1

>  <SCORE.INTER.POLAR>
0

>  <SCORE.INTER.ROT>
3

>  <SCORE.INTER.SOLV>
6.69263

>  <SCORE.INTER.VDW>
-9.77469

>  <SCORE.INTER.norm>
-0.242977

>  <SCORE.INTRA>
-0.153049

>  <SCORE.INTRA.DIHEDRAL>
1.62168

>  <SCORE.INTRA.DIHEDRAL.0>
1.88407

>  <SCORE.INTRA.POLAR>
0

>  <SCORE.INTRA.POLAR.0>
0

>  <SCORE.INTRA.REPUL>
0

>  <SCORE.INTRA.REPUL.0>
0

>  <SCORE.INTRA.SOLV>
-0.0535628

>  <SCORE.INTRA.SOLV.lig_0>
-10.2714

>  <SCORE.INTRA.VDW>
-0.937108

>  <SCORE.INTRA.VDW.0>
0.416923

>  <SCORE.INTRA.norm>
-0.0127541

>  <SCORE.RESTR>
0.000480021

>  <SCORE.RESTR.CAVITY>
0.000480021

>  <SCORE.RESTR.norm>
4.00017e-05

>  <SCORE.SYSTEM>
0

>  <SCORE.SYSTEM.CONST>
0

>  <SCORE.SYSTEM.DIHEDRAL>
0

>  <SCORE.SYSTEM.SOLV>
0

>  <SCORE.SYSTEM.norm>
0

>  <SCORE.heavy>
12

>  <SCORE.norm>
-0.255691

>  <RMSD>
5.723

$$$$
ligand
 OpenBabel11021811433D
libRbt.so/2013.1/901 2013/11/27
 12 12  0  0  0  0  0  0  0  0999 V2000
   44.6412   11.1551   14.0002 O   0  0  0  0  0  0  0  0  0  0  0  0
   45.6382   13.5375    8.8122 O   0  0  0  0  0  0  0  0  0  0  0  0
   44.1076   12.1673   14.9064 C   0  0  0  0  0  0  0  0  0  0  0  0
   43.7277   12.0732    9.3464 O   0  0  0  0  0  0  0  0  0  0  0  0
   43.9902   13.5489   14.1998 C   0  0  0  0  0  0  0  0  0  0  0  0
   43.7279   13.9018    8.6072 O   0  0  0  0  0  0  0  0  0  0  0  0
   44.4522   13.4129   12.7751 N   0  0  0  0  0  0  0  0  0  0  0  0
   45.8572   12.9057   12.7288 C   0  0  0  0  0  0  0  0  0  0  0  0
   45.9501   11.5588   13.5005 C   0  0  0  0  0  0  0  0  0  0  0  0
   44.3725   14.7189   12.0319 C   0  0  0  0  0  0  0  0  0  0  0  0
   43.6771   14.5411   10.6605 C   0  0  0  0  0  0  0  0  0  0  0  0
   44.5083   13.2769    9.6699 S   0  0  0  0  0  0  0  0  0  0  0  0
  1  3  1  0  0  0  0
  1  9  1  0  0  0  0
  2 12  1  0  0  0  0
  3  5  1  0  0  0  0
  4 12  2  0  0  0  0
  5  7  1  0  0  0  0
  6 12  2  0  0  0  0
  7  8  1  0  0  0  0
  7 10  1  0  0  0  0
  8  9  1  0  0  0  0
 10 11  1  0  0  0  0
 11 12  1  0  0  0  0
M  END
>  <CHROM.1>
-131.81987786,-55.69303179,-86.53572002,44.54504526,13.06976752,11.51070815
-1.39502464,1.14128831,-1.48867195

>  <Name>
ligand

>  <RI>
0

>  <Rbt.Current_Directory>
/home/itssahil/PROJECTS/Mol_Feturizer/New_Systems/rnas/2HO6

>  <Rbt.Executable>
rbdock ($Id: //depot/dev/client3/rdock/2013.1/src/exe/rbdock.cxx#4 $)

>  <Rbt.Library>
libRbt.so (2013.1, Build901 2013/11/27)

>  <Rbt.Parameter_File>
/export/apps/rDock/src/rDock_2013.1_src/data/scripts/dock_solv.prm

>  <Rbt.Receptor>
prm/pocket_docking_5.prm

>  <SCORE>
-9.229

>  <SCORE.INTER>
-8.68353

>  <SCORE.INTER.CONST>
1

>  <SCORE.INTER.POLAR>
0

>  <SCORE.INTER.ROT>
3

>  <SCORE.INTER.SOLV>
8.84519

>  <SCORE.INTER.VDW>
-14.3374

>  <SCORE.INTER.norm>
-0.723627

>  <SCORE.INTRA>
-0.545469

>  <SCORE.INTRA.DIHEDRAL>
2.18203

>  <SCORE.INTRA.DIHEDRAL.0>
1.88407

>  <SCORE.INTRA.POLAR>
0

>  <SCORE.INTRA.POLAR.0>
0

>  <SCORE.INTRA.REPUL>
0

>  <SCORE.INTRA.REPUL.0>
0

>  <SCORE.INTRA.SOLV>
0.374161

>  <SCORE.INTRA.SOLV.lig_0>
-10.2714

>  <SCORE.INTRA.VDW>
-1.82356

>  <SCORE.INTRA.VDW.0>
0.416923

>  <SCORE.INTRA.norm>
-0.0454558

>  <SCORE.RESTR>
0

>  <SCORE.RESTR.CAVITY>
0

>  <SCORE.RESTR.norm>
0

>  <SCORE.SYSTEM>
0

>  <SCORE.SYSTEM.CONST>
0

>  <SCORE.SYSTEM.DIHEDRAL>
0

>  <SCORE.SYSTEM.SOLV>
0

>  <SCORE.SYSTEM.norm>
0

>  <SCORE.heavy>
12

>  <SCORE.norm>
-0.769083

>  <RMSD>
5.731

$$$$
ligand
 OpenBabel11021811433D
libRbt.so/2013.1/901 2013/11/27
 12 12  0  0  0  0  0  0  0  0999 V2000
   44.7733   10.6986   14.0017 O   0  0  0  0  0  0  0  0  0  0  0  0
   50.7724   14.0334   10.4286 O   0  0  0  0  0  0  0  0  0  0  0  0
   44.9568   10.1417   12.6650 C   0  0  0  0  0  0  0  0  0  0  0  0
   49.4039   15.5725   11.7842 O   0  0  0  0  0  0  0  0  0  0  0  0
   45.8120   11.0886   11.7739 C   0  0  0  0  0  0  0  0  0  0  0  0
   50.3656   13.9424   12.3391 O   0  0  0  0  0  0  0  0  0  0  0  0
   46.2079   12.2959   12.5786 N   0  0  0  0  0  0  0  0  0  0  0  0
   44.9944   12.9985   13.0956 C   0  0  0  0  0  0  0  0  0  0  0  0
   44.1314   12.0055   13.9247 C   0  0  0  0  0  0  0  0  0  0  0  0
   47.0336   13.2617   11.7727 C   0  0  0  0  0  0  0  0  0  0  0  0
   48.5397   12.9139   11.8538 C   0  0  0  0  0  0  0  0  0  0  0  0
   49.5517   14.2459   11.1668 S   0  0  0  0  0  0  0  0  0  0  0  0
  1  3  1  0  0  0  0
  1  9  1  0  0  0  0
  2 12  1  0  0  0  0
  3  5  1  0  0  0  0
  4 12  2  0  0  0  0
  5  7  1  0  0  0  0
  6 12  2  0  0  0  0
  7  8  1  0  0  0  0
  7 10  1  0  0  0  0
  8  9  1  0  0  0  0
 10 11  1  0  0  0  0
 11 12  1  0  0  0  0
M  END
>  <CHROM.1>
-87.93199877,-168.76887373,-144.38949097,47.49493054,12.93627073,12.17264865
-2.75425737,0.49098116,0.30199840

>  <Name>
ligand

>  <RI>
0

>  <Rbt.Current_Directory>
/home/itssahil/PROJECTS/Mol_Feturizer/New_Systems/rnas/2HO6

>  <Rbt.Executable>
rbdock ($Id: //depot/dev/client3/rdock/2013.1/src/exe/rbdock.cxx#4 $)

>  <Rbt.Library>
libRbt.so (2013.1, Build901 2013/11/27)

>  <Rbt.Parameter_File>
/export/apps/rDock/src/rDock_2013.1_src/data/scripts/dock_solv.prm

>  <Rbt.Receptor>
prm/pocket_docking_2.prm

>  <SCORE>
-3.27841

>  <SCORE.INTER>
-3.044

>  <SCORE.INTER.CONST>
1

>  <SCORE.INTER.POLAR>
0

>  <SCORE.INTER.ROT>
3

>  <SCORE.INTER.SOLV>
6.90024

>  <SCORE.INTER.VDW>
-9.92941

>  <SCORE.INTER.norm>
-0.253666

>  <SCORE.INTRA>
-0.234412

>  <SCORE.INTRA.DIHEDRAL>
1.46412

>  <SCORE.INTRA.DIHEDRAL.0>
1.88407

>  <SCORE.INTRA.POLAR>
0

>  <SCORE.INTRA.POLAR.0>
0

>  <SCORE.INTRA.REPUL>
0

>  <SCORE.INTRA.REPUL.0>
0

>  <SCORE.INTRA.SOLV>
0.0908773

>  <SCORE.INTRA.SOLV.lig_0>
-10.2714

>  <SCORE.INTRA.VDW>
-1.01191

>  <SCORE.INTRA.VDW.0>
0.416923

>  <SCORE.INTRA.norm>
-0.0195343

>  <SCORE.RESTR>
0

>  <SCORE.RESTR.CAVITY>
0

>  <SCORE.RESTR.norm>
0

>  <SCORE.SYSTEM>
0

>  <SCORE.SYSTEM.CONST>
0

>  <SCORE.SYSTEM.DIHEDRAL>
0

>  <SCORE.SYSTEM.SOLV>
0

>  <SCORE.SYSTEM.norm>
0

>  <SCORE.heavy>
12

>  <SCORE.norm>
-0.273201

>  <RMSD>
5.750

$$$$
ligand
 OpenBabel11021811433D
libRbt.so/2013.1/901 2013/11/27
 12 12  0  0  0  0  0  0  0  0999 V2000
   43.5596   11.5879   14.3875 O   0  0  0  0  0  0  0  0  0  0  0  0
   43.8828   13.7954    8.3120 O   0  0  0  0  0  0  0  0  0  0  0  0
   44.7356   12.4198   14.6228 C   0  0  0  0  0  0  0  0  0  0  0  0
   43.0037   12.8535   10.4142 O   0  0  0  0  0  0  0  0  0  0  0  0
   45.6689   12.4393   13.3775 C   0  0  0  0  0  0  0  0  0  0  0  0
   44.2394   14.3674   10.1476 O   0  0  0  0  0  0  0  0  0  0  0  0
   45.0568   11.5977   12.2917 N   0  0  0  0  0  0  0  0  0  0  0  0
   44.8387   10.2006   12.7754 C   0  0  0  0  0  0  0  0  0  0  0  0
   43.9583   10.2249   14.0570 C   0  0  0  0  0  0  0  0  0  0  0  0
   45.9143   11.5656   11.0556 C   0  0  0  0  0  0  0  0  0  0  0  0
   45.7956   12.8864   10.2573 C   0  0  0  0  0  0  0  0  0  0  0  0
   44.1533   13.0536    9.5189 S   0  0  0  0  0  0  0  0  0  0  0  0
  1  3  1  0  0  0  0
  1  9  1  0  0  0  0
  2 12  1  0  0  0  0
  3  5  1  0  0  0  0
  4 12  2  0  0  0  0
  5  7  1  0  0  0  0
  6 12  2  0  0  0  0
  7  8  1  0  0  0  0
  7 10  1  0  0  0  0
  8  9  1  0  0  0  0
 10 11  1  0  0  0  0
 11 12  1  0  0  0  0
M  END
>  <CHROM.1>
-76.02501455,-68.84732885,-152.14706684,44.49236475,12.36071591,11.52053587
1.49639176,-0.45308098,1.98619197

>  <Name>
ligand

>  <RI>
0

>  <Rbt.Current_Directory>
/home/itssahil/PROJECTS/Mol_Feturizer/New_Systems/rnas/2HO6

>  <Rbt.Executable>
rbdock ($Id: //depot/dev/client3/rdock/2013.1/src/exe/rbdock.cxx#4 $)

>  <Rbt.Library>
libRbt.so (2013.1, Build901 2013/11/27)

>  <Rbt.Parameter_File>
/export/apps/rDock/src/rDock_2013.1_src/data/scripts/dock_solv.prm

>  <Rbt.Receptor>
prm/pocket_docking_6.prm

>  <SCORE>
-11.2265

>  <SCORE.INTER>
-10.4561

>  <SCORE.INTER.CONST>
1

>  <SCORE.INTER.POLAR>
0

>  <SCORE.INTER.ROT>
3

>  <SCORE.INTER.SOLV>
7.86063

>  <SCORE.INTER.VDW>
-15.1909

>  <SCORE.INTER.norm>
-0.871342

>  <SCORE.INTRA>
-0.770398

>  <SCORE.INTRA.DIHEDRAL>
0.593514

>  <SCORE.INTRA.DIHEDRAL.0>
1.88407

>  <SCORE.INTRA.POLAR>
0

>  <SCORE.INTRA.POLAR.0>
0

>  <SCORE.INTRA.REPUL>
0

>  <SCORE.INTRA.REPUL.0>
0

>  <SCORE.INTRA.SOLV>
0.983437

>  <SCORE.INTRA.SOLV.lig_0>
-10.2714

>  <SCORE.INTRA.VDW>
-1.55887

>  <SCORE.INTRA.VDW.0>
0.416923

>  <SCORE.INTRA.norm>
-0.0641998

>  <SCORE.RESTR>
0

>  <SCORE.RESTR.CAVITY>
0

>  <SCORE.RESTR.norm>
0

>  <SCORE.SYSTEM>
0

>  <SCORE.SYSTEM.CONST>
0

>  <SCORE.SYSTEM.DIHEDRAL>
0

>  <SCORE.SYSTEM.SOLV>
0

>  <SCORE.SYSTEM.norm>
0

>  <SCORE.heavy>
12

>  <SCORE.norm>
-0.935542

>  <RMSD>
5.751

$$$$
ligand
 OpenBabel11021811433D
libRbt.so/2013.1/901 2013/11/27
 12 12  0  0  0  0  0  0  0  0999 V2000
   43.5469   11.5855   14.3776 O   0  0  0  0  0  0  0  0  0  0  0  0
   43.8930   13.7973    8.3170 O   0  0  0  0  0  0  0  0  0  0  0  0
   44.7231   12.4149   14.6215 C   0  0  0  0  0  0  0  0  0  0  0  0
   43.0137   12.8328   10.4088 O   0  0  0  0  0  0  0  0  0  0  0  0
   45.6645   12.4340   13.3823 C   0  0  0  0  0  0  0  0  0  0  0  0
   44.2423   14.3552   10.1583 O   0  0  0  0  0  0  0  0  0  0  0  0
   45.0578   11.5949   12.2915 N   0  0  0  0  0  0  0  0  0  0  0  0
   44.8339   10.1976   12.7721 C   0  0  0  0  0  0  0  0  0  0  0  0
   43.9452   10.2222   14.0481 C   0  0  0  0  0  0  0  0  0  0  0  0
   45.9233   11.5625   11.0610 C   0  0  0  0  0  0  0  0  0  0  0  0
   45.8057   12.8811   10.2590 C   0  0  0  0  0  0  0  0  0  0  0  0
   44.1643   13.0465    9.5181 S   0  0  0  0  0  0  0  0  0  0  0  0
  1  3  1  0  0  0  0
  1  9  1  0  0  0  0
  2 12  1  0  0  0  0
  3  5  1  0  0  0  0
  4 12  2  0  0  0  0
  5  7  1  0  0  0  0
  6 12  2  0  0  0  0
  7  8  1  0  0  0  0
  7 10  1  0  0  0  0
  8  9  1  0  0  0  0
 10 11  1  0  0  0  0
 11 12  1  0  0  0  0
M  END
>  <CHROM.1>
-76.37531760,-68.49970356,-152.86742791,44.49398009,12.35484233,11.52030343
1.50111485,-0.44144155,1.98862184

>  <Name>
ligand

>  <RI>
0

>  <Rbt.Current_Directory>
/home/itssahil/PROJECTS/Mol_Feturizer/New_Systems/rnas/2HO6

>  <Rbt.Executable>
rbdock ($Id: //depot/dev/client3/rdock/2013.1/src/exe/rbdock.cxx#4 $)

>  <Rbt.Library>
libRbt.so (2013.1, Build901 2013/11/27)

>  <Rbt.Parameter_File>
/export/apps/rDock/src/rDock_2013.1_src/data/scripts/dock_solv.prm

>  <Rbt.Receptor>
prm/pocket_docking_6.prm

>  <SCORE>
-11.2255

>  <SCORE.INTER>
-10.4459

>  <SCORE.INTER.CONST>
1

>  <SCORE.INTER.POLAR>
0

>  <SCORE.INTER.ROT>
3

>  <SCORE.INTER.SOLV>
7.85878

>  <SCORE.INTER.VDW>
-15.1835

>  <SCORE.INTER.norm>
-0.870489

>  <SCORE.INTRA>
-0.779647

>  <SCORE.INTRA.DIHEDRAL>
0.588694

>  <SCORE.INTRA.DIHEDRAL.0>
1.88407

>  <SCORE.INTRA.POLAR>
0

>  <SCORE.INTRA.POLAR.0>
0

>  <SCORE.INTRA.REPUL>
0

>  <SCORE.INTRA.REPUL.0>
0

>  <SCORE.INTRA.SOLV>
0.999926

>  <SCORE.INTRA.SOLV.lig_0>
-10.2714

>  <SCORE.INTRA.VDW>
-1.57396

>  <SCORE.INTRA.VDW.0>
0.416923

>  <SCORE.INTRA.norm>
-0.0649706

>  <SCORE.RESTR>
0

>  <SCORE.RESTR.CAVITY>
0

>  <SCORE.RESTR.norm>
0

>  <SCORE.SYSTEM>
0

>  <SCORE.SYSTEM.CONST>
0

>  <SCORE.SYSTEM.DIHEDRAL>
0

>  <SCORE.SYSTEM.SOLV>
0

>  <SCORE.SYSTEM.norm>
0

>  <SCORE.heavy>
12

>  <SCORE.norm>
-0.93546

>  <RMSD>
5.753

$$$$
ligand
 OpenBabel11021811433D
libRbt.so/2013.1/901 2013/11/27
 12 12  0  0  0  0  0  0  0  0999 V2000
   43.6065   10.7766   13.9536 O   0  0  0  0  0  0  0  0  0  0  0  0
   43.7048   14.0106    8.4074 O   0  0  0  0  0  0  0  0  0  0  0  0
   43.8802   11.9666   14.7533 C   0  0  0  0  0  0  0  0  0  0  0  0
   43.8796   12.0045    9.8301 O   0  0  0  0  0  0  0  0  0  0  0  0
   44.7716   12.9759   13.9729 C   0  0  0  0  0  0  0  0  0  0  0  0
   43.1017   13.7672   10.2516 O   0  0  0  0  0  0  0  0  0  0  0  0
   45.0679   12.4167   12.6085 N   0  0  0  0  0  0  0  0  0  0  0  0
   45.7404   11.0871   12.7249 C   0  0  0  0  0  0  0  0  0  0  0  0
   44.8526   10.1265   13.5659 C   0  0  0  0  0  0  0  0  0  0  0  0
   45.9360   13.3415   11.7991 C   0  0  0  0  0  0  0  0  0  0  0  0
   45.0809   14.2836   10.9176 C   0  0  0  0  0  0  0  0  0  0  0  0
   44.3201   13.3792    9.5488 S   0  0  0  0  0  0  0  0  0  0  0  0
  1  3  1  0  0  0  0
  1  9  1  0  0  0  0
  2 12  1  0  0  0  0
  3  5  1  0  0  0  0
  4 12  2  0  0  0  0
  5  7  1  0  0  0  0
  6 12  2  0  0  0  0
  7  8  1  0  0  0  0
  7 10  1  0  0  0  0
  8  9  1  0  0  0  0
 10 11  1  0  0  0  0
 11 12  1  0  0  0  0
M  END
>  <CHROM.1>
-93.08622213,-71.72395945,-166.43290177,44.44142241,12.59713635,11.59556490
1.37490393,1.01932286,2.20673522

>  <Name>
ligand

>  <RI>
0

>  <Rbt.Current_Directory>
/home/itssahil/PROJECTS/Mol_Feturizer/New_Systems/rnas/2HO6

>  <Rbt.Executable>
rbdock ($Id: //depot/dev/client3/rdock/2013.1/src/exe/rbdock.cxx#4 $)

>  <Rbt.Library>
libRbt.so (2013.1, Build901 2013/11/27)

>  <Rbt.Parameter_File>
/export/apps/rDock/src/rDock_2013.1_src/data/scripts/dock_solv.prm

>  <Rbt.Receptor>
prm/pocket_docking_5.prm

>  <SCORE>
-9.73572

>  <SCORE.INTER>
-9.39299

>  <SCORE.INTER.CONST>
1

>  <SCORE.INTER.POLAR>
0

>  <SCORE.INTER.ROT>
3

>  <SCORE.INTER.SOLV>
7.62516

>  <SCORE.INTER.VDW>
-14.4037

>  <SCORE.INTER.norm>
-0.782749

>  <SCORE.INTRA>
-0.342729

>  <SCORE.INTRA.DIHEDRAL>
1.83199

>  <SCORE.INTRA.DIHEDRAL.0>
1.88407

>  <SCORE.INTRA.POLAR>
0

>  <SCORE.INTRA.POLAR.0>
0

>  <SCORE.INTRA.REPUL>
0

>  <SCORE.INTRA.REPUL.0>
0

>  <SCORE.INTRA.SOLV>
1.10024

>  <SCORE.INTRA.SOLV.lig_0>
-10.2714

>  <SCORE.INTRA.VDW>
-1.80884

>  <SCORE.INTRA.VDW.0>
0.416923

>  <SCORE.INTRA.norm>
-0.0285608

>  <SCORE.RESTR>
0

>  <SCORE.RESTR.CAVITY>
0

>  <SCORE.RESTR.norm>
0

>  <SCORE.SYSTEM>
0

>  <SCORE.SYSTEM.CONST>
0

>  <SCORE.SYSTEM.DIHEDRAL>
0

>  <SCORE.SYSTEM.SOLV>
0

>  <SCORE.SYSTEM.norm>
0

>  <SCORE.heavy>
12

>  <SCORE.norm>
-0.81131

>  <RMSD>
5.756

$$$$
ligand
 OpenBabel11021811433D
libRbt.so/2013.1/901 2013/11/27
 12 12  0  0  0  0  0  0  0  0999 V2000
   43.5736   11.5537   14.4034 O   0  0  0  0  0  0  0  0  0  0  0  0
   43.8667   13.7924    8.3131 O   0  0  0  0  0  0  0  0  0  0  0  0
   44.7533   12.3794   14.6426 C   0  0  0  0  0  0  0  0  0  0  0  0
   42.9827   12.8238   10.4011 O   0  0  0  0  0  0  0  0  0  0  0  0
   45.6787   12.4137   13.3918 C   0  0  0  0  0  0  0  0  0  0  0  0
   44.1987   14.3571   10.1556 O   0  0  0  0  0  0  0  0  0  0  0  0
   45.0576   11.5888   12.2983 N   0  0  0  0  0  0  0  0  0  0  0  0
   44.8389   10.1857   12.7641 C   0  0  0  0  0  0  0  0  0  0  0  0
   43.9668   10.1945   14.0515 C   0  0  0  0  0  0  0  0  0  0  0  0
   45.9071   11.5716   11.0565 C   0  0  0  0  0  0  0  0  0  0  0  0
   45.7750   12.8978   10.2694 C   0  0  0  0  0  0  0  0  0  0  0  0
   44.1371   13.0464    9.5175 S   0  0  0  0  0  0  0  0  0  0  0  0
  1  3  1  0  0  0  0
  1  9  1  0  0  0  0
  2 12  1  0  0  0  0
  3  5  1  0  0  0  0
  4 12  2  0  0  0  0
  5  7  1  0  0  0  0
  6 12  2  0  0  0  0
  7  8  1  0  0  0  0
  7 10  1  0  0  0  0
  8  9  1  0  0  0  0
 10 11  1  0  0  0  0
 11 12  1  0  0  0  0
M  END
>  <CHROM.1>
-76.63488293,-69.89564632,-151.98096848,44.48510565,12.34574460,11.52392786
1.49008738,-0.41295803,1.98872693

>  <Name>
ligand

>  <RI>
0

>  <Rbt.Current_Directory>
/home/itssahil/PROJECTS/Mol_Feturizer/New_Systems/rnas/2HO6

>  <Rbt.Executable>
rbdock ($Id: //depot/dev/client3/rdock/2013.1/src/exe/rbdock.cxx#4 $)

>  <Rbt.Library>
libRbt.so (2013.1, Build901 2013/11/27)

>  <Rbt.Parameter_File>
/export/apps/rDock/src/rDock_2013.1_src/data/scripts/dock_solv.prm

>  <Rbt.Receptor>
prm/pocket_docking_7.prm

>  <SCORE>
-11.2167

>  <SCORE.INTER>
-10.4843

>  <SCORE.INTER.CONST>
1

>  <SCORE.INTER.POLAR>
0

>  <SCORE.INTER.ROT>
3

>  <SCORE.INTER.SOLV>
7.93588

>  <SCORE.INTER.VDW>
-15.2349

>  <SCORE.INTER.norm>
-0.873695

>  <SCORE.INTRA>
-0.73232

>  <SCORE.INTRA.DIHEDRAL>
0.695423

>  <SCORE.INTRA.DIHEDRAL.0>
1.88407

>  <SCORE.INTRA.POLAR>
0

>  <SCORE.INTRA.POLAR.0>
0

>  <SCORE.INTRA.REPUL>
0

>  <SCORE.INTRA.REPUL.0>
0

>  <SCORE.INTRA.SOLV>
0.959773

>  <SCORE.INTRA.SOLV.lig_0>
-10.2714

>  <SCORE.INTRA.VDW>
-1.55992

>  <SCORE.INTRA.VDW.0>
0.416923

>  <SCORE.INTRA.norm>
-0.0610267

>  <SCORE.RESTR>
0

>  <SCORE.RESTR.CAVITY>
0

>  <SCORE.RESTR.norm>
0

>  <SCORE.SYSTEM>
0

>  <SCORE.SYSTEM.CONST>
0

>  <SCORE.SYSTEM.DIHEDRAL>
0

>  <SCORE.SYSTEM.SOLV>
0

>  <SCORE.SYSTEM.norm>
0

>  <SCORE.heavy>
12

>  <SCORE.norm>
-0.934722

>  <RMSD>
5.756

$$$$
ligand
 OpenBabel11021811433D
libRbt.so/2013.1/901 2013/11/27
 12 12  0  0  0  0  0  0  0  0999 V2000
   43.5480   10.8720   14.0479 O   0  0  0  0  0  0  0  0  0  0  0  0
   44.0945   11.9162    9.6450 O   0  0  0  0  0  0  0  0  0  0  0  0
   43.6895   12.1520   14.7351 C   0  0  0  0  0  0  0  0  0  0  0  0
   43.6617   14.0757    8.5368 O   0  0  0  0  0  0  0  0  0  0  0  0
   44.5921   13.1280   13.9258 C   0  0  0  0  0  0  0  0  0  0  0  0
   45.3821   13.2685    9.0644 O   0  0  0  0  0  0  0  0  0  0  0  0
   45.0342   12.4510   12.6577 N   0  0  0  0  0  0  0  0  0  0  0  0
   45.7617   11.1834   12.9699 C   0  0  0  0  0  0  0  0  0  0  0  0
   44.8550   10.2620   13.8342 C   0  0  0  0  0  0  0  0  0  0  0  0
   45.9205   13.3388   11.8268 C   0  0  0  0  0  0  0  0  0  0  0  0
   45.0842   14.2880   10.9350 C   0  0  0  0  0  0  0  0  0  0  0  0
   44.0938   13.3550    9.7437 S   0  0  0  0  0  0  0  0  0  0  0  0
  1  3  1  0  0  0  0
  1  9  1  0  0  0  0
  2 12  1  0  0  0  0
  3  5  1  0  0  0  0
  4 12  2  0  0  0  0
  5  7  1  0  0  0  0
  6 12  2  0  0  0  0
  7  8  1  0  0  0  0
  7 10  1  0  0  0  0
  8  9  1  0  0  0  0
 10 11  1  0  0  0  0
 11 12  1  0  0  0  0
M  END
>  <CHROM.1>
-84.42498249,-63.13776027,-0.15753640,44.57290538,12.60172507,11.57228451
1.53766601,1.18232981,2.01086797

>  <Name>
ligand

>  <RI>
0

>  <Rbt.Current_Directory>
/home/itssahil/PROJECTS/Mol_Feturizer/New_Systems/rnas/2HO6

>  <Rbt.Executable>
rbdock ($Id: //depot/dev/client3/rdock/2013.1/src/exe/rbdock.cxx#4 $)

>  <Rbt.Library>
libRbt.so (2013.1, Build901 2013/11/27)

>  <Rbt.Parameter_File>
/export/apps/rDock/src/rDock_2013.1_src/data/scripts/dock_solv.prm

>  <Rbt.Receptor>
prm/pocket_docking_5.prm

>  <SCORE>
-9.16562

>  <SCORE.INTER>
-8.67622

>  <SCORE.INTER.CONST>
1

>  <SCORE.INTER.POLAR>
0

>  <SCORE.INTER.ROT>
3

>  <SCORE.INTER.SOLV>
8.12781

>  <SCORE.INTER.VDW>
-14.0934

>  <SCORE.INTER.norm>
-0.723018

>  <SCORE.INTRA>
-0.489399

>  <SCORE.INTRA.DIHEDRAL>
0.900575

>  <SCORE.INTRA.DIHEDRAL.0>
1.88407

>  <SCORE.INTRA.POLAR>
0

>  <SCORE.INTRA.POLAR.0>
0

>  <SCORE.INTRA.REPUL>
0

>  <SCORE.INTRA.REPUL.0>
0

>  <SCORE.INTRA.SOLV>
0.314768

>  <SCORE.INTRA.SOLV.lig_0>
-10.2714

>  <SCORE.INTRA.VDW>
-1.09707

>  <SCORE.INTRA.VDW.0>
0.416923

>  <SCORE.INTRA.norm>
-0.0407832

>  <SCORE.RESTR>
0

>  <SCORE.RESTR.CAVITY>
0

>  <SCORE.RESTR.norm>
0

>  <SCORE.SYSTEM>
0

>  <SCORE.SYSTEM.CONST>
0

>  <SCORE.SYSTEM.DIHEDRAL>
0

>  <SCORE.SYSTEM.SOLV>
0

>  <SCORE.SYSTEM.norm>
0

>  <SCORE.heavy>
12

>  <SCORE.norm>
-0.763802

>  <RMSD>
5.784

$$$$
ligand
 OpenBabel11021811433D
libRbt.so/2013.1/901 2013/11/27
 12 12  0  0  0  0  0  0  0  0999 V2000
   43.3788   11.9120   14.4119 O   0  0  0  0  0  0  0  0  0  0  0  0
   47.0264   14.5289   11.4212 O   0  0  0  0  0  0  0  0  0  0  0  0
   44.6681   12.3820   14.9093 C   0  0  0  0  0  0  0  0  0  0  0  0
   48.8174   13.0076   12.1674 O   0  0  0  0  0  0  0  0  0  0  0  0
   45.8305   11.9186   13.9840 C   0  0  0  0  0  0  0  0  0  0  0  0
   48.0956   13.2878   10.3534 O   0  0  0  0  0  0  0  0  0  0  0  0
   45.2606   11.1325   12.8354 N   0  0  0  0  0  0  0  0  0  0  0  0
   44.4799    9.9627   13.3408 C   0  0  0  0  0  0  0  0  0  0  0  0
   43.3713   10.4574   14.3127 C   0  0  0  0  0  0  0  0  0  0  0  0
   46.3346   10.6447   11.9011 C   0  0  0  0  0  0  0  0  0  0  0  0
   46.7037   11.7274   10.8584 C   0  0  0  0  0  0  0  0  0  0  0  0
   47.4482   13.1698   11.6556 S   0  0  0  0  0  0  0  0  0  0  0  0
  1  3  1  0  0  0  0
  1  9  1  0  0  0  0
  2 12  1  0  0  0  0
  3  5  1  0  0  0  0
  4 12  2  0  0  0  0
  5  7  1  0  0  0  0
  6 12  2  0  0  0  0
  7  8  1  0  0  0  0
  7 10  1  0  0  0  0
  8  9  1  0  0  0  0
 10 11  1  0  0  0  0
 11 12  1  0  0  0  0
M  END
>  <CHROM.1>
-84.92923285,64.95560544,-130.07307992,46.12600737,12.16630335,12.56019434
3.02282939,-0.75876070,-2.66383992

>  <Name>
ligand

>  <RI>
0

>  <Rbt.Current_Directory>
/home/itssahil/PROJECTS/Mol_Feturizer/New_Systems/rnas/2HO6

>  <Rbt.Executable>
rbdock ($Id: //depot/dev/client3/rdock/2013.1/src/exe/rbdock.cxx#4 $)

>  <Rbt.Library>
libRbt.so (2013.1, Build901 2013/11/27)

>  <Rbt.Parameter_File>
/export/apps/rDock/src/rDock_2013.1_src/data/scripts/dock_solv.prm

>  <Rbt.Receptor>
prm/pocket_docking_3.prm

>  <SCORE>
-7.56124

>  <SCORE.INTER>
-6.9565

>  <SCORE.INTER.CONST>
1

>  <SCORE.INTER.POLAR>
0

>  <SCORE.INTER.ROT>
3

>  <SCORE.INTER.SOLV>
7.32804

>  <SCORE.INTER.VDW>
-12.6803

>  <SCORE.INTER.norm>
-0.579708

>  <SCORE.INTRA>
-0.604744

>  <SCORE.INTRA.DIHEDRAL>
0.948189

>  <SCORE.INTRA.DIHEDRAL.0>
1.88407

>  <SCORE.INTRA.POLAR>
0

>  <SCORE.INTRA.POLAR.0>
0

>  <SCORE.INTRA.REPUL>
0

>  <SCORE.INTRA.REPUL.0>
0

>  <SCORE.INTRA.SOLV>
0.41189

>  <SCORE.INTRA.SOLV.lig_0>
-10.2714

>  <SCORE.INTRA.VDW>
-1.28478

>  <SCORE.INTRA.VDW.0>
0.416923

>  <SCORE.INTRA.norm>
-0.0503953

>  <SCORE.RESTR>
0

>  <SCORE.RESTR.CAVITY>
0

>  <SCORE.RESTR.norm>
0

>  <SCORE.SYSTEM>
0

>  <SCORE.SYSTEM.CONST>
0

>  <SCORE.SYSTEM.DIHEDRAL>
0

>  <SCORE.SYSTEM.SOLV>
0

>  <SCORE.SYSTEM.norm>
0

>  <SCORE.heavy>
12

>  <SCORE.norm>
-0.630103

>  <RMSD>
5.785

$$$$
ligand
 OpenBabel11021811433D
libRbt.so/2013.1/901 2013/11/27
 12 12  0  0  0  0  0  0  0  0999 V2000
   43.4163   10.7849   14.0169 O   0  0  0  0  0  0  0  0  0  0  0  0
   43.5915   12.4363    9.2390 O   0  0  0  0  0  0  0  0  0  0  0  0
   44.1135   11.6540   14.9599 C   0  0  0  0  0  0  0  0  0  0  0  0
   44.2511   14.6910    9.9879 O   0  0  0  0  0  0  0  0  0  0  0  0
   45.2448   12.4567   14.2543 C   0  0  0  0  0  0  0  0  0  0  0  0
   45.1813   13.4661    8.7533 O   0  0  0  0  0  0  0  0  0  0  0  0
   45.2625   12.0998   12.7934 N   0  0  0  0  0  0  0  0  0  0  0  0
   45.4608   10.6289   12.6184 C   0  0  0  0  0  0  0  0  0  0  0  0
   44.3524    9.8588   13.3909 C   0  0  0  0  0  0  0  0  0  0  0  0
   46.3423   12.8370   12.0484 C   0  0  0  0  0  0  0  0  0  0  0  0
   46.1528   12.7103   10.5175 C   0  0  0  0  0  0  0  0  0  0  0  0
   44.4966   13.2414   10.0219 S   0  0  0  0  0  0  0  0  0  0  0  0
  1  3  1  0  0  0  0
  1  9  1  0  0  0  0
  2 12  1  0  0  0  0
  3  5  1  0  0  0  0
  4 12  2  0  0  0  0
  5  7  1  0  0  0  0
  6 12  2  0  0  0  0
  7  8  1  0  0  0  0
  7 10  1  0  0  0  0
  8  9  1  0  0  0  0
 10 11  1  0  0  0  0
 11 12  1  0  0  0  0
M  END
>  <CHROM.1>
-167.29560580,54.31756799,-126.35059935,44.76296481,12.35648666,11.65431844
1.61743788,0.68888403,2.02446510

>  <Name>
ligand

>  <RI>
0

>  <Rbt.Current_Directory>
/home/itssahil/PROJECTS/Mol_Feturizer/New_Systems/rnas/2HO6

>  <Rbt.Executable>
rbdock ($Id: //depot/dev/client3/rdock/2013.1/src/exe/rbdock.cxx#4 $)

>  <Rbt.Library>
libRbt.so (2013.1, Build901 2013/11/27)

>  <Rbt.Parameter_File>
/export/apps/rDock/src/rDock_2013.1_src/data/scripts/dock_solv.prm

>  <Rbt.Receptor>
prm/pocket_docking_5.prm

>  <SCORE>
-9.27388

>  <SCORE.INTER>
-8.57538

>  <SCORE.INTER.CONST>
1

>  <SCORE.INTER.POLAR>
0

>  <SCORE.INTER.ROT>
3

>  <SCORE.INTER.SOLV>
7.50595

>  <SCORE.INTER.VDW>
-13.8189

>  <SCORE.INTER.norm>
-0.714615

>  <SCORE.INTRA>
-0.698499

>  <SCORE.INTRA.DIHEDRAL>
0.237707

>  <SCORE.INTRA.DIHEDRAL.0>
1.88407

>  <SCORE.INTRA.POLAR>
0

>  <SCORE.INTRA.POLAR.0>
0

>  <SCORE.INTRA.REPUL>
0

>  <SCORE.INTRA.REPUL.0>
0

>  <SCORE.INTRA.SOLV>
0.36443

>  <SCORE.INTRA.SOLV.lig_0>
-10.2714

>  <SCORE.INTRA.VDW>
-0.999567

>  <SCORE.INTRA.VDW.0>
0.416923

>  <SCORE.INTRA.norm>
-0.0582083

>  <SCORE.RESTR>
0

>  <SCORE.RESTR.CAVITY>
0

>  <SCORE.RESTR.norm>
0

>  <SCORE.SYSTEM>
0

>  <SCORE.SYSTEM.CONST>
0

>  <SCORE.SYSTEM.DIHEDRAL>
0

>  <SCORE.SYSTEM.SOLV>
0

>  <SCORE.SYSTEM.norm>
0

>  <SCORE.heavy>
12

>  <SCORE.norm>
-0.772823

>  <RMSD>
5.792

$$$$
ligand
 OpenBabel11021811433D
libRbt.so/2013.1/901 2013/11/27
 12 12  0  0  0  0  0  0  0  0999 V2000
   44.2723   10.6548   13.9150 O   0  0  0  0  0  0  0  0  0  0  0  0
   45.5631   13.5041    8.6860 O   0  0  0  0  0  0  0  0  0  0  0  0
   44.1770   11.6827   14.9471 C   0  0  0  0  0  0  0  0  0  0  0  0
   43.7287   12.0076    9.3751 O   0  0  0  0  0  0  0  0  0  0  0  0
   44.3134   13.1075   14.3360 C   0  0  0  0  0  0  0  0  0  0  0  0
   43.6457   13.8805    8.7624 O   0  0  0  0  0  0  0  0  0  0  0  0
   44.4866   12.9888   12.8468 N   0  0  0  0  0  0  0  0  0  0  0  0
   45.6826   12.1521   12.5261 C   0  0  0  0  0  0  0  0  0  0  0  0
   45.5425   10.7610   13.2070 C   0  0  0  0  0  0  0  0  0  0  0  0
   44.6331   14.3345   12.1896 C   0  0  0  0  0  0  0  0  0  0  0  0
   43.8749   14.3845   10.8411 C   0  0  0  0  0  0  0  0  0  0  0  0
   44.5557   13.1879    9.6685 S   0  0  0  0  0  0  0  0  0  0  0  0
  1  3  1  0  0  0  0
  1  9  1  0  0  0  0
  2 12  1  0  0  0  0
  3  5  1  0  0  0  0
  4 12  2  0  0  0  0
  5  7  1  0  0  0  0
  6 12  2  0  0  0  0
  7  8  1  0  0  0  0
  7 10  1  0  0  0  0
  8  9  1  0  0  0  0
 10 11  1  0  0  0  0
 11 12  1  0  0  0  0
M  END
>  <CHROM.1>
-140.64095375,-62.49512455,-94.26270876,44.53149944,12.75539544,11.51475779
-1.35807925,1.36867743,-1.43776112

>  <Name>
ligand

>  <RI>
0

>  <Rbt.Current_Directory>
/home/itssahil/PROJECTS/Mol_Feturizer/New_Systems/rnas/2HO6

>  <Rbt.Executable>
rbdock ($Id: //depot/dev/client3/rdock/2013.1/src/exe/rbdock.cxx#4 $)

>  <Rbt.Library>
libRbt.so (2013.1, Build901 2013/11/27)

>  <Rbt.Parameter_File>
/export/apps/rDock/src/rDock_2013.1_src/data/scripts/dock_solv.prm

>  <Rbt.Receptor>
prm/pocket_docking_5.prm

>  <SCORE>
-9.35203

>  <SCORE.INTER>
-8.80989

>  <SCORE.INTER.CONST>
1

>  <SCORE.INTER.POLAR>
0

>  <SCORE.INTER.ROT>
3

>  <SCORE.INTER.SOLV>
8.79198

>  <SCORE.INTER.VDW>
-14.4039

>  <SCORE.INTER.norm>
-0.734157

>  <SCORE.INTRA>
-0.542143

>  <SCORE.INTRA.DIHEDRAL>
1.70596

>  <SCORE.INTRA.DIHEDRAL.0>
1.88407

>  <SCORE.INTRA.POLAR>
0

>  <SCORE.INTRA.POLAR.0>
0

>  <SCORE.INTRA.REPUL>
0

>  <SCORE.INTRA.REPUL.0>
0

>  <SCORE.INTRA.SOLV>
0.455995

>  <SCORE.INTRA.SOLV.lig_0>
-10.2714

>  <SCORE.INTRA.VDW>
-1.62312

>  <SCORE.INTRA.VDW.0>
0.416923

>  <SCORE.INTRA.norm>
-0.0451786

>  <SCORE.RESTR>
0

>  <SCORE.RESTR.CAVITY>
0

>  <SCORE.RESTR.norm>
0

>  <SCORE.SYSTEM>
0

>  <SCORE.SYSTEM.CONST>
0

>  <SCORE.SYSTEM.DIHEDRAL>
0

>  <SCORE.SYSTEM.SOLV>
0

>  <SCORE.SYSTEM.norm>
0

>  <SCORE.heavy>
12

>  <SCORE.norm>
-0.779336

>  <RMSD>
5.814

$$$$
ligand
 OpenBabel11021811433D
libRbt.so/2013.1/901 2013/11/27
 12 12  0  0  0  0  0  0  0  0999 V2000
   43.5073   10.9599   14.1186 O   0  0  0  0  0  0  0  0  0  0  0  0
   42.7994   13.4200   10.6176 O   0  0  0  0  0  0  0  0  0  0  0  0
   44.0071   12.1241   14.8434 C   0  0  0  0  0  0  0  0  0  0  0  0
   43.7516   14.0300    8.4267 O   0  0  0  0  0  0  0  0  0  0  0  0
   44.9582   12.9753   13.9528 C   0  0  0  0  0  0  0  0  0  0  0  0
   43.7235   12.2762    9.3286 O   0  0  0  0  0  0  0  0  0  0  0  0
   45.0590   12.3390   12.5939 N   0  0  0  0  0  0  0  0  0  0  0  0
   45.5518   10.9330   12.7118 C   0  0  0  0  0  0  0  0  0  0  0  0
   44.6160   10.1313   13.6604 C   0  0  0  0  0  0  0  0  0  0  0  0
   45.9732   13.1090   11.6798 C   0  0  0  0  0  0  0  0  0  0  0  0
   45.5941   12.8906   10.1950 C   0  0  0  0  0  0  0  0  0  0  0  0
   43.9842   13.6247    9.8211 S   0  0  0  0  0  0  0  0  0  0  0  0
  1  3  1  0  0  0  0
  1  9  1  0  0  0  0
  2 12  1  0  0  0  0
  3  5  1  0  0  0  0
  4 12  2  0  0  0  0
  5  7  1  0  0  0  0
  6 12  2  0  0  0  0
  7  8  1  0  0  0  0
  7 10  1  0  0  0  0
  8  9  1  0  0  0  0
 10 11  1  0  0  0  0
 11 12  1  0  0  0  0
M  END
>  <CHROM.1>
-153.64507091,67.18270034,-48.80732208,44.37493958,12.52569346,11.59361107
1.45745307,-0.01669435,1.99472891

>  <Name>
ligand

>  <RI>
0

>  <Rbt.Current_Directory>
/home/itssahil/PROJECTS/Mol_Feturizer/New_Systems/rnas/2HO6

>  <Rbt.Executable>
rbdock ($Id: //depot/dev/client3/rdock/2013.1/src/exe/rbdock.cxx#4 $)

>  <Rbt.Library>
libRbt.so (2013.1, Build901 2013/11/27)

>  <Rbt.Parameter_File>
/export/apps/rDock/src/rDock_2013.1_src/data/scripts/dock_solv.prm

>  <Rbt.Receptor>
prm/pocket_docking_6.prm

>  <SCORE>
-10.0688

>  <SCORE.INTER>
-9.08507

>  <SCORE.INTER.CONST>
1

>  <SCORE.INTER.POLAR>
0

>  <SCORE.INTER.ROT>
3

>  <SCORE.INTER.SOLV>
9.18675

>  <SCORE.INTER.VDW>
-14.719

>  <SCORE.INTER.norm>
-0.757089

>  <SCORE.INTRA>
-0.983748

>  <SCORE.INTRA.DIHEDRAL>
0.950118

>  <SCORE.INTRA.DIHEDRAL.0>
1.88407

>  <SCORE.INTRA.POLAR>
0

>  <SCORE.INTRA.POLAR.0>
0

>  <SCORE.INTRA.REPUL>
0

>  <SCORE.INTRA.REPUL.0>
0

>  <SCORE.INTRA.SOLV>
0.338624

>  <SCORE.INTRA.SOLV.lig_0>
-10.2714

>  <SCORE.INTRA.VDW>
-1.62812

>  <SCORE.INTRA.VDW.0>
0.416923

>  <SCORE.INTRA.norm>
-0.081979

>  <SCORE.RESTR>
0

>  <SCORE.RESTR.CAVITY>
0

>  <SCORE.RESTR.norm>
0

>  <SCORE.SYSTEM>
0

>  <SCORE.SYSTEM.CONST>
0

>  <SCORE.SYSTEM.DIHEDRAL>
0

>  <SCORE.SYSTEM.SOLV>
0

>  <SCORE.SYSTEM.norm>
0

>  <SCORE.heavy>
12

>  <SCORE.norm>
-0.839068

>  <RMSD>
5.819

$$$$
ligand
 OpenBabel11021811433D
libRbt.so/2013.1/901 2013/11/27
 12 12  0  0  0  0  0  0  0  0999 V2000
   44.9554   11.0942   14.2765 O   0  0  0  0  0  0  0  0  0  0  0  0
   45.4518   13.7916    9.5149 O   0  0  0  0  0  0  0  0  0  0  0  0
   44.3317   11.9696   15.2640 C   0  0  0  0  0  0  0  0  0  0  0  0
   43.7264   12.0416    9.3153 O   0  0  0  0  0  0  0  0  0  0  0  0
   43.8061   13.2774   14.6040 C   0  0  0  0  0  0  0  0  0  0  0  0
   43.5866   13.9761    8.9575 O   0  0  0  0  0  0  0  0  0  0  0  0
   44.0898   13.2309   13.1277 N   0  0  0  0  0  0  0  0  0  0  0  0
   45.5542   13.0590   12.8834 C   0  0  0  0  0  0  0  0  0  0  0  0
   46.0569   11.7804   13.6118 C   0  0  0  0  0  0  0  0  0  0  0  0
   43.6130   14.4731   12.4250 C   0  0  0  0  0  0  0  0  0  0  0  0
   43.0323   14.1391   11.0296 C   0  0  0  0  0  0  0  0  0  0  0  0
   44.2299   13.2244   10.0299 S   0  0  0  0  0  0  0  0  0  0  0  0
  1  3  1  0  0  0  0
  1  9  1  0  0  0  0
  2 12  1  0  0  0  0
  3  5  1  0  0  0  0
  4 12  2  0  0  0  0
  5  7  1  0  0  0  0
  6 12  2  0  0  0  0
  7  8  1  0  0  0  0
  7 10  1  0  0  0  0
  8  9  1  0  0  0  0
 10 11  1  0  0  0  0
 11 12  1  0  0  0  0
M  END
>  <CHROM.1>
-142.45689897,-54.99799931,-68.63531239,44.35904278,13.01380912,11.83174830
-1.37058344,0.84417351,-1.46778611

>  <Name>
ligand

>  <RI>
0

>  <Rbt.Current_Directory>
/home/itssahil/PROJECTS/Mol_Feturizer/New_Systems/rnas/2HO6

>  <Rbt.Executable>
rbdock ($Id: //depot/dev/client3/rdock/2013.1/src/exe/rbdock.cxx#4 $)

>  <Rbt.Library>
libRbt.so (2013.1, Build901 2013/11/27)

>  <Rbt.Parameter_File>
/export/apps/rDock/src/rDock_2013.1_src/data/scripts/dock_solv.prm

>  <Rbt.Receptor>
prm/pocket_docking_5.prm

>  <SCORE>
-9.15404

>  <SCORE.INTER>
-8.53884

>  <SCORE.INTER.CONST>
1

>  <SCORE.INTER.POLAR>
0

>  <SCORE.INTER.ROT>
3

>  <SCORE.INTER.SOLV>
9.01744

>  <SCORE.INTER.VDW>
-14.2984

>  <SCORE.INTER.norm>
-0.71157

>  <SCORE.INTRA>
-0.6152

>  <SCORE.INTRA.DIHEDRAL>
1.61431

>  <SCORE.INTRA.DIHEDRAL.0>
1.88407

>  <SCORE.INTRA.POLAR>
0

>  <SCORE.INTRA.POLAR.0>
0

>  <SCORE.INTRA.REPUL>
0

>  <SCORE.INTRA.REPUL.0>
0

>  <SCORE.INTRA.SOLV>
0.264974

>  <SCORE.INTRA.SOLV.lig_0>
-10.2714

>  <SCORE.INTRA.VDW>
-1.55484

>  <SCORE.INTRA.VDW.0>
0.416923

>  <SCORE.INTRA.norm>
-0.0512667

>  <SCORE.RESTR>
0

>  <SCORE.RESTR.CAVITY>
0

>  <SCORE.RESTR.norm>
0

>  <SCORE.SYSTEM>
0

>  <SCORE.SYSTEM.CONST>
0

>  <SCORE.SYSTEM.DIHEDRAL>
0

>  <SCORE.SYSTEM.SOLV>
0

>  <SCORE.SYSTEM.norm>
0

>  <SCORE.heavy>
12

>  <SCORE.norm>
-0.762837

>  <RMSD>
5.830

$$$$
ligand
 OpenBabel11021811433D
libRbt.so/2013.1/901 2013/11/27
 12 12  0  0  0  0  0  0  0  0999 V2000
   44.6619   10.4147   14.0148 O   0  0  0  0  0  0  0  0  0  0  0  0
   49.2028   15.1617   10.8198 O   0  0  0  0  0  0  0  0  0  0  0  0
   44.7746    9.9774   12.6268 C   0  0  0  0  0  0  0  0  0  0  0  0
   51.0101   13.9147   11.9414 O   0  0  0  0  0  0  0  0  0  0  0  0
   45.6623   10.9526   11.8003 C   0  0  0  0  0  0  0  0  0  0  0  0
   49.8125   13.3340   10.4859 O   0  0  0  0  0  0  0  0  0  0  0  0
   46.1535   12.0526   12.7007 N   0  0  0  0  0  0  0  0  0  0  0  0
   45.0000   12.7733   13.3202 C   0  0  0  0  0  0  0  0  0  0  0  0
   44.1001   11.7586   14.0809 C   0  0  0  0  0  0  0  0  0  0  0  0
   47.0153   13.0403   11.9618 C   0  0  0  0  0  0  0  0  0  0  0  0
   48.5128   12.6621   12.0629 C   0  0  0  0  0  0  0  0  0  0  0  0
   49.5679   14.0880   11.7108 S   0  0  0  0  0  0  0  0  0  0  0  0
  1  3  1  0  0  0  0
  1  9  1  0  0  0  0
  2 12  1  0  0  0  0
  3  5  1  0  0  0  0
  4 12  2  0  0  0  0
  5  7  1  0  0  0  0
  6 12  2  0  0  0  0
  7  8  1  0  0  0  0
  7 10  1  0  0  0  0
  8  9  1  0  0  0  0
 10 11  1  0  0  0  0
 11 12  1  0  0  0  0
M  END
>  <CHROM.1>
-92.74247204,-159.95651721,-30.25970919,47.41287658,12.68557633,12.22025778
-2.73844709,0.47477340,0.24654937

>  <Name>
ligand

>  <RI>
0

>  <Rbt.Current_Directory>
/home/itssahil/PROJECTS/Mol_Feturizer/New_Systems/rnas/2HO6

>  <Rbt.Executable>
rbdock ($Id: //depot/dev/client3/rdock/2013.1/src/exe/rbdock.cxx#4 $)

>  <Rbt.Library>
libRbt.so (2013.1, Build901 2013/11/27)

>  <Rbt.Parameter_File>
/export/apps/rDock/src/rDock_2013.1_src/data/scripts/dock_solv.prm

>  <Rbt.Receptor>
prm/pocket_docking_2.prm

>  <SCORE>
-3.31313

>  <SCORE.INTER>
-3.65188

>  <SCORE.INTER.CONST>
1

>  <SCORE.INTER.POLAR>
0

>  <SCORE.INTER.ROT>
3

>  <SCORE.INTER.SOLV>
6.47782

>  <SCORE.INTER.VDW>
-10.1939

>  <SCORE.INTER.norm>
-0.304323

>  <SCORE.INTRA>
0.263713

>  <SCORE.INTRA.DIHEDRAL>
2.67796

>  <SCORE.INTRA.DIHEDRAL.0>
1.88407

>  <SCORE.INTRA.POLAR>
0

>  <SCORE.INTRA.POLAR.0>
0

>  <SCORE.INTRA.REPUL>
0

>  <SCORE.INTRA.REPUL.0>
0

>  <SCORE.INTRA.SOLV>
-0.0541756

>  <SCORE.INTRA.SOLV.lig_0>
-10.2714

>  <SCORE.INTRA.VDW>
-1.04818

>  <SCORE.INTRA.VDW.0>
0.416923

>  <SCORE.INTRA.norm>
0.0219761

>  <SCORE.RESTR>
0.0750302

>  <SCORE.RESTR.CAVITY>
0.0750302

>  <SCORE.RESTR.norm>
0.00625251

>  <SCORE.SYSTEM>
0

>  <SCORE.SYSTEM.CONST>
0

>  <SCORE.SYSTEM.DIHEDRAL>
0

>  <SCORE.SYSTEM.SOLV>
0

>  <SCORE.SYSTEM.norm>
0

>  <SCORE.heavy>
12

>  <SCORE.norm>
-0.276094

>  <RMSD>
5.832

$$$$
ligand
 OpenBabel11021811433D
libRbt.so/2013.1/901 2013/11/27
 12 12  0  0  0  0  0  0  0  0999 V2000
   44.2793   10.6588   13.9052 O   0  0  0  0  0  0  0  0  0  0  0  0
   45.5372   13.5603    8.6746 O   0  0  0  0  0  0  0  0  0  0  0  0
   44.1429   11.6850   14.9342 C   0  0  0  0  0  0  0  0  0  0  0  0
   43.7446   12.0083    9.3506 O   0  0  0  0  0  0  0  0  0  0  0  0
   44.2531   13.1121   14.3232 C   0  0  0  0  0  0  0  0  0  0  0  0
   43.6096   13.8814    8.7478 O   0  0  0  0  0  0  0  0  0  0  0  0
   44.4517   12.9962   12.8370 N   0  0  0  0  0  0  0  0  0  0  0  0
   45.6729   12.1891   12.5356 C   0  0  0  0  0  0  0  0  0  0  0  0
   45.5570   10.7957   13.2163 C   0  0  0  0  0  0  0  0  0  0  0  0
   44.5747   14.3444   12.1801 C   0  0  0  0  0  0  0  0  0  0  0  0
   43.8191   14.3804   10.8298 C   0  0  0  0  0  0  0  0  0  0  0  0
   44.5367   13.2101    9.6526 S   0  0  0  0  0  0  0  0  0  0  0  0
  1  3  1  0  0  0  0
  1  9  1  0  0  0  0
  2 12  1  0  0  0  0
  3  5  1  0  0  0  0
  4 12  2  0  0  0  0
  5  7  1  0  0  0  0
  6 12  2  0  0  0  0
  7  8  1  0  0  0  0
  7 10  1  0  0  0  0
  8  9  1  0  0  0  0
 10 11  1  0  0  0  0
 11 12  1  0  0  0  0
M  END
>  <CHROM.1>
-139.83100189,-63.13840096,-94.27542466,44.50791180,12.77077642,11.50443917
-1.37860768,1.34309776,-1.41550034

>  <Name>
ligand

>  <RI>
0

>  <Rbt.Current_Directory>
/home/itssahil/PROJECTS/Mol_Feturizer/New_Systems/rnas/2HO6

>  <Rbt.Executable>
rbdock ($Id: //depot/dev/client3/rdock/2013.1/src/exe/rbdock.cxx#4 $)

>  <Rbt.Library>
libRbt.so (2013.1, Build901 2013/11/27)

>  <Rbt.Parameter_File>
/export/apps/rDock/src/rDock_2013.1_src/data/scripts/dock_solv.prm

>  <Rbt.Receptor>
prm/pocket_docking_5.prm

>  <SCORE>
-9.39162

>  <SCORE.INTER>
-8.85392

>  <SCORE.INTER.CONST>
1

>  <SCORE.INTER.POLAR>
0

>  <SCORE.INTER.ROT>
3

>  <SCORE.INTER.SOLV>
8.80419

>  <SCORE.INTER.VDW>
-14.4373

>  <SCORE.INTER.norm>
-0.737826

>  <SCORE.INTRA>
-0.537701

>  <SCORE.INTRA.DIHEDRAL>
1.76547

>  <SCORE.INTRA.DIHEDRAL.0>
1.88407

>  <SCORE.INTRA.POLAR>
0

>  <SCORE.INTRA.POLAR.0>
0

>  <SCORE.INTRA.REPUL>
0

>  <SCORE.INTRA.REPUL.0>
0

>  <SCORE.INTRA.SOLV>
0.449428

>  <SCORE.INTRA.SOLV.lig_0>
-10.2714

>  <SCORE.INTRA.VDW>
-1.64515

>  <SCORE.INTRA.VDW.0>
0.416923

>  <SCORE.INTRA.norm>
-0.0448084

>  <SCORE.RESTR>
0

>  <SCORE.RESTR.CAVITY>
0

>  <SCORE.RESTR.norm>
0

>  <SCORE.SYSTEM>
0

>  <SCORE.SYSTEM.CONST>
0

>  <SCORE.SYSTEM.DIHEDRAL>
0

>  <SCORE.SYSTEM.SOLV>
0

>  <SCORE.SYSTEM.norm>
0

>  <SCORE.heavy>
12

>  <SCORE.norm>
-0.782635

>  <RMSD>
5.833

$$$$
ligand
 OpenBabel11021811433D
libRbt.so/2013.1/901 2013/11/27
 12 12  0  0  0  0  0  0  0  0999 V2000
   43.3460   11.4449   14.5624 O   0  0  0  0  0  0  0  0  0  0  0  0
   43.6553   12.2398    9.3154 O   0  0  0  0  0  0  0  0  0  0  0  0
   44.4280   12.3374   14.9669 C   0  0  0  0  0  0  0  0  0  0  0  0
   43.9298   14.6468    9.7740 O   0  0  0  0  0  0  0  0  0  0  0  0
   45.5012   12.4635   13.8469 C   0  0  0  0  0  0  0  0  0  0  0  0
   45.1507   13.4082    8.8437 O   0  0  0  0  0  0  0  0  0  0  0  0
   45.0811   11.6299   12.6677 N   0  0  0  0  0  0  0  0  0  0  0  0
   44.8985   10.2039   13.0760 C   0  0  0  0  0  0  0  0  0  0  0  0
   43.8704   10.1232   14.2400 C   0  0  0  0  0  0  0  0  0  0  0  0
   46.0815   11.6995   11.5459 C   0  0  0  0  0  0  0  0  0  0  0  0
   45.9857   13.0486   10.7932 C   0  0  0  0  0  0  0  0  0  0  0  0
   44.3494   13.2654   10.0546 S   0  0  0  0  0  0  0  0  0  0  0  0
  1  3  1  0  0  0  0
  1  9  1  0  0  0  0
  2 12  1  0  0  0  0
  3  5  1  0  0  0  0
  4 12  2  0  0  0  0
  5  7  1  0  0  0  0
  6 12  2  0  0  0  0
  7  8  1  0  0  0  0
  7 10  1  0  0  0  0
  8  9  1  0  0  0  0
 10 11  1  0  0  0  0
 11 12  1  0  0  0  0
M  END
>  <CHROM.1>
-75.29775925,-61.02572143,-45.54441896,44.63095775,12.33687507,11.74079080
1.62331877,-0.89957861,2.05337808

>  <Name>
ligand

>  <RI>
0

>  <Rbt.Current_Directory>
/home/itssahil/PROJECTS/Mol_Feturizer/New_Systems/rnas/2HO6

>  <Rbt.Executable>
rbdock ($Id: //depot/dev/client3/rdock/2013.1/src/exe/rbdock.cxx#4 $)

>  <Rbt.Library>
libRbt.so (2013.1, Build901 2013/11/27)

>  <Rbt.Parameter_File>
/export/apps/rDock/src/rDock_2013.1_src/data/scripts/dock_solv.prm

>  <Rbt.Receptor>
prm/pocket_docking_6.prm

>  <SCORE>
-9.90645

>  <SCORE.INTER>
-8.8661

>  <SCORE.INTER.CONST>
1

>  <SCORE.INTER.POLAR>
0

>  <SCORE.INTER.ROT>
3

>  <SCORE.INTER.SOLV>
7.60992

>  <SCORE.INTER.VDW>
-14.0474

>  <SCORE.INTER.norm>
-0.738841

>  <SCORE.INTRA>
-1.04036

>  <SCORE.INTRA.DIHEDRAL>
0.284738

>  <SCORE.INTRA.DIHEDRAL.0>
1.88407

>  <SCORE.INTRA.POLAR>
0

>  <SCORE.INTRA.POLAR.0>
0

>  <SCORE.INTRA.REPUL>
0

>  <SCORE.INTRA.REPUL.0>
0

>  <SCORE.INTRA.SOLV>
0.186925

>  <SCORE.INTRA.SOLV.lig_0>
-10.2714

>  <SCORE.INTRA.VDW>
-1.27619

>  <SCORE.INTRA.VDW.0>
0.416923

>  <SCORE.INTRA.norm>
-0.0866964

>  <SCORE.RESTR>
0

>  <SCORE.RESTR.CAVITY>
0

>  <SCORE.RESTR.norm>
0

>  <SCORE.SYSTEM>
0

>  <SCORE.SYSTEM.CONST>
0

>  <SCORE.SYSTEM.DIHEDRAL>
0

>  <SCORE.SYSTEM.SOLV>
0

>  <SCORE.SYSTEM.norm>
0

>  <SCORE.heavy>
12

>  <SCORE.norm>
-0.825538

>  <RMSD>
5.840

$$$$
ligand
 OpenBabel11021811433D
libRbt.so/2013.1/901 2013/11/27
 12 12  0  0  0  0  0  0  0  0999 V2000
   44.2092   10.6636   13.9000 O   0  0  0  0  0  0  0  0  0  0  0  0
   45.5846   13.5186    8.6822 O   0  0  0  0  0  0  0  0  0  0  0  0
   44.1099   11.6932   14.9300 C   0  0  0  0  0  0  0  0  0  0  0  0
   43.7245   12.0382    9.3359 O   0  0  0  0  0  0  0  0  0  0  0  0
   44.2697   13.1161   14.3200 C   0  0  0  0  0  0  0  0  0  0  0  0
   43.6711   13.9174    8.7396 O   0  0  0  0  0  0  0  0  0  0  0  0
   44.4626   12.9944   12.8335 N   0  0  0  0  0  0  0  0  0  0  0  0
   45.6544   12.1451   12.5302 C   0  0  0  0  0  0  0  0  0  0  0  0
   45.4902   10.7561   13.2099 C   0  0  0  0  0  0  0  0  0  0  0  0
   44.6324   14.3380   12.1776 C   0  0  0  0  0  0  0  0  0  0  0  0
   43.8818   14.3997   10.8253 C   0  0  0  0  0  0  0  0  0  0  0  0
   44.5620   13.2056    9.6498 S   0  0  0  0  0  0  0  0  0  0  0  0
  1  3  1  0  0  0  0
  1  9  1  0  0  0  0
  2 12  1  0  0  0  0
  3  5  1  0  0  0  0
  4 12  2  0  0  0  0
  5  7  1  0  0  0  0
  6 12  2  0  0  0  0
  7  8  1  0  0  0  0
  7 10  1  0  0  0  0
  8  9  1  0  0  0  0
 10 11  1  0  0  0  0
 11 12  1  0  0  0  0
M  END
>  <CHROM.1>
-140.05528290,-63.09544346,-93.70487610,44.51574668,12.76806908,11.50015412
-1.41748969,1.37658186,-1.37687855

>  <Name>
ligand

>  <RI>
0

>  <Rbt.Current_Directory>
/home/itssahil/PROJECTS/Mol_Feturizer/New_Systems/rnas/2HO6

>  <Rbt.Executable>
rbdock ($Id: //depot/dev/client3/rdock/2013.1/src/exe/rbdock.cxx#4 $)

>  <Rbt.Library>
libRbt.so (2013.1, Build901 2013/11/27)

>  <Rbt.Parameter_File>
/export/apps/rDock/src/rDock_2013.1_src/data/scripts/dock_solv.prm

>  <Rbt.Receptor>
prm/pocket_docking_5.prm

>  <SCORE>
-9.30769

>  <SCORE.INTER>
-8.76704

>  <SCORE.INTER.CONST>
1

>  <SCORE.INTER.POLAR>
0

>  <SCORE.INTER.ROT>
3

>  <SCORE.INTER.SOLV>
8.76039

>  <SCORE.INTER.VDW>
-14.3648

>  <SCORE.INTER.norm>
-0.730586

>  <SCORE.INTRA>
-0.54065

>  <SCORE.INTRA.DIHEDRAL>
1.75188

>  <SCORE.INTRA.DIHEDRAL.0>
1.88407

>  <SCORE.INTRA.POLAR>
0

>  <SCORE.INTRA.POLAR.0>
0

>  <SCORE.INTRA.REPUL>
0

>  <SCORE.INTRA.REPUL.0>
0

>  <SCORE.INTRA.SOLV>
0.443143

>  <SCORE.INTRA.SOLV.lig_0>
-10.2714

>  <SCORE.INTRA.VDW>
-1.63816

>  <SCORE.INTRA.VDW.0>
0.416923

>  <SCORE.INTRA.norm>
-0.0450542

>  <SCORE.RESTR>
0

>  <SCORE.RESTR.CAVITY>
0

>  <SCORE.RESTR.norm>
0

>  <SCORE.SYSTEM>
0

>  <SCORE.SYSTEM.CONST>
0

>  <SCORE.SYSTEM.DIHEDRAL>
0

>  <SCORE.SYSTEM.SOLV>
0

>  <SCORE.SYSTEM.norm>
0

>  <SCORE.heavy>
12

>  <SCORE.norm>
-0.775641

>  <RMSD>
5.843

$$$$
ligand
 OpenBabel11021811433D
libRbt.so/2013.1/901 2013/11/27
 12 12  0  0  0  0  0  0  0  0999 V2000
   44.9285   11.1402   14.2937 O   0  0  0  0  0  0  0  0  0  0  0  0
   45.4357   13.8026    9.5057 O   0  0  0  0  0  0  0  0  0  0  0  0
   44.2972   12.0212   15.2715 C   0  0  0  0  0  0  0  0  0  0  0  0
   43.7125   12.0485    9.3254 O   0  0  0  0  0  0  0  0  0  0  0  0
   43.7752   13.3244   14.5998 C   0  0  0  0  0  0  0  0  0  0  0  0
   43.5698   13.9791    8.9480 O   0  0  0  0  0  0  0  0  0  0  0  0
   44.0692   13.2691   13.1259 N   0  0  0  0  0  0  0  0  0  0  0  0
   45.5353   13.0970   12.8928 C   0  0  0  0  0  0  0  0  0  0  0  0
   46.0340   11.8233   13.6326 C   0  0  0  0  0  0  0  0  0  0  0  0
   43.5963   14.5066   12.4123 C   0  0  0  0  0  0  0  0  0  0  0  0
   43.0170   14.1624   11.0188 C   0  0  0  0  0  0  0  0  0  0  0  0
   44.2149   13.2391   10.0274 S   0  0  0  0  0  0  0  0  0  0  0  0
  1  3  1  0  0  0  0
  1  9  1  0  0  0  0
  2 12  1  0  0  0  0
  3  5  1  0  0  0  0
  4 12  2  0  0  0  0
  5  7  1  0  0  0  0
  6 12  2  0  0  0  0
  7  8  1  0  0  0  0
  7 10  1  0  0  0  0
  8  9  1  0  0  0  0
 10 11  1  0  0  0  0
 11 12  1  0  0  0  0
M  END
>  <CHROM.1>
-142.07980355,-55.08941403,-68.85857361,44.33893980,13.04157771,11.83266694
-1.37449919,0.84407571,-1.47242485

>  <Name>
ligand

>  <RI>
0

>  <Rbt.Current_Directory>
/home/itssahil/PROJECTS/Mol_Feturizer/New_Systems/rnas/2HO6

>  <Rbt.Executable>
rbdock ($Id: //depot/dev/client3/rdock/2013.1/src/exe/rbdock.cxx#4 $)

>  <Rbt.Library>
libRbt.so (2013.1, Build901 2013/11/27)

>  <Rbt.Parameter_File>
/export/apps/rDock/src/rDock_2013.1_src/data/scripts/dock_solv.prm

>  <Rbt.Receptor>
prm/pocket_docking_5.prm

>  <SCORE>
-9.1899

>  <SCORE.INTER>
-8.56795

>  <SCORE.INTER.CONST>
1

>  <SCORE.INTER.POLAR>
0

>  <SCORE.INTER.ROT>
3

>  <SCORE.INTER.SOLV>
9.00612

>  <SCORE.INTER.VDW>
-14.314

>  <SCORE.INTER.norm>
-0.713996

>  <SCORE.INTRA>
-0.621954

>  <SCORE.INTRA.DIHEDRAL>
1.63407

>  <SCORE.INTRA.DIHEDRAL.0>
1.88407

>  <SCORE.INTRA.POLAR>
0

>  <SCORE.INTRA.POLAR.0>
0

>  <SCORE.INTRA.REPUL>
0

>  <SCORE.INTRA.REPUL.0>
0

>  <SCORE.INTRA.SOLV>
0.265359

>  <SCORE.INTRA.SOLV.lig_0>
-10.2714

>  <SCORE.INTRA.VDW>
-1.57167

>  <SCORE.INTRA.VDW.0>
0.416923

>  <SCORE.INTRA.norm>
-0.0518295

>  <SCORE.RESTR>
0

>  <SCORE.RESTR.CAVITY>
0

>  <SCORE.RESTR.norm>
0

>  <SCORE.SYSTEM>
0

>  <SCORE.SYSTEM.CONST>
0

>  <SCORE.SYSTEM.DIHEDRAL>
0

>  <SCORE.SYSTEM.SOLV>
0

>  <SCORE.SYSTEM.norm>
0

>  <SCORE.heavy>
12

>  <SCORE.norm>
-0.765825

>  <RMSD>
5.844

$$$$
ligand
 OpenBabel11021811433D
libRbt.so/2013.1/901 2013/11/27
 12 12  0  0  0  0  0  0  0  0999 V2000
   43.8320   11.2027   12.9574 O   0  0  0  0  0  0  0  0  0  0  0  0
   50.1438   15.0156   12.5139 O   0  0  0  0  0  0  0  0  0  0  0  0
   44.4396   11.9010   14.0861 C   0  0  0  0  0  0  0  0  0  0  0  0
   50.1543   14.2365   10.1747 O   0  0  0  0  0  0  0  0  0  0  0  0
   45.9113   12.2998   13.7743 C   0  0  0  0  0  0  0  0  0  0  0  0
   48.8939   15.4566   11.0762 O   0  0  0  0  0  0  0  0  0  0  0  0
   46.2565   11.8532   12.3803 N   0  0  0  0  0  0  0  0  0  0  0  0
   46.0609   10.3780   12.2421 C   0  0  0  0  0  0  0  0  0  0  0  0
   44.5997   10.0085   12.6250 C   0  0  0  0  0  0  0  0  0  0  0  0
   47.6739   12.2011   12.0141 C   0  0  0  0  0  0  0  0  0  0  0  0
   47.7878   13.6748   11.5545 C   0  0  0  0  0  0  0  0  0  0  0  0
   49.5155   14.2061   11.4990 S   0  0  0  0  0  0  0  0  0  0  0  0
  1  3  1  0  0  0  0
  1  9  1  0  0  0  0
  2 12  1  0  0  0  0
  3  5  1  0  0  0  0
  4 12  2  0  0  0  0
  5  7  1  0  0  0  0
  6 12  2  0  0  0  0
  7  8  1  0  0  0  0
  7 10  1  0  0  0  0
  8  9  1  0  0  0  0
 10 11  1  0  0  0  0
 11 12  1  0  0  0  0
M  END
>  <CHROM.1>
-81.64934464,166.32667908,-101.67278793,47.37632691,12.89428226,12.14973163
2.84160012,-0.62612336,-2.51237081

>  <Name>
ligand

>  <RI>
0

>  <Rbt.Current_Directory>
/home/itssahil/PROJECTS/Mol_Feturizer/New_Systems/rnas/2HO6

>  <Rbt.Executable>
rbdock ($Id: //depot/dev/client3/rdock/2013.1/src/exe/rbdock.cxx#4 $)

>  <Rbt.Library>
libRbt.so (2013.1, Build901 2013/11/27)

>  <Rbt.Parameter_File>
/export/apps/rDock/src/rDock_2013.1_src/data/scripts/dock_solv.prm

>  <Rbt.Receptor>
prm/pocket_docking_2.prm

>  <SCORE>
-3.75508

>  <SCORE.INTER>
-3.58789

>  <SCORE.INTER.CONST>
1

>  <SCORE.INTER.POLAR>
0

>  <SCORE.INTER.ROT>
3

>  <SCORE.INTER.SOLV>
6.80227

>  <SCORE.INTER.VDW>
-10.2594

>  <SCORE.INTER.norm>
-0.298991

>  <SCORE.INTRA>
-0.20818

>  <SCORE.INTRA.DIHEDRAL>
1.42945

>  <SCORE.INTRA.DIHEDRAL.0>
1.88407

>  <SCORE.INTRA.POLAR>
0

>  <SCORE.INTRA.POLAR.0>
0

>  <SCORE.INTRA.REPUL>
0

>  <SCORE.INTRA.REPUL.0>
0

>  <SCORE.INTRA.SOLV>
0.00124511

>  <SCORE.INTRA.SOLV.lig_0>
-10.2714

>  <SCORE.INTRA.VDW>
-0.923529

>  <SCORE.INTRA.VDW.0>
0.416923

>  <SCORE.INTRA.norm>
-0.0173483

>  <SCORE.RESTR>
0.0409919

>  <SCORE.RESTR.CAVITY>
0.0409919

>  <SCORE.RESTR.norm>
0.00341599

>  <SCORE.SYSTEM>
0

>  <SCORE.SYSTEM.CONST>
0

>  <SCORE.SYSTEM.DIHEDRAL>
0

>  <SCORE.SYSTEM.SOLV>
0

>  <SCORE.SYSTEM.norm>
0

>  <SCORE.heavy>
12

>  <SCORE.norm>
-0.312923

>  <RMSD>
5.845

$$$$
ligand
 OpenBabel11021811433D
libRbt.so/2013.1/901 2013/11/27
 12 12  0  0  0  0  0  0  0  0999 V2000
   42.5843   13.8738   10.8472 O   0  0  0  0  0  0  0  0  0  0  0  0
   42.1072   10.6590   15.5310 O   0  0  0  0  0  0  0  0  0  0  0  0
   43.7964   13.3110   10.2600 C   0  0  0  0  0  0  0  0  0  0  0  0
   44.0131    9.7581   14.2522 O   0  0  0  0  0  0  0  0  0  0  0  0
   44.8078   12.8809   11.3619 C   0  0  0  0  0  0  0  0  0  0  0  0
   43.9802   10.5132   16.0740 O   0  0  0  0  0  0  0  0  0  0  0  0
   44.2118   13.1644   12.7134 N   0  0  0  0  0  0  0  0  0  0  0  0
   43.8684   14.6135   12.8381 C   0  0  0  0  0  0  0  0  0  0  0  0
   42.9103   15.0227   11.6836 C   0  0  0  0  0  0  0  0  0  0  0  0
   45.1437   12.7785   13.8300 C   0  0  0  0  0  0  0  0  0  0  0  0
   44.3583   12.3978   15.1083 C   0  0  0  0  0  0  0  0  0  0  0  0
   43.3390   10.9299   14.8313 S   0  0  0  0  0  0  0  0  0  0  0  0
  1  3  1  0  0  0  0
  1  9  1  0  0  0  0
  2 12  1  0  0  0  0
  3  5  1  0  0  0  0
  4 12  2  0  0  0  0
  5  7  1  0  0  0  0
  6 12  2  0  0  0  0
  7  8  1  0  0  0  0
  7 10  1  0  0  0  0
  8  9  1  0  0  0  0
 10 11  1  0  0  0  0
 11 12  1  0  0  0  0
M  END
>  <CHROM.1>
-151.74049177,63.78129756,-151.41576424,43.69697162,12.29436871,13.45841487
1.54344471,-1.00660034,-0.89307984

>  <Name>
ligand

>  <RI>
0

>  <Rbt.Current_Directory>
/home/itssahil/PROJECTS/Mol_Feturizer/New_Systems/rnas/2HO6

>  <Rbt.Executable>
rbdock ($Id: //depot/dev/client3/rdock/2013.1/src/exe/rbdock.cxx#4 $)

>  <Rbt.Library>
libRbt.so (2013.1, Build901 2013/11/27)

>  <Rbt.Parameter_File>
/export/apps/rDock/src/rDock_2013.1_src/data/scripts/dock_solv.prm

>  <Rbt.Receptor>
prm/pocket_docking_5.prm

>  <SCORE>
-9.45975

>  <SCORE.INTER>
-8.78981

>  <SCORE.INTER.CONST>
1

>  <SCORE.INTER.POLAR>
0

>  <SCORE.INTER.ROT>
3

>  <SCORE.INTER.SOLV>
7.82888

>  <SCORE.INTER.VDW>
-14.0695

>  <SCORE.INTER.norm>
-0.732485

>  <SCORE.INTRA>
-0.669934

>  <SCORE.INTRA.DIHEDRAL>
0.906475

>  <SCORE.INTRA.DIHEDRAL.0>
1.88407

>  <SCORE.INTRA.POLAR>
0

>  <SCORE.INTRA.POLAR.0>
0

>  <SCORE.INTRA.REPUL>
0

>  <SCORE.INTRA.REPUL.0>
0

>  <SCORE.INTRA.SOLV>
0.488699

>  <SCORE.INTRA.SOLV.lig_0>
-10.2714

>  <SCORE.INTRA.VDW>
-1.36752

>  <SCORE.INTRA.VDW.0>
0.416923

>  <SCORE.INTRA.norm>
-0.0558278

>  <SCORE.RESTR>
0

>  <SCORE.RESTR.CAVITY>
0

>  <SCORE.RESTR.norm>
0

>  <SCORE.SYSTEM>
0

>  <SCORE.SYSTEM.CONST>
0

>  <SCORE.SYSTEM.DIHEDRAL>
0

>  <SCORE.SYSTEM.SOLV>
0

>  <SCORE.SYSTEM.norm>
0

>  <SCORE.heavy>
12

>  <SCORE.norm>
-0.788312

>  <RMSD>
5.845

$$$$
ligand
 OpenBabel11021811433D
libRbt.so/2013.1/901 2013/11/27
 12 12  0  0  0  0  0  0  0  0999 V2000
   43.4818   11.5827   14.5504 O   0  0  0  0  0  0  0  0  0  0  0  0
   43.9052   13.6720    8.4219 O   0  0  0  0  0  0  0  0  0  0  0  0
   44.7403   12.3031   14.7176 C   0  0  0  0  0  0  0  0  0  0  0  0
   42.9789   12.9582   10.5926 O   0  0  0  0  0  0  0  0  0  0  0  0
   45.6240   12.1952   13.4411 C   0  0  0  0  0  0  0  0  0  0  0  0
   44.4180   14.2536   10.2171 O   0  0  0  0  0  0  0  0  0  0  0  0
   44.8938   11.3855   12.4052 N   0  0  0  0  0  0  0  0  0  0  0  0
   44.5608   10.0310   12.9418 C   0  0  0  0  0  0  0  0  0  0  0  0
   43.7353   10.1784   14.2514 C   0  0  0  0  0  0  0  0  0  0  0  0
   45.6975   11.2338   11.1421 C   0  0  0  0  0  0  0  0  0  0  0  0
   45.7348   12.5571   10.3400 C   0  0  0  0  0  0  0  0  0  0  0  0
   44.1085   12.9450    9.6509 S   0  0  0  0  0  0  0  0  0  0  0  0
  1  3  1  0  0  0  0
  1  9  1  0  0  0  0
  2 12  1  0  0  0  0
  3  5  1  0  0  0  0
  4 12  2  0  0  0  0
  5  7  1  0  0  0  0
  6 12  2  0  0  0  0
  7  8  1  0  0  0  0
  7 10  1  0  0  0  0
  8  9  1  0  0  0  0
 10 11  1  0  0  0  0
 11 12  1  0  0  0  0
M  END
>  <CHROM.1>
-73.20072147,-68.98726394,-149.74106504,44.42219746,12.22672877,11.64310759
1.52337213,-0.67147487,1.98934681

>  <Name>
ligand

>  <RI>
0

>  <Rbt.Current_Directory>
/home/itssahil/PROJECTS/Mol_Feturizer/New_Systems/rnas/2HO6

>  <Rbt.Executable>
rbdock ($Id: //depot/dev/client3/rdock/2013.1/src/exe/rbdock.cxx#4 $)

>  <Rbt.Library>
libRbt.so (2013.1, Build901 2013/11/27)

>  <Rbt.Parameter_File>
/export/apps/rDock/src/rDock_2013.1_src/data/scripts/dock_solv.prm

>  <Rbt.Receptor>
prm/pocket_docking_6.prm

>  <SCORE>
-11.3221

>  <SCORE.INTER>
-10.566

>  <SCORE.INTER.CONST>
1

>  <SCORE.INTER.POLAR>
0

>  <SCORE.INTER.ROT>
3

>  <SCORE.INTER.SOLV>
8.32728

>  <SCORE.INTER.VDW>
-15.4198

>  <SCORE.INTER.norm>
-0.880502

>  <SCORE.INTRA>
-0.756062

>  <SCORE.INTRA.DIHEDRAL>
0.473221

>  <SCORE.INTRA.DIHEDRAL.0>
1.88407

>  <SCORE.INTRA.POLAR>
0

>  <SCORE.INTRA.POLAR.0>
0

>  <SCORE.INTRA.REPUL>
0

>  <SCORE.INTRA.REPUL.0>
0

>  <SCORE.INTRA.SOLV>
0.963294

>  <SCORE.INTRA.SOLV.lig_0>
-10.2714

>  <SCORE.INTRA.VDW>
-1.47432

>  <SCORE.INTRA.VDW.0>
0.416923

>  <SCORE.INTRA.norm>
-0.0630052

>  <SCORE.RESTR>
0

>  <SCORE.RESTR.CAVITY>
0

>  <SCORE.RESTR.norm>
0

>  <SCORE.SYSTEM>
0

>  <SCORE.SYSTEM.CONST>
0

>  <SCORE.SYSTEM.DIHEDRAL>
0

>  <SCORE.SYSTEM.SOLV>
0

>  <SCORE.SYSTEM.norm>
0

>  <SCORE.heavy>
12

>  <SCORE.norm>
-0.943507

>  <RMSD>
5.849

$$$$
ligand
 OpenBabel11021811433D
libRbt.so/2013.1/901 2013/11/27
 12 12  0  0  0  0  0  0  0  0999 V2000
   42.9522   11.9037   14.6777 O   0  0  0  0  0  0  0  0  0  0  0  0
   43.7164   12.6183    9.1309 O   0  0  0  0  0  0  0  0  0  0  0  0
   43.9111   12.9890   14.8601 C   0  0  0  0  0  0  0  0  0  0  0  0
   44.8102   13.8891   10.9385 O   0  0  0  0  0  0  0  0  0  0  0  0
   45.1485   12.8076   13.9336 C   0  0  0  0  0  0  0  0  0  0  0  0
   45.6238   12.9480    9.4080 O   0  0  0  0  0  0  0  0  0  0  0  0
   44.9673   11.5623   13.1101 N   0  0  0  0  0  0  0  0  0  0  0  0
   44.7834   10.3732   13.9966 C   0  0  0  0  0  0  0  0  0  0  0  0
   43.5812   10.6174   14.9524 C   0  0  0  0  0  0  0  0  0  0  0  0
   46.1357   11.3204   12.1934 C   0  0  0  0  0  0  0  0  0  0  0  0
   45.6811   11.2411   10.7159 C   0  0  0  0  0  0  0  0  0  0  0  0
   44.5397   12.5851   10.3146 S   0  0  0  0  0  0  0  0  0  0  0  0
  1  3  1  0  0  0  0
  1  9  1  0  0  0  0
  2 12  1  0  0  0  0
  3  5  1  0  0  0  0
  4 12  2  0  0  0  0
  5  7  1  0  0  0  0
  6 12  2  0  0  0  0
  7  8  1  0  0  0  0
  7 10  1  0  0  0  0
  8  9  1  0  0  0  0
 10 11  1  0  0  0  0
 11 12  1  0  0  0  0
M  END
>  <CHROM.1>
-122.56213553,46.01582492,-165.52197022,44.62816612,12.15025669,12.10996418
1.83599072,-0.88277219,2.01421278

>  <Name>
ligand

>  <RI>
0

>  <Rbt.Current_Directory>
/home/itssahil/PROJECTS/Mol_Feturizer/New_Systems/rnas/2HO6

>  <Rbt.Executable>
rbdock ($Id: //depot/dev/client3/rdock/2013.1/src/exe/rbdock.cxx#4 $)

>  <Rbt.Library>
libRbt.so (2013.1, Build901 2013/11/27)

>  <Rbt.Parameter_File>
/export/apps/rDock/src/rDock_2013.1_src/data/scripts/dock_solv.prm

>  <Rbt.Receptor>
prm/pocket_docking_4.prm

>  <SCORE>
-8.701

>  <SCORE.INTER>
-8.77771

>  <SCORE.INTER.CONST>
1

>  <SCORE.INTER.POLAR>
0

>  <SCORE.INTER.ROT>
3

>  <SCORE.INTER.SOLV>
7.67688

>  <SCORE.INTER.VDW>
-14.0108

>  <SCORE.INTER.norm>
-0.731475

>  <SCORE.INTRA>
0.0767065

>  <SCORE.INTRA.DIHEDRAL>
2.93493

>  <SCORE.INTRA.DIHEDRAL.0>
1.88407

>  <SCORE.INTRA.POLAR>
0

>  <SCORE.INTRA.POLAR.0>
0

>  <SCORE.INTRA.REPUL>
0

>  <SCORE.INTRA.REPUL.0>
0

>  <SCORE.INTRA.SOLV>
0.969358

>  <SCORE.INTRA.SOLV.lig_0>
-10.2714

>  <SCORE.INTRA.VDW>
-1.87544

>  <SCORE.INTRA.VDW.0>
0.416923

>  <SCORE.INTRA.norm>
0.00639221

>  <SCORE.RESTR>
0

>  <SCORE.RESTR.CAVITY>
0

>  <SCORE.RESTR.norm>
0

>  <SCORE.SYSTEM>
0

>  <SCORE.SYSTEM.CONST>
0

>  <SCORE.SYSTEM.DIHEDRAL>
0

>  <SCORE.SYSTEM.SOLV>
0

>  <SCORE.SYSTEM.norm>
0

>  <SCORE.heavy>
12

>  <SCORE.norm>
-0.725083

>  <RMSD>
5.850

$$$$
ligand
 OpenBabel11021811433D
libRbt.so/2013.1/901 2013/11/27
 12 12  0  0  0  0  0  0  0  0999 V2000
   44.2612    9.9943   14.9735 O   0  0  0  0  0  0  0  0  0  0  0  0
   48.8573    9.8982   11.9530 O   0  0  0  0  0  0  0  0  0  0  0  0
   43.9290    9.7635   13.5710 C   0  0  0  0  0  0  0  0  0  0  0  0
   46.9536   10.4951   10.5044 O   0  0  0  0  0  0  0  0  0  0  0  0
   44.6110   10.8173   12.6508 C   0  0  0  0  0  0  0  0  0  0  0  0
   48.6440   11.4661   10.8042 O   0  0  0  0  0  0  0  0  0  0  0  0
   45.4287   11.7532   13.4978 N   0  0  0  0  0  0  0  0  0  0  0  0
   44.5669   12.4158   14.5234 C   0  0  0  0  0  0  0  0  0  0  0  0
   43.8510   11.3331   15.3799 C   0  0  0  0  0  0  0  0  0  0  0  0
   46.1124   12.8073   12.6698 C   0  0  0  0  0  0  0  0  0  0  0  0
   47.5934   12.4406   12.4085 C   0  0  0  0  0  0  0  0  0  0  0  0
   47.7379   10.7762   11.7163 S   0  0  0  0  0  0  0  0  0  0  0  0
  1  3  1  0  0  0  0
  1  9  1  0  0  0  0
  2 12  1  0  0  0  0
  3  5  1  0  0  0  0
  4 12  2  0  0  0  0
  5  7  1  0  0  0  0
  6 12  2  0  0  0  0
  7  8  1  0  0  0  0
  7 10  1  0  0  0  0
  8  9  1  0  0  0  0
 10 11  1  0  0  0  0
 11 12  1  0  0  0  0
M  END
>  <CHROM.1>
-99.49974931,52.66444012,-148.30574784,46.24877523,11.09895688,12.74520588
2.97478988,0.65974152,0.24362757

>  <Name>
ligand

>  <RI>
0

>  <Rbt.Current_Directory>
/home/itssahil/PROJECTS/Mol_Feturizer/New_Systems/rnas/2HO6

>  <Rbt.Executable>
rbdock ($Id: //depot/dev/client3/rdock/2013.1/src/exe/rbdock.cxx#4 $)

>  <Rbt.Library>
libRbt.so (2013.1, Build901 2013/11/27)

>  <Rbt.Parameter_File>
/export/apps/rDock/src/rDock_2013.1_src/data/scripts/dock_solv.prm

>  <Rbt.Receptor>
prm/pocket_docking_3.prm

>  <SCORE>
-7.46029

>  <SCORE.INTER>
-7.03739

>  <SCORE.INTER.CONST>
1

>  <SCORE.INTER.POLAR>
0

>  <SCORE.INTER.ROT>
3

>  <SCORE.INTER.SOLV>
8.3172

>  <SCORE.INTER.VDW>
-13.064

>  <SCORE.INTER.norm>
-0.586449

>  <SCORE.INTRA>
-0.422899

>  <SCORE.INTRA.DIHEDRAL>
1.88554

>  <SCORE.INTRA.DIHEDRAL.0>
1.88407

>  <SCORE.INTRA.POLAR>
0

>  <SCORE.INTRA.POLAR.0>
0

>  <SCORE.INTRA.REPUL>
0

>  <SCORE.INTRA.REPUL.0>
0

>  <SCORE.INTRA.SOLV>
0.752718

>  <SCORE.INTRA.SOLV.lig_0>
-10.2714

>  <SCORE.INTRA.VDW>
-1.74203

>  <SCORE.INTRA.VDW.0>
0.416923

>  <SCORE.INTRA.norm>
-0.0352416

>  <SCORE.RESTR>
0

>  <SCORE.RESTR.CAVITY>
0

>  <SCORE.RESTR.norm>
0

>  <SCORE.SYSTEM>
0

>  <SCORE.SYSTEM.CONST>
0

>  <SCORE.SYSTEM.DIHEDRAL>
0

>  <SCORE.SYSTEM.SOLV>
0

>  <SCORE.SYSTEM.norm>
0

>  <SCORE.heavy>
12

>  <SCORE.norm>
-0.621691

>  <RMSD>
5.860

$$$$
ligand
 OpenBabel11021811433D
libRbt.so/2013.1/901 2013/11/27
 12 12  0  0  0  0  0  0  0  0999 V2000
   43.7518   16.1839   12.4107 O   0  0  0  0  0  0  0  0  0  0  0  0
   44.5494   10.6001   12.2099 O   0  0  0  0  0  0  0  0  0  0  0  0
   42.6482   16.2527   13.3635 C   0  0  0  0  0  0  0  0  0  0  0  0
   46.8937   11.0770   12.8067 O   0  0  0  0  0  0  0  0  0  0  0  0
   42.5567   14.9518   14.2129 C   0  0  0  0  0  0  0  0  0  0  0  0
   45.5110   10.1300   13.8465 O   0  0  0  0  0  0  0  0  0  0  0  0
   43.6589   14.0161   13.7986 N   0  0  0  0  0  0  0  0  0  0  0  0
   43.5620   13.7103   12.3389 C   0  0  0  0  0  0  0  0  0  0  0  0
   43.5898   15.0360   11.5264 C   0  0  0  0  0  0  0  0  0  0  0  0
   43.6250   12.7290   14.5774 C   0  0  0  0  0  0  0  0  0  0  0  0
   45.0253   12.0719   14.6341 C   0  0  0  0  0  0  0  0  0  0  0  0
   45.4662   11.3440   13.0384 S   0  0  0  0  0  0  0  0  0  0  0  0
  1  3  1  0  0  0  0
  1  9  1  0  0  0  0
  2 12  1  0  0  0  0
  3  5  1  0  0  0  0
  4 12  2  0  0  0  0
  5  7  1  0  0  0  0
  6 12  2  0  0  0  0
  7  8  1  0  0  0  0
  7 10  1  0  0  0  0
  8  9  1  0  0  0  0
 10 11  1  0  0  0  0
 11 12  1  0  0  0  0
M  END
>  <CHROM.1>
-154.71186697,-73.45706628,-41.64613764,44.38892785,12.95729136,13.19572386
-2.53576177,-0.96128334,2.22642146

>  <Name>
ligand

>  <RI>
0

>  <Rbt.Current_Directory>
/home/itssahil/PROJECTS/Mol_Feturizer/New_Systems/rnas/2HO6

>  <Rbt.Executable>
rbdock ($Id: //depot/dev/client3/rdock/2013.1/src/exe/rbdock.cxx#4 $)

>  <Rbt.Library>
libRbt.so (2013.1, Build901 2013/11/27)

>  <Rbt.Parameter_File>
/export/apps/rDock/src/rDock_2013.1_src/data/scripts/dock_solv.prm

>  <Rbt.Receptor>
prm/pocket_docking_7.prm

>  <SCORE>
-8.68271

>  <SCORE.INTER>
-8.2864

>  <SCORE.INTER.CONST>
1

>  <SCORE.INTER.POLAR>
0

>  <SCORE.INTER.ROT>
3

>  <SCORE.INTER.SOLV>
7.67586

>  <SCORE.INTER.VDW>
-13.6829

>  <SCORE.INTER.norm>
-0.690533

>  <SCORE.INTRA>
-0.396318

>  <SCORE.INTRA.DIHEDRAL>
1.33454

>  <SCORE.INTRA.DIHEDRAL.0>
1.88407

>  <SCORE.INTRA.POLAR>
0

>  <SCORE.INTRA.POLAR.0>
0

>  <SCORE.INTRA.REPUL>
0

>  <SCORE.INTRA.REPUL.0>
0

>  <SCORE.INTRA.SOLV>
0.1128

>  <SCORE.INTRA.SOLV.lig_0>
-10.2714

>  <SCORE.INTRA.VDW>
-1.11999

>  <SCORE.INTRA.VDW.0>
0.416923

>  <SCORE.INTRA.norm>
-0.0330265

>  <SCORE.RESTR>
0

>  <SCORE.RESTR.CAVITY>
0

>  <SCORE.RESTR.norm>
0

>  <SCORE.SYSTEM>
0

>  <SCORE.SYSTEM.CONST>
0

>  <SCORE.SYSTEM.DIHEDRAL>
0

>  <SCORE.SYSTEM.SOLV>
0

>  <SCORE.SYSTEM.norm>
0

>  <SCORE.heavy>
12

>  <SCORE.norm>
-0.72356

>  <RMSD>
5.860

$$$$
ligand
 OpenBabel11021811433D
libRbt.so/2013.1/901 2013/11/27
 12 12  0  0  0  0  0  0  0  0999 V2000
   43.6879   16.2095   12.2935 O   0  0  0  0  0  0  0  0  0  0  0  0
   44.7012   10.8454   12.0344 O   0  0  0  0  0  0  0  0  0  0  0  0
   42.6229   16.2807   13.2892 C   0  0  0  0  0  0  0  0  0  0  0  0
   47.0257   11.2762   12.7347 O   0  0  0  0  0  0  0  0  0  0  0  0
   42.5784   14.9903   14.1582 C   0  0  0  0  0  0  0  0  0  0  0  0
   45.6081   10.2730   13.6695 O   0  0  0  0  0  0  0  0  0  0  0  0
   43.6721   14.0595   13.7118 N   0  0  0  0  0  0  0  0  0  0  0  0
   43.5195   13.7336   12.2613 C   0  0  0  0  0  0  0  0  0  0  0  0
   43.5016   15.0485   11.4313 C   0  0  0  0  0  0  0  0  0  0  0  0
   43.6822   12.7826   14.5078 C   0  0  0  0  0  0  0  0  0  0  0  0
   45.1007   12.1652   14.5578 C   0  0  0  0  0  0  0  0  0  0  0  0
   45.5919   11.5340   12.9359 S   0  0  0  0  0  0  0  0  0  0  0  0
  1  3  1  0  0  0  0
  1  9  1  0  0  0  0
  2 12  1  0  0  0  0
  3  5  1  0  0  0  0
  4 12  2  0  0  0  0
  5  7  1  0  0  0  0
  6 12  2  0  0  0  0
  7  8  1  0  0  0  0
  7 10  1  0  0  0  0
  8  9  1  0  0  0  0
 10 11  1  0  0  0  0
 11 12  1  0  0  0  0
M  END
>  <CHROM.1>
-152.71904970,-69.38694643,-39.52367716,44.43662084,13.06028550,13.09558631
-2.62068305,-0.94317755,2.14694759

>  <Name>
ligand

>  <RI>
0

>  <Rbt.Current_Directory>
/home/itssahil/PROJECTS/Mol_Feturizer/New_Systems/rnas/2HO6

>  <Rbt.Executable>
rbdock ($Id: //depot/dev/client3/rdock/2013.1/src/exe/rbdock.cxx#4 $)

>  <Rbt.Library>
libRbt.so (2013.1, Build901 2013/11/27)

>  <Rbt.Parameter_File>
/export/apps/rDock/src/rDock_2013.1_src/data/scripts/dock_solv.prm

>  <Rbt.Receptor>
prm/pocket_docking_6.prm

>  <SCORE>
-8.74422

>  <SCORE.INTER>
-8.24748

>  <SCORE.INTER.CONST>
1

>  <SCORE.INTER.POLAR>
0

>  <SCORE.INTER.ROT>
3

>  <SCORE.INTER.SOLV>
7.33278

>  <SCORE.INTER.VDW>
-13.5426

>  <SCORE.INTER.norm>
-0.68729

>  <SCORE.INTRA>
-0.496738

>  <SCORE.INTRA.DIHEDRAL>
1.12172

>  <SCORE.INTRA.DIHEDRAL.0>
1.88407

>  <SCORE.INTRA.POLAR>
0

>  <SCORE.INTRA.POLAR.0>
0

>  <SCORE.INTRA.REPUL>
0

>  <SCORE.INTRA.REPUL.0>
0

>  <SCORE.INTRA.SOLV>
0.116744

>  <SCORE.INTRA.SOLV.lig_0>
-10.2714

>  <SCORE.INTRA.VDW>
-1.11597

>  <SCORE.INTRA.VDW.0>
0.416923

>  <SCORE.INTRA.norm>
-0.0413948

>  <SCORE.RESTR>
0

>  <SCORE.RESTR.CAVITY>
0

>  <SCORE.RESTR.norm>
0

>  <SCORE.SYSTEM>
0

>  <SCORE.SYSTEM.CONST>
0

>  <SCORE.SYSTEM.DIHEDRAL>
0

>  <SCORE.SYSTEM.SOLV>
0

>  <SCORE.SYSTEM.norm>
0

>  <SCORE.heavy>
12

>  <SCORE.norm>
-0.728685

>  <RMSD>
5.861

$$$$
ligand
 OpenBabel11021811433D
libRbt.so/2013.1/901 2013/11/27
 12 12  0  0  0  0  0  0  0  0999 V2000
   43.4723   10.8180   14.0788 O   0  0  0  0  0  0  0  0  0  0  0  0
   42.7747   13.4244   10.6136 O   0  0  0  0  0  0  0  0  0  0  0  0
   43.9653   11.9379   14.8747 C   0  0  0  0  0  0  0  0  0  0  0  0
   43.7690   14.0011    8.4323 O   0  0  0  0  0  0  0  0  0  0  0  0
   44.9027   12.8543   14.0358 C   0  0  0  0  0  0  0  0  0  0  0  0
   43.7491   12.2680    9.3736 O   0  0  0  0  0  0  0  0  0  0  0  0
   45.0013   12.3082   12.6380 N   0  0  0  0  0  0  0  0  0  0  0  0
   45.5083   10.9025   12.6621 C   0  0  0  0  0  0  0  0  0  0  0  0
   44.5862   10.0318   13.5619 C   0  0  0  0  0  0  0  0  0  0  0  0
   45.9024   13.1448   11.7706 C   0  0  0  0  0  0  0  0  0  0  0  0
   45.5875   12.9349   10.2697 C   0  0  0  0  0  0  0  0  0  0  0  0
   43.9748   13.6317    9.8409 S   0  0  0  0  0  0  0  0  0  0  0  0
  1  3  1  0  0  0  0
  1  9  1  0  0  0  0
  2 12  1  0  0  0  0
  3  5  1  0  0  0  0
  4 12  2  0  0  0  0
  5  7  1  0  0  0  0
  6 12  2  0  0  0  0
  7  8  1  0  0  0  0
  7 10  1  0  0  0  0
  8  9  1  0  0  0  0
 10 11  1  0  0  0  0
 11 12  1  0  0  0  0
M  END
>  <CHROM.1>
-158.03161355,68.91825380,-46.57905686,44.34992442,12.48445767,11.61011623
1.46662597,0.10307030,2.02961713

>  <Name>
ligand

>  <RI>
0

>  <Rbt.Current_Directory>
/home/itssahil/PROJECTS/Mol_Feturizer/New_Systems/rnas/2HO6

>  <Rbt.Executable>
rbdock ($Id: //depot/dev/client3/rdock/2013.1/src/exe/rbdock.cxx#4 $)

>  <Rbt.Library>
libRbt.so (2013.1, Build901 2013/11/27)

>  <Rbt.Parameter_File>
/export/apps/rDock/src/rDock_2013.1_src/data/scripts/dock_solv.prm

>  <Rbt.Receptor>
prm/pocket_docking_5.prm

>  <SCORE>
-10.1683

>  <SCORE.INTER>
-9.23962

>  <SCORE.INTER.CONST>
1

>  <SCORE.INTER.POLAR>
0

>  <SCORE.INTER.ROT>
3

>  <SCORE.INTER.SOLV>
9.24173

>  <SCORE.INTER.VDW>
-14.8403

>  <SCORE.INTER.norm>
-0.769969

>  <SCORE.INTRA>
-0.928709

>  <SCORE.INTRA.DIHEDRAL>
0.791339

>  <SCORE.INTRA.DIHEDRAL.0>
1.88407

>  <SCORE.INTRA.POLAR>
0

>  <SCORE.INTRA.POLAR.0>
0

>  <SCORE.INTRA.REPUL>
0

>  <SCORE.INTRA.REPUL.0>
0

>  <SCORE.INTRA.SOLV>
0.360456

>  <SCORE.INTRA.SOLV.lig_0>
-10.2714

>  <SCORE.INTRA.VDW>
-1.50461

>  <SCORE.INTRA.VDW.0>
0.416923

>  <SCORE.INTRA.norm>
-0.0773924

>  <SCORE.RESTR>
0

>  <SCORE.RESTR.CAVITY>
0

>  <SCORE.RESTR.norm>
0

>  <SCORE.SYSTEM>
0

>  <SCORE.SYSTEM.CONST>
0

>  <SCORE.SYSTEM.DIHEDRAL>
0

>  <SCORE.SYSTEM.SOLV>
0

>  <SCORE.SYSTEM.norm>
0

>  <SCORE.heavy>
12

>  <SCORE.norm>
-0.847361

>  <RMSD>
5.864

$$$$
ligand
 OpenBabel11021811433D
libRbt.so/2013.1/901 2013/11/27
 12 12  0  0  0  0  0  0  0  0999 V2000
   43.4708   10.8007   14.0269 O   0  0  0  0  0  0  0  0  0  0  0  0
   42.7468   13.4073   10.5844 O   0  0  0  0  0  0  0  0  0  0  0  0
   43.9427   11.8936   14.8716 C   0  0  0  0  0  0  0  0  0  0  0  0
   43.7586   14.0199    8.4211 O   0  0  0  0  0  0  0  0  0  0  0  0
   44.8582   12.8665   14.0731 C   0  0  0  0  0  0  0  0  0  0  0  0
   43.8112   12.2960    9.3778 O   0  0  0  0  0  0  0  0  0  0  0  0
   44.9640   12.3862   12.6518 N   0  0  0  0  0  0  0  0  0  0  0  0
   45.5003   10.9919   12.6113 C   0  0  0  0  0  0  0  0  0  0  0  0
   44.5992   10.0622   13.4727 C   0  0  0  0  0  0  0  0  0  0  0  0
   45.8449   13.2799   11.8214 C   0  0  0  0  0  0  0  0  0  0  0  0
   45.5892   13.0695   10.3094 C   0  0  0  0  0  0  0  0  0  0  0  0
   43.9514   13.6737    9.8374 S   0  0  0  0  0  0  0  0  0  0  0  0
  1  3  1  0  0  0  0
  1  9  1  0  0  0  0
  2 12  1  0  0  0  0
  3  5  1  0  0  0  0
  4 12  2  0  0  0  0
  5  7  1  0  0  0  0
  6 12  2  0  0  0  0
  7  8  1  0  0  0  0
  7 10  1  0  0  0  0
  8  9  1  0  0  0  0
 10 11  1  0  0  0  0
 11 12  1  0  0  0  0
M  END
>  <CHROM.1>
-161.44102890,68.59202376,-45.32149422,44.33669650,12.52383524,11.60217379
1.46625009,0.26764998,2.05035750

>  <Name>
ligand

>  <RI>
0

>  <Rbt.Current_Directory>
/home/itssahil/PROJECTS/Mol_Feturizer/New_Systems/rnas/2HO6

>  <Rbt.Executable>
rbdock ($Id: //depot/dev/client3/rdock/2013.1/src/exe/rbdock.cxx#4 $)

>  <Rbt.Library>
libRbt.so (2013.1, Build901 2013/11/27)

>  <Rbt.Parameter_File>
/export/apps/rDock/src/rDock_2013.1_src/data/scripts/dock_solv.prm

>  <Rbt.Receptor>
prm/pocket_docking_5.prm

>  <SCORE>
-10.1965

>  <SCORE.INTER>
-9.27094

>  <SCORE.INTER.CONST>
1

>  <SCORE.INTER.POLAR>
0

>  <SCORE.INTER.ROT>
3

>  <SCORE.INTER.SOLV>
9.11839

>  <SCORE.INTER.VDW>
-14.8201

>  <SCORE.INTER.norm>
-0.772579

>  <SCORE.INTRA>
-0.925542

>  <SCORE.INTRA.DIHEDRAL>
0.588637

>  <SCORE.INTRA.DIHEDRAL.0>
1.88407

>  <SCORE.INTRA.POLAR>
0

>  <SCORE.INTRA.POLAR.0>
0

>  <SCORE.INTRA.REPUL>
0

>  <SCORE.INTRA.REPUL.0>
0

>  <SCORE.INTRA.SOLV>
0.37742

>  <SCORE.INTRA.SOLV.lig_0>
-10.2714

>  <SCORE.INTRA.VDW>
-1.40857

>  <SCORE.INTRA.VDW.0>
0.416923

>  <SCORE.INTRA.norm>
-0.0771285

>  <SCORE.RESTR>
0

>  <SCORE.RESTR.CAVITY>
0

>  <SCORE.RESTR.norm>
0

>  <SCORE.SYSTEM>
0

>  <SCORE.SYSTEM.CONST>
0

>  <SCORE.SYSTEM.DIHEDRAL>
0

>  <SCORE.SYSTEM.SOLV>
0

>  <SCORE.SYSTEM.norm>
0

>  <SCORE.heavy>
12

>  <SCORE.norm>
-0.849707

>  <RMSD>
5.874

$$$$
ligand
 OpenBabel11021811433D
libRbt.so/2013.1/901 2013/11/27
 12 12  0  0  0  0  0  0  0  0999 V2000
   43.4477   10.7920   14.0262 O   0  0  0  0  0  0  0  0  0  0  0  0
   42.7824   13.3931   10.6779 O   0  0  0  0  0  0  0  0  0  0  0  0
   44.1155   11.7671   14.8829 C   0  0  0  0  0  0  0  0  0  0  0  0
   43.7134   14.0154    8.4812 O   0  0  0  0  0  0  0  0  0  0  0  0
   45.0780   12.6722   14.0605 C   0  0  0  0  0  0  0  0  0  0  0  0
   43.7382   12.2680    9.3955 O   0  0  0  0  0  0  0  0  0  0  0  0
   45.0118   12.2715   12.6124 N   0  0  0  0  0  0  0  0  0  0  0  0
   45.3676   10.8287   12.4539 C   0  0  0  0  0  0  0  0  0  0  0  0
   44.4296    9.9608   13.3399 C   0  0  0  0  0  0  0  0  0  0  0  0
   45.9278   13.1043   11.7569 C   0  0  0  0  0  0  0  0  0  0  0  0
   45.5910   12.9434   10.2548 C   0  0  0  0  0  0  0  0  0  0  0  0
   43.9597   13.6270    9.8782 S   0  0  0  0  0  0  0  0  0  0  0  0
  1  3  1  0  0  0  0
  1  9  1  0  0  0  0
  2 12  1  0  0  0  0
  3  5  1  0  0  0  0
  4 12  2  0  0  0  0
  5  7  1  0  0  0  0
  6 12  2  0  0  0  0
  7  8  1  0  0  0  0
  7 10  1  0  0  0  0
  8  9  1  0  0  0  0
 10 11  1  0  0  0  0
 11 12  1  0  0  0  0
M  END
>  <CHROM.1>
-165.32613188,66.17695846,-45.24806253,44.34544587,12.43923052,11.59046718
1.45733450,0.31632451,2.07436763

>  <Name>
ligand

>  <RI>
0

>  <Rbt.Current_Directory>
/home/itssahil/PROJECTS/Mol_Feturizer/New_Systems/rnas/2HO6

>  <Rbt.Executable>
rbdock ($Id: //depot/dev/client3/rdock/2013.1/src/exe/rbdock.cxx#4 $)

>  <Rbt.Library>
libRbt.so (2013.1, Build901 2013/11/27)

>  <Rbt.Parameter_File>
/export/apps/rDock/src/rDock_2013.1_src/data/scripts/dock_solv.prm

>  <Rbt.Receptor>
prm/pocket_docking_5.prm

>  <SCORE>
-10.1345

>  <SCORE.INTER>
-9.17504

>  <SCORE.INTER.CONST>
1

>  <SCORE.INTER.POLAR>
0

>  <SCORE.INTER.ROT>
3

>  <SCORE.INTER.SOLV>
9.42302

>  <SCORE.INTER.VDW>
-14.8577

>  <SCORE.INTER.norm>
-0.764587

>  <SCORE.INTRA>
-0.959488

>  <SCORE.INTRA.DIHEDRAL>
0.282055

>  <SCORE.INTRA.DIHEDRAL.0>
1.88407

>  <SCORE.INTRA.POLAR>
0

>  <SCORE.INTRA.POLAR.0>
0

>  <SCORE.INTRA.REPUL>
0

>  <SCORE.INTRA.REPUL.0>
0

>  <SCORE.INTRA.SOLV>
0.3944

>  <SCORE.INTRA.SOLV.lig_0>
-10.2714

>  <SCORE.INTRA.VDW>
-1.29772

>  <SCORE.INTRA.VDW.0>
0.416923

>  <SCORE.INTRA.norm>
-0.0799574

>  <SCORE.RESTR>
0

>  <SCORE.RESTR.CAVITY>
0

>  <SCORE.RESTR.norm>
0

>  <SCORE.SYSTEM>
0

>  <SCORE.SYSTEM.CONST>
0

>  <SCORE.SYSTEM.DIHEDRAL>
0

>  <SCORE.SYSTEM.SOLV>
0

>  <SCORE.SYSTEM.norm>
0

>  <SCORE.heavy>
12

>  <SCORE.norm>
-0.844544

>  <RMSD>
5.876

$$$$
ligand
 OpenBabel11021811433D
libRbt.so/2013.1/901 2013/11/27
 12 12  0  0  0  0  0  0  0  0999 V2000
   43.2558   10.9099   14.2316 O   0  0  0  0  0  0  0  0  0  0  0  0
   43.6722   13.4695    8.7142 O   0  0  0  0  0  0  0  0  0  0  0  0
   44.1379   11.7516   15.0342 C   0  0  0  0  0  0  0  0  0  0  0  0
   43.7271   14.1334   11.0881 O   0  0  0  0  0  0  0  0  0  0  0  0
   45.2701   12.3702   14.1638 C   0  0  0  0  0  0  0  0  0  0  0  0
   45.1268   14.3153    9.7105 O   0  0  0  0  0  0  0  0  0  0  0  0
   45.0966   11.9196   12.7395 N   0  0  0  0  0  0  0  0  0  0  0  0
   45.1142   10.4273   12.6589 C   0  0  0  0  0  0  0  0  0  0  0  0
   44.0151    9.8427   13.5909 C   0  0  0  0  0  0  0  0  0  0  0  0
   46.1667   12.4766   11.8401 C   0  0  0  0  0  0  0  0  0  0  0  0
   45.7615   12.3622   10.3506 C   0  0  0  0  0  0  0  0  0  0  0  0
   44.2069   13.2293   10.0320 S   0  0  0  0  0  0  0  0  0  0  0  0
  1  3  1  0  0  0  0
  1  9  1  0  0  0  0
  2 12  1  0  0  0  0
  3  5  1  0  0  0  0
  4 12  2  0  0  0  0
  5  7  1  0  0  0  0
  6 12  2  0  0  0  0
  7  8  1  0  0  0  0
  7 10  1  0  0  0  0
  8  9  1  0  0  0  0
 10 11  1  0  0  0  0
 11 12  1  0  0  0  0
M  END
>  <CHROM.1>
-163.35844430,58.20479896,170.56105221,44.56219260,12.39483855,11.78511885
1.59095595,-0.17439558,2.10448046

>  <Name>
ligand

>  <RI>
0

>  <Rbt.Current_Directory>
/home/itssahil/PROJECTS/Mol_Feturizer/New_Systems/rnas/2HO6

>  <Rbt.Executable>
rbdock ($Id: //depot/dev/client3/rdock/2013.1/src/exe/rbdock.cxx#4 $)

>  <Rbt.Library>
libRbt.so (2013.1, Build901 2013/11/27)

>  <Rbt.Parameter_File>
/export/apps/rDock/src/rDock_2013.1_src/data/scripts/dock_solv.prm

>  <Rbt.Receptor>
prm/pocket_docking_6.prm

>  <SCORE>
-9.44348

>  <SCORE.INTER>
-9.05184

>  <SCORE.INTER.CONST>
1

>  <SCORE.INTER.POLAR>
0

>  <SCORE.INTER.ROT>
3

>  <SCORE.INTER.SOLV>
6.55016

>  <SCORE.INTER.VDW>
-13.8179

>  <SCORE.INTER.norm>
-0.75432

>  <SCORE.INTRA>
-0.391637

>  <SCORE.INTRA.DIHEDRAL>
0.31939

>  <SCORE.INTRA.DIHEDRAL.0>
1.88407

>  <SCORE.INTRA.POLAR>
0

>  <SCORE.INTRA.POLAR.0>
0

>  <SCORE.INTRA.REPUL>
0

>  <SCORE.INTRA.REPUL.0>
0

>  <SCORE.INTRA.SOLV>
0.938246

>  <SCORE.INTRA.SOLV.lig_0>
-10.2714

>  <SCORE.INTRA.VDW>
-1.02045

>  <SCORE.INTRA.VDW.0>
0.416923

>  <SCORE.INTRA.norm>
-0.0326364

>  <SCORE.RESTR>
0

>  <SCORE.RESTR.CAVITY>
0

>  <SCORE.RESTR.norm>
0

>  <SCORE.SYSTEM>
0

>  <SCORE.SYSTEM.CONST>
0

>  <SCORE.SYSTEM.DIHEDRAL>
0

>  <SCORE.SYSTEM.SOLV>
0

>  <SCORE.SYSTEM.norm>
0

>  <SCORE.heavy>
12

>  <SCORE.norm>
-0.786957

>  <RMSD>
5.877

$$$$
ligand
 OpenBabel11021811433D
libRbt.so/2013.1/901 2013/11/27
 12 12  0  0  0  0  0  0  0  0999 V2000
   43.2969   11.4931   14.6158 O   0  0  0  0  0  0  0  0  0  0  0  0
   43.6551   12.2498    9.2745 O   0  0  0  0  0  0  0  0  0  0  0  0
   44.4378   12.3181   15.0010 C   0  0  0  0  0  0  0  0  0  0  0  0
   44.0144   14.6196    9.8524 O   0  0  0  0  0  0  0  0  0  0  0  0
   45.5046   12.3663   13.8689 C   0  0  0  0  0  0  0  0  0  0  0  0
   45.1981   13.3823    8.8737 O   0  0  0  0  0  0  0  0  0  0  0  0
   45.0194   11.5515   12.7016 N   0  0  0  0  0  0  0  0  0  0  0  0
   44.7508   10.1435   13.1244 C   0  0  0  0  0  0  0  0  0  0  0  0
   43.7324   10.1381   14.2996 C   0  0  0  0  0  0  0  0  0  0  0  0
   46.0099   11.5480   11.5689 C   0  0  0  0  0  0  0  0  0  0  0  0
   45.9982   12.8974   10.8107 C   0  0  0  0  0  0  0  0  0  0  0  0
   44.3791   13.2114   10.0690 S   0  0  0  0  0  0  0  0  0  0  0  0
  1  3  1  0  0  0  0
  1  9  1  0  0  0  0
  2 12  1  0  0  0  0
  3  5  1  0  0  0  0
  4 12  2  0  0  0  0
  5  7  1  0  0  0  0
  6 12  2  0  0  0  0
  7  8  1  0  0  0  0
  7 10  1  0  0  0  0
  8  9  1  0  0  0  0
 10 11  1  0  0  0  0
 11 12  1  0  0  0  0
M  END
>  <CHROM.1>
-74.95235603,-61.81419468,-48.89702931,44.61427162,12.28915374,11.77034479
1.67209761,-1.01709010,2.09027271

>  <Name>
ligand

>  <RI>
0

>  <Rbt.Current_Directory>
/home/itssahil/PROJECTS/Mol_Feturizer/New_Systems/rnas/2HO6

>  <Rbt.Executable>
rbdock ($Id: //depot/dev/client3/rdock/2013.1/src/exe/rbdock.cxx#4 $)

>  <Rbt.Library>
libRbt.so (2013.1, Build901 2013/11/27)

>  <Rbt.Parameter_File>
/export/apps/rDock/src/rDock_2013.1_src/data/scripts/dock_solv.prm

>  <Rbt.Receptor>
prm/pocket_docking_5.prm

>  <SCORE>
-9.95309

>  <SCORE.INTER>
-8.92649

>  <SCORE.INTER.CONST>
1

>  <SCORE.INTER.POLAR>
0

>  <SCORE.INTER.ROT>
3

>  <SCORE.INTER.SOLV>
7.70186

>  <SCORE.INTER.VDW>
-14.1183

>  <SCORE.INTER.norm>
-0.743874

>  <SCORE.INTRA>
-1.0266

>  <SCORE.INTRA.DIHEDRAL>
0.285321

>  <SCORE.INTRA.DIHEDRAL.0>
1.88407

>  <SCORE.INTRA.POLAR>
0

>  <SCORE.INTRA.POLAR.0>
0

>  <SCORE.INTRA.REPUL>
0

>  <SCORE.INTRA.REPUL.0>
0

>  <SCORE.INTRA.SOLV>
0.181265

>  <SCORE.INTRA.SOLV.lig_0>
-10.2714

>  <SCORE.INTRA.VDW>
-1.2599

>  <SCORE.INTRA.VDW.0>
0.416923

>  <SCORE.INTRA.norm>
-0.0855503

>  <SCORE.RESTR>
0

>  <SCORE.RESTR.CAVITY>
0

>  <SCORE.RESTR.norm>
0

>  <SCORE.SYSTEM>
0

>  <SCORE.SYSTEM.CONST>
0

>  <SCORE.SYSTEM.DIHEDRAL>
0

>  <SCORE.SYSTEM.SOLV>
0

>  <SCORE.SYSTEM.norm>
0

>  <SCORE.heavy>
12

>  <SCORE.norm>
-0.829424

>  <RMSD>
5.882

$$$$
ligand
 OpenBabel11021811433D
libRbt.so/2013.1/901 2013/11/27
 12 12  0  0  0  0  0  0  0  0999 V2000
   42.9726   12.0431   14.6770 O   0  0  0  0  0  0  0  0  0  0  0  0
   43.9310   13.4281   10.9687 O   0  0  0  0  0  0  0  0  0  0  0  0
   44.0118   13.0672   14.7221 C   0  0  0  0  0  0  0  0  0  0  0  0
   45.4094   13.3166    8.9987 O   0  0  0  0  0  0  0  0  0  0  0  0
   45.2015   12.7028   13.7873 C   0  0  0  0  0  0  0  0  0  0  0  0
   44.0202   12.0465    9.5877 O   0  0  0  0  0  0  0  0  0  0  0  0
   44.9048   11.3980   13.1006 N   0  0  0  0  0  0  0  0  0  0  0  0
   44.6668   10.3207   14.1088 C   0  0  0  0  0  0  0  0  0  0  0  0
   43.5176   10.7477   15.0655 C   0  0  0  0  0  0  0  0  0  0  0  0
   46.0219   10.9796   12.1833 C   0  0  0  0  0  0  0  0  0  0  0  0
   45.6034   11.1045   10.6984 C   0  0  0  0  0  0  0  0  0  0  0  0
   45.0455   12.7825   10.3197 S   0  0  0  0  0  0  0  0  0  0  0  0
  1  3  1  0  0  0  0
  1  9  1  0  0  0  0
  2 12  1  0  0  0  0
  3  5  1  0  0  0  0
  4 12  2  0  0  0  0
  5  7  1  0  0  0  0
  6 12  2  0  0  0  0
  7  8  1  0  0  0  0
  7 10  1  0  0  0  0
  8  9  1  0  0  0  0
 10 11  1  0  0  0  0
 11 12  1  0  0  0  0
M  END
>  <CHROM.1>
-109.33461899,55.78748298,-59.93216300,44.62803919,12.09698233,12.11021256
1.91889940,-0.95631235,2.08997859

>  <Name>
ligand

>  <RI>
0

>  <Rbt.Current_Directory>
/home/itssahil/PROJECTS/Mol_Feturizer/New_Systems/rnas/2HO6

>  <Rbt.Executable>
rbdock ($Id: //depot/dev/client3/rdock/2013.1/src/exe/rbdock.cxx#4 $)

>  <Rbt.Library>
libRbt.so (2013.1, Build901 2013/11/27)

>  <Rbt.Parameter_File>
/export/apps/rDock/src/rDock_2013.1_src/data/scripts/dock_solv.prm

>  <Rbt.Receptor>
prm/pocket_docking_4.prm

>  <SCORE>
-8.46774

>  <SCORE.INTER>
-7.62601

>  <SCORE.INTER.CONST>
1

>  <SCORE.INTER.POLAR>
0

>  <SCORE.INTER.ROT>
3

>  <SCORE.INTER.SOLV>
9.66365

>  <SCORE.INTER.VDW>
-13.9052

>  <SCORE.INTER.norm>
-0.6355

>  <SCORE.INTRA>
-0.841738

>  <SCORE.INTRA.DIHEDRAL>
2.22333

>  <SCORE.INTRA.DIHEDRAL.0>
1.88407

>  <SCORE.INTRA.POLAR>
0

>  <SCORE.INTRA.POLAR.0>
0

>  <SCORE.INTRA.REPUL>
0

>  <SCORE.INTRA.REPUL.0>
0

>  <SCORE.INTRA.SOLV>
0.194014

>  <SCORE.INTRA.SOLV.lig_0>
-10.2714

>  <SCORE.INTRA.VDW>
-2.05041

>  <SCORE.INTRA.VDW.0>
0.416923

>  <SCORE.INTRA.norm>
-0.0701448

>  <SCORE.RESTR>
0

>  <SCORE.RESTR.CAVITY>
0

>  <SCORE.RESTR.norm>
0

>  <SCORE.SYSTEM>
0

>  <SCORE.SYSTEM.CONST>
0

>  <SCORE.SYSTEM.DIHEDRAL>
0

>  <SCORE.SYSTEM.SOLV>
0

>  <SCORE.SYSTEM.norm>
0

>  <SCORE.heavy>
12

>  <SCORE.norm>
-0.705645

>  <RMSD>
5.892

$$$$
ligand
 OpenBabel11021811433D
libRbt.so/2013.1/901 2013/11/27
 12 12  0  0  0  0  0  0  0  0999 V2000
   43.0146   12.4956   14.5514 O   0  0  0  0  0  0  0  0  0  0  0  0
   42.6747   13.4288   10.4838 O   0  0  0  0  0  0  0  0  0  0  0  0
   42.9749   13.9157   14.2162 C   0  0  0  0  0  0  0  0  0  0  0  0
   43.8725   13.9495    8.3925 O   0  0  0  0  0  0  0  0  0  0  0  0
   44.0583   14.2742   13.1580 C   0  0  0  0  0  0  0  0  0  0  0  0
   43.6832   12.2208    9.3230 O   0  0  0  0  0  0  0  0  0  0  0  0
   44.8134   13.0278   12.7863 N   0  0  0  0  0  0  0  0  0  0  0  0
   45.4328   12.4123   13.9992 C   0  0  0  0  0  0  0  0  0  0  0  0
   44.3311   12.1293   15.0596 C   0  0  0  0  0  0  0  0  0  0  0  0
   45.8866   13.3040   11.7684 C   0  0  0  0  0  0  0  0  0  0  0  0
   45.4758   12.7886   10.3679 C   0  0  0  0  0  0  0  0  0  0  0  0
   43.9430   13.5707    9.8119 S   0  0  0  0  0  0  0  0  0  0  0  0
  1  3  1  0  0  0  0
  1  9  1  0  0  0  0
  2 12  1  0  0  0  0
  3  5  1  0  0  0  0
  4 12  2  0  0  0  0
  5  7  1  0  0  0  0
  6 12  2  0  0  0  0
  7  8  1  0  0  0  0
  7 10  1  0  0  0  0
  8  9  1  0  0  0  0
 10 11  1  0  0  0  0
 11 12  1  0  0  0  0
M  END
>  <CHROM.1>
-105.51457236,59.08828869,-62.57095103,44.12270829,13.16351295,11.73753443
1.54579084,-0.24839039,1.66513394

>  <Name>
ligand

>  <RI>
0

>  <Rbt.Current_Directory>
/home/itssahil/PROJECTS/Mol_Feturizer/New_Systems/rnas/2HO6

>  <Rbt.Executable>
rbdock ($Id: //depot/dev/client3/rdock/2013.1/src/exe/rbdock.cxx#4 $)

>  <Rbt.Library>
libRbt.so (2013.1, Build901 2013/11/27)

>  <Rbt.Parameter_File>
/export/apps/rDock/src/rDock_2013.1_src/data/scripts/dock_solv.prm

>  <Rbt.Receptor>
prm/pocket_docking_8.prm

>  <SCORE>
-11.1905

>  <SCORE.INTER>
-10.3426

>  <SCORE.INTER.CONST>
1

>  <SCORE.INTER.POLAR>
0

>  <SCORE.INTER.ROT>
3

>  <SCORE.INTER.SOLV>
9.03435

>  <SCORE.INTER.VDW>
-15.5065

>  <SCORE.INTER.norm>
-0.861886

>  <SCORE.INTRA>
-0.84787

>  <SCORE.INTRA.DIHEDRAL>
2.03664

>  <SCORE.INTRA.DIHEDRAL.0>
1.88407

>  <SCORE.INTRA.POLAR>
0

>  <SCORE.INTRA.POLAR.0>
0

>  <SCORE.INTRA.REPUL>
0

>  <SCORE.INTRA.REPUL.0>
0

>  <SCORE.INTRA.SOLV>
0.183785

>  <SCORE.INTRA.SOLV.lig_0>
-10.2714

>  <SCORE.INTRA.VDW>
-1.95808

>  <SCORE.INTRA.VDW.0>
0.416923

>  <SCORE.INTRA.norm>
-0.0706558

>  <SCORE.RESTR>
0

>  <SCORE.RESTR.CAVITY>
0

>  <SCORE.RESTR.norm>
0

>  <SCORE.SYSTEM>
0

>  <SCORE.SYSTEM.CONST>
0

>  <SCORE.SYSTEM.DIHEDRAL>
0

>  <SCORE.SYSTEM.SOLV>
0

>  <SCORE.SYSTEM.norm>
0

>  <SCORE.heavy>
12

>  <SCORE.norm>
-0.932542

>  <RMSD>
5.897

$$$$
ligand
 OpenBabel11021811433D
libRbt.so/2013.1/901 2013/11/27
 12 12  0  0  0  0  0  0  0  0999 V2000
   43.2806   11.5014   14.6540 O   0  0  0  0  0  0  0  0  0  0  0  0
   43.6410   12.1839    9.3627 O   0  0  0  0  0  0  0  0  0  0  0  0
   44.4656   12.2300   15.0964 C   0  0  0  0  0  0  0  0  0  0  0  0
   43.9969   14.5835    9.8037 O   0  0  0  0  0  0  0  0  0  0  0  0
   45.5437   12.2839   13.9754 C   0  0  0  0  0  0  0  0  0  0  0  0
   45.1822   13.2938    8.8971 O   0  0  0  0  0  0  0  0  0  0  0  0
   45.0211   11.5743   12.7566 N   0  0  0  0  0  0  0  0  0  0  0  0
   44.6644   10.1615   13.0888 C   0  0  0  0  0  0  0  0  0  0  0  0
   43.6367   10.1448   14.2558 C   0  0  0  0  0  0  0  0  0  0  0  0
   46.0201   11.5813   11.6313 C   0  0  0  0  0  0  0  0  0  0  0  0
   45.9835   12.9219   10.8585 C   0  0  0  0  0  0  0  0  0  0  0  0
   44.3637   13.1906   10.1006 S   0  0  0  0  0  0  0  0  0  0  0  0
  1  3  1  0  0  0  0
  1  9  1  0  0  0  0
  2 12  1  0  0  0  0
  3  5  1  0  0  0  0
  4 12  2  0  0  0  0
  5  7  1  0  0  0  0
  6 12  2  0  0  0  0
  7  8  1  0  0  0  0
  7 10  1  0  0  0  0
  8  9  1  0  0  0  0
 10 11  1  0  0  0  0
 11 12  1  0  0  0  0
M  END
>  <CHROM.1>
-81.30600416,-61.85578157,-45.91583753,44.59795954,12.26598914,11.80464025
1.62458531,0.05520832,1.99257161

>  <Name>
ligand

>  <RI>
0

>  <Rbt.Current_Directory>
/home/itssahil/PROJECTS/Mol_Feturizer/New_Systems/rnas/2HO6

>  <Rbt.Executable>
rbdock ($Id: //depot/dev/client3/rdock/2013.1/src/exe/rbdock.cxx#4 $)

>  <Rbt.Library>
libRbt.so (2013.1, Build901 2013/11/27)

>  <Rbt.Parameter_File>
/export/apps/rDock/src/rDock_2013.1_src/data/scripts/dock_solv.prm

>  <Rbt.Receptor>
prm/pocket_docking_6.prm

>  <SCORE>
-9.83439

>  <SCORE.INTER>
-8.83586

>  <SCORE.INTER.CONST>
1

>  <SCORE.INTER.POLAR>
0

>  <SCORE.INTER.ROT>
3

>  <SCORE.INTER.SOLV>
7.7936

>  <SCORE.INTER.VDW>
-14.0884

>  <SCORE.INTER.norm>
-0.736322

>  <SCORE.INTRA>
-0.998534

>  <SCORE.INTRA.DIHEDRAL>
0.615331

>  <SCORE.INTRA.DIHEDRAL.0>
1.88407

>  <SCORE.INTRA.POLAR>
0

>  <SCORE.INTRA.POLAR.0>
0

>  <SCORE.INTRA.REPUL>
0

>  <SCORE.INTRA.REPUL.0>
0

>  <SCORE.INTRA.SOLV>
0.172119

>  <SCORE.INTRA.SOLV.lig_0>
-10.2714

>  <SCORE.INTRA.VDW>
-1.39226

>  <SCORE.INTRA.VDW.0>
0.416923

>  <SCORE.INTRA.norm>
-0.0832112

>  <SCORE.RESTR>
0

>  <SCORE.RESTR.CAVITY>
0

>  <SCORE.RESTR.norm>
0

>  <SCORE.SYSTEM>
0

>  <SCORE.SYSTEM.CONST>
0

>  <SCORE.SYSTEM.DIHEDRAL>
0

>  <SCORE.SYSTEM.SOLV>
0

>  <SCORE.SYSTEM.norm>
0

>  <SCORE.heavy>
12

>  <SCORE.norm>
-0.819533

>  <RMSD>
5.901

$$$$
ligand
 OpenBabel11021811433D
libRbt.so/2013.1/901 2013/11/27
 12 12  0  0  0  0  0  0  0  0999 V2000
   54.2243   15.4814   15.0565 O   0  0  0  0  0  0  0  0  0  0  0  0
   50.1404    9.7744   16.9873 O   0  0  0  0  0  0  0  0  0  0  0  0
   54.4622   14.3907   14.1161 C   0  0  0  0  0  0  0  0  0  0  0  0
   49.5522   10.9932   19.0483 O   0  0  0  0  0  0  0  0  0  0  0  0
   53.8312   13.0620   14.6246 C   0  0  0  0  0  0  0  0  0  0  0  0
   49.3024   11.5320   17.1675 O   0  0  0  0  0  0  0  0  0  0  0  0
   53.1450   13.3155   15.9388 N   0  0  0  0  0  0  0  0  0  0  0  0
   54.1141   13.8638   16.9356 C   0  0  0  0  0  0  0  0  0  0  0  0
   54.7730   15.1524   16.3667 C   0  0  0  0  0  0  0  0  0  0  0  0
   52.5170   12.0660   16.4943 C   0  0  0  0  0  0  0  0  0  0  0  0
   51.2639   12.3978   17.3403 C   0  0  0  0  0  0  0  0  0  0  0  0
   50.4136   10.8891   17.8608 S   0  0  0  0  0  0  0  0  0  0  0  0
  1  3  1  0  0  0  0
  1  9  1  0  0  0  0
  2 12  1  0  0  0  0
  3  5  1  0  0  0  0
  4 12  2  0  0  0  0
  5  7  1  0  0  0  0
  6 12  2  0  0  0  0
  7  8  1  0  0  0  0
  7 10  1  0  0  0  0
  8  9  1  0  0  0  0
 10 11  1  0  0  0  0
 11 12  1  0  0  0  0
M  END
>  <CHROM.1>
-149.86228033,174.03606045,-45.27754284,52.07407751,12.53856046,16.64478393
-0.08722588,0.79765022,1.09350223

>  <Name>
ligand

>  <RI>
0

>  <Rbt.Current_Directory>
/home/itssahil/PROJECTS/Mol_Feturizer/New_Systems/rnas/2HO6

>  <Rbt.Executable>
rbdock ($Id: //depot/dev/client3/rdock/2013.1/src/exe/rbdock.cxx#4 $)

>  <Rbt.Library>
libRbt.so (2013.1, Build901 2013/11/27)

>  <Rbt.Parameter_File>
/export/apps/rDock/src/rDock_2013.1_src/data/scripts/dock_solv.prm

>  <Rbt.Receptor>
prm/pocket_docking_7.prm

>  <SCORE>
-10.1393

>  <SCORE.INTER>
-9.73145

>  <SCORE.INTER.CONST>
1

>  <SCORE.INTER.POLAR>
0

>  <SCORE.INTER.ROT>
3

>  <SCORE.INTER.SOLV>
6.34551

>  <SCORE.INTER.VDW>
-14.2028

>  <SCORE.INTER.norm>
-0.810954

>  <SCORE.INTRA>
-0.411146

>  <SCORE.INTRA.DIHEDRAL>
1.1156

>  <SCORE.INTRA.DIHEDRAL.0>
1.88407

>  <SCORE.INTRA.POLAR>
0

>  <SCORE.INTRA.POLAR.0>
0

>  <SCORE.INTRA.REPUL>
0

>  <SCORE.INTRA.REPUL.0>
0

>  <SCORE.INTRA.SOLV>
-0.0640066

>  <SCORE.INTRA.SOLV.lig_0>
-10.2714

>  <SCORE.INTRA.VDW>
-0.936943

>  <SCORE.INTRA.VDW.0>
0.416923

>  <SCORE.INTRA.norm>
-0.0342621

>  <SCORE.RESTR>
0.0032606

>  <SCORE.RESTR.CAVITY>
0.0032606

>  <SCORE.RESTR.norm>
0.000271717

>  <SCORE.SYSTEM>
0

>  <SCORE.SYSTEM.CONST>
0

>  <SCORE.SYSTEM.DIHEDRAL>
0

>  <SCORE.SYSTEM.SOLV>
0

>  <SCORE.SYSTEM.norm>
0

>  <SCORE.heavy>
12

>  <SCORE.norm>
-0.844945

>  <RMSD>
5.913

$$$$
ligand
 OpenBabel11021811433D
libRbt.so/2013.1/901 2013/11/27
 12 12  0  0  0  0  0  0  0  0999 V2000
   43.1429   11.6214   14.6441 O   0  0  0  0  0  0  0  0  0  0  0  0
   43.8553   12.7489    9.0487 O   0  0  0  0  0  0  0  0  0  0  0  0
   44.3742   12.1648   15.2094 C   0  0  0  0  0  0  0  0  0  0  0  0
   44.9229   13.7406   11.0377 O   0  0  0  0  0  0  0  0  0  0  0  0
   45.5724   11.9743   14.2347 C   0  0  0  0  0  0  0  0  0  0  0  0
   45.7613   12.9381    9.4430 O   0  0  0  0  0  0  0  0  0  0  0  0
   45.0854   11.2951   12.9843 N   0  0  0  0  0  0  0  0  0  0  0  0
   44.4519    9.9829   13.3168 C   0  0  0  0  0  0  0  0  0  0  0  0
   43.3039   10.2041   14.3422 C   0  0  0  0  0  0  0  0  0  0  0  0
   46.1986   11.0714   11.9969 C   0  0  0  0  0  0  0  0  0  0  0  0
   45.6693   11.0915   10.5425 C   0  0  0  0  0  0  0  0  0  0  0  0
   44.6177   12.5341   10.2540 S   0  0  0  0  0  0  0  0  0  0  0  0
  1  3  1  0  0  0  0
  1  9  1  0  0  0  0
  2 12  1  0  0  0  0
  3  5  1  0  0  0  0
  4 12  2  0  0  0  0
  5  7  1  0  0  0  0
  6 12  2  0  0  0  0
  7  8  1  0  0  0  0
  7 10  1  0  0  0  0
  8  9  1  0  0  0  0
 10 11  1  0  0  0  0
 11 12  1  0  0  0  0
M  END
>  <CHROM.1>
-150.26595380,48.72041487,-172.55775000,44.72109395,11.89048851,12.01951666
1.80552296,-0.82221526,2.05986975

>  <Name>
ligand

>  <RI>
0

>  <Rbt.Current_Directory>
/home/itssahil/PROJECTS/Mol_Feturizer/New_Systems/rnas/2HO6

>  <Rbt.Executable>
rbdock ($Id: //depot/dev/client3/rdock/2013.1/src/exe/rbdock.cxx#4 $)

>  <Rbt.Library>
libRbt.so (2013.1, Build901 2013/11/27)

>  <Rbt.Parameter_File>
/export/apps/rDock/src/rDock_2013.1_src/data/scripts/dock_solv.prm

>  <Rbt.Receptor>
prm/pocket_docking_4.prm

>  <SCORE>
-8.96412

>  <SCORE.INTER>
-8.50922

>  <SCORE.INTER.CONST>
1

>  <SCORE.INTER.POLAR>
0

>  <SCORE.INTER.ROT>
3

>  <SCORE.INTER.SOLV>
8.54459

>  <SCORE.INTER.VDW>
-14.121

>  <SCORE.INTER.norm>
-0.709102

>  <SCORE.INTRA>
-0.454901

>  <SCORE.INTRA.DIHEDRAL>
1.44467

>  <SCORE.INTRA.DIHEDRAL.0>
1.88407

>  <SCORE.INTRA.POLAR>
0

>  <SCORE.INTRA.POLAR.0>
0

>  <SCORE.INTRA.REPUL>
0

>  <SCORE.INTRA.REPUL.0>
0

>  <SCORE.INTRA.SOLV>
0.905799

>  <SCORE.INTRA.SOLV.lig_0>
-10.2714

>  <SCORE.INTRA.VDW>
-1.63013

>  <SCORE.INTRA.VDW.0>
0.416923

>  <SCORE.INTRA.norm>
-0.0379084

>  <SCORE.RESTR>
0

>  <SCORE.RESTR.CAVITY>
0

>  <SCORE.RESTR.norm>
0

>  <SCORE.SYSTEM>
0

>  <SCORE.SYSTEM.CONST>
0

>  <SCORE.SYSTEM.DIHEDRAL>
0

>  <SCORE.SYSTEM.SOLV>
0

>  <SCORE.SYSTEM.norm>
0

>  <SCORE.heavy>
12

>  <SCORE.norm>
-0.74701

>  <RMSD>
5.914

$$$$
ligand
 OpenBabel11021811433D
libRbt.so/2013.1/901 2013/11/27
 12 12  0  0  0  0  0  0  0  0999 V2000
   43.9730   10.5693   13.9567 O   0  0  0  0  0  0  0  0  0  0  0  0
   45.5699   13.4453    8.6785 O   0  0  0  0  0  0  0  0  0  0  0  0
   43.9682   11.6018   14.9885 C   0  0  0  0  0  0  0  0  0  0  0  0
   43.7082   11.9920    9.3863 O   0  0  0  0  0  0  0  0  0  0  0  0
   44.2550   13.0055   14.3806 C   0  0  0  0  0  0  0  0  0  0  0  0
   43.6680   13.8792    8.8145 O   0  0  0  0  0  0  0  0  0  0  0  0
   44.4345   12.8695   12.8936 N   0  0  0  0  0  0  0  0  0  0  0  0
   45.5444   11.9166   12.5874 C   0  0  0  0  0  0  0  0  0  0  0  0
   45.2564   10.5470   13.2652 C   0  0  0  0  0  0  0  0  0  0  0  0
   44.7241   14.1934   12.2396 C   0  0  0  0  0  0  0  0  0  0  0  0
   43.9679   14.3314   10.8961 C   0  0  0  0  0  0  0  0  0  0  0  0
   44.5794   13.1395    9.6813 S   0  0  0  0  0  0  0  0  0  0  0  0
  1  3  1  0  0  0  0
  1  9  1  0  0  0  0
  2 12  1  0  0  0  0
  3  5  1  0  0  0  0
  4 12  2  0  0  0  0
  5  7  1  0  0  0  0
  6 12  2  0  0  0  0
  7  8  1  0  0  0  0
  7 10  1  0  0  0  0
  8  9  1  0  0  0  0
 10 11  1  0  0  0  0
 11 12  1  0  0  0  0
M  END
>  <CHROM.1>
-139.41301280,-66.08178558,-96.37874560,44.47105035,12.66582685,11.55068268
-1.59640499,1.45798342,-1.18815268

>  <Name>
ligand

>  <RI>
0

>  <Rbt.Current_Directory>
/home/itssahil/PROJECTS/Mol_Feturizer/New_Systems/rnas/2HO6

>  <Rbt.Executable>
rbdock ($Id: //depot/dev/client3/rdock/2013.1/src/exe/rbdock.cxx#4 $)

>  <Rbt.Library>
libRbt.so (2013.1, Build901 2013/11/27)

>  <Rbt.Parameter_File>
/export/apps/rDock/src/rDock_2013.1_src/data/scripts/dock_solv.prm

>  <Rbt.Receptor>
prm/pocket_docking_5.prm

>  <SCORE>
-9.22755

>  <SCORE.INTER>
-8.73352

>  <SCORE.INTER.CONST>
1

>  <SCORE.INTER.POLAR>
0

>  <SCORE.INTER.ROT>
3

>  <SCORE.INTER.SOLV>
8.92592

>  <SCORE.INTER.VDW>
-14.3977

>  <SCORE.INTER.norm>
-0.727794

>  <SCORE.INTRA>
-0.494027

>  <SCORE.INTRA.DIHEDRAL>
1.88968

>  <SCORE.INTRA.DIHEDRAL.0>
1.88407

>  <SCORE.INTRA.POLAR>
0

>  <SCORE.INTRA.POLAR.0>
0

>  <SCORE.INTRA.REPUL>
0

>  <SCORE.INTRA.REPUL.0>
0

>  <SCORE.INTRA.SOLV>
0.459831

>  <SCORE.INTRA.SOLV.lig_0>
-10.2714

>  <SCORE.INTRA.VDW>
-1.66878

>  <SCORE.INTRA.VDW.0>
0.416923

>  <SCORE.INTRA.norm>
-0.0411689

>  <SCORE.RESTR>
0

>  <SCORE.RESTR.CAVITY>
0

>  <SCORE.RESTR.norm>
0

>  <SCORE.SYSTEM>
0

>  <SCORE.SYSTEM.CONST>
0

>  <SCORE.SYSTEM.DIHEDRAL>
0

>  <SCORE.SYSTEM.SOLV>
0

>  <SCORE.SYSTEM.norm>
0

>  <SCORE.heavy>
12

>  <SCORE.norm>
-0.768963

>  <RMSD>
5.916

$$$$
ligand
 OpenBabel11021811433D
libRbt.so/2013.1/901 2013/11/27
 12 12  0  0  0  0  0  0  0  0999 V2000
   42.9857   12.5228   14.5347 O   0  0  0  0  0  0  0  0  0  0  0  0
   42.6471   13.4357   10.4912 O   0  0  0  0  0  0  0  0  0  0  0  0
   42.9654   13.9514   14.2356 C   0  0  0  0  0  0  0  0  0  0  0  0
   43.8331   14.0224    8.4107 O   0  0  0  0  0  0  0  0  0  0  0  0
   44.0528   14.3214   13.1854 C   0  0  0  0  0  0  0  0  0  0  0  0
   43.6807   12.2722    9.3073 O   0  0  0  0  0  0  0  0  0  0  0  0
   44.7902   13.0744   12.7815 N   0  0  0  0  0  0  0  0  0  0  0  0
   45.4021   12.4201   13.9778 C   0  0  0  0  0  0  0  0  0  0  0  0
   44.2975   12.1257   15.0321 C   0  0  0  0  0  0  0  0  0  0  0  0
   45.8663   13.3614   11.7696 C   0  0  0  0  0  0  0  0  0  0  0  0
   45.4611   12.8574   10.3633 C   0  0  0  0  0  0  0  0  0  0  0  0
   43.9119   13.6176    9.8224 S   0  0  0  0  0  0  0  0  0  0  0  0
  1  3  1  0  0  0  0
  1  9  1  0  0  0  0
  2 12  1  0  0  0  0
  3  5  1  0  0  0  0
  4 12  2  0  0  0  0
  5  7  1  0  0  0  0
  6 12  2  0  0  0  0
  7  8  1  0  0  0  0
  7 10  1  0  0  0  0
  8  9  1  0  0  0  0
 10 11  1  0  0  0  0
 11 12  1  0  0  0  0
M  END
>  <CHROM.1>
-106.84387938,57.99371794,-62.96399256,44.09953626,13.20306720,11.73797643
1.54631714,-0.24215925,1.67079033

>  <Name>
ligand

>  <RI>
0

>  <Rbt.Current_Directory>
/home/itssahil/PROJECTS/Mol_Feturizer/New_Systems/rnas/2HO6

>  <Rbt.Executable>
rbdock ($Id: //depot/dev/client3/rdock/2013.1/src/exe/rbdock.cxx#4 $)

>  <Rbt.Library>
libRbt.so (2013.1, Build901 2013/11/27)

>  <Rbt.Parameter_File>
/export/apps/rDock/src/rDock_2013.1_src/data/scripts/dock_solv.prm

>  <Rbt.Receptor>
prm/pocket_docking_5.prm

>  <SCORE>
-11.1863

>  <SCORE.INTER>
-10.3447

>  <SCORE.INTER.CONST>
1

>  <SCORE.INTER.POLAR>
0

>  <SCORE.INTER.ROT>
3

>  <SCORE.INTER.SOLV>
8.95967

>  <SCORE.INTER.VDW>
-15.483

>  <SCORE.INTER.norm>
-0.86206

>  <SCORE.INTRA>
-0.84154

>  <SCORE.INTRA.DIHEDRAL>
2.1011

>  <SCORE.INTRA.DIHEDRAL.0>
1.88407

>  <SCORE.INTRA.POLAR>
0

>  <SCORE.INTRA.POLAR.0>
0

>  <SCORE.INTRA.REPUL>
0

>  <SCORE.INTRA.REPUL.0>
0

>  <SCORE.INTRA.SOLV>
0.184757

>  <SCORE.INTRA.SOLV.lig_0>
-10.2714

>  <SCORE.INTRA.VDW>
-1.98447

>  <SCORE.INTRA.VDW.0>
0.416923

>  <SCORE.INTRA.norm>
-0.0701283

>  <SCORE.RESTR>
0

>  <SCORE.RESTR.CAVITY>
0

>  <SCORE.RESTR.norm>
0

>  <SCORE.SYSTEM>
0

>  <SCORE.SYSTEM.CONST>
0

>  <SCORE.SYSTEM.DIHEDRAL>
0

>  <SCORE.SYSTEM.SOLV>
0

>  <SCORE.SYSTEM.norm>
0

>  <SCORE.heavy>
12

>  <SCORE.norm>
-0.932188

>  <RMSD>
5.917

$$$$
ligand
 OpenBabel11021811433D
libRbt.so/2013.1/901 2013/11/27
 12 12  0  0  0  0  0  0  0  0999 V2000
   44.2230   16.6710   11.8920 O   0  0  0  0  0  0  0  0  0  0  0  0
   44.6170   11.2928   12.6155 O   0  0  0  0  0  0  0  0  0  0  0  0
   42.9696   17.0725   12.5234 C   0  0  0  0  0  0  0  0  0  0  0  0
   46.5277   11.8954   14.0526 O   0  0  0  0  0  0  0  0  0  0  0  0
   42.4164   15.9450   13.4425 C   0  0  0  0  0  0  0  0  0  0  0  0
   44.8652   10.9444   14.5236 O   0  0  0  0  0  0  0  0  0  0  0  0
   43.3641   14.7775   13.4124 N   0  0  0  0  0  0  0  0  0  0  0  0
   43.5429   14.2871   12.0120 C   0  0  0  0  0  0  0  0  0  0  0  0
   44.0321   15.4555   11.1098 C   0  0  0  0  0  0  0  0  0  0  0  0
   42.8848   13.6430   14.2769 C   0  0  0  0  0  0  0  0  0  0  0  0
   44.0725   12.9011   14.9362 C   0  0  0  0  0  0  0  0  0  0  0  0
   45.1195   12.1141   13.6893 S   0  0  0  0  0  0  0  0  0  0  0  0
  1  3  1  0  0  0  0
  1  9  1  0  0  0  0
  2 12  1  0  0  0  0
  3  5  1  0  0  0  0
  4 12  2  0  0  0  0
  5  7  1  0  0  0  0
  6 12  2  0  0  0  0
  7  8  1  0  0  0  0
  7 10  1  0  0  0  0
  8  9  1  0  0  0  0
 10 11  1  0  0  0  0
 11 12  1  0  0  0  0
M  END
>  <CHROM.1>
-145.41298779,-63.93591944,-48.50847761,44.19284244,13.69978100,13.25452680
-2.09697857,-0.78148240,2.41493337

>  <Name>
ligand

>  <RI>
0

>  <Rbt.Current_Directory>
/home/itssahil/PROJECTS/Mol_Feturizer/New_Systems/rnas/2HO6

>  <Rbt.Executable>
rbdock ($Id: //depot/dev/client3/rdock/2013.1/src/exe/rbdock.cxx#4 $)

>  <Rbt.Library>
libRbt.so (2013.1, Build901 2013/11/27)

>  <Rbt.Parameter_File>
/export/apps/rDock/src/rDock_2013.1_src/data/scripts/dock_solv.prm

>  <Rbt.Receptor>
prm/pocket_docking_6.prm

>  <SCORE>
-8.47048

>  <SCORE.INTER>
-7.77024

>  <SCORE.INTER.CONST>
1

>  <SCORE.INTER.POLAR>
0

>  <SCORE.INTER.ROT>
3

>  <SCORE.INTER.SOLV>
6.96605

>  <SCORE.INTER.VDW>
-13.1022

>  <SCORE.INTER.norm>
-0.64752

>  <SCORE.INTRA>
-0.700244

>  <SCORE.INTRA.DIHEDRAL>
1.32642

>  <SCORE.INTRA.DIHEDRAL.0>
1.88407

>  <SCORE.INTRA.POLAR>
0

>  <SCORE.INTRA.POLAR.0>
0

>  <SCORE.INTRA.REPUL>
0

>  <SCORE.INTRA.REPUL.0>
0

>  <SCORE.INTRA.SOLV>
0.122341

>  <SCORE.INTRA.SOLV.lig_0>
-10.2714

>  <SCORE.INTRA.VDW>
-1.42462

>  <SCORE.INTRA.VDW.0>
0.416923

>  <SCORE.INTRA.norm>
-0.0583537

>  <SCORE.RESTR>
0

>  <SCORE.RESTR.CAVITY>
0

>  <SCORE.RESTR.norm>
0

>  <SCORE.SYSTEM>
0

>  <SCORE.SYSTEM.CONST>
0

>  <SCORE.SYSTEM.DIHEDRAL>
0

>  <SCORE.SYSTEM.SOLV>
0

>  <SCORE.SYSTEM.norm>
0

>  <SCORE.heavy>
12

>  <SCORE.norm>
-0.705873

>  <RMSD>
5.919

$$$$
ligand
 OpenBabel11021811433D
libRbt.so/2013.1/901 2013/11/27
 12 12  0  0  0  0  0  0  0  0999 V2000
   43.1482   11.4154   14.6603 O   0  0  0  0  0  0  0  0  0  0  0  0
   43.6390   13.1944    8.8866 O   0  0  0  0  0  0  0  0  0  0  0  0
   44.2740   12.1640   15.2105 C   0  0  0  0  0  0  0  0  0  0  0  0
   44.2836   14.0402   11.1111 O   0  0  0  0  0  0  0  0  0  0  0  0
   45.4255   12.2927   14.1714 C   0  0  0  0  0  0  0  0  0  0  0  0
   45.4285   13.5866    9.5705 O   0  0  0  0  0  0  0  0  0  0  0  0
   45.0135   11.6124   12.8949 N   0  0  0  0  0  0  0  0  0  0  0  0
   44.6824   10.1779   13.1521 C   0  0  0  0  0  0  0  0  0  0  0  0
   43.5769   10.0861   14.2420 C   0  0  0  0  0  0  0  0  0  0  0  0
   46.0878   11.6918   11.8444 C   0  0  0  0  0  0  0  0  0  0  0  0
   45.4857   11.6115   10.4207 C   0  0  0  0  0  0  0  0  0  0  0  0
   44.2686   12.9224   10.1554 S   0  0  0  0  0  0  0  0  0  0  0  0
  1  3  1  0  0  0  0
  1  9  1  0  0  0  0
  2 12  1  0  0  0  0
  3  5  1  0  0  0  0
  4 12  2  0  0  0  0
  5  7  1  0  0  0  0
  6 12  2  0  0  0  0
  7  8  1  0  0  0  0
  7 10  1  0  0  0  0
  8  9  1  0  0  0  0
 10 11  1  0  0  0  0
 11 12  1  0  0  0  0
M  END
>  <CHROM.1>
-153.74205411,57.32840771,173.28730294,44.55809874,12.18616400,11.95787242
1.68278721,-0.86136917,2.05794456

>  <Name>
ligand

>  <RI>
0

>  <Rbt.Current_Directory>
/home/itssahil/PROJECTS/Mol_Feturizer/New_Systems/rnas/2HO6

>  <Rbt.Executable>
rbdock ($Id: //depot/dev/client3/rdock/2013.1/src/exe/rbdock.cxx#4 $)

>  <Rbt.Library>
libRbt.so (2013.1, Build901 2013/11/27)

>  <Rbt.Parameter_File>
/export/apps/rDock/src/rDock_2013.1_src/data/scripts/dock_solv.prm

>  <Rbt.Receptor>
prm/pocket_docking_6.prm

>  <SCORE>
-9.10668

>  <SCORE.INTER>
-8.63462

>  <SCORE.INTER.CONST>
1

>  <SCORE.INTER.POLAR>
0

>  <SCORE.INTER.ROT>
3

>  <SCORE.INTER.SOLV>
7.51925

>  <SCORE.INTER.VDW>
-13.8628

>  <SCORE.INTER.norm>
-0.719551

>  <SCORE.INTRA>
-0.472064

>  <SCORE.INTRA.DIHEDRAL>
0.842878

>  <SCORE.INTRA.DIHEDRAL.0>
1.88407

>  <SCORE.INTRA.POLAR>
0

>  <SCORE.INTRA.POLAR.0>
0

>  <SCORE.INTRA.REPUL>
0

>  <SCORE.INTRA.REPUL.0>
0

>  <SCORE.INTRA.SOLV>
0.938604

>  <SCORE.INTRA.SOLV.lig_0>
-10.2714

>  <SCORE.INTRA.VDW>
-1.36281

>  <SCORE.INTRA.VDW.0>
0.416923

>  <SCORE.INTRA.norm>
-0.0393387

>  <SCORE.RESTR>
0

>  <SCORE.RESTR.CAVITY>
0

>  <SCORE.RESTR.norm>
0

>  <SCORE.SYSTEM>
0

>  <SCORE.SYSTEM.CONST>
0

>  <SCORE.SYSTEM.DIHEDRAL>
0

>  <SCORE.SYSTEM.SOLV>
0

>  <SCORE.SYSTEM.norm>
0

>  <SCORE.heavy>
12

>  <SCORE.norm>
-0.75889

>  <RMSD>
5.925

$$$$
ligand
 OpenBabel11021811433D
libRbt.so/2013.1/901 2013/11/27
 12 12  0  0  0  0  0  0  0  0999 V2000
   43.9858   16.4435   12.1816 O   0  0  0  0  0  0  0  0  0  0  0  0
   45.6541   10.3253   13.3750 O   0  0  0  0  0  0  0  0  0  0  0  0
   42.8283   16.7262   13.0247 C   0  0  0  0  0  0  0  0  0  0  0  0
   46.0642   12.6377   12.6241 O   0  0  0  0  0  0  0  0  0  0  0  0
   42.4605   15.4970   13.9055 C   0  0  0  0  0  0  0  0  0  0  0  0
   46.4254   11.8150   14.3798 O   0  0  0  0  0  0  0  0  0  0  0  0
   43.4339   14.3847   13.6277 N   0  0  0  0  0  0  0  0  0  0  0  0
   43.4173   14.0277   12.1765 C   0  0  0  0  0  0  0  0  0  0  0  0
   43.7230   15.2928   11.3256 C   0  0  0  0  0  0  0  0  0  0  0  0
   43.1312   13.1569   14.4432 C   0  0  0  0  0  0  0  0  0  0  0  0
   44.4318   12.4444   14.8864 C   0  0  0  0  0  0  0  0  0  0  0  0
   45.2891   11.7174   13.4698 S   0  0  0  0  0  0  0  0  0  0  0  0
  1  3  1  0  0  0  0
  1  9  1  0  0  0  0
  2 12  1  0  0  0  0
  3  5  1  0  0  0  0
  4 12  2  0  0  0  0
  5  7  1  0  0  0  0
  6 12  2  0  0  0  0
  7  8  1  0  0  0  0
  7 10  1  0  0  0  0
  8  9  1  0  0  0  0
 10 11  1  0  0  0  0
 11 12  1  0  0  0  0
M  END
>  <CHROM.1>
-143.63003642,-68.29728066,-124.41429744,44.38744353,13.48445760,13.29622998
-2.29208168,-0.76428063,2.37181451

>  <Name>
ligand

>  <RI>
0

>  <Rbt.Current_Directory>
/home/itssahil/PROJECTS/Mol_Feturizer/New_Systems/rnas/2HO6

>  <Rbt.Executable>
rbdock ($Id: //depot/dev/client3/rdock/2013.1/src/exe/rbdock.cxx#4 $)

>  <Rbt.Library>
libRbt.so (2013.1, Build901 2013/11/27)

>  <Rbt.Parameter_File>
/export/apps/rDock/src/rDock_2013.1_src/data/scripts/dock_solv.prm

>  <Rbt.Receptor>
prm/pocket_docking_7.prm

>  <SCORE>
-8.69933

>  <SCORE.INTER>
-8.42507

>  <SCORE.INTER.CONST>
1

>  <SCORE.INTER.POLAR>
0

>  <SCORE.INTER.ROT>
3

>  <SCORE.INTER.SOLV>
6.85487

>  <SCORE.INTER.VDW>
-13.5017

>  <SCORE.INTER.norm>
-0.702089

>  <SCORE.INTRA>
-0.274268

>  <SCORE.INTRA.DIHEDRAL>
1.68508

>  <SCORE.INTRA.DIHEDRAL.0>
1.88407

>  <SCORE.INTRA.POLAR>
0

>  <SCORE.INTRA.POLAR.0>
0

>  <SCORE.INTRA.REPUL>
0

>  <SCORE.INTRA.REPUL.0>
0

>  <SCORE.INTRA.SOLV>
0.877036

>  <SCORE.INTRA.SOLV.lig_0>
-10.2714

>  <SCORE.INTRA.VDW>
-1.55532

>  <SCORE.INTRA.VDW.0>
0.416923

>  <SCORE.INTRA.norm>
-0.0228556

>  <SCORE.RESTR>
0

>  <SCORE.RESTR.CAVITY>
0

>  <SCORE.RESTR.norm>
0

>  <SCORE.SYSTEM>
0

>  <SCORE.SYSTEM.CONST>
0

>  <SCORE.SYSTEM.DIHEDRAL>
0

>  <SCORE.SYSTEM.SOLV>
0

>  <SCORE.SYSTEM.norm>
0

>  <SCORE.heavy>
12

>  <SCORE.norm>
-0.724945

>  <RMSD>
5.930

$$$$
ligand
 OpenBabel11021811433D
libRbt.so/2013.1/901 2013/11/27
 12 12  0  0  0  0  0  0  0  0999 V2000
   44.2994   11.0403   13.9418 O   0  0  0  0  0  0  0  0  0  0  0  0
   43.3679   12.3873   10.2695 O   0  0  0  0  0  0  0  0  0  0  0  0
   43.5379   11.8756   14.8655 C   0  0  0  0  0  0  0  0  0  0  0  0
   43.7926   14.0178    8.4694 O   0  0  0  0  0  0  0  0  0  0  0  0
   43.4174   13.3341   14.3360 C   0  0  0  0  0  0  0  0  0  0  0  0
   45.0656   13.1951    9.7315 O   0  0  0  0  0  0  0  0  0  0  0  0
   44.1169   13.4340   13.0083 N   0  0  0  0  0  0  0  0  0  0  0  0
   45.5494   13.0297   13.1421 C   0  0  0  0  0  0  0  0  0  0  0  0
   45.6321   11.5946   13.7353 C   0  0  0  0  0  0  0  0  0  0  0  0
   44.0461   14.8254   12.4398 C   0  0  0  0  0  0  0  0  0  0  0  0
   44.6163   14.8722   11.0015 C   0  0  0  0  0  0  0  0  0  0  0  0
   43.7235   13.7385    9.9117 S   0  0  0  0  0  0  0  0  0  0  0  0
  1  3  1  0  0  0  0
  1  9  1  0  0  0  0
  2 12  1  0  0  0  0
  3  5  1  0  0  0  0
  4 12  2  0  0  0  0
  5  7  1  0  0  0  0
  6 12  2  0  0  0  0
  7  8  1  0  0  0  0
  7 10  1  0  0  0  0
  8  9  1  0  0  0  0
 10 11  1  0  0  0  0
 11 12  1  0  0  0  0
M  END
>  <CHROM.1>
-173.06434036,58.18767981,-44.61835414,44.20822949,13.15181961,11.81080917
-1.09516642,1.42655487,-1.69976953

>  <Name>
ligand

>  <RI>
0

>  <Rbt.Current_Directory>
/home/itssahil/PROJECTS/Mol_Feturizer/New_Systems/rnas/2HO6

>  <Rbt.Executable>
rbdock ($Id: //depot/dev/client3/rdock/2013.1/src/exe/rbdock.cxx#4 $)

>  <Rbt.Library>
libRbt.so (2013.1, Build901 2013/11/27)

>  <Rbt.Parameter_File>
/export/apps/rDock/src/rDock_2013.1_src/data/scripts/dock_solv.prm

>  <Rbt.Receptor>
prm/pocket_docking_5.prm

>  <SCORE>
-9.80456

>  <SCORE.INTER>
-8.92725

>  <SCORE.INTER.CONST>
1

>  <SCORE.INTER.POLAR>
0

>  <SCORE.INTER.ROT>
3

>  <SCORE.INTER.SOLV>
7.11473

>  <SCORE.INTER.VDW>
-13.9231

>  <SCORE.INTER.norm>
-0.743937

>  <SCORE.INTRA>
-0.877309

>  <SCORE.INTRA.DIHEDRAL>
-0.0803666

>  <SCORE.INTRA.DIHEDRAL.0>
1.88407

>  <SCORE.INTRA.POLAR>
0

>  <SCORE.INTRA.POLAR.0>
0

>  <SCORE.INTRA.REPUL>
0

>  <SCORE.INTRA.REPUL.0>
0

>  <SCORE.INTRA.SOLV>
0.429034

>  <SCORE.INTRA.SOLV.lig_0>
-10.2714

>  <SCORE.INTRA.VDW>
-1.05164

>  <SCORE.INTRA.VDW.0>
0.416923

>  <SCORE.INTRA.norm>
-0.0731091

>  <SCORE.RESTR>
0

>  <SCORE.RESTR.CAVITY>
0

>  <SCORE.RESTR.norm>
0

>  <SCORE.SYSTEM>
0

>  <SCORE.SYSTEM.CONST>
0

>  <SCORE.SYSTEM.DIHEDRAL>
0

>  <SCORE.SYSTEM.SOLV>
0

>  <SCORE.SYSTEM.norm>
0

>  <SCORE.heavy>
12

>  <SCORE.norm>
-0.817046

>  <RMSD>
5.932

$$$$
ligand
 OpenBabel11021811433D
libRbt.so/2013.1/901 2013/11/27
 12 12  0  0  0  0  0  0  0  0999 V2000
   43.1209   11.8830   14.6162 O   0  0  0  0  0  0  0  0  0  0  0  0
   44.3116   13.5327   11.1447 O   0  0  0  0  0  0  0  0  0  0  0  0
   44.3765   12.4271   15.1243 C   0  0  0  0  0  0  0  0  0  0  0  0
   45.4766   13.3519    8.9792 O   0  0  0  0  0  0  0  0  0  0  0  0
   45.5669   12.0597   14.1915 C   0  0  0  0  0  0  0  0  0  0  0  0
   44.0932   12.1775    9.7520 O   0  0  0  0  0  0  0  0  0  0  0  0
   45.0501   11.2606   13.0270 N   0  0  0  0  0  0  0  0  0  0  0  0
   44.3482   10.0320   13.5083 C   0  0  0  0  0  0  0  0  0  0  0  0
   43.2094   10.4333   14.4882 C   0  0  0  0  0  0  0  0  0  0  0  0
   46.1539   10.8632   12.0847 C   0  0  0  0  0  0  0  0  0  0  0  0
   45.7428   11.0964   10.6108 C   0  0  0  0  0  0  0  0  0  0  0  0
   45.2674   12.8191   10.3339 S   0  0  0  0  0  0  0  0  0  0  0  0
  1  3  1  0  0  0  0
  1  9  1  0  0  0  0
  2 12  1  0  0  0  0
  3  5  1  0  0  0  0
  4 12  2  0  0  0  0
  5  7  1  0  0  0  0
  6 12  2  0  0  0  0
  7  8  1  0  0  0  0
  7 10  1  0  0  0  0
  8  9  1  0  0  0  0
 10 11  1  0  0  0  0
 11 12  1  0  0  0  0
M  END
>  <CHROM.1>
-135.18350132,56.63818764,-51.10386263,44.75732368,11.95699712,12.08840065
1.97820451,-0.98383465,2.22036135

>  <Name>
ligand

>  <RI>
0

>  <Rbt.Current_Directory>
/home/itssahil/PROJECTS/Mol_Feturizer/New_Systems/rnas/2HO6

>  <Rbt.Executable>
rbdock ($Id: //depot/dev/client3/rdock/2013.1/src/exe/rbdock.cxx#4 $)

>  <Rbt.Library>
libRbt.so (2013.1, Build901 2013/11/27)

>  <Rbt.Parameter_File>
/export/apps/rDock/src/rDock_2013.1_src/data/scripts/dock_solv.prm

>  <Rbt.Receptor>
prm/pocket_docking_4.prm

>  <SCORE>
-8.2799

>  <SCORE.INTER>
-7.34598

>  <SCORE.INTER.CONST>
1

>  <SCORE.INTER.POLAR>
0

>  <SCORE.INTER.ROT>
3

>  <SCORE.INTER.SOLV>
9.90665

>  <SCORE.INTER.VDW>
-13.7995

>  <SCORE.INTER.norm>
-0.612165

>  <SCORE.INTRA>
-0.933918

>  <SCORE.INTRA.DIHEDRAL>
1.89133

>  <SCORE.INTRA.DIHEDRAL.0>
1.88407

>  <SCORE.INTRA.POLAR>
0

>  <SCORE.INTRA.POLAR.0>
0

>  <SCORE.INTRA.REPUL>
0

>  <SCORE.INTRA.REPUL.0>
0

>  <SCORE.INTRA.SOLV>
0.266992

>  <SCORE.INTRA.SOLV.lig_0>
-10.2714

>  <SCORE.INTRA.VDW>
-2.01308

>  <SCORE.INTRA.VDW.0>
0.416923

>  <SCORE.INTRA.norm>
-0.0778265

>  <SCORE.RESTR>
0

>  <SCORE.RESTR.CAVITY>
0

>  <SCORE.RESTR.norm>
0

>  <SCORE.SYSTEM>
0

>  <SCORE.SYSTEM.CONST>
0

>  <SCORE.SYSTEM.DIHEDRAL>
0

>  <SCORE.SYSTEM.SOLV>
0

>  <SCORE.SYSTEM.norm>
0

>  <SCORE.heavy>
12

>  <SCORE.norm>
-0.689992

>  <RMSD>
5.933

$$$$
ligand
 OpenBabel11021811433D
libRbt.so/2013.1/901 2013/11/27
 12 12  0  0  0  0  0  0  0  0999 V2000
   42.9685   12.4703   14.5231 O   0  0  0  0  0  0  0  0  0  0  0  0
   42.6285   13.4253   10.4531 O   0  0  0  0  0  0  0  0  0  0  0  0
   42.9200   13.8997   14.2315 C   0  0  0  0  0  0  0  0  0  0  0  0
   43.8268   13.9706    8.3684 O   0  0  0  0  0  0  0  0  0  0  0  0
   43.9995   14.2966   13.1830 C   0  0  0  0  0  0  0  0  0  0  0  0
   43.6746   12.2400    9.3022 O   0  0  0  0  0  0  0  0  0  0  0  0
   44.7611   13.0665   12.7723 N   0  0  0  0  0  0  0  0  0  0  0  0
   45.3862   12.4180   13.9649 C   0  0  0  0  0  0  0  0  0  0  0  0
   44.2880   12.0964   15.0179 C   0  0  0  0  0  0  0  0  0  0  0  0
   45.8309   13.3799   11.7616 C   0  0  0  0  0  0  0  0  0  0  0  0
   45.4454   12.8551   10.3574 C   0  0  0  0  0  0  0  0  0  0  0  0
   43.8973   13.5973    9.7892 S   0  0  0  0  0  0  0  0  0  0  0  0
  1  3  1  0  0  0  0
  1  9  1  0  0  0  0
  2 12  1  0  0  0  0
  3  5  1  0  0  0  0
  4 12  2  0  0  0  0
  5  7  1  0  0  0  0
  6 12  2  0  0  0  0
  7  8  1  0  0  0  0
  7 10  1  0  0  0  0
  8  9  1  0  0  0  0
 10 11  1  0  0  0  0
 11 12  1  0  0  0  0
M  END
>  <CHROM.1>
-107.76760681,59.47011392,-62.34587096,44.07838726,13.18043681,11.72041280
1.54928039,-0.22764615,1.67225666

>  <Name>
ligand

>  <RI>
0

>  <Rbt.Current_Directory>
/home/itssahil/PROJECTS/Mol_Feturizer/New_Systems/rnas/2HO6

>  <Rbt.Executable>
rbdock ($Id: //depot/dev/client3/rdock/2013.1/src/exe/rbdock.cxx#4 $)

>  <Rbt.Library>
libRbt.so (2013.1, Build901 2013/11/27)

>  <Rbt.Parameter_File>
/export/apps/rDock/src/rDock_2013.1_src/data/scripts/dock_solv.prm

>  <Rbt.Receptor>
prm/pocket_docking_6.prm

>  <SCORE>
-11.1744

>  <SCORE.INTER>
-10.3356

>  <SCORE.INTER.CONST>
1

>  <SCORE.INTER.POLAR>
0

>  <SCORE.INTER.ROT>
3

>  <SCORE.INTER.SOLV>
9.04845

>  <SCORE.INTER.VDW>
-15.5066

>  <SCORE.INTER.norm>
-0.861303

>  <SCORE.INTRA>
-0.838762

>  <SCORE.INTRA.DIHEDRAL>
2.1171

>  <SCORE.INTRA.DIHEDRAL.0>
1.88407

>  <SCORE.INTRA.POLAR>
0

>  <SCORE.INTRA.POLAR.0>
0

>  <SCORE.INTRA.REPUL>
0

>  <SCORE.INTRA.REPUL.0>
0

>  <SCORE.INTRA.SOLV>
0.184993

>  <SCORE.INTRA.SOLV.lig_0>
-10.2714

>  <SCORE.INTRA.VDW>
-1.98981

>  <SCORE.INTRA.VDW.0>
0.416923

>  <SCORE.INTRA.norm>
-0.0698968

>  <SCORE.RESTR>
0

>  <SCORE.RESTR.CAVITY>
0

>  <SCORE.RESTR.norm>
0

>  <SCORE.SYSTEM>
0

>  <SCORE.SYSTEM.CONST>
0

>  <SCORE.SYSTEM.DIHEDRAL>
0

>  <SCORE.SYSTEM.SOLV>
0

>  <SCORE.SYSTEM.norm>
0

>  <SCORE.heavy>
12

>  <SCORE.norm>
-0.931199

>  <RMSD>
5.940

$$$$
ligand
 OpenBabel11021811433D
libRbt.so/2013.1/901 2013/11/27
 12 12  0  0  0  0  0  0  0  0999 V2000
   42.3482   14.0422   11.1597 O   0  0  0  0  0  0  0  0  0  0  0  0
   42.3021   10.4880   15.7994 O   0  0  0  0  0  0  0  0  0  0  0  0
   43.5484   13.6122   10.4488 C   0  0  0  0  0  0  0  0  0  0  0  0
   43.4720   10.1504   13.6554 O   0  0  0  0  0  0  0  0  0  0  0  0
   44.6437   13.1220   11.4399 C   0  0  0  0  0  0  0  0  0  0  0  0
   44.2078   10.1821   15.4851 O   0  0  0  0  0  0  0  0  0  0  0  0
   44.1171   13.2262   12.8448 N   0  0  0  0  0  0  0  0  0  0  0  0
   43.7126   14.6329   13.1469 C   0  0  0  0  0  0  0  0  0  0  0  0
   42.6684   15.1108   12.0985 C   0  0  0  0  0  0  0  0  0  0  0  0
   45.1319   12.7740   13.8597 C   0  0  0  0  0  0  0  0  0  0  0  0
   44.4460   12.2954   15.1622 C   0  0  0  0  0  0  0  0  0  0  0  0
   43.2153   11.0164   14.8161 S   0  0  0  0  0  0  0  0  0  0  0  0
  1  3  1  0  0  0  0
  1  9  1  0  0  0  0
  2 12  1  0  0  0  0
  3  5  1  0  0  0  0
  4 12  2  0  0  0  0
  5  7  1  0  0  0  0
  6 12  2  0  0  0  0
  7  8  1  0  0  0  0
  7 10  1  0  0  0  0
  8  9  1  0  0  0  0
 10 11  1  0  0  0  0
 11 12  1  0  0  0  0
M  END
>  <CHROM.1>
-155.14054100,54.49240079,-172.33512094,43.58753189,12.35712495,13.49311697
1.59015556,-0.70253970,-0.78654294

>  <Name>
ligand

>  <RI>
0

>  <Rbt.Current_Directory>
/home/itssahil/PROJECTS/Mol_Feturizer/New_Systems/rnas/2HO6

>  <Rbt.Executable>
rbdock ($Id: //depot/dev/client3/rdock/2013.1/src/exe/rbdock.cxx#4 $)

>  <Rbt.Library>
libRbt.so (2013.1, Build901 2013/11/27)

>  <Rbt.Parameter_File>
/export/apps/rDock/src/rDock_2013.1_src/data/scripts/dock_solv.prm

>  <Rbt.Receptor>
prm/pocket_docking_5.prm

>  <SCORE>
-9.16765

>  <SCORE.INTER>
-8.53085

>  <SCORE.INTER.CONST>
1

>  <SCORE.INTER.POLAR>
0

>  <SCORE.INTER.ROT>
3

>  <SCORE.INTER.SOLV>
7.28728

>  <SCORE.INTER.VDW>
-13.7163

>  <SCORE.INTER.norm>
-0.710904

>  <SCORE.INTRA>
-0.636799

>  <SCORE.INTRA.DIHEDRAL>
0.792242

>  <SCORE.INTRA.DIHEDRAL.0>
1.88407

>  <SCORE.INTRA.POLAR>
0

>  <SCORE.INTRA.POLAR.0>
0

>  <SCORE.INTRA.REPUL>
0

>  <SCORE.INTRA.REPUL.0>
0

>  <SCORE.INTRA.SOLV>
0.803985

>  <SCORE.INTRA.SOLV.lig_0>
-10.2714

>  <SCORE.INTRA.VDW>
-1.43491

>  <SCORE.INTRA.VDW.0>
0.416923

>  <SCORE.INTRA.norm>
-0.0530666

>  <SCORE.RESTR>
0

>  <SCORE.RESTR.CAVITY>
0

>  <SCORE.RESTR.norm>
0

>  <SCORE.SYSTEM>
0

>  <SCORE.SYSTEM.CONST>
0

>  <SCORE.SYSTEM.DIHEDRAL>
0

>  <SCORE.SYSTEM.SOLV>
0

>  <SCORE.SYSTEM.norm>
0

>  <SCORE.heavy>
12

>  <SCORE.norm>
-0.763971

>  <RMSD>
5.949

$$$$
ligand
 OpenBabel11021811433D
libRbt.so/2013.1/901 2013/11/27
 12 12  0  0  0  0  0  0  0  0999 V2000
   42.4495   14.9259   11.6419 O   0  0  0  0  0  0  0  0  0  0  0  0
   44.1005    9.3549   12.7340 O   0  0  0  0  0  0  0  0  0  0  0  0
   43.8922   14.8261   11.4436 C   0  0  0  0  0  0  0  0  0  0  0  0
   45.7709   11.1682   12.7693 O   0  0  0  0  0  0  0  0  0  0  0  0
   44.5710   14.0704   12.6227 C   0  0  0  0  0  0  0  0  0  0  0  0
   45.2525    9.9232   14.2085 O   0  0  0  0  0  0  0  0  0  0  0  0
   43.5166   13.6531   13.6106 N   0  0  0  0  0  0  0  0  0  0  0  0
   42.7621   14.8456   14.1027 C   0  0  0  0  0  0  0  0  0  0  0  0
   42.1543   15.6123   12.8939 C   0  0  0  0  0  0  0  0  0  0  0  0
   44.1063   12.9209   14.7855 C   0  0  0  0  0  0  0  0  0  0  0  0
   43.7836   11.4084   14.7219 C   0  0  0  0  0  0  0  0  0  0  0  0
   44.4676   10.6607   13.2242 S   0  0  0  0  0  0  0  0  0  0  0  0
  1  3  1  0  0  0  0
  1  9  1  0  0  0  0
  2 12  1  0  0  0  0
  3  5  1  0  0  0  0
  4 12  2  0  0  0  0
  5  7  1  0  0  0  0
  6 12  2  0  0  0  0
  7  8  1  0  0  0  0
  7 10  1  0  0  0  0
  8  9  1  0  0  0  0
 10 11  1  0  0  0  0
 11 12  1  0  0  0  0
M  END
>  <CHROM.1>
-107.17249653,60.60046000,-166.07362603,43.97474094,12.52545487,13.21340552
-2.54248254,-1.13056202,2.03972254

>  <Name>
ligand

>  <RI>
0

>  <Rbt.Current_Directory>
/home/itssahil/PROJECTS/Mol_Feturizer/New_Systems/rnas/2HO6

>  <Rbt.Executable>
rbdock ($Id: //depot/dev/client3/rdock/2013.1/src/exe/rbdock.cxx#4 $)

>  <Rbt.Library>
libRbt.so (2013.1, Build901 2013/11/27)

>  <Rbt.Parameter_File>
/export/apps/rDock/src/rDock_2013.1_src/data/scripts/dock_solv.prm

>  <Rbt.Receptor>
prm/pocket_docking_5.prm

>  <SCORE>
-9.54529

>  <SCORE.INTER>
-9.24546

>  <SCORE.INTER.CONST>
1

>  <SCORE.INTER.POLAR>
0

>  <SCORE.INTER.ROT>
3

>  <SCORE.INTER.SOLV>
7.37144

>  <SCORE.INTER.VDW>
-14.2208

>  <SCORE.INTER.norm>
-0.770455

>  <SCORE.INTRA>
-0.29984

>  <SCORE.INTRA.DIHEDRAL>
2.04221

>  <SCORE.INTRA.DIHEDRAL.0>
1.88407

>  <SCORE.INTRA.POLAR>
0

>  <SCORE.INTRA.POLAR.0>
0

>  <SCORE.INTRA.REPUL>
0

>  <SCORE.INTRA.REPUL.0>
0

>  <SCORE.INTRA.SOLV>
0.832881

>  <SCORE.INTRA.SOLV.lig_0>
-10.2714

>  <SCORE.INTRA.VDW>
-1.73738

>  <SCORE.INTRA.VDW.0>
0.416923

>  <SCORE.INTRA.norm>
-0.0249866

>  <SCORE.RESTR>
0

>  <SCORE.RESTR.CAVITY>
0

>  <SCORE.RESTR.norm>
0

>  <SCORE.SYSTEM>
0

>  <SCORE.SYSTEM.CONST>
0

>  <SCORE.SYSTEM.DIHEDRAL>
0

>  <SCORE.SYSTEM.SOLV>
0

>  <SCORE.SYSTEM.norm>
0

>  <SCORE.heavy>
12

>  <SCORE.norm>
-0.795441

>  <RMSD>
5.956

$$$$
ligand
 OpenBabel11021811433D
libRbt.so/2013.1/901 2013/11/27
 12 12  0  0  0  0  0  0  0  0999 V2000
   53.0731   15.6049   16.1915 O   0  0  0  0  0  0  0  0  0  0  0  0
   50.7638   11.1055   19.1950 O   0  0  0  0  0  0  0  0  0  0  0  0
   52.8361   15.1201   14.8352 C   0  0  0  0  0  0  0  0  0  0  0  0
   48.9878   12.1992   17.8802 O   0  0  0  0  0  0  0  0  0  0  0  0
   52.6432   13.5759   14.8156 C   0  0  0  0  0  0  0  0  0  0  0  0
   49.6760   10.3552   17.7536 O   0  0  0  0  0  0  0  0  0  0  0  0
   52.7440   13.0504   16.2211 N   0  0  0  0  0  0  0  0  0  0  0  0
   54.0623   13.4177   16.8217 C   0  0  0  0  0  0  0  0  0  0  0  0
   54.2490   14.9604   16.7639 C   0  0  0  0  0  0  0  0  0  0  0  0
   52.5742   11.5563   16.2754 C   0  0  0  0  0  0  0  0  0  0  0  0
   51.0780   11.1647   16.3372 C   0  0  0  0  0  0  0  0  0  0  0  0
   50.3472   11.6397   17.9217 S   0  0  0  0  0  0  0  0  0  0  0  0
  1  3  1  0  0  0  0
  1  9  1  0  0  0  0
  2 12  1  0  0  0  0
  3  5  1  0  0  0  0
  4 12  2  0  0  0  0
  5  7  1  0  0  0  0
  6 12  2  0  0  0  0
  7  8  1  0  0  0  0
  7 10  1  0  0  0  0
  8  9  1  0  0  0  0
 10 11  1  0  0  0  0
 11 12  1  0  0  0  0
M  END
>  <CHROM.1>
-85.08974339,-68.88068206,-62.99459649,51.72089427,12.68343144,16.90052585
-0.26236063,0.84510968,1.35450015

>  <Name>
ligand

>  <RI>
0

>  <Rbt.Current_Directory>
/home/itssahil/PROJECTS/Mol_Feturizer/New_Systems/rnas/2HO6

>  <Rbt.Executable>
rbdock ($Id: //depot/dev/client3/rdock/2013.1/src/exe/rbdock.cxx#4 $)

>  <Rbt.Library>
libRbt.so (2013.1, Build901 2013/11/27)

>  <Rbt.Parameter_File>
/export/apps/rDock/src/rDock_2013.1_src/data/scripts/dock_solv.prm

>  <Rbt.Receptor>
prm/pocket_docking_8.prm

>  <SCORE>
-11.5935

>  <SCORE.INTER>
-10.9034

>  <SCORE.INTER.CONST>
1

>  <SCORE.INTER.POLAR>
0

>  <SCORE.INTER.ROT>
3

>  <SCORE.INTER.SOLV>
7.97892

>  <SCORE.INTER.VDW>
-15.5286

>  <SCORE.INTER.norm>
-0.908614

>  <SCORE.INTRA>
-0.712431

>  <SCORE.INTRA.DIHEDRAL>
1.17974

>  <SCORE.INTRA.DIHEDRAL.0>
1.88407

>  <SCORE.INTRA.POLAR>
0

>  <SCORE.INTRA.POLAR.0>
0

>  <SCORE.INTRA.REPUL>
0

>  <SCORE.INTRA.REPUL.0>
0

>  <SCORE.INTRA.SOLV>
0.173374

>  <SCORE.INTRA.SOLV.lig_0>
-10.2714

>  <SCORE.INTRA.VDW>
-1.38899

>  <SCORE.INTRA.VDW.0>
0.416923

>  <SCORE.INTRA.norm>
-0.0593692

>  <SCORE.RESTR>
0.0223046

>  <SCORE.RESTR.CAVITY>
0.0223046

>  <SCORE.RESTR.norm>
0.00185872

>  <SCORE.SYSTEM>
0

>  <SCORE.SYSTEM.CONST>
0

>  <SCORE.SYSTEM.DIHEDRAL>
0

>  <SCORE.SYSTEM.SOLV>
0

>  <SCORE.SYSTEM.norm>
0

>  <SCORE.heavy>
12

>  <SCORE.norm>
-0.966124

>  <RMSD>
5.959

$$$$
ligand
 OpenBabel11021811433D
libRbt.so/2013.1/901 2013/11/27
 12 12  0  0  0  0  0  0  0  0999 V2000
   43.2341   11.9046   14.8100 O   0  0  0  0  0  0  0  0  0  0  0  0
   43.6718   12.2620    9.2217 O   0  0  0  0  0  0  0  0  0  0  0  0
   44.5940   12.3661   15.0714 C   0  0  0  0  0  0  0  0  0  0  0  0
   44.4428   14.1082   10.6626 O   0  0  0  0  0  0  0  0  0  0  0  0
   45.5686   11.9095   13.9473 C   0  0  0  0  0  0  0  0  0  0  0  0
   45.4167   13.1444    9.2440 O   0  0  0  0  0  0  0  0  0  0  0  0
   44.7977   11.1369   12.9126 N   0  0  0  0  0  0  0  0  0  0  0  0
   44.1157    9.9638   13.5389 C   0  0  0  0  0  0  0  0  0  0  0  0
   43.2025   10.4511   14.6994 C   0  0  0  0  0  0  0  0  0  0  0  0
   45.6836   10.6561   11.7953 C   0  0  0  0  0  0  0  0  0  0  0  0
   46.0217   11.8052   10.8150 C   0  0  0  0  0  0  0  0  0  0  0  0
   44.5262   12.6843   10.3042 S   0  0  0  0  0  0  0  0  0  0  0  0
  1  3  1  0  0  0  0
  1  9  1  0  0  0  0
  2 12  1  0  0  0  0
  3  5  1  0  0  0  0
  4 12  2  0  0  0  0
  5  7  1  0  0  0  0
  6 12  2  0  0  0  0
  7  8  1  0  0  0  0
  7 10  1  0  0  0  0
  8  9  1  0  0  0  0
 10 11  1  0  0  0  0
 11 12  1  0  0  0  0
M  END
>  <CHROM.1>
-77.13887532,-49.72809700,-84.63535651,44.58197469,11.98224796,12.01949462
1.88792275,-1.11345251,2.19110103

>  <Name>
ligand

>  <RI>
0

>  <Rbt.Current_Directory>
/home/itssahil/PROJECTS/Mol_Feturizer/New_Systems/rnas/2HO6

>  <Rbt.Executable>
rbdock ($Id: //depot/dev/client3/rdock/2013.1/src/exe/rbdock.cxx#4 $)

>  <Rbt.Library>
libRbt.so (2013.1, Build901 2013/11/27)

>  <Rbt.Parameter_File>
/export/apps/rDock/src/rDock_2013.1_src/data/scripts/dock_solv.prm

>  <Rbt.Receptor>
prm/pocket_docking_8.prm

>  <SCORE>
-9.87697

>  <SCORE.INTER>
-9.0768

>  <SCORE.INTER.CONST>
1

>  <SCORE.INTER.POLAR>
0

>  <SCORE.INTER.ROT>
3

>  <SCORE.INTER.SOLV>
8.50799

>  <SCORE.INTER.VDW>
-14.4872

>  <SCORE.INTER.norm>
-0.7564

>  <SCORE.INTRA>
-0.800175

>  <SCORE.INTRA.DIHEDRAL>
0.890099

>  <SCORE.INTRA.DIHEDRAL.0>
1.88407

>  <SCORE.INTRA.POLAR>
0

>  <SCORE.INTRA.POLAR.0>
0

>  <SCORE.INTRA.REPUL>
0

>  <SCORE.INTRA.REPUL.0>
0

>  <SCORE.INTRA.SOLV>
0.441982

>  <SCORE.INTRA.SOLV.lig_0>
-10.2714

>  <SCORE.INTRA.VDW>
-1.46622

>  <SCORE.INTRA.VDW.0>
0.416923

>  <SCORE.INTRA.norm>
-0.0666812

>  <SCORE.RESTR>
0

>  <SCORE.RESTR.CAVITY>
0

>  <SCORE.RESTR.norm>
0

>  <SCORE.SYSTEM>
0

>  <SCORE.SYSTEM.CONST>
0

>  <SCORE.SYSTEM.DIHEDRAL>
0

>  <SCORE.SYSTEM.SOLV>
0

>  <SCORE.SYSTEM.norm>
0

>  <SCORE.heavy>
12

>  <SCORE.norm>
-0.823081

>  <RMSD>
5.961

$$$$
ligand
 OpenBabel11021811433D
libRbt.so/2013.1/901 2013/11/27
 12 12  0  0  0  0  0  0  0  0999 V2000
   43.0109   12.0634   14.6168 O   0  0  0  0  0  0  0  0  0  0  0  0
   45.8852   14.2144   11.9804 O   0  0  0  0  0  0  0  0  0  0  0  0
   44.2986   12.5588   15.0933 C   0  0  0  0  0  0  0  0  0  0  0  0
   48.1632   13.5834   11.2794 O   0  0  0  0  0  0  0  0  0  0  0  0
   45.4677   12.0154   14.2215 C   0  0  0  0  0  0  0  0  0  0  0  0
   46.4787   13.5078   10.2563 O   0  0  0  0  0  0  0  0  0  0  0  0
   44.9043   11.1483   13.1294 N   0  0  0  0  0  0  0  0  0  0  0  0
   44.1060   10.0278   13.7131 C   0  0  0  0  0  0  0  0  0  0  0  0
   42.9904   10.6055   14.6295 C   0  0  0  0  0  0  0  0  0  0  0  0
   45.9849   10.5806   12.2495 C   0  0  0  0  0  0  0  0  0  0  0  0
   46.2880   11.5207   11.0579 C   0  0  0  0  0  0  0  0  0  0  0  0
   46.8017   13.1558   11.6349 S   0  0  0  0  0  0  0  0  0  0  0  0
  1  3  1  0  0  0  0
  1  9  1  0  0  0  0
  2 12  1  0  0  0  0
  3  5  1  0  0  0  0
  4 12  2  0  0  0  0
  5  7  1  0  0  0  0
  6 12  2  0  0  0  0
  7  8  1  0  0  0  0
  7 10  1  0  0  0  0
  8  9  1  0  0  0  0
 10 11  1  0  0  0  0
 11 12  1  0  0  0  0
M  END
>  <CHROM.1>
-90.03552639,58.57658111,-85.25413025,45.51952629,12.23285519,12.67956075
2.91072394,-0.84591918,-2.87563545

>  <Name>
ligand

>  <RI>
0

>  <Rbt.Current_Directory>
/home/itssahil/PROJECTS/Mol_Feturizer/New_Systems/rnas/2HO6

>  <Rbt.Executable>
rbdock ($Id: //depot/dev/client3/rdock/2013.1/src/exe/rbdock.cxx#4 $)

>  <Rbt.Library>
libRbt.so (2013.1, Build901 2013/11/27)

>  <Rbt.Parameter_File>
/export/apps/rDock/src/rDock_2013.1_src/data/scripts/dock_solv.prm

>  <Rbt.Receptor>
prm/pocket_docking_5.prm

>  <SCORE>
-8.29822

>  <SCORE.INTER>
-7.53878

>  <SCORE.INTER.CONST>
1

>  <SCORE.INTER.POLAR>
0

>  <SCORE.INTER.ROT>
3

>  <SCORE.INTER.SOLV>
7.1103

>  <SCORE.INTER.VDW>
-12.996

>  <SCORE.INTER.norm>
-0.628231

>  <SCORE.INTRA>
-0.759444

>  <SCORE.INTRA.DIHEDRAL>
1.27397

>  <SCORE.INTRA.DIHEDRAL.0>
1.88407

>  <SCORE.INTRA.POLAR>
0

>  <SCORE.INTRA.POLAR.0>
0

>  <SCORE.INTRA.REPUL>
0

>  <SCORE.INTRA.REPUL.0>
0

>  <SCORE.INTRA.SOLV>
0.189142

>  <SCORE.INTRA.SOLV.lig_0>
-10.2714

>  <SCORE.INTRA.VDW>
-1.491

>  <SCORE.INTRA.VDW.0>
0.416923

>  <SCORE.INTRA.norm>
-0.063287

>  <SCORE.RESTR>
0

>  <SCORE.RESTR.CAVITY>
0

>  <SCORE.RESTR.norm>
0

>  <SCORE.SYSTEM>
0

>  <SCORE.SYSTEM.CONST>
0

>  <SCORE.SYSTEM.DIHEDRAL>
0

>  <SCORE.SYSTEM.SOLV>
0

>  <SCORE.SYSTEM.norm>
0

>  <SCORE.heavy>
12

>  <SCORE.norm>
-0.691518

>  <RMSD>
5.964

$$$$
ligand
 OpenBabel11021811433D
libRbt.so/2013.1/901 2013/11/27
 12 12  0  0  0  0  0  0  0  0999 V2000
   52.3774   14.0334   14.0659 O   0  0  0  0  0  0  0  0  0  0  0  0
   48.9623    9.4845   19.2902 O   0  0  0  0  0  0  0  0  0  0  0  0
   52.5820   12.6160   13.7835 C   0  0  0  0  0  0  0  0  0  0  0  0
   49.8923   11.5407   20.2835 O   0  0  0  0  0  0  0  0  0  0  0  0
   52.3128   11.7465   15.0459 C   0  0  0  0  0  0  0  0  0  0  0  0
   48.5132   11.3446   18.8871 O   0  0  0  0  0  0  0  0  0  0  0  0
   51.9018   12.6431   16.1814 N   0  0  0  0  0  0  0  0  0  0  0  0
   52.9605   13.6632   16.4497 C   0  0  0  0  0  0  0  0  0  0  0  0
   53.2499   14.4672   15.1505 C   0  0  0  0  0  0  0  0  0  0  0  0
   51.6324   11.8658   17.4413 C   0  0  0  0  0  0  0  0  0  0  0  0
   50.1597   11.3935   17.5038 C   0  0  0  0  0  0  0  0  0  0  0  0
   49.7810   10.6585   19.1120 S   0  0  0  0  0  0  0  0  0  0  0  0
  1  3  1  0  0  0  0
  1  9  1  0  0  0  0
  2 12  1  0  0  0  0
  3  5  1  0  0  0  0
  4 12  2  0  0  0  0
  5  7  1  0  0  0  0
  6 12  2  0  0  0  0
  7  8  1  0  0  0  0
  7 10  1  0  0  0  0
  8  9  1  0  0  0  0
 10 11  1  0  0  0  0
 11 12  1  0  0  0  0
M  END
>  <CHROM.1>
-88.25627524,-172.28596440,-139.99295179,51.01144637,11.96437760,17.18400877
0.51125198,-0.91552546,-1.97896706

>  <Name>
ligand

>  <RI>
0

>  <Rbt.Current_Directory>
/home/itssahil/PROJECTS/Mol_Feturizer/New_Systems/rnas/2HO6

>  <Rbt.Executable>
rbdock ($Id: //depot/dev/client3/rdock/2013.1/src/exe/rbdock.cxx#4 $)

>  <Rbt.Library>
libRbt.so (2013.1, Build901 2013/11/27)

>  <Rbt.Parameter_File>
/export/apps/rDock/src/rDock_2013.1_src/data/scripts/dock_solv.prm

>  <Rbt.Receptor>
prm/blind_docking_100.prm

>  <SCORE>
-12.0706

>  <SCORE.INTER>
-11.7177

>  <SCORE.INTER.CONST>
1

>  <SCORE.INTER.POLAR>
0

>  <SCORE.INTER.ROT>
3

>  <SCORE.INTER.SOLV>
5.61071

>  <SCORE.INTER.VDW>
-15.282

>  <SCORE.INTER.norm>
-0.976472

>  <SCORE.INTRA>
-0.352957

>  <SCORE.INTRA.DIHEDRAL>
1.25277

>  <SCORE.INTRA.DIHEDRAL.0>
1.88407

>  <SCORE.INTRA.POLAR>
0

>  <SCORE.INTRA.POLAR.0>
0

>  <SCORE.INTRA.REPUL>
0

>  <SCORE.INTRA.REPUL.0>
0

>  <SCORE.INTRA.SOLV>
0.0790304

>  <SCORE.INTRA.SOLV.lig_0>
-10.2714

>  <SCORE.INTRA.VDW>
-1.01885

>  <SCORE.INTRA.VDW.0>
0.416923

>  <SCORE.INTRA.norm>
-0.0294131

>  <SCORE.RESTR>
0

>  <SCORE.RESTR.CAVITY>
0

>  <SCORE.RESTR.norm>
0

>  <SCORE.SYSTEM>
0

>  <SCORE.SYSTEM.CONST>
0

>  <SCORE.SYSTEM.DIHEDRAL>
0

>  <SCORE.SYSTEM.SOLV>
0

>  <SCORE.SYSTEM.norm>
0

>  <SCORE.heavy>
12

>  <SCORE.norm>
-1.00589

>  <RMSD>
5.965

$$$$
ligand
 OpenBabel11021811433D
libRbt.so/2013.1/901 2013/11/27
 12 12  0  0  0  0  0  0  0  0999 V2000
   43.1863   11.9211   14.8495 O   0  0  0  0  0  0  0  0  0  0  0  0
   44.0057   12.9745    8.9024 O   0  0  0  0  0  0  0  0  0  0  0  0
   44.5530   12.4011   15.0299 C   0  0  0  0  0  0  0  0  0  0  0  0
   43.4853   13.1466   11.3063 O   0  0  0  0  0  0  0  0  0  0  0  0
   45.4797   11.9039   13.8827 C   0  0  0  0  0  0  0  0  0  0  0  0
   45.1233   13.6778   10.3447 O   0  0  0  0  0  0  0  0  0  0  0  0
   44.6690   11.0844   12.9166 N   0  0  0  0  0  0  0  0  0  0  0  0
   44.0250    9.9343   13.6210 C   0  0  0  0  0  0  0  0  0  0  0  0
   43.1611   10.4641   14.8005 C   0  0  0  0  0  0  0  0  0  0  0  0
   45.5076   10.5628   11.7813 C   0  0  0  0  0  0  0  0  0  0  0  0
   45.7932   11.6724   10.7405 C   0  0  0  0  0  0  0  0  0  0  0  0
   44.2662   12.5018   10.2399 S   0  0  0  0  0  0  0  0  0  0  0  0
  1  3  1  0  0  0  0
  1  9  1  0  0  0  0
  2 12  1  0  0  0  0
  3  5  1  0  0  0  0
  4 12  2  0  0  0  0
  5  7  1  0  0  0  0
  6 12  2  0  0  0  0
  7  8  1  0  0  0  0
  7 10  1  0  0  0  0
  8  9  1  0  0  0  0
 10 11  1  0  0  0  0
 11 12  1  0  0  0  0
M  END
>  <CHROM.1>
-77.10277360,-50.74506630,-143.80787267,44.40216537,11.95769879,12.12896916
1.75167496,-0.94274758,2.05633094

>  <Name>
ligand

>  <RI>
0

>  <Rbt.Current_Directory>
/home/itssahil/PROJECTS/Mol_Feturizer/New_Systems/rnas/2HO6

>  <Rbt.Executable>
rbdock ($Id: //depot/dev/client3/rdock/2013.1/src/exe/rbdock.cxx#4 $)

>  <Rbt.Library>
libRbt.so (2013.1, Build901 2013/11/27)

>  <Rbt.Parameter_File>
/export/apps/rDock/src/rDock_2013.1_src/data/scripts/dock_solv.prm

>  <Rbt.Receptor>
prm/pocket_docking_4.prm

>  <SCORE>
-10.4148

>  <SCORE.INTER>
-9.59866

>  <SCORE.INTER.CONST>
1

>  <SCORE.INTER.POLAR>
0

>  <SCORE.INTER.ROT>
3

>  <SCORE.INTER.SOLV>
8.37289

>  <SCORE.INTER.VDW>
-14.7901

>  <SCORE.INTER.norm>
-0.799888

>  <SCORE.INTRA>
-0.81611

>  <SCORE.INTRA.DIHEDRAL>
0.684522

>  <SCORE.INTRA.DIHEDRAL.0>
1.88407

>  <SCORE.INTRA.POLAR>
0

>  <SCORE.INTRA.POLAR.0>
0

>  <SCORE.INTRA.REPUL>
0

>  <SCORE.INTRA.REPUL.0>
0

>  <SCORE.INTRA.SOLV>
1.25881

>  <SCORE.INTRA.SOLV.lig_0>
-10.2714

>  <SCORE.INTRA.VDW>
-1.78778

>  <SCORE.INTRA.VDW.0>
0.416923

>  <SCORE.INTRA.norm>
-0.0680092

>  <SCORE.RESTR>
0

>  <SCORE.RESTR.CAVITY>
0

>  <SCORE.RESTR.norm>
0

>  <SCORE.SYSTEM>
0

>  <SCORE.SYSTEM.CONST>
0

>  <SCORE.SYSTEM.DIHEDRAL>
0

>  <SCORE.SYSTEM.SOLV>
0

>  <SCORE.SYSTEM.norm>
0

>  <SCORE.heavy>
12

>  <SCORE.norm>
-0.867897

>  <RMSD>
5.971

$$$$
ligand
 OpenBabel11021811433D
libRbt.so/2013.1/901 2013/11/27
 12 12  0  0  0  0  0  0  0  0999 V2000
   42.9904   12.0321   14.6031 O   0  0  0  0  0  0  0  0  0  0  0  0
   45.9978   14.2097   11.9884 O   0  0  0  0  0  0  0  0  0  0  0  0
   44.2740   12.5498   15.0668 C   0  0  0  0  0  0  0  0  0  0  0  0
   48.2659   13.4653   11.3715 O   0  0  0  0  0  0  0  0  0  0  0  0
   45.4461   12.0072   14.1984 C   0  0  0  0  0  0  0  0  0  0  0  0
   46.6199   13.4783   10.2849 O   0  0  0  0  0  0  0  0  0  0  0  0
   44.8887   11.1174   13.1216 N   0  0  0  0  0  0  0  0  0  0  0  0
   44.1060    9.9963   13.7251 C   0  0  0  0  0  0  0  0  0  0  0  0
   42.9873   10.5745   14.6375 C   0  0  0  0  0  0  0  0  0  0  0  0
   45.9724   10.5494   12.2458 C   0  0  0  0  0  0  0  0  0  0  0  0
   46.2981   11.5015   11.0696 C   0  0  0  0  0  0  0  0  0  0  0  0
   46.8719   13.1067   11.6732 S   0  0  0  0  0  0  0  0  0  0  0  0
  1  3  1  0  0  0  0
  1  9  1  0  0  0  0
  2 12  1  0  0  0  0
  3  5  1  0  0  0  0
  4 12  2  0  0  0  0
  5  7  1  0  0  0  0
  6 12  2  0  0  0  0
  7  8  1  0  0  0  0
  7 10  1  0  0  0  0
  8  9  1  0  0  0  0
 10 11  1  0  0  0  0
 11 12  1  0  0  0  0
M  END
>  <CHROM.1>
-87.82432325,60.32972173,-88.20926623,45.55393596,12.19800032,12.69322411
2.92601718,-0.82471735,-2.85803538

>  <Name>
ligand

>  <RI>
0

>  <Rbt.Current_Directory>
/home/itssahil/PROJECTS/Mol_Feturizer/New_Systems/rnas/2HO6

>  <Rbt.Executable>
rbdock ($Id: //depot/dev/client3/rdock/2013.1/src/exe/rbdock.cxx#4 $)

>  <Rbt.Library>
libRbt.so (2013.1, Build901 2013/11/27)

>  <Rbt.Parameter_File>
/export/apps/rDock/src/rDock_2013.1_src/data/scripts/dock_solv.prm

>  <Rbt.Receptor>
prm/pocket_docking_4.prm

>  <SCORE>
-8.27432

>  <SCORE.INTER>
-7.53807

>  <SCORE.INTER.CONST>
1

>  <SCORE.INTER.POLAR>
0

>  <SCORE.INTER.ROT>
3

>  <SCORE.INTER.SOLV>
7.19053

>  <SCORE.INTER.VDW>
-13.0222

>  <SCORE.INTER.norm>
-0.628172

>  <SCORE.INTRA>
-0.736255

>  <SCORE.INTRA.DIHEDRAL>
1.1324

>  <SCORE.INTRA.DIHEDRAL.0>
1.88407

>  <SCORE.INTRA.POLAR>
0

>  <SCORE.INTRA.POLAR.0>
0

>  <SCORE.INTRA.REPUL>
0

>  <SCORE.INTRA.REPUL.0>
0

>  <SCORE.INTRA.SOLV>
0.186597

>  <SCORE.INTRA.SOLV.lig_0>
-10.2714

>  <SCORE.INTRA.VDW>
-1.39575

>  <SCORE.INTRA.VDW.0>
0.416923

>  <SCORE.INTRA.norm>
-0.0613546

>  <SCORE.RESTR>
0

>  <SCORE.RESTR.CAVITY>
0

>  <SCORE.RESTR.norm>
0

>  <SCORE.SYSTEM>
0

>  <SCORE.SYSTEM.CONST>
0

>  <SCORE.SYSTEM.DIHEDRAL>
0

>  <SCORE.SYSTEM.SOLV>
0

>  <SCORE.SYSTEM.norm>
0

>  <SCORE.heavy>
12

>  <SCORE.norm>
-0.689527

>  <RMSD>
5.972

$$$$
ligand
 OpenBabel11021811433D
libRbt.so/2013.1/901 2013/11/27
 12 12  0  0  0  0  0  0  0  0999 V2000
   44.0402   10.2988   14.0411 O   0  0  0  0  0  0  0  0  0  0  0  0
   43.5850   13.8781    8.8716 O   0  0  0  0  0  0  0  0  0  0  0  0
   43.8974   11.1971   15.1828 C   0  0  0  0  0  0  0  0  0  0  0  0
   43.8435   12.0098   10.4597 O   0  0  0  0  0  0  0  0  0  0  0  0
   44.1057   12.6805   14.7606 C   0  0  0  0  0  0  0  0  0  0  0  0
   42.3991   13.3468   10.3329 O   0  0  0  0  0  0  0  0  0  0  0  0
   44.3767   12.7372   13.2824 N   0  0  0  0  0  0  0  0  0  0  0  0
   45.5733   11.9100   12.9397 C   0  0  0  0  0  0  0  0  0  0  0  0
   45.3573   10.4518   13.4349 C   0  0  0  0  0  0  0  0  0  0  0  0
   44.5965   14.1473   12.8055 C   0  0  0  0  0  0  0  0  0  0  0  0
   43.6057   14.5170   11.6753 C   0  0  0  0  0  0  0  0  0  0  0  0
   43.8497   13.4620   10.2269 S   0  0  0  0  0  0  0  0  0  0  0  0
  1  3  1  0  0  0  0
  1  9  1  0  0  0  0
  2 12  1  0  0  0  0
  3  5  1  0  0  0  0
  4 12  2  0  0  0  0
  5  7  1  0  0  0  0
  6 12  2  0  0  0  0
  7  8  1  0  0  0  0
  7 10  1  0  0  0  0
  8  9  1  0  0  0  0
 10 11  1  0  0  0  0
 11 12  1  0  0  0  0
M  END
>  <CHROM.1>
-123.42304128,-62.39991117,-150.26246020,44.05318923,12.63051654,12.08145812
-0.37456384,1.35712632,-2.26723363

>  <Name>
ligand

>  <RI>
0

>  <Rbt.Current_Directory>
/home/itssahil/PROJECTS/Mol_Feturizer/New_Systems/rnas/2HO6

>  <Rbt.Executable>
rbdock ($Id: //depot/dev/client3/rdock/2013.1/src/exe/rbdock.cxx#4 $)

>  <Rbt.Library>
libRbt.so (2013.1, Build901 2013/11/27)

>  <Rbt.Parameter_File>
/export/apps/rDock/src/rDock_2013.1_src/data/scripts/dock_solv.prm

>  <Rbt.Receptor>
prm/pocket_docking_5.prm

>  <SCORE>
-9.08812

>  <SCORE.INTER>
-8.88004

>  <SCORE.INTER.CONST>
1

>  <SCORE.INTER.POLAR>
0

>  <SCORE.INTER.ROT>
3

>  <SCORE.INTER.SOLV>
7.93388

>  <SCORE.INTER.VDW>
-14.1647

>  <SCORE.INTER.norm>
-0.740003

>  <SCORE.INTRA>
-0.208083

>  <SCORE.INTRA.DIHEDRAL>
2.2249

>  <SCORE.INTRA.DIHEDRAL.0>
1.88407

>  <SCORE.INTRA.POLAR>
0

>  <SCORE.INTRA.POLAR.0>
0

>  <SCORE.INTRA.REPUL>
0

>  <SCORE.INTRA.REPUL.0>
0

>  <SCORE.INTRA.SOLV>
1.19872

>  <SCORE.INTRA.SOLV.lig_0>
-10.2714

>  <SCORE.INTRA.VDW>
-1.9199

>  <SCORE.INTRA.VDW.0>
0.416923

>  <SCORE.INTRA.norm>
-0.0173403

>  <SCORE.RESTR>
0

>  <SCORE.RESTR.CAVITY>
0

>  <SCORE.RESTR.norm>
0

>  <SCORE.SYSTEM>
0

>  <SCORE.SYSTEM.CONST>
0

>  <SCORE.SYSTEM.DIHEDRAL>
0

>  <SCORE.SYSTEM.SOLV>
0

>  <SCORE.SYSTEM.norm>
0

>  <SCORE.heavy>
12

>  <SCORE.norm>
-0.757343

>  <RMSD>
5.973

$$$$
ligand
 OpenBabel11021811433D
libRbt.so/2013.1/901 2013/11/27
 12 12  0  0  0  0  0  0  0  0999 V2000
   45.0558   13.4329   13.8570 O   0  0  0  0  0  0  0  0  0  0  0  0
   46.8147   15.2169    9.5728 O   0  0  0  0  0  0  0  0  0  0  0  0
   44.9595   11.9835   13.7137 C   0  0  0  0  0  0  0  0  0  0  0  0
   47.0485   13.1899    8.1887 O   0  0  0  0  0  0  0  0  0  0  0  0
   44.5735   11.5866   12.2592 C   0  0  0  0  0  0  0  0  0  0  0  0
   45.8959   14.7653    7.9067 O   0  0  0  0  0  0  0  0  0  0  0  0
   44.4329   12.8338   11.4306 N   0  0  0  0  0  0  0  0  0  0  0  0
   43.4080   13.7433   12.0272 C   0  0  0  0  0  0  0  0  0  0  0  0
   43.7912   14.0646   13.4997 C   0  0  0  0  0  0  0  0  0  0  0  0
   44.0514   12.5231   10.0086 C   0  0  0  0  0  0  0  0  0  0  0  0
   44.4371   13.6831    9.0592 C   0  0  0  0  0  0  0  0  0  0  0  0
   46.2186   13.9914    9.1008 S   0  0  0  0  0  0  0  0  0  0  0  0
  1  3  1  0  0  0  0
  1  9  1  0  0  0  0
  2 12  1  0  0  0  0
  3  5  1  0  0  0  0
  4 12  2  0  0  0  0
  5  7  1  0  0  0  0
  6 12  2  0  0  0  0
  7  8  1  0  0  0  0
  7 10  1  0  0  0  0
  8  9  1  0  0  0  0
 10 11  1  0  0  0  0
 11 12  1  0  0  0  0
M  END
>  <CHROM.1>
-157.86174340,59.88252656,-115.92342898,45.21173470,13.50097431,10.67880791
-2.17520095,-0.86169791,-1.78688707

>  <Name>
ligand

>  <RI>
0

>  <Rbt.Current_Directory>
/home/itssahil/PROJECTS/Mol_Feturizer/New_Systems/rnas/2HO6

>  <Rbt.Executable>
rbdock ($Id: //depot/dev/client3/rdock/2013.1/src/exe/rbdock.cxx#4 $)

>  <Rbt.Library>
libRbt.so (2013.1, Build901 2013/11/27)

>  <Rbt.Parameter_File>
/export/apps/rDock/src/rDock_2013.1_src/data/scripts/dock_solv.prm

>  <Rbt.Receptor>
prm/pocket_docking_6.prm

>  <SCORE>
-7.39187

>  <SCORE.INTER>
-6.54756

>  <SCORE.INTER.CONST>
1

>  <SCORE.INTER.POLAR>
0

>  <SCORE.INTER.ROT>
3

>  <SCORE.INTER.SOLV>
8.57561

>  <SCORE.INTER.VDW>
-12.8236

>  <SCORE.INTER.norm>
-0.54563

>  <SCORE.INTRA>
-0.844306

>  <SCORE.INTRA.DIHEDRAL>
0.594522

>  <SCORE.INTRA.DIHEDRAL.0>
1.88407

>  <SCORE.INTRA.POLAR>
0

>  <SCORE.INTRA.POLAR.0>
0

>  <SCORE.INTRA.REPUL>
0

>  <SCORE.INTRA.REPUL.0>
0

>  <SCORE.INTRA.SOLV>
0.283516

>  <SCORE.INTRA.SOLV.lig_0>
-10.2714

>  <SCORE.INTRA.VDW>
-1.28332

>  <SCORE.INTRA.VDW.0>
0.416923

>  <SCORE.INTRA.norm>
-0.0703588

>  <SCORE.RESTR>
0

>  <SCORE.RESTR.CAVITY>
0

>  <SCORE.RESTR.norm>
0

>  <SCORE.SYSTEM>
0

>  <SCORE.SYSTEM.CONST>
0

>  <SCORE.SYSTEM.DIHEDRAL>
0

>  <SCORE.SYSTEM.SOLV>
0

>  <SCORE.SYSTEM.norm>
0

>  <SCORE.heavy>
12

>  <SCORE.norm>
-0.615989

>  <RMSD>
5.974

$$$$
ligand
 OpenBabel11021811433D
libRbt.so/2013.1/901 2013/11/27
 12 12  0  0  0  0  0  0  0  0999 V2000
   43.3040   11.0802   14.4987 O   0  0  0  0  0  0  0  0  0  0  0  0
   42.7117   13.3475   10.5205 O   0  0  0  0  0  0  0  0  0  0  0  0
   44.3057   11.9352   15.1282 C   0  0  0  0  0  0  0  0  0  0  0  0
   44.4038   14.7972    9.4648 O   0  0  0  0  0  0  0  0  0  0  0  0
   45.3770   12.3982   14.0986 C   0  0  0  0  0  0  0  0  0  0  0  0
   43.8362   12.9758    8.9645 O   0  0  0  0  0  0  0  0  0  0  0  0
   45.0383   11.8298   12.7480 N   0  0  0  0  0  0  0  0  0  0  0  0
   44.9676   10.3383   12.8129 C   0  0  0  0  0  0  0  0  0  0  0  0
   43.9371    9.9127   13.8970 C   0  0  0  0  0  0  0  0  0  0  0  0
   46.0416   12.2328   11.7015 C   0  0  0  0  0  0  0  0  0  0  0  0
   45.3872   12.3166   10.3013 C   0  0  0  0  0  0  0  0  0  0  0  0
   44.1082   13.5943   10.2576 S   0  0  0  0  0  0  0  0  0  0  0  0
  1  3  1  0  0  0  0
  1  9  1  0  0  0  0
  2 12  1  0  0  0  0
  3  5  1  0  0  0  0
  4 12  2  0  0  0  0
  5  7  1  0  0  0  0
  6 12  2  0  0  0  0
  7  8  1  0  0  0  0
  7 10  1  0  0  0  0
  8  9  1  0  0  0  0
 10 11  1  0  0  0  0
 11 12  1  0  0  0  0
M  END
>  <CHROM.1>
-150.40856756,62.96803063,-92.54102370,44.38352351,12.38992605,11.82034188
1.51787619,-0.25417750,2.07901687

>  <Name>
ligand

>  <RI>
0

>  <Rbt.Current_Directory>
/home/itssahil/PROJECTS/Mol_Feturizer/New_Systems/rnas/2HO6

>  <Rbt.Executable>
rbdock ($Id: //depot/dev/client3/rdock/2013.1/src/exe/rbdock.cxx#4 $)

>  <Rbt.Library>
libRbt.so (2013.1, Build901 2013/11/27)

>  <Rbt.Parameter_File>
/export/apps/rDock/src/rDock_2013.1_src/data/scripts/dock_solv.prm

>  <Rbt.Receptor>
prm/pocket_docking_5.prm

>  <SCORE>
-9.42607

>  <SCORE.INTER>
-8.61421

>  <SCORE.INTER.CONST>
1

>  <SCORE.INTER.POLAR>
0

>  <SCORE.INTER.ROT>
3

>  <SCORE.INTER.SOLV>
7.97584

>  <SCORE.INTER.VDW>
-14.0014

>  <SCORE.INTER.norm>
-0.717851

>  <SCORE.INTRA>
-0.811858

>  <SCORE.INTRA.DIHEDRAL>
1.11832

>  <SCORE.INTRA.DIHEDRAL.0>
1.88407

>  <SCORE.INTRA.POLAR>
0

>  <SCORE.INTRA.POLAR.0>
0

>  <SCORE.INTRA.REPUL>
0

>  <SCORE.INTRA.REPUL.0>
0

>  <SCORE.INTRA.SOLV>
0.23788

>  <SCORE.INTRA.SOLV.lig_0>
-10.2714

>  <SCORE.INTRA.VDW>
-1.48996

>  <SCORE.INTRA.VDW.0>
0.416923

>  <SCORE.INTRA.norm>
-0.0676548

>  <SCORE.RESTR>
0

>  <SCORE.RESTR.CAVITY>
0

>  <SCORE.RESTR.norm>
0

>  <SCORE.SYSTEM>
0

>  <SCORE.SYSTEM.CONST>
0

>  <SCORE.SYSTEM.DIHEDRAL>
0

>  <SCORE.SYSTEM.SOLV>
0

>  <SCORE.SYSTEM.norm>
0

>  <SCORE.heavy>
12

>  <SCORE.norm>
-0.785506

>  <RMSD>
5.976

$$$$
ligand
 OpenBabel11021811433D
libRbt.so/2013.1/901 2013/11/27
 12 12  0  0  0  0  0  0  0  0999 V2000
   42.9600   12.0409   14.6230 O   0  0  0  0  0  0  0  0  0  0  0  0
   45.9925   14.2017   11.9917 O   0  0  0  0  0  0  0  0  0  0  0  0
   44.2375   12.5820   15.0765 C   0  0  0  0  0  0  0  0  0  0  0  0
   48.2517   13.4456   11.3566 O   0  0  0  0  0  0  0  0  0  0  0  0
   45.4158   12.0361   14.2187 C   0  0  0  0  0  0  0  0  0  0  0  0
   46.5927   13.4481   10.2900 O   0  0  0  0  0  0  0  0  0  0  0  0
   44.8687   11.1193   13.1595 N   0  0  0  0  0  0  0  0  0  0  0  0
   44.0988   10.0013   13.7847 C   0  0  0  0  0  0  0  0  0  0  0  0
   42.9734   10.5842   14.6858 C   0  0  0  0  0  0  0  0  0  0  0  0
   45.9589   10.5468   12.2947 C   0  0  0  0  0  0  0  0  0  0  0  0
   46.2773   11.4817   11.1029 C   0  0  0  0  0  0  0  0  0  0  0  0
   46.8609   13.0933   11.6796 S   0  0  0  0  0  0  0  0  0  0  0  0
  1  3  1  0  0  0  0
  1  9  1  0  0  0  0
  2 12  1  0  0  0  0
  3  5  1  0  0  0  0
  4 12  2  0  0  0  0
  5  7  1  0  0  0  0
  6 12  2  0  0  0  0
  7  8  1  0  0  0  0
  7 10  1  0  0  0  0
  8  9  1  0  0  0  0
 10 11  1  0  0  0  0
 11 12  1  0  0  0  0
M  END
>  <CHROM.1>
-87.63355023,61.26231364,-87.98394060,45.53548609,12.19572629,12.71400884
2.91930498,-0.82331062,-2.87876570

>  <Name>
ligand

>  <RI>
0

>  <Rbt.Current_Directory>
/home/itssahil/PROJECTS/Mol_Feturizer/New_Systems/rnas/2HO6

>  <Rbt.Executable>
rbdock ($Id: //depot/dev/client3/rdock/2013.1/src/exe/rbdock.cxx#4 $)

>  <Rbt.Library>
libRbt.so (2013.1, Build901 2013/11/27)

>  <Rbt.Parameter_File>
/export/apps/rDock/src/rDock_2013.1_src/data/scripts/dock_solv.prm

>  <Rbt.Receptor>
prm/pocket_docking_4.prm

>  <SCORE>
-8.24398

>  <SCORE.INTER>
-7.49747

>  <SCORE.INTER.CONST>
1

>  <SCORE.INTER.POLAR>
0

>  <SCORE.INTER.ROT>
3

>  <SCORE.INTER.SOLV>
7.19194

>  <SCORE.INTER.VDW>
-12.9956

>  <SCORE.INTER.norm>
-0.624789

>  <SCORE.INTRA>
-0.746513

>  <SCORE.INTRA.DIHEDRAL>
1.12581

>  <SCORE.INTRA.DIHEDRAL.0>
1.88407

>  <SCORE.INTRA.POLAR>
0

>  <SCORE.INTRA.POLAR.0>
0

>  <SCORE.INTRA.REPUL>
0

>  <SCORE.INTRA.REPUL.0>
0

>  <SCORE.INTRA.SOLV>
0.180592

>  <SCORE.INTRA.SOLV.lig_0>
-10.2714

>  <SCORE.INTRA.VDW>
-1.39971

>  <SCORE.INTRA.VDW.0>
0.416923

>  <SCORE.INTRA.norm>
-0.0622095

>  <SCORE.RESTR>
0

>  <SCORE.RESTR.CAVITY>
0

>  <SCORE.RESTR.norm>
0

>  <SCORE.SYSTEM>
0

>  <SCORE.SYSTEM.CONST>
0

>  <SCORE.SYSTEM.DIHEDRAL>
0

>  <SCORE.SYSTEM.SOLV>
0

>  <SCORE.SYSTEM.norm>
0

>  <SCORE.heavy>
12

>  <SCORE.norm>
-0.686998

>  <RMSD>
5.985

$$$$
ligand
 OpenBabel11021811433D
libRbt.so/2013.1/901 2013/11/27
 12 12  0  0  0  0  0  0  0  0999 V2000
   44.4216   12.8887   15.2658 O   0  0  0  0  0  0  0  0  0  0  0  0
   47.2847   13.4928    8.1843 O   0  0  0  0  0  0  0  0  0  0  0  0
   44.3487   11.4689   14.9348 C   0  0  0  0  0  0  0  0  0  0  0  0
   44.8812   14.0428    8.1749 O   0  0  0  0  0  0  0  0  0  0  0  0
   44.6282   11.2289   13.4227 C   0  0  0  0  0  0  0  0  0  0  0  0
   46.3652   14.9570    9.0979 O   0  0  0  0  0  0  0  0  0  0  0  0
   44.9091   12.5492   12.7594 N   0  0  0  0  0  0  0  0  0  0  0  0
   43.7580   13.4833   12.9493 C   0  0  0  0  0  0  0  0  0  0  0  0
   43.4654   13.6469   14.4679 C   0  0  0  0  0  0  0  0  0  0  0  0
   45.1813   12.3916   11.2879 C   0  0  0  0  0  0  0  0  0  0  0  0
   45.9446   13.6151   10.7256 C   0  0  0  0  0  0  0  0  0  0  0  0
   46.0461   13.5443    8.9215 S   0  0  0  0  0  0  0  0  0  0  0  0
  1  3  1  0  0  0  0
  1  9  1  0  0  0  0
  2 12  1  0  0  0  0
  3  5  1  0  0  0  0
  4 12  2  0  0  0  0
  5  7  1  0  0  0  0
  6 12  2  0  0  0  0
  7  8  1  0  0  0  0
  7 10  1  0  0  0  0
  8  9  1  0  0  0  0
 10 11  1  0  0  0  0
 11 12  1  0  0  0  0
M  END
>  <CHROM.1>
-159.70055705,-171.25104194,-119.42719523,45.21625074,13.17950645,11.36516965
2.16581191,-0.96580616,2.32270294

>  <Name>
ligand

>  <RI>
0

>  <Rbt.Current_Directory>
/home/itssahil/PROJECTS/Mol_Feturizer/New_Systems/rnas/2HO6

>  <Rbt.Executable>
rbdock ($Id: //depot/dev/client3/rdock/2013.1/src/exe/rbdock.cxx#4 $)

>  <Rbt.Library>
libRbt.so (2013.1, Build901 2013/11/27)

>  <Rbt.Parameter_File>
/export/apps/rDock/src/rDock_2013.1_src/data/scripts/dock_solv.prm

>  <Rbt.Receptor>
prm/pocket_docking_5.prm

>  <SCORE>
-8.30617

>  <SCORE.INTER>
-7.97468

>  <SCORE.INTER.CONST>
1

>  <SCORE.INTER.POLAR>
0

>  <SCORE.INTER.ROT>
3

>  <SCORE.INTER.SOLV>
6.91187

>  <SCORE.INTER.VDW>
-13.2204

>  <SCORE.INTER.norm>
-0.664557

>  <SCORE.INTRA>
-0.331483

>  <SCORE.INTRA.DIHEDRAL>
0.766363

>  <SCORE.INTRA.DIHEDRAL.0>
1.88407

>  <SCORE.INTRA.POLAR>
0

>  <SCORE.INTRA.POLAR.0>
0

>  <SCORE.INTRA.REPUL>
0

>  <SCORE.INTRA.REPUL.0>
0

>  <SCORE.INTRA.SOLV>
0.0384009

>  <SCORE.INTRA.SOLV.lig_0>
-10.2714

>  <SCORE.INTRA.VDW>
-0.733865

>  <SCORE.INTRA.VDW.0>
0.416923

>  <SCORE.INTRA.norm>
-0.0276236

>  <SCORE.RESTR>
0

>  <SCORE.RESTR.CAVITY>
0

>  <SCORE.RESTR.norm>
0

>  <SCORE.SYSTEM>
0

>  <SCORE.SYSTEM.CONST>
0

>  <SCORE.SYSTEM.DIHEDRAL>
0

>  <SCORE.SYSTEM.SOLV>
0

>  <SCORE.SYSTEM.norm>
0

>  <SCORE.heavy>
12

>  <SCORE.norm>
-0.692181

>  <RMSD>
5.991

$$$$
ligand
 OpenBabel11021811433D
libRbt.so/2013.1/901 2013/11/27
 12 12  0  0  0  0  0  0  0  0999 V2000
   43.1385   11.8598   14.8359 O   0  0  0  0  0  0  0  0  0  0  0  0
   44.0084   12.9682    8.9017 O   0  0  0  0  0  0  0  0  0  0  0  0
   44.5016   12.3264   15.0707 C   0  0  0  0  0  0  0  0  0  0  0  0
   43.4917   13.1946   11.3019 O   0  0  0  0  0  0  0  0  0  0  0  0
   45.4575   11.8660   13.9321 C   0  0  0  0  0  0  0  0  0  0  0  0
   45.1213   13.7202   10.3229 O   0  0  0  0  0  0  0  0  0  0  0  0
   44.6705   11.0856   12.9155 N   0  0  0  0  0  0  0  0  0  0  0  0
   44.0029    9.9142   13.5603 C   0  0  0  0  0  0  0  0  0  0  0  0
   43.1089   10.4057   14.7340 C   0  0  0  0  0  0  0  0  0  0  0  0
   45.5379   10.6009   11.7855 C   0  0  0  0  0  0  0  0  0  0  0  0
   45.8151   11.7331   10.7671 C   0  0  0  0  0  0  0  0  0  0  0  0
   44.2775   12.5321   10.2499 S   0  0  0  0  0  0  0  0  0  0  0  0
  1  3  1  0  0  0  0
  1  9  1  0  0  0  0
  2 12  1  0  0  0  0
  3  5  1  0  0  0  0
  4 12  2  0  0  0  0
  5  7  1  0  0  0  0
  6 12  2  0  0  0  0
  7  8  1  0  0  0  0
  7 10  1  0  0  0  0
  8  9  1  0  0  0  0
 10 11  1  0  0  0  0
 11 12  1  0  0  0  0
M  END
>  <CHROM.1>
-79.10708990,-50.99654718,-141.08191189,44.39385999,11.95799805,12.12675124
1.75472017,-0.89986799,2.07005506

>  <Name>
ligand

>  <RI>
0

>  <Rbt.Current_Directory>
/home/itssahil/PROJECTS/Mol_Feturizer/New_Systems/rnas/2HO6

>  <Rbt.Executable>
rbdock ($Id: //depot/dev/client3/rdock/2013.1/src/exe/rbdock.cxx#4 $)

>  <Rbt.Library>
libRbt.so (2013.1, Build901 2013/11/27)

>  <Rbt.Parameter_File>
/export/apps/rDock/src/rDock_2013.1_src/data/scripts/dock_solv.prm

>  <Rbt.Receptor>
prm/pocket_docking_4.prm

>  <SCORE>
-10.396

>  <SCORE.INTER>
-9.56666

>  <SCORE.INTER.CONST>
1

>  <SCORE.INTER.POLAR>
0

>  <SCORE.INTER.ROT>
3

>  <SCORE.INTER.SOLV>
8.28387

>  <SCORE.INTER.VDW>
-14.7391

>  <SCORE.INTER.norm>
-0.797221

>  <SCORE.INTRA>
-0.829351

>  <SCORE.INTRA.DIHEDRAL>
0.780515

>  <SCORE.INTRA.DIHEDRAL.0>
1.88407

>  <SCORE.INTRA.POLAR>
0

>  <SCORE.INTRA.POLAR.0>
0

>  <SCORE.INTRA.REPUL>
0

>  <SCORE.INTRA.REPUL.0>
0

>  <SCORE.INTRA.SOLV>
1.20098

>  <SCORE.INTRA.SOLV.lig_0>
-10.2714

>  <SCORE.INTRA.VDW>
-1.8201

>  <SCORE.INTRA.VDW.0>
0.416923

>  <SCORE.INTRA.norm>
-0.0691125

>  <SCORE.RESTR>
0

>  <SCORE.RESTR.CAVITY>
0

>  <SCORE.RESTR.norm>
0

>  <SCORE.SYSTEM>
0

>  <SCORE.SYSTEM.CONST>
0

>  <SCORE.SYSTEM.DIHEDRAL>
0

>  <SCORE.SYSTEM.SOLV>
0

>  <SCORE.SYSTEM.norm>
0

>  <SCORE.heavy>
12

>  <SCORE.norm>
-0.866334

>  <RMSD>
6.000

$$$$
ligand
 OpenBabel11021811433D
libRbt.so/2013.1/901 2013/11/27
 12 12  0  0  0  0  0  0  0  0999 V2000
   42.3115   13.8964   11.0344 O   0  0  0  0  0  0  0  0  0  0  0  0
   42.1067   10.7256   15.5267 O   0  0  0  0  0  0  0  0  0  0  0  0
   43.5741   13.6214   10.3555 C   0  0  0  0  0  0  0  0  0  0  0  0
   43.9683    9.7434   14.2426 O   0  0  0  0  0  0  0  0  0  0  0  0
   44.6789   13.2055   11.3697 C   0  0  0  0  0  0  0  0  0  0  0  0
   43.9715   10.4925   16.0671 O   0  0  0  0  0  0  0  0  0  0  0  0
   44.0953   13.1971   12.7558 N   0  0  0  0  0  0  0  0  0  0  0  0
   43.5364   14.5412   13.0943 C   0  0  0  0  0  0  0  0  0  0  0  0
   42.4856   14.9525   12.0244 C   0  0  0  0  0  0  0  0  0  0  0  0
   45.1153   12.8096   13.7920 C   0  0  0  0  0  0  0  0  0  0  0  0
   44.4342   12.3615   15.1077 C   0  0  0  0  0  0  0  0  0  0  0  0
   43.3489   10.9426   14.8267 S   0  0  0  0  0  0  0  0  0  0  0  0
  1  3  1  0  0  0  0
  1  9  1  0  0  0  0
  2 12  1  0  0  0  0
  3  5  1  0  0  0  0
  4 12  2  0  0  0  0
  5  7  1  0  0  0  0
  6 12  2  0  0  0  0
  7  8  1  0  0  0  0
  7 10  1  0  0  0  0
  8  9  1  0  0  0  0
 10 11  1  0  0  0  0
 11 12  1  0  0  0  0
M  END
>  <CHROM.1>
-161.61742885,59.49004847,-145.06890877,43.58669820,12.33843424,13.52218686
1.60891047,0.05409811,-0.84334570

>  <Name>
ligand

>  <RI>
0

>  <Rbt.Current_Directory>
/home/itssahil/PROJECTS/Mol_Feturizer/New_Systems/rnas/2HO6

>  <Rbt.Executable>
rbdock ($Id: //depot/dev/client3/rdock/2013.1/src/exe/rbdock.cxx#4 $)

>  <Rbt.Library>
libRbt.so (2013.1, Build901 2013/11/27)

>  <Rbt.Parameter_File>
/export/apps/rDock/src/rDock_2013.1_src/data/scripts/dock_solv.prm

>  <Rbt.Receptor>
prm/pocket_docking_5.prm

>  <SCORE>
-9.84488

>  <SCORE.INTER>
-9.08287

>  <SCORE.INTER.CONST>
1

>  <SCORE.INTER.POLAR>
0

>  <SCORE.INTER.ROT>
3

>  <SCORE.INTER.SOLV>
7.85108

>  <SCORE.INTER.VDW>
-14.2723

>  <SCORE.INTER.norm>
-0.756906

>  <SCORE.INTRA>
-0.762017

>  <SCORE.INTRA.DIHEDRAL>
0.300821

>  <SCORE.INTRA.DIHEDRAL.0>
1.88407

>  <SCORE.INTRA.POLAR>
0

>  <SCORE.INTRA.POLAR.0>
0

>  <SCORE.INTRA.REPUL>
0

>  <SCORE.INTRA.REPUL.0>
0

>  <SCORE.INTRA.SOLV>
0.461805

>  <SCORE.INTRA.SOLV.lig_0>
-10.2714

>  <SCORE.INTRA.VDW>
-1.14333

>  <SCORE.INTRA.VDW.0>
0.416923

>  <SCORE.INTRA.norm>
-0.0635014

>  <SCORE.RESTR>
0

>  <SCORE.RESTR.CAVITY>
0

>  <SCORE.RESTR.norm>
0

>  <SCORE.SYSTEM>
0

>  <SCORE.SYSTEM.CONST>
0

>  <SCORE.SYSTEM.DIHEDRAL>
0

>  <SCORE.SYSTEM.SOLV>
0

>  <SCORE.SYSTEM.norm>
0

>  <SCORE.heavy>
12

>  <SCORE.norm>
-0.820407

>  <RMSD>
6.005

$$$$
ligand
 OpenBabel11021811433D
libRbt.so/2013.1/901 2013/11/27
 12 12  0  0  0  0  0  0  0  0999 V2000
   44.9990   10.2730   12.0102 O   0  0  0  0  0  0  0  0  0  0  0  0
   42.9994   16.1003   12.6221 O   0  0  0  0  0  0  0  0  0  0  0  0
   44.2152    9.5987   13.0406 C   0  0  0  0  0  0  0  0  0  0  0  0
   44.5626   14.2433   12.1892 O   0  0  0  0  0  0  0  0  0  0  0  0
   43.8602   10.5705   14.2032 C   0  0  0  0  0  0  0  0  0  0  0  0
   42.6074   14.1928   12.4438 O   0  0  0  0  0  0  0  0  0  0  0  0
   44.4259   11.9300   13.8972 N   0  0  0  0  0  0  0  0  0  0  0  0
   45.9053   11.8471   13.7016 C   0  0  0  0  0  0  0  0  0  0  0  0
   46.2252   10.8190   12.5796 C   0  0  0  0  0  0  0  0  0  0  0  0
   44.1255   12.9217   14.9883 C   0  0  0  0  0  0  0  0  0  0  0  0
   43.0639   13.9515   14.5320 C   0  0  0  0  0  0  0  0  0  0  0  0
   43.6642   14.9264   13.1322 S   0  0  0  0  0  0  0  0  0  0  0  0
  1  3  1  0  0  0  0
  1  9  1  0  0  0  0
  2 12  1  0  0  0  0
  3  5  1  0  0  0  0
  4 12  2  0  0  0  0
  5  7  1  0  0  0  0
  6 12  2  0  0  0  0
  7  8  1  0  0  0  0
  7 10  1  0  0  0  0
  8  9  1  0  0  0  0
 10 11  1  0  0  0  0
 11 12  1  0  0  0  0
M  END
>  <CHROM.1>
-108.08063694,-62.47076429,-169.66812568,44.15198752,12.87344565,13.22560840
-0.90502072,0.98434929,-0.60342927

>  <Name>
ligand

>  <RI>
0

>  <Rbt.Current_Directory>
/home/itssahil/PROJECTS/Mol_Feturizer/New_Systems/rnas/2HO6

>  <Rbt.Executable>
rbdock ($Id: //depot/dev/client3/rdock/2013.1/src/exe/rbdock.cxx#4 $)

>  <Rbt.Library>
libRbt.so (2013.1, Build901 2013/11/27)

>  <Rbt.Parameter_File>
/export/apps/rDock/src/rDock_2013.1_src/data/scripts/dock_solv.prm

>  <Rbt.Receptor>
prm/pocket_docking_5.prm

>  <SCORE>
-9.8483

>  <SCORE.INTER>
-9.56531

>  <SCORE.INTER.CONST>
1

>  <SCORE.INTER.POLAR>
0

>  <SCORE.INTER.ROT>
3

>  <SCORE.INTER.SOLV>
8.40605

>  <SCORE.INTER.VDW>
-14.7789

>  <SCORE.INTER.norm>
-0.797109

>  <SCORE.INTRA>
-0.283665

>  <SCORE.INTRA.DIHEDRAL>
2.10463

>  <SCORE.INTRA.DIHEDRAL.0>
1.88407

>  <SCORE.INTRA.POLAR>
0

>  <SCORE.INTRA.POLAR.0>
0

>  <SCORE.INTRA.REPUL>
0

>  <SCORE.INTRA.REPUL.0>
0

>  <SCORE.INTRA.SOLV>
1.36533

>  <SCORE.INTRA.SOLV.lig_0>
-10.2714

>  <SCORE.INTRA.VDW>
-2.01864

>  <SCORE.INTRA.VDW.0>
0.416923

>  <SCORE.INTRA.norm>
-0.0236387

>  <SCORE.RESTR>
0.000679451

>  <SCORE.RESTR.CAVITY>
0.000679451

>  <SCORE.RESTR.norm>
5.66209e-05

>  <SCORE.SYSTEM>
0

>  <SCORE.SYSTEM.CONST>
0

>  <SCORE.SYSTEM.DIHEDRAL>
0

>  <SCORE.SYSTEM.SOLV>
0

>  <SCORE.SYSTEM.norm>
0

>  <SCORE.heavy>
12

>  <SCORE.norm>
-0.820692

>  <RMSD>
6.010

$$$$
ligand
 OpenBabel11021811433D
libRbt.so/2013.1/901 2013/11/27
 12 12  0  0  0  0  0  0  0  0999 V2000
   43.1612   11.8805   14.8088 O   0  0  0  0  0  0  0  0  0  0  0  0
   43.7181   12.3195    9.2271 O   0  0  0  0  0  0  0  0  0  0  0  0
   44.5268   12.3230   15.0735 C   0  0  0  0  0  0  0  0  0  0  0  0
   44.5728   14.1612   10.6260 O   0  0  0  0  0  0  0  0  0  0  0  0
   45.4963   11.8592   13.9478 C   0  0  0  0  0  0  0  0  0  0  0  0
   45.5087   13.1052    9.2479 O   0  0  0  0  0  0  0  0  0  0  0  0
   44.7162   11.1018   12.9088 N   0  0  0  0  0  0  0  0  0  0  0  0
   44.0185    9.9347   13.5288 C   0  0  0  0  0  0  0  0  0  0  0  0
   43.1108   10.4281   14.6911 C   0  0  0  0  0  0  0  0  0  0  0  0
   45.5967   10.6151   11.7898 C   0  0  0  0  0  0  0  0  0  0  0  0
   46.0205   11.7804   10.8635 C   0  0  0  0  0  0  0  0  0  0  0  0
   44.5818   12.7252   10.3086 S   0  0  0  0  0  0  0  0  0  0  0  0
  1  3  1  0  0  0  0
  1  9  1  0  0  0  0
  2 12  1  0  0  0  0
  3  5  1  0  0  0  0
  4 12  2  0  0  0  0
  5  7  1  0  0  0  0
  6 12  2  0  0  0  0
  7  8  1  0  0  0  0
  7 10  1  0  0  0  0
  8  9  1  0  0  0  0
 10 11  1  0  0  0  0
 11 12  1  0  0  0  0
M  END
>  <CHROM.1>
-73.70728413,-51.95026858,-80.48474899,44.57126704,11.97510199,12.01955361
2.02799965,-1.17754049,2.34627453

>  <Name>
ligand

>  <RI>
0

>  <Rbt.Current_Directory>
/home/itssahil/PROJECTS/Mol_Feturizer/New_Systems/rnas/2HO6

>  <Rbt.Executable>
rbdock ($Id: //depot/dev/client3/rdock/2013.1/src/exe/rbdock.cxx#4 $)

>  <Rbt.Library>
libRbt.so (2013.1, Build901 2013/11/27)

>  <Rbt.Parameter_File>
/export/apps/rDock/src/rDock_2013.1_src/data/scripts/dock_solv.prm

>  <Rbt.Receptor>
prm/pocket_docking_4.prm

>  <SCORE>
-9.91628

>  <SCORE.INTER>
-9.06032

>  <SCORE.INTER.CONST>
1

>  <SCORE.INTER.POLAR>
0

>  <SCORE.INTER.ROT>
3

>  <SCORE.INTER.SOLV>
8.52561

>  <SCORE.INTER.VDW>
-14.4821

>  <SCORE.INTER.norm>
-0.755026

>  <SCORE.INTRA>
-0.855967

>  <SCORE.INTRA.DIHEDRAL>
0.568066

>  <SCORE.INTRA.DIHEDRAL.0>
1.88407

>  <SCORE.INTRA.POLAR>
0

>  <SCORE.INTRA.POLAR.0>
0

>  <SCORE.INTRA.REPUL>
0

>  <SCORE.INTRA.REPUL.0>
0

>  <SCORE.INTRA.SOLV>
0.404177

>  <SCORE.INTRA.SOLV.lig_0>
-10.2714

>  <SCORE.INTRA.VDW>
-1.34209

>  <SCORE.INTRA.VDW.0>
0.416923

>  <SCORE.INTRA.norm>
-0.0713306

>  <SCORE.RESTR>
0

>  <SCORE.RESTR.CAVITY>
0

>  <SCORE.RESTR.norm>
0

>  <SCORE.SYSTEM>
0

>  <SCORE.SYSTEM.CONST>
0

>  <SCORE.SYSTEM.DIHEDRAL>
0

>  <SCORE.SYSTEM.SOLV>
0

>  <SCORE.SYSTEM.norm>
0

>  <SCORE.heavy>
12

>  <SCORE.norm>
-0.826357

>  <RMSD>
6.016

$$$$
ligand
 OpenBabel11021811433D
libRbt.so/2013.1/901 2013/11/27
 12 12  0  0  0  0  0  0  0  0999 V2000
   44.2958   10.0919   14.8275 O   0  0  0  0  0  0  0  0  0  0  0  0
   49.4136   13.3687   10.2564 O   0  0  0  0  0  0  0  0  0  0  0  0
   44.0662    9.8175   13.4123 C   0  0  0  0  0  0  0  0  0  0  0  0
   50.1927   13.7825   12.5588 O   0  0  0  0  0  0  0  0  0  0  0  0
   44.9323   10.7454   12.5118 C   0  0  0  0  0  0  0  0  0  0  0  0
   50.0427   12.0758   11.5818 O   0  0  0  0  0  0  0  0  0  0  0  0
   45.7653   11.6411   13.3869 N   0  0  0  0  0  0  0  0  0  0  0  0
   44.8902   12.4422   14.2958 C   0  0  0  0  0  0  0  0  0  0  0  0
   43.9930   11.4854   15.1312 C   0  0  0  0  0  0  0  0  0  0  0  0
   46.6252   12.5743   12.5782 C   0  0  0  0  0  0  0  0  0  0  0  0
   48.0479   11.9967   12.3829 C   0  0  0  0  0  0  0  0  0  0  0  0
   49.1583   13.2330   11.6694 S   0  0  0  0  0  0  0  0  0  0  0  0
  1  3  1  0  0  0  0
  1  9  1  0  0  0  0
  2 12  1  0  0  0  0
  3  5  1  0  0  0  0
  4 12  2  0  0  0  0
  5  7  1  0  0  0  0
  6 12  2  0  0  0  0
  7  8  1  0  0  0  0
  7 10  1  0  0  0  0
  8  9  1  0  0  0  0
 10 11  1  0  0  0  0
 11 12  1  0  0  0  0
M  END
>  <CHROM.1>
-95.20532809,-170.03362967,-93.72470391,47.07480935,12.07405809,12.74662324
-3.04456147,-0.58422325,-2.24831688

>  <Name>
ligand

>  <RI>
0

>  <Rbt.Current_Directory>
/home/itssahil/PROJECTS/Mol_Feturizer/New_Systems/rnas/2HO6

>  <Rbt.Executable>
rbdock ($Id: //depot/dev/client3/rdock/2013.1/src/exe/rbdock.cxx#4 $)

>  <Rbt.Library>
libRbt.so (2013.1, Build901 2013/11/27)

>  <Rbt.Parameter_File>
/export/apps/rDock/src/rDock_2013.1_src/data/scripts/dock_solv.prm

>  <Rbt.Receptor>
prm/pocket_docking_3.prm

>  <SCORE>
-6.14763

>  <SCORE.INTER>
-6.04098

>  <SCORE.INTER.CONST>
1

>  <SCORE.INTER.POLAR>
0

>  <SCORE.INTER.ROT>
3

>  <SCORE.INTER.SOLV>
8.50438

>  <SCORE.INTER.VDW>
-12.4621

>  <SCORE.INTER.norm>
-0.503415

>  <SCORE.INTRA>
-0.106648

>  <SCORE.INTRA.DIHEDRAL>
1.95745

>  <SCORE.INTRA.DIHEDRAL.0>
1.88407

>  <SCORE.INTRA.POLAR>
0

>  <SCORE.INTRA.POLAR.0>
0

>  <SCORE.INTRA.REPUL>
0

>  <SCORE.INTRA.REPUL.0>
0

>  <SCORE.INTRA.SOLV>
-0.0216228

>  <SCORE.INTRA.SOLV.lig_0>
-10.2714

>  <SCORE.INTRA.VDW>
-1.07456

>  <SCORE.INTRA.VDW.0>
0.416923

>  <SCORE.INTRA.norm>
-0.00888735

>  <SCORE.RESTR>
0

>  <SCORE.RESTR.CAVITY>
0

>  <SCORE.RESTR.norm>
0

>  <SCORE.SYSTEM>
0

>  <SCORE.SYSTEM.CONST>
0

>  <SCORE.SYSTEM.DIHEDRAL>
0

>  <SCORE.SYSTEM.SOLV>
0

>  <SCORE.SYSTEM.norm>
0

>  <SCORE.heavy>
12

>  <SCORE.norm>
-0.512303

>  <RMSD>
6.022

$$$$
ligand
 OpenBabel11021811433D
libRbt.so/2013.1/901 2013/11/27
 12 12  0  0  0  0  0  0  0  0999 V2000
   43.0035   16.9333   13.3625 O   0  0  0  0  0  0  0  0  0  0  0  0
   44.0796   13.1402   15.3362 O   0  0  0  0  0  0  0  0  0  0  0  0
   42.0366   15.8434   13.2748 C   0  0  0  0  0  0  0  0  0  0  0  0
   44.3408   10.8589   14.4379 O   0  0  0  0  0  0  0  0  0  0  0  0
   42.6888   14.5591   12.6853 C   0  0  0  0  0  0  0  0  0  0  0  0
   45.7289   12.1643   14.9471 O   0  0  0  0  0  0  0  0  0  0  0  0
   44.1397   14.8323   12.3987 N   0  0  0  0  0  0  0  0  0  0  0  0
   44.2771   15.9836   11.4558 C   0  0  0  0  0  0  0  0  0  0  0  0
   43.5575   17.2291   12.0467 C   0  0  0  0  0  0  0  0  0  0  0  0
   44.8330   13.6303   11.8167 C   0  0  0  0  0  0  0  0  0  0  0  0
   45.5917   12.8382   12.9089 C   0  0  0  0  0  0  0  0  0  0  0  0
   44.4696   12.3083   14.2244 S   0  0  0  0  0  0  0  0  0  0  0  0
  1  3  1  0  0  0  0
  1  9  1  0  0  0  0
  2 12  1  0  0  0  0
  3  5  1  0  0  0  0
  4 12  2  0  0  0  0
  5  7  1  0  0  0  0
  6 12  2  0  0  0  0
  7  8  1  0  0  0  0
  7 10  1  0  0  0  0
  8  9  1  0  0  0  0
 10 11  1  0  0  0  0
 11 12  1  0  0  0  0
M  END
>  <CHROM.1>
-97.33942148,57.84675420,-83.71264471,44.10923385,13.98097714,13.38462277
2.02314123,0.79957062,-0.76167547

>  <Name>
ligand

>  <RI>
0

>  <Rbt.Current_Directory>
/home/itssahil/PROJECTS/Mol_Feturizer/New_Systems/rnas/2HO6

>  <Rbt.Executable>
rbdock ($Id: //depot/dev/client3/rdock/2013.1/src/exe/rbdock.cxx#4 $)

>  <Rbt.Library>
libRbt.so (2013.1, Build901 2013/11/27)

>  <Rbt.Parameter_File>
/export/apps/rDock/src/rDock_2013.1_src/data/scripts/dock_solv.prm

>  <Rbt.Receptor>
prm/pocket_docking_7.prm

>  <SCORE>
-8.65095

>  <SCORE.INTER>
-7.83142

>  <SCORE.INTER.CONST>
1

>  <SCORE.INTER.POLAR>
0

>  <SCORE.INTER.ROT>
3

>  <SCORE.INTER.SOLV>
5.77664

>  <SCORE.INTER.VDW>
-12.7465

>  <SCORE.INTER.norm>
-0.652619

>  <SCORE.INTRA>
-0.819524

>  <SCORE.INTRA.DIHEDRAL>
1.72076

>  <SCORE.INTRA.DIHEDRAL.0>
1.88407

>  <SCORE.INTRA.POLAR>
0

>  <SCORE.INTRA.POLAR.0>
0

>  <SCORE.INTRA.REPUL>
0

>  <SCORE.INTRA.REPUL.0>
0

>  <SCORE.INTRA.SOLV>
0.181967

>  <SCORE.INTRA.SOLV.lig_0>
-10.2714

>  <SCORE.INTRA.VDW>
-1.77089

>  <SCORE.INTRA.VDW.0>
0.416923

>  <SCORE.INTRA.norm>
-0.0682937

>  <SCORE.RESTR>
0

>  <SCORE.RESTR.CAVITY>
0

>  <SCORE.RESTR.norm>
0

>  <SCORE.SYSTEM>
0

>  <SCORE.SYSTEM.CONST>
0

>  <SCORE.SYSTEM.DIHEDRAL>
0

>  <SCORE.SYSTEM.SOLV>
0

>  <SCORE.SYSTEM.norm>
0

>  <SCORE.heavy>
12

>  <SCORE.norm>
-0.720912

>  <RMSD>
6.038

$$$$
ligand
 OpenBabel11021811433D
libRbt.so/2013.1/901 2013/11/27
 12 12  0  0  0  0  0  0  0  0999 V2000
   54.3755   15.4957   14.7748 O   0  0  0  0  0  0  0  0  0  0  0  0
   50.1919    9.8123   16.8485 O   0  0  0  0  0  0  0  0  0  0  0  0
   54.6996   14.4119   13.8523 C   0  0  0  0  0  0  0  0  0  0  0  0
   50.5317   10.6576   19.1396 O   0  0  0  0  0  0  0  0  0  0  0  0
   54.1353   13.0534   14.3603 C   0  0  0  0  0  0  0  0  0  0  0  0
   49.6697   11.5401   17.6007 O   0  0  0  0  0  0  0  0  0  0  0  0
   53.4038   13.2786   15.6549 N   0  0  0  0  0  0  0  0  0  0  0  0
   54.3146   13.8925   16.6684 C   0  0  0  0  0  0  0  0  0  0  0  0
   54.9106   15.2120   16.1011 C   0  0  0  0  0  0  0  0  0  0  0  0
   52.8366   11.9997   16.2091 C   0  0  0  0  0  0  0  0  0  0  0  0
   51.6386   12.2794   17.1484 C   0  0  0  0  0  0  0  0  0  0  0  0
   50.8825   10.7369   17.7136 S   0  0  0  0  0  0  0  0  0  0  0  0
  1  3  1  0  0  0  0
  1  9  1  0  0  0  0
  2 12  1  0  0  0  0
  3  5  1  0  0  0  0
  4 12  2  0  0  0  0
  5  7  1  0  0  0  0
  6 12  2  0  0  0  0
  7  8  1  0  0  0  0
  7 10  1  0  0  0  0
  8  9  1  0  0  0  0
 10 11  1  0  0  0  0
 11 12  1  0  0  0  0
M  END
>  <CHROM.1>
-156.12840931,175.74121700,-66.36209813,52.41145641,12.48205433,16.49750940
-0.17921095,0.85102055,1.17510453

>  <Name>
ligand

>  <RI>
0

>  <Rbt.Current_Directory>
/home/itssahil/PROJECTS/Mol_Feturizer/New_Systems/rnas/2HO6

>  <Rbt.Executable>
rbdock ($Id: //depot/dev/client3/rdock/2013.1/src/exe/rbdock.cxx#4 $)

>  <Rbt.Library>
libRbt.so (2013.1, Build901 2013/11/27)

>  <Rbt.Parameter_File>
/export/apps/rDock/src/rDock_2013.1_src/data/scripts/dock_solv.prm

>  <Rbt.Receptor>
prm/pocket_docking_8.prm

>  <SCORE>
-11.5712

>  <SCORE.INTER>
-11.1102

>  <SCORE.INTER.CONST>
1

>  <SCORE.INTER.POLAR>
0

>  <SCORE.INTER.ROT>
3

>  <SCORE.INTER.SOLV>
5.81857

>  <SCORE.INTER.VDW>
-14.9463

>  <SCORE.INTER.norm>
-0.925853

>  <SCORE.INTRA>
-0.460968

>  <SCORE.INTRA.DIHEDRAL>
0.741239

>  <SCORE.INTRA.DIHEDRAL.0>
1.88407

>  <SCORE.INTRA.POLAR>
0

>  <SCORE.INTRA.POLAR.0>
0

>  <SCORE.INTRA.REPUL>
0

>  <SCORE.INTRA.REPUL.0>
0

>  <SCORE.INTRA.SOLV>
-0.0542916

>  <SCORE.INTRA.SOLV.lig_0>
-10.2714

>  <SCORE.INTRA.VDW>
-0.804441

>  <SCORE.INTRA.VDW.0>
0.416923

>  <SCORE.INTRA.norm>
-0.038414

>  <SCORE.RESTR>
0

>  <SCORE.RESTR.CAVITY>
0

>  <SCORE.RESTR.norm>
0

>  <SCORE.SYSTEM>
0

>  <SCORE.SYSTEM.CONST>
0

>  <SCORE.SYSTEM.DIHEDRAL>
0

>  <SCORE.SYSTEM.SOLV>
0

>  <SCORE.SYSTEM.norm>
0

>  <SCORE.heavy>
12

>  <SCORE.norm>
-0.964267

>  <RMSD>
6.041

$$$$
ligand
 OpenBabel11021811433D
libRbt.so/2013.1/901 2013/11/27
 12 12  0  0  0  0  0  0  0  0999 V2000
   54.8534   13.4401   15.4089 O   0  0  0  0  0  0  0  0  0  0  0  0
   48.5152   11.9974   18.4011 O   0  0  0  0  0  0  0  0  0  0  0  0
   53.9515   14.3688   16.0834 C   0  0  0  0  0  0  0  0  0  0  0  0
   49.2428    9.7419   19.0814 O   0  0  0  0  0  0  0  0  0  0  0  0
   52.6067   13.6782   16.4531 C   0  0  0  0  0  0  0  0  0  0  0  0
   49.9875   11.4969   19.5868 O   0  0  0  0  0  0  0  0  0  0  0  0
   52.6550   12.2411   16.0122 N   0  0  0  0  0  0  0  0  0  0  0  0
   52.9147   12.1550   14.5430 C   0  0  0  0  0  0  0  0  0  0  0  0
   54.2298   12.9115   14.2016 C   0  0  0  0  0  0  0  0  0  0  0  0
   51.3782   11.5123   16.3328 C   0  0  0  0  0  0  0  0  0  0  0  0
   51.2418   11.2648   17.8547 C   0  0  0  0  0  0  0  0  0  0  0  0
   49.5181   10.9647   18.3120 S   0  0  0  0  0  0  0  0  0  0  0  0
  1  3  1  0  0  0  0
  1  9  1  0  0  0  0
  2 12  1  0  0  0  0
  3  5  1  0  0  0  0
  4 12  2  0  0  0  0
  5  7  1  0  0  0  0
  6 12  2  0  0  0  0
  7  8  1  0  0  0  0
  7 10  1  0  0  0  0
  8  9  1  0  0  0  0
 10 11  1  0  0  0  0
 11 12  1  0  0  0  0
M  END
>  <CHROM.1>
-71.58411409,159.15775873,-75.52240006,51.50481981,12.01841080,17.04253150
-0.11407651,0.74108580,0.74640362

>  <Name>
ligand

>  <RI>
0

>  <Rbt.Current_Directory>
/home/itssahil/PROJECTS/Mol_Feturizer/New_Systems/rnas/2HO6

>  <Rbt.Executable>
rbdock ($Id: //depot/dev/client3/rdock/2013.1/src/exe/rbdock.cxx#4 $)

>  <Rbt.Library>
libRbt.so (2013.1, Build901 2013/11/27)

>  <Rbt.Parameter_File>
/export/apps/rDock/src/rDock_2013.1_src/data/scripts/dock_solv.prm

>  <Rbt.Receptor>
prm/pocket_docking_8.prm

>  <SCORE>
-11.7733

>  <SCORE.INTER>
-11.8794

>  <SCORE.INTER.CONST>
1

>  <SCORE.INTER.POLAR>
0

>  <SCORE.INTER.ROT>
3

>  <SCORE.INTER.SOLV>
7.08198

>  <SCORE.INTER.VDW>
-15.8802

>  <SCORE.INTER.norm>
-0.989948

>  <SCORE.INTRA>
0.106058

>  <SCORE.INTRA.DIHEDRAL>
1.71024

>  <SCORE.INTRA.DIHEDRAL.0>
1.88407

>  <SCORE.INTRA.POLAR>
0

>  <SCORE.INTRA.POLAR.0>
0

>  <SCORE.INTRA.REPUL>
0

>  <SCORE.INTRA.REPUL.0>
0

>  <SCORE.INTRA.SOLV>
-0.030926

>  <SCORE.INTRA.SOLV.lig_0>
-10.2714

>  <SCORE.INTRA.VDW>
-0.7336

>  <SCORE.INTRA.VDW.0>
0.416923

>  <SCORE.INTRA.norm>
0.00883816

>  <SCORE.RESTR>
0

>  <SCORE.RESTR.CAVITY>
0

>  <SCORE.RESTR.norm>
0

>  <SCORE.SYSTEM>
0

>  <SCORE.SYSTEM.CONST>
0

>  <SCORE.SYSTEM.DIHEDRAL>
0

>  <SCORE.SYSTEM.SOLV>
0

>  <SCORE.SYSTEM.norm>
0

>  <SCORE.heavy>
12

>  <SCORE.norm>
-0.98111

>  <RMSD>
6.053

$$$$
ligand
 OpenBabel11021811433D
libRbt.so/2013.1/901 2013/11/27
 12 12  0  0  0  0  0  0  0  0999 V2000
   55.2611   13.7310   15.0967 O   0  0  0  0  0  0  0  0  0  0  0  0
   48.9004   11.7361   17.7808 O   0  0  0  0  0  0  0  0  0  0  0  0
   54.4894   14.6384   15.9403 C   0  0  0  0  0  0  0  0  0  0  0  0
   49.9886   10.1478   19.3211 O   0  0  0  0  0  0  0  0  0  0  0  0
   53.1281   14.0047   16.3497 C   0  0  0  0  0  0  0  0  0  0  0  0
   50.3460   12.0691   19.0549 O   0  0  0  0  0  0  0  0  0  0  0  0
   53.0303   12.6257   15.7574 N   0  0  0  0  0  0  0  0  0  0  0  0
   53.1670   12.6862   14.2703 C   0  0  0  0  0  0  0  0  0  0  0  0
   54.5060   13.3842   13.8986 C   0  0  0  0  0  0  0  0  0  0  0  0
   51.7299   11.9549   16.1082 C   0  0  0  0  0  0  0  0  0  0  0  0
   51.7500   11.4194   17.5603 C   0  0  0  0  0  0  0  0  0  0  0  0
   50.0848   10.9840   18.1151 S   0  0  0  0  0  0  0  0  0  0  0  0
  1  3  1  0  0  0  0
  1  9  1  0  0  0  0
  2 12  1  0  0  0  0
  3  5  1  0  0  0  0
  4 12  2  0  0  0  0
  5  7  1  0  0  0  0
  6 12  2  0  0  0  0
  7  8  1  0  0  0  0
  7 10  1  0  0  0  0
  8  9  1  0  0  0  0
 10 11  1  0  0  0  0
 11 12  1  0  0  0  0
M  END
>  <CHROM.1>
-77.44352882,166.14028623,-38.00520923,51.95850207,12.29103417,16.79390865
-0.40954431,0.68350500,1.22933768

>  <Name>
ligand

>  <RI>
0

>  <Rbt.Current_Directory>
/home/itssahil/PROJECTS/Mol_Feturizer/New_Systems/rnas/2HO6

>  <Rbt.Executable>
rbdock ($Id: //depot/dev/client3/rdock/2013.1/src/exe/rbdock.cxx#4 $)

>  <Rbt.Library>
libRbt.so (2013.1, Build901 2013/11/27)

>  <Rbt.Parameter_File>
/export/apps/rDock/src/rDock_2013.1_src/data/scripts/dock_solv.prm

>  <Rbt.Receptor>
prm/pocket_docking_8.prm

>  <SCORE>
-11.3061

>  <SCORE.INTER>
-10.945

>  <SCORE.INTER.CONST>
1

>  <SCORE.INTER.POLAR>
0

>  <SCORE.INTER.ROT>
3

>  <SCORE.INTER.SOLV>
6.36749

>  <SCORE.INTER.VDW>
-15.0192

>  <SCORE.INTER.norm>
-0.912083

>  <SCORE.INTRA>
-0.361104

>  <SCORE.INTRA.DIHEDRAL>
1.07154

>  <SCORE.INTRA.DIHEDRAL.0>
1.88407

>  <SCORE.INTRA.POLAR>
0

>  <SCORE.INTRA.POLAR.0>
0

>  <SCORE.INTRA.REPUL>
0

>  <SCORE.INTRA.REPUL.0>
0

>  <SCORE.INTRA.SOLV>
-0.0214486

>  <SCORE.INTRA.SOLV.lig_0>
-10.2714

>  <SCORE.INTRA.VDW>
-0.886149

>  <SCORE.INTRA.VDW.0>
0.416923

>  <SCORE.INTRA.norm>
-0.030092

>  <SCORE.RESTR>
0

>  <SCORE.RESTR.CAVITY>
0

>  <SCORE.RESTR.norm>
0

>  <SCORE.SYSTEM>
0

>  <SCORE.SYSTEM.CONST>
0

>  <SCORE.SYSTEM.DIHEDRAL>
0

>  <SCORE.SYSTEM.SOLV>
0

>  <SCORE.SYSTEM.norm>
0

>  <SCORE.heavy>
12

>  <SCORE.norm>
-0.942174

>  <RMSD>
6.062

$$$$
ligand
 OpenBabel11021811433D
libRbt.so/2013.1/901 2013/11/27
 12 12  0  0  0  0  0  0  0  0999 V2000
   45.0459   10.3976   12.0287 O   0  0  0  0  0  0  0  0  0  0  0  0
   43.8980   16.5386   12.8787 O   0  0  0  0  0  0  0  0  0  0  0  0
   44.2623    9.7188   13.0562 C   0  0  0  0  0  0  0  0  0  0  0  0
   44.0083   14.3944   11.6666 O   0  0  0  0  0  0  0  0  0  0  0  0
   43.8079   10.7121   14.1648 C   0  0  0  0  0  0  0  0  0  0  0  0
   42.4507   15.2833   12.4873 O   0  0  0  0  0  0  0  0  0  0  0  0
   44.3068   12.0895   13.8248 N   0  0  0  0  0  0  0  0  0  0  0  0
   45.7950   12.0856   13.6868 C   0  0  0  0  0  0  0  0  0  0  0  0
   46.2161   11.0357   12.6198 C   0  0  0  0  0  0  0  0  0  0  0  0
   43.9085   13.1032   14.8631 C   0  0  0  0  0  0  0  0  0  0  0  0
   42.9837   14.1882   14.2604 C   0  0  0  0  0  0  0  0  0  0  0  0
   43.8242   15.0997   12.9439 S   0  0  0  0  0  0  0  0  0  0  0  0
  1  3  1  0  0  0  0
  1  9  1  0  0  0  0
  2 12  1  0  0  0  0
  3  5  1  0  0  0  0
  4 12  2  0  0  0  0
  5  7  1  0  0  0  0
  6 12  2  0  0  0  0
  7  8  1  0  0  0  0
  7 10  1  0  0  0  0
  8  9  1  0  0  0  0
 10 11  1  0  0  0  0
 11 12  1  0  0  0  0
M  END
>  <CHROM.1>
-117.31383403,-61.45965932,-128.87299931,44.15866572,13.14417000,13.14402368
-1.05262113,0.95135364,-0.48594636

>  <Name>
ligand

>  <RI>
0

>  <Rbt.Current_Directory>
/home/itssahil/PROJECTS/Mol_Feturizer/New_Systems/rnas/2HO6

>  <Rbt.Executable>
rbdock ($Id: //depot/dev/client3/rdock/2013.1/src/exe/rbdock.cxx#4 $)

>  <Rbt.Library>
libRbt.so (2013.1, Build901 2013/11/27)

>  <Rbt.Parameter_File>
/export/apps/rDock/src/rDock_2013.1_src/data/scripts/dock_solv.prm

>  <Rbt.Receptor>
prm/pocket_docking_6.prm

>  <SCORE>
-10.557

>  <SCORE.INTER>
-10.1126

>  <SCORE.INTER.CONST>
1

>  <SCORE.INTER.POLAR>
0

>  <SCORE.INTER.ROT>
3

>  <SCORE.INTER.SOLV>
7.51991

>  <SCORE.INTER.VDW>
-14.8483

>  <SCORE.INTER.norm>
-0.842713

>  <SCORE.INTRA>
-0.444471

>  <SCORE.INTRA.DIHEDRAL>
2.29834

>  <SCORE.INTRA.DIHEDRAL.0>
1.88407

>  <SCORE.INTRA.POLAR>
0

>  <SCORE.INTRA.POLAR.0>
0

>  <SCORE.INTRA.REPUL>
0

>  <SCORE.INTRA.REPUL.0>
0

>  <SCORE.INTRA.SOLV>
0.847583

>  <SCORE.INTRA.SOLV.lig_0>
-10.2714

>  <SCORE.INTRA.VDW>
-2.01743

>  <SCORE.INTRA.VDW.0>
0.416923

>  <SCORE.INTRA.norm>
-0.0370393

>  <SCORE.RESTR>
0

>  <SCORE.RESTR.CAVITY>
0

>  <SCORE.RESTR.norm>
0

>  <SCORE.SYSTEM>
0

>  <SCORE.SYSTEM.CONST>
0

>  <SCORE.SYSTEM.DIHEDRAL>
0

>  <SCORE.SYSTEM.SOLV>
0

>  <SCORE.SYSTEM.norm>
0

>  <SCORE.heavy>
12

>  <SCORE.norm>
-0.879752

>  <RMSD>
6.088

$$$$
ligand
 OpenBabel11021811433D
libRbt.so/2013.1/901 2013/11/27
 12 12  0  0  0  0  0  0  0  0999 V2000
   53.5741   13.7749   14.8178 O   0  0  0  0  0  0  0  0  0  0  0  0
   48.9322    9.8508   18.9358 O   0  0  0  0  0  0  0  0  0  0  0  0
   53.2231   12.5709   14.0709 C   0  0  0  0  0  0  0  0  0  0  0  0
   48.9913   11.7548   20.5012 O   0  0  0  0  0  0  0  0  0  0  0  0
   52.3584   11.6062   14.9333 C   0  0  0  0  0  0  0  0  0  0  0  0
   48.3843   11.7021   18.6254 O   0  0  0  0  0  0  0  0  0  0  0  0
   52.1311   12.2256   16.2848 N   0  0  0  0  0  0  0  0  0  0  0  0
   53.4368   12.5152   16.9518 C   0  0  0  0  0  0  0  0  0  0  0  0
   54.2998   13.4262   16.0333 C   0  0  0  0  0  0  0  0  0  0  0  0
   51.3052   11.3391   17.1770 C   0  0  0  0  0  0  0  0  0  0  0  0
   50.4252   12.1752   18.1374 C   0  0  0  0  0  0  0  0  0  0  0  0
   49.5361   11.1097   19.2970 S   0  0  0  0  0  0  0  0  0  0  0  0
  1  3  1  0  0  0  0
  1  9  1  0  0  0  0
  2 12  1  0  0  0  0
  3  5  1  0  0  0  0
  4 12  2  0  0  0  0
  5  7  1  0  0  0  0
  6 12  2  0  0  0  0
  7  8  1  0  0  0  0
  7 10  1  0  0  0  0
  8  9  1  0  0  0  0
 10 11  1  0  0  0  0
 11 12  1  0  0  0  0
M  END
>  <CHROM.1>
-147.68677293,-175.40214846,-40.31961068,51.15416976,11.91166477,17.39041775
-0.53484342,0.63477306,1.18490654

>  <Name>
ligand

>  <RI>
0

>  <Rbt.Current_Directory>
/home/itssahil/PROJECTS/Mol_Feturizer/New_Systems/rnas/2HO6

>  <Rbt.Executable>
rbdock ($Id: //depot/dev/client3/rdock/2013.1/src/exe/rbdock.cxx#4 $)

>  <Rbt.Library>
libRbt.so (2013.1, Build901 2013/11/27)

>  <Rbt.Parameter_File>
/export/apps/rDock/src/rDock_2013.1_src/data/scripts/dock_solv.prm

>  <Rbt.Receptor>
prm/pocket_docking_8.prm

>  <SCORE>
-12.846

>  <SCORE.INTER>
-12.4418

>  <SCORE.INTER.CONST>
1

>  <SCORE.INTER.POLAR>
0

>  <SCORE.INTER.ROT>
3

>  <SCORE.INTER.SOLV>
6.15991

>  <SCORE.INTER.VDW>
-15.9478

>  <SCORE.INTER.norm>
-1.03682

>  <SCORE.INTRA>
-0.404178

>  <SCORE.INTRA.DIHEDRAL>
1.1892

>  <SCORE.INTRA.DIHEDRAL.0>
1.88407

>  <SCORE.INTRA.POLAR>
0

>  <SCORE.INTRA.POLAR.0>
0

>  <SCORE.INTRA.REPUL>
0

>  <SCORE.INTRA.REPUL.0>
0

>  <SCORE.INTRA.SOLV>
-0.0613758

>  <SCORE.INTRA.SOLV.lig_0>
-10.2714

>  <SCORE.INTRA.VDW>
-0.968089

>  <SCORE.INTRA.VDW.0>
0.416923

>  <SCORE.INTRA.norm>
-0.0336815

>  <SCORE.RESTR>
0

>  <SCORE.RESTR.CAVITY>
0

>  <SCORE.RESTR.norm>
0

>  <SCORE.SYSTEM>
0

>  <SCORE.SYSTEM.CONST>
0

>  <SCORE.SYSTEM.DIHEDRAL>
0

>  <SCORE.SYSTEM.SOLV>
0

>  <SCORE.SYSTEM.norm>
0

>  <SCORE.heavy>
12

>  <SCORE.norm>
-1.0705

>  <RMSD>
6.094

$$$$
ligand
 OpenBabel11021811433D
libRbt.so/2013.1/901 2013/11/27
 12 12  0  0  0  0  0  0  0  0999 V2000
   53.3348   13.6213   14.9319 O   0  0  0  0  0  0  0  0  0  0  0  0
   47.3914   11.8700   19.2431 O   0  0  0  0  0  0  0  0  0  0  0  0
   52.7956   12.4861   14.1894 C   0  0  0  0  0  0  0  0  0  0  0  0
   49.0211   10.0551   19.6029 O   0  0  0  0  0  0  0  0  0  0  0  0
   51.9017   11.5932   15.0981 C   0  0  0  0  0  0  0  0  0  0  0  0
   49.1204   11.9465   20.1533 O   0  0  0  0  0  0  0  0  0  0  0  0
   51.8519   12.1907   16.4774 N   0  0  0  0  0  0  0  0  0  0  0  0
   53.2303   12.3171   17.0409 C   0  0  0  0  0  0  0  0  0  0  0  0
   54.1122   13.1585   16.0752 C   0  0  0  0  0  0  0  0  0  0  0  0
   51.0073   11.3704   17.4144 C   0  0  0  0  0  0  0  0  0  0  0  0
   50.0584   12.2684   18.2445 C   0  0  0  0  0  0  0  0  0  0  0  0
   48.6798   11.3102   18.9164 S   0  0  0  0  0  0  0  0  0  0  0  0
  1  3  1  0  0  0  0
  1  9  1  0  0  0  0
  2 12  1  0  0  0  0
  3  5  1  0  0  0  0
  4 12  2  0  0  0  0
  5  7  1  0  0  0  0
  6 12  2  0  0  0  0
  7  8  1  0  0  0  0
  7 10  1  0  0  0  0
  8  9  1  0  0  0  0
 10 11  1  0  0  0  0
 11 12  1  0  0  0  0
M  END
>  <CHROM.1>
-134.62977286,160.11871624,-153.67884299,50.76882621,11.94431952,17.48286761
0.67642183,-0.34966546,-1.63387377

>  <Name>
ligand

>  <RI>
0

>  <Rbt.Current_Directory>
/home/itssahil/PROJECTS/Mol_Feturizer/New_Systems/rnas/2HO6

>  <Rbt.Executable>
rbdock ($Id: //depot/dev/client3/rdock/2013.1/src/exe/rbdock.cxx#4 $)

>  <Rbt.Library>
libRbt.so (2013.1, Build901 2013/11/27)

>  <Rbt.Parameter_File>
/export/apps/rDock/src/rDock_2013.1_src/data/scripts/dock_solv.prm

>  <Rbt.Receptor>
prm/pocket_docking_8.prm

>  <SCORE>
-11.5339

>  <SCORE.INTER>
-12.1169

>  <SCORE.INTER.CONST>
1

>  <SCORE.INTER.POLAR>
0

>  <SCORE.INTER.ROT>
3

>  <SCORE.INTER.SOLV>
6.69982

>  <SCORE.INTER.VDW>
-15.9112

>  <SCORE.INTER.norm>
-1.00974

>  <SCORE.INTRA>
0.562631

>  <SCORE.INTRA.DIHEDRAL>
3.21109

>  <SCORE.INTRA.DIHEDRAL.0>
1.88407

>  <SCORE.INTRA.POLAR>
0

>  <SCORE.INTRA.POLAR.0>
0

>  <SCORE.INTRA.REPUL>
0

>  <SCORE.INTRA.REPUL.0>
0

>  <SCORE.INTRA.SOLV>
0.117516

>  <SCORE.INTRA.SOLV.lig_0>
-10.2714

>  <SCORE.INTRA.VDW>
-1.10167

>  <SCORE.INTRA.VDW.0>
0.416923

>  <SCORE.INTRA.norm>
0.0468859

>  <SCORE.RESTR>
0.020383

>  <SCORE.RESTR.CAVITY>
0.020383

>  <SCORE.RESTR.norm>
0.00169859

>  <SCORE.SYSTEM>
0

>  <SCORE.SYSTEM.CONST>
0

>  <SCORE.SYSTEM.DIHEDRAL>
0

>  <SCORE.SYSTEM.SOLV>
0

>  <SCORE.SYSTEM.norm>
0

>  <SCORE.heavy>
12

>  <SCORE.norm>
-0.961155

>  <RMSD>
6.095

$$$$
ligand
 OpenBabel11021811433D
libRbt.so/2013.1/901 2013/11/27
 12 12  0  0  0  0  0  0  0  0999 V2000
   55.1682   13.5413   15.0190 O   0  0  0  0  0  0  0  0  0  0  0  0
   49.9143   10.0077   19.4302 O   0  0  0  0  0  0  0  0  0  0  0  0
   54.7714   14.6693   15.8561 C   0  0  0  0  0  0  0  0  0  0  0  0
   48.9486   11.8181   18.0630 O   0  0  0  0  0  0  0  0  0  0  0  0
   53.4075   14.3985   16.5551 C   0  0  0  0  0  0  0  0  0  0  0  0
   49.9337   10.2100   17.4853 O   0  0  0  0  0  0  0  0  0  0  0  0
   52.9173   13.0319   16.1630 N   0  0  0  0  0  0  0  0  0  0  0  0
   52.7868   12.9312   14.6776 C   0  0  0  0  0  0  0  0  0  0  0  0
   54.1496   13.2727   14.0109 C   0  0  0  0  0  0  0  0  0  0  0  0
   51.5933   12.7062   16.7996 C   0  0  0  0  0  0  0  0  0  0  0  0
   51.6916   11.4349   17.6770 C   0  0  0  0  0  0  0  0  0  0  0  0
   50.1515   11.1489   18.5807 S   0  0  0  0  0  0  0  0  0  0  0  0
  1  3  1  0  0  0  0
  1  9  1  0  0  0  0
  2 12  1  0  0  0  0
  3  5  1  0  0  0  0
  4 12  2  0  0  0  0
  5  7  1  0  0  0  0
  6 12  2  0  0  0  0
  7  8  1  0  0  0  0
  7 10  1  0  0  0  0
  8  9  1  0  0  0  0
 10 11  1  0  0  0  0
 11 12  1  0  0  0  0
M  END
>  <CHROM.1>
-120.80251767,173.83589337,176.89393421,51.89083482,12.26967954,16.90116208
0.28569109,-0.74844410,-2.00505993

>  <Name>
ligand

>  <RI>
0

>  <Rbt.Current_Directory>
/home/itssahil/PROJECTS/Mol_Feturizer/New_Systems/rnas/2HO6

>  <Rbt.Executable>
rbdock ($Id: //depot/dev/client3/rdock/2013.1/src/exe/rbdock.cxx#4 $)

>  <Rbt.Library>
libRbt.so (2013.1, Build901 2013/11/27)

>  <Rbt.Parameter_File>
/export/apps/rDock/src/rDock_2013.1_src/data/scripts/dock_solv.prm

>  <Rbt.Receptor>
prm/pocket_docking_8.prm

>  <SCORE>
-10.5851

>  <SCORE.INTER>
-10.8665

>  <SCORE.INTER.CONST>
1

>  <SCORE.INTER.POLAR>
0

>  <SCORE.INTER.ROT>
3

>  <SCORE.INTER.SOLV>
7.08279

>  <SCORE.INTER.VDW>
-15.2053

>  <SCORE.INTER.norm>
-0.905546

>  <SCORE.INTRA>
0.28141

>  <SCORE.INTRA.DIHEDRAL>
2.44583

>  <SCORE.INTRA.DIHEDRAL.0>
1.88407

>  <SCORE.INTRA.POLAR>
0

>  <SCORE.INTRA.POLAR.0>
0

>  <SCORE.INTRA.REPUL>
0

>  <SCORE.INTRA.REPUL.0>
0

>  <SCORE.INTRA.SOLV>
0.177121

>  <SCORE.INTRA.SOLV.lig_0>
-10.2714

>  <SCORE.INTRA.VDW>
-1.03007

>  <SCORE.INTRA.VDW.0>
0.416923

>  <SCORE.INTRA.norm>
0.0234509

>  <SCORE.RESTR>
0

>  <SCORE.RESTR.CAVITY>
0

>  <SCORE.RESTR.norm>
0

>  <SCORE.SYSTEM>
0

>  <SCORE.SYSTEM.CONST>
0

>  <SCORE.SYSTEM.DIHEDRAL>
0

>  <SCORE.SYSTEM.SOLV>
0

>  <SCORE.SYSTEM.norm>
0

>  <SCORE.heavy>
12

>  <SCORE.norm>
-0.882095

>  <RMSD>
6.104

$$$$
ligand
 OpenBabel11021811433D
libRbt.so/2013.1/901 2013/11/27
 12 12  0  0  0  0  0  0  0  0999 V2000
   44.9996   10.3392   12.0971 O   0  0  0  0  0  0  0  0  0  0  0  0
   43.9759   16.5082   12.8299 O   0  0  0  0  0  0  0  0  0  0  0  0
   44.2169    9.6965   13.1483 C   0  0  0  0  0  0  0  0  0  0  0  0
   43.9066   14.3691   11.6056 O   0  0  0  0  0  0  0  0  0  0  0  0
   43.7808   10.7241   14.2327 C   0  0  0  0  0  0  0  0  0  0  0  0
   42.4415   15.3422   12.4982 O   0  0  0  0  0  0  0  0  0  0  0  0
   44.2911   12.0866   13.8518 N   0  0  0  0  0  0  0  0  0  0  0  0
   45.7781   12.0636   13.7034 C   0  0  0  0  0  0  0  0  0  0  0  0
   46.1805   10.9809   12.6622 C   0  0  0  0  0  0  0  0  0  0  0  0
   43.9108   13.1320   14.8651 C   0  0  0  0  0  0  0  0  0  0  0  0
   42.9872   14.2063   14.2415 C   0  0  0  0  0  0  0  0  0  0  0  0
   43.8208   15.0757   12.8926 S   0  0  0  0  0  0  0  0  0  0  0  0
  1  3  1  0  0  0  0
  1  9  1  0  0  0  0
  2 12  1  0  0  0  0
  3  5  1  0  0  0  0
  4 12  2  0  0  0  0
  5  7  1  0  0  0  0
  6 12  2  0  0  0  0
  7  8  1  0  0  0  0
  7 10  1  0  0  0  0
  8  9  1  0  0  0  0
 10 11  1  0  0  0  0
 11 12  1  0  0  0  0
M  END
>  <CHROM.1>
-117.04713970,-61.53872886,-124.82333772,44.14182308,13.13254580,13.14959795
-1.05728214,0.96601817,-0.50762778

>  <Name>
ligand

>  <RI>
0

>  <Rbt.Current_Directory>
/home/itssahil/PROJECTS/Mol_Feturizer/New_Systems/rnas/2HO6

>  <Rbt.Executable>
rbdock ($Id: //depot/dev/client3/rdock/2013.1/src/exe/rbdock.cxx#4 $)

>  <Rbt.Library>
libRbt.so (2013.1, Build901 2013/11/27)

>  <Rbt.Parameter_File>
/export/apps/rDock/src/rDock_2013.1_src/data/scripts/dock_solv.prm

>  <Rbt.Receptor>
prm/pocket_docking_8.prm

>  <SCORE>
-10.5641

>  <SCORE.INTER>
-10.119

>  <SCORE.INTER.CONST>
1

>  <SCORE.INTER.POLAR>
0

>  <SCORE.INTER.ROT>
3

>  <SCORE.INTER.SOLV>
7.5379

>  <SCORE.INTER.VDW>
-14.8586

>  <SCORE.INTER.norm>
-0.84325

>  <SCORE.INTRA>
-0.445098

>  <SCORE.INTRA.DIHEDRAL>
2.3136

>  <SCORE.INTRA.DIHEDRAL.0>
1.88407

>  <SCORE.INTRA.POLAR>
0

>  <SCORE.INTRA.POLAR.0>
0

>  <SCORE.INTRA.REPUL>
0

>  <SCORE.INTRA.REPUL.0>
0

>  <SCORE.INTRA.SOLV>
0.779137

>  <SCORE.INTRA.SOLV.lig_0>
-10.2714

>  <SCORE.INTRA.VDW>
-1.99147

>  <SCORE.INTRA.VDW.0>
0.416923

>  <SCORE.INTRA.norm>
-0.0370915

>  <SCORE.RESTR>
0

>  <SCORE.RESTR.CAVITY>
0

>  <SCORE.RESTR.norm>
0

>  <SCORE.SYSTEM>
0

>  <SCORE.SYSTEM.CONST>
0

>  <SCORE.SYSTEM.DIHEDRAL>
0

>  <SCORE.SYSTEM.SOLV>
0

>  <SCORE.SYSTEM.norm>
0

>  <SCORE.heavy>
12

>  <SCORE.norm>
-0.880341

>  <RMSD>
6.117

$$$$
ligand
 OpenBabel11021811433D
libRbt.so/2013.1/901 2013/11/27
 12 12  0  0  0  0  0  0  0  0999 V2000
   52.4329   15.2335   14.6460 O   0  0  0  0  0  0  0  0  0  0  0  0
   48.9426   10.1040   19.1424 O   0  0  0  0  0  0  0  0  0  0  0  0
   52.5409   14.0724   13.7680 C   0  0  0  0  0  0  0  0  0  0  0  0
   51.3195   10.2599   19.7790 O   0  0  0  0  0  0  0  0  0  0  0  0
   52.2570   12.7530   14.5430 C   0  0  0  0  0  0  0  0  0  0  0  0
   49.9206   11.6491   19.8354 O   0  0  0  0  0  0  0  0  0  0  0  0
   51.9367   13.0835   15.9748 N   0  0  0  0  0  0  0  0  0  0  0  0
   53.0641   13.8396   16.6001 C   0  0  0  0  0  0  0  0  0  0  0  0
   53.3630   15.1154   15.7626 C   0  0  0  0  0  0  0  0  0  0  0  0
   51.6582   11.8481   16.7874 C   0  0  0  0  0  0  0  0  0  0  0  0
   50.5378   12.1012   17.8250 C   0  0  0  0  0  0  0  0  0  0  0  0
   50.2500   10.6333   18.8412 S   0  0  0  0  0  0  0  0  0  0  0  0
  1  3  1  0  0  0  0
  1  9  1  0  0  0  0
  2 12  1  0  0  0  0
  3  5  1  0  0  0  0
  4 12  2  0  0  0  0
  5  7  1  0  0  0  0
  6 12  2  0  0  0  0
  7  8  1  0  0  0  0
  7 10  1  0  0  0  0
  8  9  1  0  0  0  0
 10 11  1  0  0  0  0
 11 12  1  0  0  0  0
M  END
>  <CHROM.1>
-143.27750318,-177.84632924,-133.77949407,51.36566365,12.34870310,17.19016496
-0.82119842,0.91316838,1.63657102

>  <Name>
ligand

>  <RI>
0

>  <Rbt.Current_Directory>
/home/itssahil/PROJECTS/Mol_Feturizer/New_Systems/rnas/2HO6

>  <Rbt.Executable>
rbdock ($Id: //depot/dev/client3/rdock/2013.1/src/exe/rbdock.cxx#4 $)

>  <Rbt.Library>
libRbt.so (2013.1, Build901 2013/11/27)

>  <Rbt.Parameter_File>
/export/apps/rDock/src/rDock_2013.1_src/data/scripts/dock_solv.prm

>  <Rbt.Receptor>
prm/blind_docking_60.prm

>  <SCORE>
-12.1101

>  <SCORE.INTER>
-11.7755

>  <SCORE.INTER.CONST>
1

>  <SCORE.INTER.POLAR>
0

>  <SCORE.INTER.ROT>
3

>  <SCORE.INTER.SOLV>
4.96493

>  <SCORE.INTER.VDW>
-15.1053

>  <SCORE.INTER.norm>
-0.981293

>  <SCORE.INTRA>
-0.334619

>  <SCORE.INTRA.DIHEDRAL>
1.43236

>  <SCORE.INTRA.DIHEDRAL.0>
1.88407

>  <SCORE.INTRA.POLAR>
0

>  <SCORE.INTRA.POLAR.0>
0

>  <SCORE.INTRA.REPUL>
0

>  <SCORE.INTRA.REPUL.0>
0

>  <SCORE.INTRA.SOLV>
0.0652282

>  <SCORE.INTRA.SOLV.lig_0>
-10.2714

>  <SCORE.INTRA.VDW>
-1.08341

>  <SCORE.INTRA.VDW.0>
0.416923

>  <SCORE.INTRA.norm>
-0.027885

>  <SCORE.RESTR>
0

>  <SCORE.RESTR.CAVITY>
0

>  <SCORE.RESTR.norm>
0

>  <SCORE.SYSTEM>
0

>  <SCORE.SYSTEM.CONST>
0

>  <SCORE.SYSTEM.DIHEDRAL>
0

>  <SCORE.SYSTEM.SOLV>
0

>  <SCORE.SYSTEM.norm>
0

>  <SCORE.heavy>
12

>  <SCORE.norm>
-1.00918

>  <RMSD>
6.119

$$$$
ligand
 OpenBabel11021811433D
libRbt.so/2013.1/901 2013/11/27
 12 12  0  0  0  0  0  0  0  0999 V2000
   44.6170   11.5226   14.3642 O   0  0  0  0  0  0  0  0  0  0  0  0
   43.6743   14.6726    7.4009 O   0  0  0  0  0  0  0  0  0  0  0  0
   43.9553   12.7064   14.9040 C   0  0  0  0  0  0  0  0  0  0  0  0
   45.3667   15.8557    8.7483 O   0  0  0  0  0  0  0  0  0  0  0  0
   43.7787   13.7997   13.8105 C   0  0  0  0  0  0  0  0  0  0  0  0
   45.3232   13.9674    8.1804 O   0  0  0  0  0  0  0  0  0  0  0  0
   44.3356   13.2885   12.5103 N   0  0  0  0  0  0  0  0  0  0  0  0
   45.7747   12.9180   12.6694 C   0  0  0  0  0  0  0  0  0  0  0  0
   45.9203   11.8748   13.8135 C   0  0  0  0  0  0  0  0  0  0  0  0
   44.2046   14.3023   11.4062 C   0  0  0  0  0  0  0  0  0  0  0  0
   44.2540   13.6249   10.0153 C   0  0  0  0  0  0  0  0  0  0  0  0
   44.2875   14.8581    8.6931 S   0  0  0  0  0  0  0  0  0  0  0  0
  1  3  1  0  0  0  0
  1  9  1  0  0  0  0
  2 12  1  0  0  0  0
  3  5  1  0  0  0  0
  4 12  2  0  0  0  0
  5  7  1  0  0  0  0
  6 12  2  0  0  0  0
  7  8  1  0  0  0  0
  7 10  1  0  0  0  0
  8  9  1  0  0  0  0
 10 11  1  0  0  0  0
 11 12  1  0  0  0  0
M  END
>  <CHROM.1>
-158.07895694,-173.48777225,-146.74333654,44.59798272,13.74706959,11.05790461
-1.53648868,0.64556754,-1.20201738

>  <Name>
ligand

>  <RI>
0

>  <Rbt.Current_Directory>
/home/itssahil/PROJECTS/Mol_Feturizer/New_Systems/rnas/2HO6

>  <Rbt.Executable>
rbdock ($Id: //depot/dev/client3/rdock/2013.1/src/exe/rbdock.cxx#4 $)

>  <Rbt.Library>
libRbt.so (2013.1, Build901 2013/11/27)

>  <Rbt.Parameter_File>
/export/apps/rDock/src/rDock_2013.1_src/data/scripts/dock_solv.prm

>  <Rbt.Receptor>
prm/pocket_docking_6.prm

>  <SCORE>
-9.83739

>  <SCORE.INTER>
-9.40728

>  <SCORE.INTER.CONST>
1

>  <SCORE.INTER.POLAR>
0

>  <SCORE.INTER.ROT>
3

>  <SCORE.INTER.SOLV>
6.08653

>  <SCORE.INTER.VDW>
-13.9004

>  <SCORE.INTER.norm>
-0.78394

>  <SCORE.INTRA>
-0.430103

>  <SCORE.INTRA.DIHEDRAL>
0.641028

>  <SCORE.INTRA.DIHEDRAL.0>
1.88407

>  <SCORE.INTRA.POLAR>
0

>  <SCORE.INTRA.POLAR.0>
0

>  <SCORE.INTRA.REPUL>
0

>  <SCORE.INTRA.REPUL.0>
0

>  <SCORE.INTRA.SOLV>
0.102307

>  <SCORE.INTRA.SOLV.lig_0>
-10.2714

>  <SCORE.INTRA.VDW>
-0.801771

>  <SCORE.INTRA.VDW.0>
0.416923

>  <SCORE.INTRA.norm>
-0.0358419

>  <SCORE.RESTR>
0

>  <SCORE.RESTR.CAVITY>
0

>  <SCORE.RESTR.norm>
0

>  <SCORE.SYSTEM>
0

>  <SCORE.SYSTEM.CONST>
0

>  <SCORE.SYSTEM.DIHEDRAL>
0

>  <SCORE.SYSTEM.SOLV>
0

>  <SCORE.SYSTEM.norm>
0

>  <SCORE.heavy>
12

>  <SCORE.norm>
-0.819782

>  <RMSD>
6.119

$$$$
ligand
 OpenBabel11021811433D
libRbt.so/2013.1/901 2013/11/27
 12 12  0  0  0  0  0  0  0  0999 V2000
   44.9829   10.3310   12.0491 O   0  0  0  0  0  0  0  0  0  0  0  0
   43.9596   16.4978   12.9040 O   0  0  0  0  0  0  0  0  0  0  0  0
   44.1832    9.6888   13.0878 C   0  0  0  0  0  0  0  0  0  0  0  0
   43.8002   14.4006   11.6173 O   0  0  0  0  0  0  0  0  0  0  0  0
   43.7734   10.7064   14.1917 C   0  0  0  0  0  0  0  0  0  0  0  0
   42.3942   15.3631   12.6107 O   0  0  0  0  0  0  0  0  0  0  0  0
   44.3192   12.0622   13.8371 N   0  0  0  0  0  0  0  0  0  0  0  0
   45.8051   12.0034   13.6882 C   0  0  0  0  0  0  0  0  0  0  0  0
   46.1799   10.9308   12.6265 C   0  0  0  0  0  0  0  0  0  0  0  0
   43.9657   13.0976   14.8702 C   0  0  0  0  0  0  0  0  0  0  0  0
   43.0069   14.1644   14.2884 C   0  0  0  0  0  0  0  0  0  0  0  0
   43.7869   15.0661   12.9287 S   0  0  0  0  0  0  0  0  0  0  0  0
  1  3  1  0  0  0  0
  1  9  1  0  0  0  0
  2 12  1  0  0  0  0
  3  5  1  0  0  0  0
  4 12  2  0  0  0  0
  5  7  1  0  0  0  0
  6 12  2  0  0  0  0
  7  8  1  0  0  0  0
  7 10  1  0  0  0  0
  8  9  1  0  0  0  0
 10 11  1  0  0  0  0
 11 12  1  0  0  0  0
M  END
>  <CHROM.1>
-113.88610327,-62.30718520,-122.49051186,44.12721446,13.11669533,13.15961969
-1.02220173,0.98860475,-0.52385803

>  <Name>
ligand

>  <RI>
0

>  <Rbt.Current_Directory>
/home/itssahil/PROJECTS/Mol_Feturizer/New_Systems/rnas/2HO6

>  <Rbt.Executable>
rbdock ($Id: //depot/dev/client3/rdock/2013.1/src/exe/rbdock.cxx#4 $)

>  <Rbt.Library>
libRbt.so (2013.1, Build901 2013/11/27)

>  <Rbt.Parameter_File>
/export/apps/rDock/src/rDock_2013.1_src/data/scripts/dock_solv.prm

>  <Rbt.Receptor>
prm/pocket_docking_6.prm

>  <SCORE>
-10.5571

>  <SCORE.INTER>
-10.113

>  <SCORE.INTER.CONST>
1

>  <SCORE.INTER.POLAR>
0

>  <SCORE.INTER.ROT>
3

>  <SCORE.INTER.SOLV>
7.63927

>  <SCORE.INTER.VDW>
-14.8884

>  <SCORE.INTER.norm>
-0.84275

>  <SCORE.INTRA>
-0.444116

>  <SCORE.INTRA.DIHEDRAL>
2.30042

>  <SCORE.INTRA.DIHEDRAL.0>
1.88407

>  <SCORE.INTRA.POLAR>
0

>  <SCORE.INTRA.POLAR.0>
0

>  <SCORE.INTRA.REPUL>
0

>  <SCORE.INTRA.REPUL.0>
0

>  <SCORE.INTRA.SOLV>
0.722954

>  <SCORE.INTRA.SOLV.lig_0>
-10.2714

>  <SCORE.INTRA.VDW>
-1.9558

>  <SCORE.INTRA.VDW.0>
0.416923

>  <SCORE.INTRA.norm>
-0.0370097

>  <SCORE.RESTR>
0

>  <SCORE.RESTR.CAVITY>
0

>  <SCORE.RESTR.norm>
0

>  <SCORE.SYSTEM>
0

>  <SCORE.SYSTEM.CONST>
0

>  <SCORE.SYSTEM.DIHEDRAL>
0

>  <SCORE.SYSTEM.SOLV>
0

>  <SCORE.SYSTEM.norm>
0

>  <SCORE.heavy>
12

>  <SCORE.norm>
-0.879759

>  <RMSD>
6.121

$$$$
ligand
 OpenBabel11021811433D
libRbt.so/2013.1/901 2013/11/27
 12 12  0  0  0  0  0  0  0  0999 V2000
   44.9366   10.2917   12.0162 O   0  0  0  0  0  0  0  0  0  0  0  0
   42.0551   15.9770   12.6044 O   0  0  0  0  0  0  0  0  0  0  0  0
   44.1635    9.6811   13.0933 C   0  0  0  0  0  0  0  0  0  0  0  0
   44.0358   14.6066   12.0767 O   0  0  0  0  0  0  0  0  0  0  0  0
   43.8045   10.7256   14.1898 C   0  0  0  0  0  0  0  0  0  0  0  0
   42.1740   14.0367   12.3915 O   0  0  0  0  0  0  0  0  0  0  0  0
   44.3565   12.0664   13.7905 N   0  0  0  0  0  0  0  0  0  0  0  0
   45.8357   11.9837   13.5937 C   0  0  0  0  0  0  0  0  0  0  0  0
   46.1602   10.8855   12.5416 C   0  0  0  0  0  0  0  0  0  0  0  0
   44.0517   13.1264   14.8141 C   0  0  0  0  0  0  0  0  0  0  0  0
   42.7548   13.8924   14.4576 C   0  0  0  0  0  0  0  0  0  0  0  0
   43.0245   15.0130   13.0641 S   0  0  0  0  0  0  0  0  0  0  0  0
  1  3  1  0  0  0  0
  1  9  1  0  0  0  0
  2 12  1  0  0  0  0
  3  5  1  0  0  0  0
  4 12  2  0  0  0  0
  5  7  1  0  0  0  0
  6 12  2  0  0  0  0
  7  8  1  0  0  0  0
  7 10  1  0  0  0  0
  8  9  1  0  0  0  0
 10 11  1  0  0  0  0
 11 12  1  0  0  0  0
M  END
>  <CHROM.1>
-93.96963136,-73.45532320,-172.19114870,43.83422483,12.94834951,13.16649131
-0.71016353,0.92452727,-0.78357855

>  <Name>
ligand

>  <RI>
0

>  <Rbt.Current_Directory>
/home/itssahil/PROJECTS/Mol_Feturizer/New_Systems/rnas/2HO6

>  <Rbt.Executable>
rbdock ($Id: //depot/dev/client3/rdock/2013.1/src/exe/rbdock.cxx#4 $)

>  <Rbt.Library>
libRbt.so (2013.1, Build901 2013/11/27)

>  <Rbt.Parameter_File>
/export/apps/rDock/src/rDock_2013.1_src/data/scripts/dock_solv.prm

>  <Rbt.Receptor>
prm/pocket_docking_6.prm

>  <SCORE>
-9.89359

>  <SCORE.INTER>
-9.6781

>  <SCORE.INTER.CONST>
1

>  <SCORE.INTER.POLAR>
0

>  <SCORE.INTER.ROT>
3

>  <SCORE.INTER.SOLV>
8.14316

>  <SCORE.INTER.VDW>
-14.7665

>  <SCORE.INTER.norm>
-0.806509

>  <SCORE.INTRA>
-0.215489

>  <SCORE.INTRA.DIHEDRAL>
2.0552

>  <SCORE.INTRA.DIHEDRAL.0>
1.88407

>  <SCORE.INTRA.POLAR>
0

>  <SCORE.INTRA.POLAR.0>
0

>  <SCORE.INTRA.REPUL>
0

>  <SCORE.INTRA.REPUL.0>
0

>  <SCORE.INTRA.SOLV>
1.13672

>  <SCORE.INTRA.SOLV.lig_0>
-10.2714

>  <SCORE.INTRA.VDW>
-1.81145

>  <SCORE.INTRA.VDW.0>
0.416923

>  <SCORE.INTRA.norm>
-0.0179574

>  <SCORE.RESTR>
0

>  <SCORE.RESTR.CAVITY>
0

>  <SCORE.RESTR.norm>
0

>  <SCORE.SYSTEM>
0

>  <SCORE.SYSTEM.CONST>
0

>  <SCORE.SYSTEM.DIHEDRAL>
0

>  <SCORE.SYSTEM.SOLV>
0

>  <SCORE.SYSTEM.norm>
0

>  <SCORE.heavy>
12

>  <SCORE.norm>
-0.824466

>  <RMSD>
6.122

$$$$
ligand
 OpenBabel11021811433D
libRbt.so/2013.1/901 2013/11/27
 12 12  0  0  0  0  0  0  0  0999 V2000
   53.6221   13.6586   15.1564 O   0  0  0  0  0  0  0  0  0  0  0  0
   47.4866   11.8871   19.2222 O   0  0  0  0  0  0  0  0  0  0  0  0
   53.1463   12.6047   14.2656 C   0  0  0  0  0  0  0  0  0  0  0  0
   49.0505   10.0142   19.5767 O   0  0  0  0  0  0  0  0  0  0  0  0
   52.1016   11.6963   14.9767 C   0  0  0  0  0  0  0  0  0  0  0  0
   49.2201   11.9006   20.1270 O   0  0  0  0  0  0  0  0  0  0  0  0
   51.8858   12.1995   16.3774 N   0  0  0  0  0  0  0  0  0  0  0  0
   53.1775   12.2194   17.1290 C   0  0  0  0  0  0  0  0  0  0  0  0
   54.2162   13.0809   16.3561 C   0  0  0  0  0  0  0  0  0  0  0  0
   50.8889   11.3591   17.1285 C   0  0  0  0  0  0  0  0  0  0  0  0
   50.1633   12.1887   18.2152 C   0  0  0  0  0  0  0  0  0  0  0  0
   48.7529   11.2810   18.8914 S   0  0  0  0  0  0  0  0  0  0  0  0
  1  3  1  0  0  0  0
  1  9  1  0  0  0  0
  2 12  1  0  0  0  0
  3  5  1  0  0  0  0
  4 12  2  0  0  0  0
  5  7  1  0  0  0  0
  6 12  2  0  0  0  0
  7  8  1  0  0  0  0
  7 10  1  0  0  0  0
  8  9  1  0  0  0  0
 10 11  1  0  0  0  0
 11 12  1  0  0  0  0
M  END
>  <CHROM.1>
-152.25748224,168.88229356,-140.50519834,50.86797505,11.93426445,17.48459921
-0.63355452,0.38687405,1.45539140

>  <Name>
ligand

>  <RI>
0

>  <Rbt.Current_Directory>
/home/itssahil/PROJECTS/Mol_Feturizer/New_Systems/rnas/2HO6

>  <Rbt.Executable>
rbdock ($Id: //depot/dev/client3/rdock/2013.1/src/exe/rbdock.cxx#4 $)

>  <Rbt.Library>
libRbt.so (2013.1, Build901 2013/11/27)

>  <Rbt.Parameter_File>
/export/apps/rDock/src/rDock_2013.1_src/data/scripts/dock_solv.prm

>  <Rbt.Receptor>
prm/pocket_docking_8.prm

>  <SCORE>
-12.4473

>  <SCORE.INTER>
-12.3609

>  <SCORE.INTER.CONST>
1

>  <SCORE.INTER.POLAR>
0

>  <SCORE.INTER.ROT>
3

>  <SCORE.INTER.SOLV>
6.84439

>  <SCORE.INTER.VDW>
-16.1221

>  <SCORE.INTER.norm>
-1.03008

>  <SCORE.INTRA>
-0.206514

>  <SCORE.INTRA.DIHEDRAL>
1.29213

>  <SCORE.INTRA.DIHEDRAL.0>
1.88407

>  <SCORE.INTRA.POLAR>
0

>  <SCORE.INTRA.POLAR.0>
0

>  <SCORE.INTRA.REPUL>
0

>  <SCORE.INTRA.REPUL.0>
0

>  <SCORE.INTRA.SOLV>
0.082849

>  <SCORE.INTRA.SOLV.lig_0>
-10.2714

>  <SCORE.INTRA.VDW>
-0.894004

>  <SCORE.INTRA.VDW.0>
0.416923

>  <SCORE.INTRA.norm>
-0.0172095

>  <SCORE.RESTR>
0.12012

>  <SCORE.RESTR.CAVITY>
0.12012

>  <SCORE.RESTR.norm>
0.01001

>  <SCORE.SYSTEM>
0

>  <SCORE.SYSTEM.CONST>
0

>  <SCORE.SYSTEM.DIHEDRAL>
0

>  <SCORE.SYSTEM.SOLV>
0

>  <SCORE.SYSTEM.norm>
0

>  <SCORE.heavy>
12

>  <SCORE.norm>
-1.03728

>  <RMSD>
6.122

$$$$
ligand
 OpenBabel11021811433D
libRbt.so/2013.1/901 2013/11/27
 12 12  0  0  0  0  0  0  0  0999 V2000
   44.9847   10.3143   12.1046 O   0  0  0  0  0  0  0  0  0  0  0  0
   43.9202   16.5240   12.8639 O   0  0  0  0  0  0  0  0  0  0  0  0
   44.1799    9.6825   13.1457 C   0  0  0  0  0  0  0  0  0  0  0  0
   43.9735   14.3805   11.6467 O   0  0  0  0  0  0  0  0  0  0  0  0
   43.7531   10.7139   14.2302 C   0  0  0  0  0  0  0  0  0  0  0  0
   42.4454   15.2940   12.4954 O   0  0  0  0  0  0  0  0  0  0  0  0
   44.2930   12.0679   13.8598 N   0  0  0  0  0  0  0  0  0  0  0  0
   45.7806   12.0171   13.7253 C   0  0  0  0  0  0  0  0  0  0  0  0
   46.1723   10.9310   12.6836 C   0  0  0  0  0  0  0  0  0  0  0  0
   43.9230   13.1164   14.8737 C   0  0  0  0  0  0  0  0  0  0  0  0
   42.9902   14.1868   14.2573 C   0  0  0  0  0  0  0  0  0  0  0  0
   43.8232   15.0865   12.9281 S   0  0  0  0  0  0  0  0  0  0  0  0
  1  3  1  0  0  0  0
  1  9  1  0  0  0  0
  2 12  1  0  0  0  0
  3  5  1  0  0  0  0
  4 12  2  0  0  0  0
  5  7  1  0  0  0  0
  6 12  2  0  0  0  0
  7  8  1  0  0  0  0
  7 10  1  0  0  0  0
  8  9  1  0  0  0  0
 10 11  1  0  0  0  0
 11 12  1  0  0  0  0
M  END
>  <CHROM.1>
-115.27985287,-63.23704042,-127.00313135,44.13838645,13.11796098,13.16713363
-1.06711275,0.96252997,-0.49298494

>  <Name>
ligand

>  <RI>
0

>  <Rbt.Current_Directory>
/home/itssahil/PROJECTS/Mol_Feturizer/New_Systems/rnas/2HO6

>  <Rbt.Executable>
rbdock ($Id: //depot/dev/client3/rdock/2013.1/src/exe/rbdock.cxx#4 $)

>  <Rbt.Library>
libRbt.so (2013.1, Build901 2013/11/27)

>  <Rbt.Parameter_File>
/export/apps/rDock/src/rDock_2013.1_src/data/scripts/dock_solv.prm

>  <Rbt.Receptor>
prm/pocket_docking_6.prm

>  <SCORE>
-10.5689

>  <SCORE.INTER>
-10.167

>  <SCORE.INTER.CONST>
1

>  <SCORE.INTER.POLAR>
0

>  <SCORE.INTER.ROT>
3

>  <SCORE.INTER.SOLV>
7.61955

>  <SCORE.INTER.VDW>
-14.9178

>  <SCORE.INTER.norm>
-0.847248

>  <SCORE.INTRA>
-0.401882

>  <SCORE.INTRA.DIHEDRAL>
2.32091

>  <SCORE.INTRA.DIHEDRAL.0>
1.88407

>  <SCORE.INTRA.POLAR>
0

>  <SCORE.INTRA.POLAR.0>
0

>  <SCORE.INTRA.REPUL>
0

>  <SCORE.INTRA.REPUL.0>
0

>  <SCORE.INTRA.SOLV>
0.78385

>  <SCORE.INTRA.SOLV.lig_0>
-10.2714

>  <SCORE.INTRA.VDW>
-1.95426

>  <SCORE.INTRA.VDW.0>
0.416923

>  <SCORE.INTRA.norm>
-0.0334901

>  <SCORE.RESTR>
0

>  <SCORE.RESTR.CAVITY>
0

>  <SCORE.RESTR.norm>
0

>  <SCORE.SYSTEM>
0

>  <SCORE.SYSTEM.CONST>
0

>  <SCORE.SYSTEM.DIHEDRAL>
0

>  <SCORE.SYSTEM.SOLV>
0

>  <SCORE.SYSTEM.norm>
0

>  <SCORE.heavy>
12

>  <SCORE.norm>
-0.880738

>  <RMSD>
6.128

$$$$
ligand
 OpenBabel11021811433D
libRbt.so/2013.1/901 2013/11/27
 12 12  0  0  0  0  0  0  0  0999 V2000
   43.1323   10.2314   14.2688 O   0  0  0  0  0  0  0  0  0  0  0  0
   45.7582   11.7102   10.1057 O   0  0  0  0  0  0  0  0  0  0  0  0
   43.6058   11.0347   15.3918 C   0  0  0  0  0  0  0  0  0  0  0  0
   43.9238   12.9440    9.0139 O   0  0  0  0  0  0  0  0  0  0  0  0
   44.4245   12.2630   14.8989 C   0  0  0  0  0  0  0  0  0  0  0  0
   45.6596   13.6136    9.6685 O   0  0  0  0  0  0  0  0  0  0  0  0
   44.4632   12.2563   13.3954 N   0  0  0  0  0  0  0  0  0  0  0  0
   45.0588   10.9802   12.8950 C   0  0  0  0  0  0  0  0  0  0  0  0
   44.2564    9.7742   13.4606 C   0  0  0  0  0  0  0  0  0  0  0  0
   45.2491   13.4173   12.8488 C   0  0  0  0  0  0  0  0  0  0  0  0
   44.6311   13.9400   11.5294 C   0  0  0  0  0  0  0  0  0  0  0  0
   44.6960   12.6770   10.2368 S   0  0  0  0  0  0  0  0  0  0  0  0
  1  3  1  0  0  0  0
  1  9  1  0  0  0  0
  2 12  1  0  0  0  0
  3  5  1  0  0  0  0
  4 12  2  0  0  0  0
  5  7  1  0  0  0  0
  6 12  2  0  0  0  0
  7  8  1  0  0  0  0
  7 10  1  0  0  0  0
  8  9  1  0  0  0  0
 10 11  1  0  0  0  0
 11 12  1  0  0  0  0
M  END
>  <CHROM.1>
-144.63321399,-63.34405150,-33.65428364,44.58503823,12.12869174,12.05414491
2.43820355,1.31459425,1.13472246

>  <Name>
ligand

>  <RI>
0

>  <Rbt.Current_Directory>
/home/itssahil/PROJECTS/Mol_Feturizer/New_Systems/rnas/2HO6

>  <Rbt.Executable>
rbdock ($Id: //depot/dev/client3/rdock/2013.1/src/exe/rbdock.cxx#4 $)

>  <Rbt.Library>
libRbt.so (2013.1, Build901 2013/11/27)

>  <Rbt.Parameter_File>
/export/apps/rDock/src/rDock_2013.1_src/data/scripts/dock_solv.prm

>  <Rbt.Receptor>
prm/pocket_docking_4.prm

>  <SCORE>
-7.82732

>  <SCORE.INTER>
-7.26503

>  <SCORE.INTER.CONST>
1

>  <SCORE.INTER.POLAR>
0

>  <SCORE.INTER.ROT>
3

>  <SCORE.INTER.SOLV>
8.85349

>  <SCORE.INTER.VDW>
-13.3945

>  <SCORE.INTER.norm>
-0.605419

>  <SCORE.INTRA>
-0.563697

>  <SCORE.INTRA.DIHEDRAL>
1.33699

>  <SCORE.INTRA.DIHEDRAL.0>
1.88407

>  <SCORE.INTRA.POLAR>
0

>  <SCORE.INTRA.POLAR.0>
0

>  <SCORE.INTRA.REPUL>
0

>  <SCORE.INTRA.REPUL.0>
0

>  <SCORE.INTRA.SOLV>
0.116091

>  <SCORE.INTRA.SOLV.lig_0>
-10.2714

>  <SCORE.INTRA.VDW>
-1.29024

>  <SCORE.INTRA.VDW.0>
0.416923

>  <SCORE.INTRA.norm>
-0.0469748

>  <SCORE.RESTR>
0.00140741

>  <SCORE.RESTR.CAVITY>
0.00140741

>  <SCORE.RESTR.norm>
0.000117284

>  <SCORE.SYSTEM>
0

>  <SCORE.SYSTEM.CONST>
0

>  <SCORE.SYSTEM.DIHEDRAL>
0

>  <SCORE.SYSTEM.SOLV>
0

>  <SCORE.SYSTEM.norm>
0

>  <SCORE.heavy>
12

>  <SCORE.norm>
-0.652277

>  <RMSD>
6.129

$$$$
ligand
 OpenBabel11021811433D
libRbt.so/2013.1/901 2013/11/27
 12 12  0  0  0  0  0  0  0  0999 V2000
   53.2397   15.4799   16.4509 O   0  0  0  0  0  0  0  0  0  0  0  0
   49.3343   12.5480   17.9150 O   0  0  0  0  0  0  0  0  0  0  0  0
   52.8484   15.0860   15.1010 C   0  0  0  0  0  0  0  0  0  0  0  0
   49.1984   10.1124   18.2737 O   0  0  0  0  0  0  0  0  0  0  0  0
   52.5072   13.5690   15.0345 C   0  0  0  0  0  0  0  0  0  0  0  0
   50.2662   11.4573   19.2438 O   0  0  0  0  0  0  0  0  0  0  0  0
   52.6704   12.9683   16.4036 N   0  0  0  0  0  0  0  0  0  0  0  0
   54.0621   13.1825   16.9044 C   0  0  0  0  0  0  0  0  0  0  0  0
   54.3908   14.7024   16.8942 C   0  0  0  0  0  0  0  0  0  0  0  0
   52.3629   11.4953   16.4107 C   0  0  0  0  0  0  0  0  0  0  0  0
   51.7853   11.0506   17.7762 C   0  0  0  0  0  0  0  0  0  0  0  0
   49.9906   11.2670   17.8237 S   0  0  0  0  0  0  0  0  0  0  0  0
  1  3  1  0  0  0  0
  1  9  1  0  0  0  0
  2 12  1  0  0  0  0
  3  5  1  0  0  0  0
  4 12  2  0  0  0  0
  5  7  1  0  0  0  0
  6 12  2  0  0  0  0
  7  8  1  0  0  0  0
  7 10  1  0  0  0  0
  8  9  1  0  0  0  0
 10 11  1  0  0  0  0
 11 12  1  0  0  0  0
M  END
>  <CHROM.1>
-149.12471428,87.09808980,-72.65912711,51.65576720,12.59216971,17.13272162
0.82764992,0.16608466,-0.41030629

>  <Name>
ligand

>  <RI>
0

>  <Rbt.Current_Directory>
/home/itssahil/PROJECTS/Mol_Feturizer/New_Systems/rnas/2HO6

>  <Rbt.Executable>
rbdock ($Id: //depot/dev/client3/rdock/2013.1/src/exe/rbdock.cxx#4 $)

>  <Rbt.Library>
libRbt.so (2013.1, Build901 2013/11/27)

>  <Rbt.Parameter_File>
/export/apps/rDock/src/rDock_2013.1_src/data/scripts/dock_solv.prm

>  <Rbt.Receptor>
prm/pocket_docking_8.prm

>  <SCORE>
-11.9086

>  <SCORE.INTER>
-12.4627

>  <SCORE.INTER.CONST>
1

>  <SCORE.INTER.POLAR>
0

>  <SCORE.INTER.ROT>
3

>  <SCORE.INTER.SOLV>
7.08316

>  <SCORE.INTER.VDW>
-16.2695

>  <SCORE.INTER.norm>
-1.03856

>  <SCORE.INTRA>
0.535341

>  <SCORE.INTRA.DIHEDRAL>
3.46623

>  <SCORE.INTRA.DIHEDRAL.0>
1.88407

>  <SCORE.INTRA.POLAR>
0

>  <SCORE.INTRA.POLAR.0>
0

>  <SCORE.INTRA.REPUL>
0

>  <SCORE.INTRA.REPUL.0>
0

>  <SCORE.INTRA.SOLV>
0.171298

>  <SCORE.INTRA.SOLV.lig_0>
-10.2714

>  <SCORE.INTRA.VDW>
-1.28342

>  <SCORE.INTRA.VDW.0>
0.416923

>  <SCORE.INTRA.norm>
0.0446117

>  <SCORE.RESTR>
0.0187136

>  <SCORE.RESTR.CAVITY>
0.0187136

>  <SCORE.RESTR.norm>
0.00155946

>  <SCORE.SYSTEM>
0

>  <SCORE.SYSTEM.CONST>
0

>  <SCORE.SYSTEM.DIHEDRAL>
0

>  <SCORE.SYSTEM.SOLV>
0

>  <SCORE.SYSTEM.norm>
0

>  <SCORE.heavy>
12

>  <SCORE.norm>
-0.992384

>  <RMSD>
6.131

$$$$
ligand
 OpenBabel11021811433D
libRbt.so/2013.1/901 2013/11/27
 12 12  0  0  0  0  0  0  0  0999 V2000
   55.3778   14.2226   15.2902 O   0  0  0  0  0  0  0  0  0  0  0  0
   49.0518   12.3516   18.5180 O   0  0  0  0  0  0  0  0  0  0  0  0
   54.8582   15.2077   16.2338 C   0  0  0  0  0  0  0  0  0  0  0  0
   49.6715   10.0171   18.0226 O   0  0  0  0  0  0  0  0  0  0  0  0
   53.4149   14.8441   16.6886 C   0  0  0  0  0  0  0  0  0  0  0  0
   50.6149   11.3487   19.1303 O   0  0  0  0  0  0  0  0  0  0  0  0
   52.9978   13.5624   16.0214 N   0  0  0  0  0  0  0  0  0  0  0  0
   53.0719   13.7004   14.5351 C   0  0  0  0  0  0  0  0  0  0  0  0
   54.5090   14.1286   14.1230 C   0  0  0  0  0  0  0  0  0  0  0  0
   51.6032   13.1542   16.4118 C   0  0  0  0  0  0  0  0  0  0  0  0
   51.6193   11.8918   17.3073 C   0  0  0  0  0  0  0  0  0  0  0  0
   49.9477   11.4497   17.8367 S   0  0  0  0  0  0  0  0  0  0  0  0
  1  3  1  0  0  0  0
  1  9  1  0  0  0  0
  2 12  1  0  0  0  0
  3  5  1  0  0  0  0
  4 12  2  0  0  0  0
  5  7  1  0  0  0  0
  6 12  2  0  0  0  0
  7  8  1  0  0  0  0
  7 10  1  0  0  0  0
  8  9  1  0  0  0  0
 10 11  1  0  0  0  0
 11 12  1  0  0  0  0
M  END
>  <CHROM.1>
-110.32833079,177.37767035,-54.95323604,51.97373242,12.80602998,16.82758352
0.15363949,-0.74287565,-2.09884300

>  <Name>
ligand

>  <RI>
0

>  <Rbt.Current_Directory>
/home/itssahil/PROJECTS/Mol_Feturizer/New_Systems/rnas/2HO6

>  <Rbt.Executable>
rbdock ($Id: //depot/dev/client3/rdock/2013.1/src/exe/rbdock.cxx#4 $)

>  <Rbt.Library>
libRbt.so (2013.1, Build901 2013/11/27)

>  <Rbt.Parameter_File>
/export/apps/rDock/src/rDock_2013.1_src/data/scripts/dock_solv.prm

>  <Rbt.Receptor>
prm/pocket_docking_8.prm

>  <SCORE>
-9.98875

>  <SCORE.INTER>
-9.86132

>  <SCORE.INTER.CONST>
1

>  <SCORE.INTER.POLAR>
0

>  <SCORE.INTER.ROT>
3

>  <SCORE.INTER.SOLV>
6.52425

>  <SCORE.INTER.VDW>
-14.349

>  <SCORE.INTER.norm>
-0.821777

>  <SCORE.INTRA>
-0.127426

>  <SCORE.INTRA.DIHEDRAL>
2.19192

>  <SCORE.INTRA.DIHEDRAL.0>
1.88407

>  <SCORE.INTRA.POLAR>
0

>  <SCORE.INTRA.POLAR.0>
0

>  <SCORE.INTRA.REPUL>
0

>  <SCORE.INTRA.REPUL.0>
0

>  <SCORE.INTRA.SOLV>
-0.0654393

>  <SCORE.INTRA.SOLV.lig_0>
-10.2714

>  <SCORE.INTRA.VDW>
-1.19066

>  <SCORE.INTRA.VDW.0>
0.416923

>  <SCORE.INTRA.norm>
-0.0106188

>  <SCORE.RESTR>
0

>  <SCORE.RESTR.CAVITY>
0

>  <SCORE.RESTR.norm>
0

>  <SCORE.SYSTEM>
0

>  <SCORE.SYSTEM.CONST>
0

>  <SCORE.SYSTEM.DIHEDRAL>
0

>  <SCORE.SYSTEM.SOLV>
0

>  <SCORE.SYSTEM.norm>
0

>  <SCORE.heavy>
12

>  <SCORE.norm>
-0.832395

>  <RMSD>
6.135

$$$$
ligand
 OpenBabel11021811433D
libRbt.so/2013.1/901 2013/11/27
 12 12  0  0  0  0  0  0  0  0999 V2000
   44.9706   10.2670   12.1103 O   0  0  0  0  0  0  0  0  0  0  0  0
   43.9166   16.5148   12.8343 O   0  0  0  0  0  0  0  0  0  0  0  0
   44.1676    9.6632   13.1692 C   0  0  0  0  0  0  0  0  0  0  0  0
   43.8402   14.4032   11.5636 O   0  0  0  0  0  0  0  0  0  0  0  0
   43.7580   10.7195   14.2361 C   0  0  0  0  0  0  0  0  0  0  0  0
   42.3868   15.3401   12.5123 O   0  0  0  0  0  0  0  0  0  0  0  0
   44.3074   12.0610   13.8355 N   0  0  0  0  0  0  0  0  0  0  0  0
   45.7935   11.9938   13.6917 C   0  0  0  0  0  0  0  0  0  0  0  0
   46.1678   10.8840   12.6688 C   0  0  0  0  0  0  0  0  0  0  0  0
   43.9542   13.1325   14.8312 C   0  0  0  0  0  0  0  0  0  0  0  0
   42.9854   14.1710   14.2160 C   0  0  0  0  0  0  0  0  0  0  0  0
   43.7777   15.0796   12.8680 S   0  0  0  0  0  0  0  0  0  0  0  0
  1  3  1  0  0  0  0
  1  9  1  0  0  0  0
  2 12  1  0  0  0  0
  3  5  1  0  0  0  0
  4 12  2  0  0  0  0
  5  7  1  0  0  0  0
  6 12  2  0  0  0  0
  7  8  1  0  0  0  0
  7 10  1  0  0  0  0
  8  9  1  0  0  0  0
 10 11  1  0  0  0  0
 11 12  1  0  0  0  0
M  END
>  <CHROM.1>
-113.19883078,-64.96320086,-122.50879388,44.11663310,13.11128873,13.14061216
-1.04092319,0.97471818,-0.52871392

>  <Name>
ligand

>  <RI>
0

>  <Rbt.Current_Directory>
/home/itssahil/PROJECTS/Mol_Feturizer/New_Systems/rnas/2HO6

>  <Rbt.Executable>
rbdock ($Id: //depot/dev/client3/rdock/2013.1/src/exe/rbdock.cxx#4 $)

>  <Rbt.Library>
libRbt.so (2013.1, Build901 2013/11/27)

>  <Rbt.Parameter_File>
/export/apps/rDock/src/rDock_2013.1_src/data/scripts/dock_solv.prm

>  <Rbt.Receptor>
prm/pocket_docking_6.prm

>  <SCORE>
-10.5685

>  <SCORE.INTER>
-10.1934

>  <SCORE.INTER.CONST>
1

>  <SCORE.INTER.POLAR>
0

>  <SCORE.INTER.ROT>
3

>  <SCORE.INTER.SOLV>
7.62959

>  <SCORE.INTER.VDW>
-14.9388

>  <SCORE.INTER.norm>
-0.849453

>  <SCORE.INTRA>
-0.375019

>  <SCORE.INTRA.DIHEDRAL>
2.36138

>  <SCORE.INTRA.DIHEDRAL.0>
1.88407

>  <SCORE.INTRA.POLAR>
0

>  <SCORE.INTRA.POLAR.0>
0

>  <SCORE.INTRA.REPUL>
0

>  <SCORE.INTRA.REPUL.0>
0

>  <SCORE.INTRA.SOLV>
0.693749

>  <SCORE.INTRA.SOLV.lig_0>
-10.2714

>  <SCORE.INTRA.VDW>
-1.90258

>  <SCORE.INTRA.VDW.0>
0.416923

>  <SCORE.INTRA.norm>
-0.0312516

>  <SCORE.RESTR>
0

>  <SCORE.RESTR.CAVITY>
0

>  <SCORE.RESTR.norm>
0

>  <SCORE.SYSTEM>
0

>  <SCORE.SYSTEM.CONST>
0

>  <SCORE.SYSTEM.DIHEDRAL>
0

>  <SCORE.SYSTEM.SOLV>
0

>  <SCORE.SYSTEM.norm>
0

>  <SCORE.heavy>
12

>  <SCORE.norm>
-0.880704

>  <RMSD>
6.140

$$$$
ligand
 OpenBabel11021811433D
libRbt.so/2013.1/901 2013/11/27
 12 12  0  0  0  0  0  0  0  0999 V2000
   53.4790   13.6782   15.1777 O   0  0  0  0  0  0  0  0  0  0  0  0
   47.3878   11.8326   19.3106 O   0  0  0  0  0  0  0  0  0  0  0  0
   52.8500   12.6871   14.3101 C   0  0  0  0  0  0  0  0  0  0  0  0
   49.0046    9.9933   19.5967 O   0  0  0  0  0  0  0  0  0  0  0  0
   51.8780   11.7737   15.1120 C   0  0  0  0  0  0  0  0  0  0  0  0
   49.1296   11.8673   20.1987 O   0  0  0  0  0  0  0  0  0  0  0  0
   51.8707   12.2086   16.5517 N   0  0  0  0  0  0  0  0  0  0  0  0
   53.2514   12.1510   17.1208 C   0  0  0  0  0  0  0  0  0  0  0  0
   54.2074   13.0211   16.2563 C   0  0  0  0  0  0  0  0  0  0  0  0
   50.9538   11.3595   17.3900 C   0  0  0  0  0  0  0  0  0  0  0  0
   50.0448   12.2342   18.2869 C   0  0  0  0  0  0  0  0  0  0  0  0
   48.6662   11.2703   18.9506 S   0  0  0  0  0  0  0  0  0  0  0  0
  1  3  1  0  0  0  0
  1  9  1  0  0  0  0
  2 12  1  0  0  0  0
  3  5  1  0  0  0  0
  4 12  2  0  0  0  0
  5  7  1  0  0  0  0
  6 12  2  0  0  0  0
  7  8  1  0  0  0  0
  7 10  1  0  0  0  0
  8  9  1  0  0  0  0
 10 11  1  0  0  0  0
 11 12  1  0  0  0  0
M  END
>  <CHROM.1>
-132.64594601,164.84479655,-152.25277715,50.78468306,11.93139642,17.55278341
0.69675177,-0.24577025,-1.48591989

>  <Name>
ligand

>  <RI>
0

>  <Rbt.Current_Directory>
/home/itssahil/PROJECTS/Mol_Feturizer/New_Systems/rnas/2HO6

>  <Rbt.Executable>
rbdock ($Id: //depot/dev/client3/rdock/2013.1/src/exe/rbdock.cxx#4 $)

>  <Rbt.Library>
libRbt.so (2013.1, Build901 2013/11/27)

>  <Rbt.Parameter_File>
/export/apps/rDock/src/rDock_2013.1_src/data/scripts/dock_solv.prm

>  <Rbt.Receptor>
prm/pocket_docking_8.prm

>  <SCORE>
-11.6626

>  <SCORE.INTER>
-12.0116

>  <SCORE.INTER.CONST>
1

>  <SCORE.INTER.POLAR>
0

>  <SCORE.INTER.ROT>
3

>  <SCORE.INTER.SOLV>
6.79149

>  <SCORE.INTER.VDW>
-15.8716

>  <SCORE.INTER.norm>
-1.00097

>  <SCORE.INTRA>
0.319393

>  <SCORE.INTRA.DIHEDRAL>
2.75802

>  <SCORE.INTRA.DIHEDRAL.0>
1.88407

>  <SCORE.INTRA.POLAR>
0

>  <SCORE.INTRA.POLAR.0>
0

>  <SCORE.INTRA.REPUL>
0

>  <SCORE.INTRA.REPUL.0>
0

>  <SCORE.INTRA.SOLV>
0.11139

>  <SCORE.INTRA.SOLV.lig_0>
-10.2714

>  <SCORE.INTRA.VDW>
-1.11531

>  <SCORE.INTRA.VDW.0>
0.416923

>  <SCORE.INTRA.norm>
0.0266161

>  <SCORE.RESTR>
0.0296005

>  <SCORE.RESTR.CAVITY>
0.0296005

>  <SCORE.RESTR.norm>
0.00246671

>  <SCORE.SYSTEM>
0

>  <SCORE.SYSTEM.CONST>
0

>  <SCORE.SYSTEM.DIHEDRAL>
0

>  <SCORE.SYSTEM.SOLV>
0

>  <SCORE.SYSTEM.norm>
0

>  <SCORE.heavy>
12

>  <SCORE.norm>
-0.971887

>  <RMSD>
6.142

$$$$
ligand
 OpenBabel11021811433D
libRbt.so/2013.1/901 2013/11/27
 12 12  0  0  0  0  0  0  0  0999 V2000
   53.4661   13.7862   14.5970 O   0  0  0  0  0  0  0  0  0  0  0  0
   48.9094    9.8570   19.1145 O   0  0  0  0  0  0  0  0  0  0  0  0
   53.0554   12.5090   14.0218 C   0  0  0  0  0  0  0  0  0  0  0  0
   49.3463   11.8648   20.4773 O   0  0  0  0  0  0  0  0  0  0  0  0
   52.3901   11.5975   15.0936 C   0  0  0  0  0  0  0  0  0  0  0  0
   48.3931   11.7090   18.7577 O   0  0  0  0  0  0  0  0  0  0  0  0
   52.3575   12.3279   16.4078 N   0  0  0  0  0  0  0  0  0  0  0  0
   53.7394   12.7193   16.8212 C   0  0  0  0  0  0  0  0  0  0  0  0
   54.3964   13.5722   15.6990 C   0  0  0  0  0  0  0  0  0  0  0  0
   51.7316   11.4982   17.4959 C   0  0  0  0  0  0  0  0  0  0  0  0
   50.3231   12.0254   17.8619 C   0  0  0  0  0  0  0  0  0  0  0  0
   49.6247   11.1020   19.2511 S   0  0  0  0  0  0  0  0  0  0  0  0
  1  3  1  0  0  0  0
  1  9  1  0  0  0  0
  2 12  1  0  0  0  0
  3  5  1  0  0  0  0
  4 12  2  0  0  0  0
  5  7  1  0  0  0  0
  6 12  2  0  0  0  0
  7  8  1  0  0  0  0
  7 10  1  0  0  0  0
  8  9  1  0  0  0  0
 10 11  1  0  0  0  0
 11 12  1  0  0  0  0
M  END
>  <CHROM.1>
-107.27347544,-175.84404687,-85.09846399,51.24674775,11.94970105,17.37477248
-0.60706607,0.59258313,1.30315377

>  <Name>
ligand

>  <RI>
0

>  <Rbt.Current_Directory>
/home/itssahil/PROJECTS/Mol_Feturizer/New_Systems/rnas/2HO6

>  <Rbt.Executable>
rbdock ($Id: //depot/dev/client3/rdock/2013.1/src/exe/rbdock.cxx#4 $)

>  <Rbt.Library>
libRbt.so (2013.1, Build901 2013/11/27)

>  <Rbt.Parameter_File>
/export/apps/rDock/src/rDock_2013.1_src/data/scripts/dock_solv.prm

>  <Rbt.Receptor>
prm/blind_docking_100.prm

>  <SCORE>
-12.6464

>  <SCORE.INTER>
-12.6049

>  <SCORE.INTER.CONST>
1

>  <SCORE.INTER.POLAR>
0

>  <SCORE.INTER.ROT>
3

>  <SCORE.INTER.SOLV>
5.93353

>  <SCORE.INTER.VDW>
-15.9811

>  <SCORE.INTER.norm>
-1.05041

>  <SCORE.INTRA>
-0.041468

>  <SCORE.INTRA.DIHEDRAL>
2.23726

>  <SCORE.INTRA.DIHEDRAL.0>
1.88407

>  <SCORE.INTRA.POLAR>
0

>  <SCORE.INTRA.POLAR.0>
0

>  <SCORE.INTRA.REPUL>
0

>  <SCORE.INTRA.REPUL.0>
0

>  <SCORE.INTRA.SOLV>
-0.0369698

>  <SCORE.INTRA.SOLV.lig_0>
-10.2714

>  <SCORE.INTRA.VDW>
-1.14161

>  <SCORE.INTRA.VDW.0>
0.416923

>  <SCORE.INTRA.norm>
-0.00345567

>  <SCORE.RESTR>
0

>  <SCORE.RESTR.CAVITY>
0

>  <SCORE.RESTR.norm>
0

>  <SCORE.SYSTEM>
0

>  <SCORE.SYSTEM.CONST>
0

>  <SCORE.SYSTEM.DIHEDRAL>
0

>  <SCORE.SYSTEM.SOLV>
0

>  <SCORE.SYSTEM.norm>
0

>  <SCORE.heavy>
12

>  <SCORE.norm>
-1.05387

>  <RMSD>
6.146

$$$$
ligand
 OpenBabel11021811433D
libRbt.so/2013.1/901 2013/11/27
 12 12  0  0  0  0  0  0  0  0999 V2000
   44.1576   16.9779   11.9608 O   0  0  0  0  0  0  0  0  0  0  0  0
   44.5060   10.0280   15.0518 O   0  0  0  0  0  0  0  0  0  0  0  0
   42.8560   17.2416   12.5667 C   0  0  0  0  0  0  0  0  0  0  0  0
   42.2811   11.0565   15.3188 O   0  0  0  0  0  0  0  0  0  0  0  0
   42.3908   16.0430   13.4437 C   0  0  0  0  0  0  0  0  0  0  0  0
   43.4379   10.9856   13.7229 O   0  0  0  0  0  0  0  0  0  0  0  0
   43.4466   14.9725   13.4124 N   0  0  0  0  0  0  0  0  0  0  0  0
   43.7068   14.5378   12.0064 C   0  0  0  0  0  0  0  0  0  0  0  0
   44.1040   15.7704   11.1455 C   0  0  0  0  0  0  0  0  0  0  0  0
   43.0570   13.7754   14.2367 C   0  0  0  0  0  0  0  0  0  0  0  0
   44.2634   12.8311   14.4576 C   0  0  0  0  0  0  0  0  0  0  0  0
   43.7281   11.2400   15.1300 S   0  0  0  0  0  0  0  0  0  0  0  0
  1  3  1  0  0  0  0
  1  9  1  0  0  0  0
  2 12  1  0  0  0  0
  3  5  1  0  0  0  0
  4 12  2  0  0  0  0
  5  7  1  0  0  0  0
  6 12  2  0  0  0  0
  7  8  1  0  0  0  0
  7 10  1  0  0  0  0
  8  9  1  0  0  0  0
 10 11  1  0  0  0  0
 11 12  1  0  0  0  0
M  END
>  <CHROM.1>
-167.20918274,-167.77648869,159.46433203,43.52038334,13.48957997,13.70493976
-1.60428812,-0.80377425,2.66122506

>  <Name>
ligand

>  <RI>
0

>  <Rbt.Current_Directory>
/home/itssahil/PROJECTS/Mol_Feturizer/New_Systems/rnas/2HO6

>  <Rbt.Executable>
rbdock ($Id: //depot/dev/client3/rdock/2013.1/src/exe/rbdock.cxx#4 $)

>  <Rbt.Library>
libRbt.so (2013.1, Build901 2013/11/27)

>  <Rbt.Parameter_File>
/export/apps/rDock/src/rDock_2013.1_src/data/scripts/dock_solv.prm

>  <Rbt.Receptor>
prm/pocket_docking_6.prm

>  <SCORE>
-8.17359

>  <SCORE.INTER>
-8.72584

>  <SCORE.INTER.CONST>
1

>  <SCORE.INTER.POLAR>
0

>  <SCORE.INTER.ROT>
3

>  <SCORE.INTER.SOLV>
5.92837

>  <SCORE.INTER.VDW>
-13.3934

>  <SCORE.INTER.norm>
-0.727154

>  <SCORE.INTRA>
0.552256

>  <SCORE.INTRA.DIHEDRAL>
0.733498

>  <SCORE.INTRA.DIHEDRAL.0>
1.88407

>  <SCORE.INTRA.POLAR>
0

>  <SCORE.INTRA.POLAR.0>
0

>  <SCORE.INTRA.REPUL>
0

>  <SCORE.INTRA.REPUL.0>
0

>  <SCORE.INTRA.SOLV>
0.365307

>  <SCORE.INTRA.SOLV.lig_0>
-10.2714

>  <SCORE.INTRA.VDW>
0.00285347

>  <SCORE.INTRA.VDW.0>
0.416923

>  <SCORE.INTRA.norm>
0.0460213

>  <SCORE.RESTR>
0

>  <SCORE.RESTR.CAVITY>
0

>  <SCORE.RESTR.norm>
0

>  <SCORE.SYSTEM>
0

>  <SCORE.SYSTEM.CONST>
0

>  <SCORE.SYSTEM.DIHEDRAL>
0

>  <SCORE.SYSTEM.SOLV>
0

>  <SCORE.SYSTEM.norm>
0

>  <SCORE.heavy>
12

>  <SCORE.norm>
-0.681132

>  <RMSD>
6.146

$$$$
ligand
 OpenBabel11021811433D
libRbt.so/2013.1/901 2013/11/27
 12 12  0  0  0  0  0  0  0  0999 V2000
   44.9571   10.2856   12.0635 O   0  0  0  0  0  0  0  0  0  0  0  0
   43.9621   16.4252   12.9537 O   0  0  0  0  0  0  0  0  0  0  0  0
   44.1609    9.6564   13.1127 C   0  0  0  0  0  0  0  0  0  0  0  0
   43.4817   14.4165   11.6070 O   0  0  0  0  0  0  0  0  0  0  0  0
   43.7768   10.6820   14.2185 C   0  0  0  0  0  0  0  0  0  0  0  0
   42.2854   15.4303   12.8033 O   0  0  0  0  0  0  0  0  0  0  0  0
   44.3361   12.0297   13.8542 N   0  0  0  0  0  0  0  0  0  0  0  0
   45.8193   11.9513   13.6888 C   0  0  0  0  0  0  0  0  0  0  0  0
   46.1682   10.8712   12.6258 C   0  0  0  0  0  0  0  0  0  0  0  0
   44.0076   13.0721   14.8885 C   0  0  0  0  0  0  0  0  0  0  0  0
   42.9897   14.1021   14.3418 C   0  0  0  0  0  0  0  0  0  0  0  0
   43.6766   15.0115   12.9378 S   0  0  0  0  0  0  0  0  0  0  0  0
  1  3  1  0  0  0  0
  1  9  1  0  0  0  0
  2 12  1  0  0  0  0
  3  5  1  0  0  0  0
  4 12  2  0  0  0  0
  5  7  1  0  0  0  0
  6 12  2  0  0  0  0
  7  8  1  0  0  0  0
  7 10  1  0  0  0  0
  8  9  1  0  0  0  0
 10 11  1  0  0  0  0
 11 12  1  0  0  0  0
M  END
>  <CHROM.1>
-110.45983423,-62.77317479,-114.20536388,44.07368732,13.08394378,13.19157731
-0.94261940,1.01947962,-0.59879325

>  <Name>
ligand

>  <RI>
0

>  <Rbt.Current_Directory>
/home/itssahil/PROJECTS/Mol_Feturizer/New_Systems/rnas/2HO6

>  <Rbt.Executable>
rbdock ($Id: //depot/dev/client3/rdock/2013.1/src/exe/rbdock.cxx#4 $)

>  <Rbt.Library>
libRbt.so (2013.1, Build901 2013/11/27)

>  <Rbt.Parameter_File>
/export/apps/rDock/src/rDock_2013.1_src/data/scripts/dock_solv.prm

>  <Rbt.Receptor>
prm/pocket_docking_6.prm

>  <SCORE>
-10.6225

>  <SCORE.INTER>
-10.1863

>  <SCORE.INTER.CONST>
1

>  <SCORE.INTER.POLAR>
0

>  <SCORE.INTER.ROT>
3

>  <SCORE.INTER.SOLV>
7.86605

>  <SCORE.INTER.VDW>
-15.0129

>  <SCORE.INTER.norm>
-0.848855

>  <SCORE.INTRA>
-0.436251

>  <SCORE.INTRA.DIHEDRAL>
2.26834

>  <SCORE.INTRA.DIHEDRAL.0>
1.88407

>  <SCORE.INTRA.POLAR>
0

>  <SCORE.INTRA.POLAR.0>
0

>  <SCORE.INTRA.REPUL>
0

>  <SCORE.INTRA.REPUL.0>
0

>  <SCORE.INTRA.SOLV>
0.587278

>  <SCORE.INTRA.SOLV.lig_0>
-10.2714

>  <SCORE.INTRA.VDW>
-1.86406

>  <SCORE.INTRA.VDW.0>
0.416923

>  <SCORE.INTRA.norm>
-0.0363543

>  <SCORE.RESTR>
0

>  <SCORE.RESTR.CAVITY>
0

>  <SCORE.RESTR.norm>
0

>  <SCORE.SYSTEM>
0

>  <SCORE.SYSTEM.CONST>
0

>  <SCORE.SYSTEM.DIHEDRAL>
0

>  <SCORE.SYSTEM.SOLV>
0

>  <SCORE.SYSTEM.norm>
0

>  <SCORE.heavy>
12

>  <SCORE.norm>
-0.885209

>  <RMSD>
6.147

$$$$
ligand
 OpenBabel11021811433D
libRbt.so/2013.1/901 2013/11/27
 12 12  0  0  0  0  0  0  0  0999 V2000
   44.9798   10.3135   12.0671 O   0  0  0  0  0  0  0  0  0  0  0  0
   44.0246   16.4460   12.9735 O   0  0  0  0  0  0  0  0  0  0  0  0
   44.1871    9.6739   13.1126 C   0  0  0  0  0  0  0  0  0  0  0  0
   43.4908   14.4849   11.5776 O   0  0  0  0  0  0  0  0  0  0  0  0
   43.7752   10.6965   14.2111 C   0  0  0  0  0  0  0  0  0  0  0  0
   42.3167   15.5128   12.7837 O   0  0  0  0  0  0  0  0  0  0  0  0
   44.3123   12.0530   13.8456 N   0  0  0  0  0  0  0  0  0  0  0  0
   45.7981   12.0014   13.6923 C   0  0  0  0  0  0  0  0  0  0  0  0
   46.1753   10.9237   12.6365 C   0  0  0  0  0  0  0  0  0  0  0  0
   43.9564   13.0932   14.8730 C   0  0  0  0  0  0  0  0  0  0  0  0
   42.9582   14.1279   14.2995 C   0  0  0  0  0  0  0  0  0  0  0  0
   43.6912   15.0437   12.9231 S   0  0  0  0  0  0  0  0  0  0  0  0
  1  3  1  0  0  0  0
  1  9  1  0  0  0  0
  2 12  1  0  0  0  0
  3  5  1  0  0  0  0
  4 12  2  0  0  0  0
  5  7  1  0  0  0  0
  6 12  2  0  0  0  0
  7  8  1  0  0  0  0
  7 10  1  0  0  0  0
  8  9  1  0  0  0  0
 10 11  1  0  0  0  0
 11 12  1  0  0  0  0
M  END
>  <CHROM.1>
-112.25996374,-62.97833682,-111.77747255,44.07952148,13.12048602,13.18271356
-0.98252017,0.99334967,-0.55830612

>  <Name>
ligand

>  <RI>
0

>  <Rbt.Current_Directory>
/home/itssahil/PROJECTS/Mol_Feturizer/New_Systems/rnas/2HO6

>  <Rbt.Executable>
rbdock ($Id: //depot/dev/client3/rdock/2013.1/src/exe/rbdock.cxx#4 $)

>  <Rbt.Library>
libRbt.so (2013.1, Build901 2013/11/27)

>  <Rbt.Parameter_File>
/export/apps/rDock/src/rDock_2013.1_src/data/scripts/dock_solv.prm

>  <Rbt.Receptor>
prm/pocket_docking_5.prm

>  <SCORE>
-10.6055

>  <SCORE.INTER>
-10.1864

>  <SCORE.INTER.CONST>
1

>  <SCORE.INTER.POLAR>
0

>  <SCORE.INTER.ROT>
3

>  <SCORE.INTER.SOLV>
7.7605

>  <SCORE.INTER.VDW>
-14.9778

>  <SCORE.INTER.norm>
-0.848871

>  <SCORE.INTRA>
-0.419058

>  <SCORE.INTRA.DIHEDRAL>
2.32324

>  <SCORE.INTRA.DIHEDRAL.0>
1.88407

>  <SCORE.INTRA.POLAR>
0

>  <SCORE.INTRA.POLAR.0>
0

>  <SCORE.INTRA.REPUL>
0

>  <SCORE.INTRA.REPUL.0>
0

>  <SCORE.INTRA.SOLV>
0.560052

>  <SCORE.INTRA.SOLV.lig_0>
-10.2714

>  <SCORE.INTRA.VDW>
-1.8607

>  <SCORE.INTRA.VDW.0>
0.416923

>  <SCORE.INTRA.norm>
-0.0349215

>  <SCORE.RESTR>
0

>  <SCORE.RESTR.CAVITY>
0

>  <SCORE.RESTR.norm>
0

>  <SCORE.SYSTEM>
0

>  <SCORE.SYSTEM.CONST>
0

>  <SCORE.SYSTEM.DIHEDRAL>
0

>  <SCORE.SYSTEM.SOLV>
0

>  <SCORE.SYSTEM.norm>
0

>  <SCORE.heavy>
12

>  <SCORE.norm>
-0.883792

>  <RMSD>
6.151

$$$$
ligand
 OpenBabel11021811433D
libRbt.so/2013.1/901 2013/11/27
 12 12  0  0  0  0  0  0  0  0999 V2000
   53.1721   15.6503   16.2326 O   0  0  0  0  0  0  0  0  0  0  0  0
   49.5271   12.3857   18.8701 O   0  0  0  0  0  0  0  0  0  0  0  0
   52.8613   15.0528   14.9376 C   0  0  0  0  0  0  0  0  0  0  0  0
   49.4882   11.1331   16.7467 O   0  0  0  0  0  0  0  0  0  0  0  0
   52.7153   13.5075   15.0517 C   0  0  0  0  0  0  0  0  0  0  0  0
   50.0718   10.5379   18.5342 O   0  0  0  0  0  0  0  0  0  0  0  0
   52.9246   13.0988   16.4839 N   0  0  0  0  0  0  0  0  0  0  0  0
   54.2677   13.5463   16.9628 C   0  0  0  0  0  0  0  0  0  0  0  0
   54.4025   15.0838   16.7721 C   0  0  0  0  0  0  0  0  0  0  0  0
   52.8048   11.6099   16.6660 C   0  0  0  0  0  0  0  0  0  0  0  0
   52.0098   11.2649   17.9485 C   0  0  0  0  0  0  0  0  0  0  0  0
   50.2830   11.7814   17.8007 S   0  0  0  0  0  0  0  0  0  0  0  0
  1  3  1  0  0  0  0
  1  9  1  0  0  0  0
  2 12  1  0  0  0  0
  3  5  1  0  0  0  0
  4 12  2  0  0  0  0
  5  7  1  0  0  0  0
  6 12  2  0  0  0  0
  7  8  1  0  0  0  0
  7 10  1  0  0  0  0
  8  9  1  0  0  0  0
 10 11  1  0  0  0  0
 11 12  1  0  0  0  0
M  END
>  <CHROM.1>
-138.03098568,66.54170092,-139.61523251,51.82031957,12.76623161,17.02690914
0.83120676,0.02237392,-0.51899409

>  <Name>
ligand

>  <RI>
0

>  <Rbt.Current_Directory>
/home/itssahil/PROJECTS/Mol_Feturizer/New_Systems/rnas/2HO6

>  <Rbt.Executable>
rbdock ($Id: //depot/dev/client3/rdock/2013.1/src/exe/rbdock.cxx#4 $)

>  <Rbt.Library>
libRbt.so (2013.1, Build901 2013/11/27)

>  <Rbt.Parameter_File>
/export/apps/rDock/src/rDock_2013.1_src/data/scripts/dock_solv.prm

>  <Rbt.Receptor>
prm/pocket_docking_7.prm

>  <SCORE>
-10.2875

>  <SCORE.INTER>
-9.87271

>  <SCORE.INTER.CONST>
1

>  <SCORE.INTER.POLAR>
0

>  <SCORE.INTER.ROT>
3

>  <SCORE.INTER.SOLV>
7.1701

>  <SCORE.INTER.VDW>
-14.5718

>  <SCORE.INTER.norm>
-0.822726

>  <SCORE.INTRA>
-0.414818

>  <SCORE.INTRA.DIHEDRAL>
1.85637

>  <SCORE.INTRA.DIHEDRAL.0>
1.88407

>  <SCORE.INTRA.POLAR>
0

>  <SCORE.INTRA.POLAR.0>
0

>  <SCORE.INTRA.REPUL>
0

>  <SCORE.INTRA.REPUL.0>
0

>  <SCORE.INTRA.SOLV>
0.396631

>  <SCORE.INTRA.SOLV.lig_0>
-10.2714

>  <SCORE.INTRA.VDW>
-1.54132

>  <SCORE.INTRA.VDW.0>
0.416923

>  <SCORE.INTRA.norm>
-0.0345682

>  <SCORE.RESTR>
0

>  <SCORE.RESTR.CAVITY>
0

>  <SCORE.RESTR.norm>
0

>  <SCORE.SYSTEM>
0

>  <SCORE.SYSTEM.CONST>
0

>  <SCORE.SYSTEM.DIHEDRAL>
0

>  <SCORE.SYSTEM.SOLV>
0

>  <SCORE.SYSTEM.norm>
0

>  <SCORE.heavy>
12

>  <SCORE.norm>
-0.857294

>  <RMSD>
6.151

$$$$
ligand
 OpenBabel11021811433D
libRbt.so/2013.1/901 2013/11/27
 12 12  0  0  0  0  0  0  0  0999 V2000
   53.6791   13.7377   14.8994 O   0  0  0  0  0  0  0  0  0  0  0  0
   48.5360   11.4366   20.1338 O   0  0  0  0  0  0  0  0  0  0  0  0
   53.3422   12.5923   14.0595 C   0  0  0  0  0  0  0  0  0  0  0  0
   49.1390    9.6584   18.5359 O   0  0  0  0  0  0  0  0  0  0  0  0
   52.3407   11.6427   14.7789 C   0  0  0  0  0  0  0  0  0  0  0  0
   50.3157   10.8009   19.6313 O   0  0  0  0  0  0  0  0  0  0  0  0
   52.0083   12.2122   16.1306 N   0  0  0  0  0  0  0  0  0  0  0  0
   53.2514   12.3922   16.9406 C   0  0  0  0  0  0  0  0  0  0  0  0
   54.2541   13.2908   16.1625 C   0  0  0  0  0  0  0  0  0  0  0  0
   51.0465   11.3369   16.8876 C   0  0  0  0  0  0  0  0  0  0  0  0
   50.2724   12.1479   17.9547 C   0  0  0  0  0  0  0  0  0  0  0  0
   49.1137   11.0932   18.8577 S   0  0  0  0  0  0  0  0  0  0  0  0
  1  3  1  0  0  0  0
  1  9  1  0  0  0  0
  2 12  1  0  0  0  0
  3  5  1  0  0  0  0
  4 12  2  0  0  0  0
  5  7  1  0  0  0  0
  6 12  2  0  0  0  0
  7  8  1  0  0  0  0
  7 10  1  0  0  0  0
  8  9  1  0  0  0  0
 10 11  1  0  0  0  0
 11 12  1  0  0  0  0
M  END
>  <CHROM.1>
-156.56828579,179.79589164,161.64626778,51.18379340,11.77197722,17.29562860
-0.53534021,0.64908724,1.23006882

>  <Name>
ligand

>  <RI>
0

>  <Rbt.Current_Directory>
/home/itssahil/PROJECTS/Mol_Feturizer/New_Systems/rnas/2HO6

>  <Rbt.Executable>
rbdock ($Id: //depot/dev/client3/rdock/2013.1/src/exe/rbdock.cxx#4 $)

>  <Rbt.Library>
libRbt.so (2013.1, Build901 2013/11/27)

>  <Rbt.Parameter_File>
/export/apps/rDock/src/rDock_2013.1_src/data/scripts/dock_solv.prm

>  <Rbt.Receptor>
prm/pocket_docking_8.prm

>  <SCORE>
-11.9511

>  <SCORE.INTER>
-12.0689

>  <SCORE.INTER.CONST>
1

>  <SCORE.INTER.POLAR>
0

>  <SCORE.INTER.ROT>
3

>  <SCORE.INTER.SOLV>
6.60599

>  <SCORE.INTER.VDW>
-15.8479

>  <SCORE.INTER.norm>
-1.00574

>  <SCORE.INTRA>
0.0865124

>  <SCORE.INTRA.DIHEDRAL>
0.689529

>  <SCORE.INTRA.DIHEDRAL.0>
1.88407

>  <SCORE.INTRA.POLAR>
0

>  <SCORE.INTRA.POLAR.0>
0

>  <SCORE.INTRA.REPUL>
0

>  <SCORE.INTRA.REPUL.0>
0

>  <SCORE.INTRA.SOLV>
0.282934

>  <SCORE.INTRA.SOLV.lig_0>
-10.2714

>  <SCORE.INTRA.VDW>
-0.399719

>  <SCORE.INTRA.VDW.0>
0.416923

>  <SCORE.INTRA.norm>
0.00720937

>  <SCORE.RESTR>
0.0313484

>  <SCORE.RESTR.CAVITY>
0.0313484

>  <SCORE.RESTR.norm>
0.00261237

>  <SCORE.SYSTEM>
0

>  <SCORE.SYSTEM.CONST>
0

>  <SCORE.SYSTEM.DIHEDRAL>
0

>  <SCORE.SYSTEM.SOLV>
0

>  <SCORE.SYSTEM.norm>
0

>  <SCORE.heavy>
12

>  <SCORE.norm>
-0.995922

>  <RMSD>
6.163

$$$$
ligand
 OpenBabel11021811433D
libRbt.so/2013.1/901 2013/11/27
 12 12  0  0  0  0  0  0  0  0999 V2000
   44.7805   12.6327   14.8757 O   0  0  0  0  0  0  0  0  0  0  0  0
   46.3940   14.4527    7.6638 O   0  0  0  0  0  0  0  0  0  0  0  0
   44.6617   11.2754   14.3520 C   0  0  0  0  0  0  0  0  0  0  0  0
   43.9354   14.4266    7.8469 O   0  0  0  0  0  0  0  0  0  0  0  0
   44.6109   11.2753   12.7965 C   0  0  0  0  0  0  0  0  0  0  0  0
   45.2396   15.6015    8.7462 O   0  0  0  0  0  0  0  0  0  0  0  0
   44.7188   12.6913   12.3013 N   0  0  0  0  0  0  0  0  0  0  0  0
   43.6205   13.5284   12.8727 C   0  0  0  0  0  0  0  0  0  0  0  0
   43.6613   13.4516   14.4254 C   0  0  0  0  0  0  0  0  0  0  0  0
   44.6682   12.7662   10.7993 C   0  0  0  0  0  0  0  0  0  0  0  0
   45.2653   14.0984   10.2848 C   0  0  0  0  0  0  0  0  0  0  0  0
   45.2382   14.1673    8.4780 S   0  0  0  0  0  0  0  0  0  0  0  0
  1  3  1  0  0  0  0
  1  9  1  0  0  0  0
  2 12  1  0  0  0  0
  3  5  1  0  0  0  0
  4 12  2  0  0  0  0
  5  7  1  0  0  0  0
  6 12  2  0  0  0  0
  7  8  1  0  0  0  0
  7 10  1  0  0  0  0
  8  9  1  0  0  0  0
 10 11  1  0  0  0  0
 11 12  1  0  0  0  0
M  END
>  <CHROM.1>
-159.93695901,178.65730385,-127.05467629,44.79418434,13.47574532,10.96488765
1.88739576,-1.09774646,2.21934072

>  <Name>
ligand

>  <RI>
0

>  <Rbt.Current_Directory>
/home/itssahil/PROJECTS/Mol_Feturizer/New_Systems/rnas/2HO6

>  <Rbt.Executable>
rbdock ($Id: //depot/dev/client3/rdock/2013.1/src/exe/rbdock.cxx#4 $)

>  <Rbt.Library>
libRbt.so (2013.1, Build901 2013/11/27)

>  <Rbt.Parameter_File>
/export/apps/rDock/src/rDock_2013.1_src/data/scripts/dock_solv.prm

>  <Rbt.Receptor>
prm/pocket_docking_6.prm

>  <SCORE>
-9.02911

>  <SCORE.INTER>
-8.56342

>  <SCORE.INTER.CONST>
1

>  <SCORE.INTER.POLAR>
0

>  <SCORE.INTER.ROT>
3

>  <SCORE.INTER.SOLV>
7.01914

>  <SCORE.INTER.VDW>
-13.6487

>  <SCORE.INTER.norm>
-0.713619

>  <SCORE.INTRA>
-0.465682

>  <SCORE.INTRA.DIHEDRAL>
0.446407

>  <SCORE.INTRA.DIHEDRAL.0>
1.88407

>  <SCORE.INTRA.POLAR>
0

>  <SCORE.INTRA.POLAR.0>
0

>  <SCORE.INTRA.REPUL>
0

>  <SCORE.INTRA.REPUL.0>
0

>  <SCORE.INTRA.SOLV>
0.0523082

>  <SCORE.INTRA.SOLV.lig_0>
-10.2714

>  <SCORE.INTRA.VDW>
-0.71504

>  <SCORE.INTRA.VDW.0>
0.416923

>  <SCORE.INTRA.norm>
-0.0388069

>  <SCORE.RESTR>
0

>  <SCORE.RESTR.CAVITY>
0

>  <SCORE.RESTR.norm>
0

>  <SCORE.SYSTEM>
0

>  <SCORE.SYSTEM.CONST>
0

>  <SCORE.SYSTEM.DIHEDRAL>
0

>  <SCORE.SYSTEM.SOLV>
0

>  <SCORE.SYSTEM.norm>
0

>  <SCORE.heavy>
12

>  <SCORE.norm>
-0.752426

>  <RMSD>
6.167

$$$$
ligand
 OpenBabel11021811433D
libRbt.so/2013.1/901 2013/11/27
 12 12  0  0  0  0  0  0  0  0999 V2000
   44.9406   10.2441   12.1357 O   0  0  0  0  0  0  0  0  0  0  0  0
   44.0503   16.3640   12.9377 O   0  0  0  0  0  0  0  0  0  0  0  0
   44.1320    9.6345   13.1870 C   0  0  0  0  0  0  0  0  0  0  0  0
   43.3896   14.3966   11.6064 O   0  0  0  0  0  0  0  0  0  0  0  0
   43.7499   10.6765   14.2780 C   0  0  0  0  0  0  0  0  0  0  0  0
   42.3088   15.4787   12.8518 O   0  0  0  0  0  0  0  0  0  0  0  0
   44.3234   12.0149   13.9015 N   0  0  0  0  0  0  0  0  0  0  0  0
   45.8070   11.9214   13.7468 C   0  0  0  0  0  0  0  0  0  0  0  0
   46.1531   10.8257   12.6990 C   0  0  0  0  0  0  0  0  0  0  0  0
   43.9976   13.0724   14.9212 C   0  0  0  0  0  0  0  0  0  0  0  0
   42.9871   14.1008   14.3579 C   0  0  0  0  0  0  0  0  0  0  0  0
   43.6746   14.9715   12.9298 S   0  0  0  0  0  0  0  0  0  0  0  0
  1  3  1  0  0  0  0
  1  9  1  0  0  0  0
  2 12  1  0  0  0  0
  3  5  1  0  0  0  0
  4 12  2  0  0  0  0
  5  7  1  0  0  0  0
  6 12  2  0  0  0  0
  7  8  1  0  0  0  0
  7 10  1  0  0  0  0
  8  9  1  0  0  0  0
 10 11  1  0  0  0  0
 11 12  1  0  0  0  0
M  END
>  <CHROM.1>
-110.18357395,-61.96292378,-110.30786403,44.06577236,13.06266709,13.22489735
-0.94919841,1.02413937,-0.60832729

>  <Name>
ligand

>  <RI>
0

>  <Rbt.Current_Directory>
/home/itssahil/PROJECTS/Mol_Feturizer/New_Systems/rnas/2HO6

>  <Rbt.Executable>
rbdock ($Id: //depot/dev/client3/rdock/2013.1/src/exe/rbdock.cxx#4 $)

>  <Rbt.Library>
libRbt.so (2013.1, Build901 2013/11/27)

>  <Rbt.Parameter_File>
/export/apps/rDock/src/rDock_2013.1_src/data/scripts/dock_solv.prm

>  <Rbt.Receptor>
prm/pocket_docking_6.prm

>  <SCORE>
-10.6443

>  <SCORE.INTER>
-10.1989

>  <SCORE.INTER.CONST>
1

>  <SCORE.INTER.POLAR>
0

>  <SCORE.INTER.ROT>
3

>  <SCORE.INTER.SOLV>
7.96795

>  <SCORE.INTER.VDW>
-15.0553

>  <SCORE.INTER.norm>
-0.849911

>  <SCORE.INTRA>
-0.445368

>  <SCORE.INTRA.DIHEDRAL>
2.25909

>  <SCORE.INTRA.DIHEDRAL.0>
1.88407

>  <SCORE.INTRA.POLAR>
0

>  <SCORE.INTRA.POLAR.0>
0

>  <SCORE.INTRA.REPUL>
0

>  <SCORE.INTRA.REPUL.0>
0

>  <SCORE.INTRA.SOLV>
0.54377

>  <SCORE.INTRA.SOLV.lig_0>
-10.2714

>  <SCORE.INTRA.VDW>
-1.8468

>  <SCORE.INTRA.VDW.0>
0.416923

>  <SCORE.INTRA.norm>
-0.037114

>  <SCORE.RESTR>
0

>  <SCORE.RESTR.CAVITY>
0

>  <SCORE.RESTR.norm>
0

>  <SCORE.SYSTEM>
0

>  <SCORE.SYSTEM.CONST>
0

>  <SCORE.SYSTEM.DIHEDRAL>
0

>  <SCORE.SYSTEM.SOLV>
0

>  <SCORE.SYSTEM.norm>
0

>  <SCORE.heavy>
12

>  <SCORE.norm>
-0.887025

>  <RMSD>
6.168

$$$$
ligand
 OpenBabel11021811433D
libRbt.so/2013.1/901 2013/11/27
 12 12  0  0  0  0  0  0  0  0999 V2000
   44.9556   10.2318   12.0762 O   0  0  0  0  0  0  0  0  0  0  0  0
   43.9510   16.1577   12.9950 O   0  0  0  0  0  0  0  0  0  0  0  0
   44.1474    9.6120   13.1219 C   0  0  0  0  0  0  0  0  0  0  0  0
   42.5728   14.5377   11.7479 O   0  0  0  0  0  0  0  0  0  0  0  0
   43.7791   10.6395   14.2313 C   0  0  0  0  0  0  0  0  0  0  0  0
   42.1099   15.5993   13.3444 O   0  0  0  0  0  0  0  0  0  0  0  0
   44.3616   11.9790   13.8731 N   0  0  0  0  0  0  0  0  0  0  0  0
   45.8435   11.8762   13.7094 C   0  0  0  0  0  0  0  0  0  0  0  0
   46.1756   10.7946   12.6425 C   0  0  0  0  0  0  0  0  0  0  0  0
   44.0494   13.0227   14.9111 C   0  0  0  0  0  0  0  0  0  0  0  0
   42.8778   13.9281   14.4600 C   0  0  0  0  0  0  0  0  0  0  0  0
   43.3146   14.8636   12.9753 S   0  0  0  0  0  0  0  0  0  0  0  0
  1  3  1  0  0  0  0
  1  9  1  0  0  0  0
  2 12  1  0  0  0  0
  3  5  1  0  0  0  0
  4 12  2  0  0  0  0
  5  7  1  0  0  0  0
  6 12  2  0  0  0  0
  7  8  1  0  0  0  0
  7 10  1  0  0  0  0
  8  9  1  0  0  0  0
 10 11  1  0  0  0  0
 11 12  1  0  0  0  0
M  END
>  <CHROM.1>
-100.81809240,-63.54900178,-88.95830396,43.92183185,13.01995505,13.27419427
-0.72993204,1.03663477,-0.78434822

>  <Name>
ligand

>  <RI>
0

>  <Rbt.Current_Directory>
/home/itssahil/PROJECTS/Mol_Feturizer/New_Systems/rnas/2HO6

>  <Rbt.Executable>
rbdock ($Id: //depot/dev/client3/rdock/2013.1/src/exe/rbdock.cxx#4 $)

>  <Rbt.Library>
libRbt.so (2013.1, Build901 2013/11/27)

>  <Rbt.Parameter_File>
/export/apps/rDock/src/rDock_2013.1_src/data/scripts/dock_solv.prm

>  <Rbt.Receptor>
prm/pocket_docking_5.prm

>  <SCORE>
-10.4715

>  <SCORE.INTER>
-9.96919

>  <SCORE.INTER.CONST>
1

>  <SCORE.INTER.POLAR>
0

>  <SCORE.INTER.ROT>
3

>  <SCORE.INTER.SOLV>
8.62955

>  <SCORE.INTER.VDW>
-15.1226

>  <SCORE.INTER.norm>
-0.830765

>  <SCORE.INTRA>
-0.502303

>  <SCORE.INTRA.DIHEDRAL>
1.94511

>  <SCORE.INTRA.DIHEDRAL.0>
1.88407

>  <SCORE.INTRA.POLAR>
0

>  <SCORE.INTRA.POLAR.0>
0

>  <SCORE.INTRA.REPUL>
0

>  <SCORE.INTRA.REPUL.0>
0

>  <SCORE.INTRA.SOLV>
0.31345

>  <SCORE.INTRA.SOLV.lig_0>
-10.2714

>  <SCORE.INTRA.VDW>
-1.63158

>  <SCORE.INTRA.VDW.0>
0.416923

>  <SCORE.INTRA.norm>
-0.0418585

>  <SCORE.RESTR>
0

>  <SCORE.RESTR.CAVITY>
0

>  <SCORE.RESTR.norm>
0

>  <SCORE.SYSTEM>
0

>  <SCORE.SYSTEM.CONST>
0

>  <SCORE.SYSTEM.DIHEDRAL>
0

>  <SCORE.SYSTEM.SOLV>
0

>  <SCORE.SYSTEM.norm>
0

>  <SCORE.heavy>
12

>  <SCORE.norm>
-0.872624

>  <RMSD>
6.192

$$$$
ligand
 OpenBabel11021811433D
libRbt.so/2013.1/901 2013/11/27
 12 12  0  0  0  0  0  0  0  0999 V2000
   44.8803   10.2631   12.1309 O   0  0  0  0  0  0  0  0  0  0  0  0
   44.4773   15.3696   12.4733 O   0  0  0  0  0  0  0  0  0  0  0  0
   44.0257    9.6883   13.1653 C   0  0  0  0  0  0  0  0  0  0  0  0
   42.0566   15.2554   12.0185 O   0  0  0  0  0  0  0  0  0  0  0  0
   43.6614   10.7470   14.2462 C   0  0  0  0  0  0  0  0  0  0  0  0
   42.9973   16.0112   13.5786 O   0  0  0  0  0  0  0  0  0  0  0  0
   44.2954   12.0608   13.8804 N   0  0  0  0  0  0  0  0  0  0  0  0
   45.7771   11.9085   13.7582 C   0  0  0  0  0  0  0  0  0  0  0  0
   46.1023   10.7976   12.7197 C   0  0  0  0  0  0  0  0  0  0  0  0
   43.9895   13.1326   14.8912 C   0  0  0  0  0  0  0  0  0  0  0  0
   42.8269   14.0364   14.4145 C   0  0  0  0  0  0  0  0  0  0  0  0
   43.2024   14.7866   12.8124 S   0  0  0  0  0  0  0  0  0  0  0  0
  1  3  1  0  0  0  0
  1  9  1  0  0  0  0
  2 12  1  0  0  0  0
  3  5  1  0  0  0  0
  4 12  2  0  0  0  0
  5  7  1  0  0  0  0
  6 12  2  0  0  0  0
  7  8  1  0  0  0  0
  7 10  1  0  0  0  0
  8  9  1  0  0  0  0
 10 11  1  0  0  0  0
 11 12  1  0  0  0  0
M  END
>  <CHROM.1>
-98.87227277,-57.16660583,-44.00291359,43.93089094,13.07542692,13.25953123
-0.97404241,0.87907965,-0.53048193

>  <Name>
ligand

>  <RI>
0

>  <Rbt.Current_Directory>
/home/itssahil/PROJECTS/Mol_Feturizer/New_Systems/rnas/2HO6

>  <Rbt.Executable>
rbdock ($Id: //depot/dev/client3/rdock/2013.1/src/exe/rbdock.cxx#4 $)

>  <Rbt.Library>
libRbt.so (2013.1, Build901 2013/11/27)

>  <Rbt.Parameter_File>
/export/apps/rDock/src/rDock_2013.1_src/data/scripts/dock_solv.prm

>  <Rbt.Receptor>
prm/pocket_docking_5.prm

>  <SCORE>
-10.2771

>  <SCORE.INTER>
-9.50653

>  <SCORE.INTER.CONST>
1

>  <SCORE.INTER.POLAR>
0

>  <SCORE.INTER.ROT>
3

>  <SCORE.INTER.SOLV>
8.66803

>  <SCORE.INTER.VDW>
-14.827

>  <SCORE.INTER.norm>
-0.792211

>  <SCORE.INTRA>
-0.770606

>  <SCORE.INTRA.DIHEDRAL>
1.68856

>  <SCORE.INTRA.DIHEDRAL.0>
1.88407

>  <SCORE.INTRA.POLAR>
0

>  <SCORE.INTRA.POLAR.0>
0

>  <SCORE.INTRA.REPUL>
0

>  <SCORE.INTRA.REPUL.0>
0

>  <SCORE.INTRA.SOLV>
0.163615

>  <SCORE.INTRA.SOLV.lig_0>
-10.2714

>  <SCORE.INTRA.VDW>
-1.69669

>  <SCORE.INTRA.VDW.0>
0.416923

>  <SCORE.INTRA.norm>
-0.0642172

>  <SCORE.RESTR>
0

>  <SCORE.RESTR.CAVITY>
0

>  <SCORE.RESTR.norm>
0

>  <SCORE.SYSTEM>
0

>  <SCORE.SYSTEM.CONST>
0

>  <SCORE.SYSTEM.DIHEDRAL>
0

>  <SCORE.SYSTEM.SOLV>
0

>  <SCORE.SYSTEM.norm>
0

>  <SCORE.heavy>
12

>  <SCORE.norm>
-0.856428

>  <RMSD>
6.193

$$$$
ligand
 OpenBabel11021811433D
libRbt.so/2013.1/901 2013/11/27
 12 12  0  0  0  0  0  0  0  0999 V2000
   43.6234   11.3612   14.7413 O   0  0  0  0  0  0  0  0  0  0  0  0
   45.9594   13.7622    8.3054 O   0  0  0  0  0  0  0  0  0  0  0  0
   44.4545   12.5612   14.7416 C   0  0  0  0  0  0  0  0  0  0  0  0
   43.6780   14.5451    7.7940 O   0  0  0  0  0  0  0  0  0  0  0  0
   44.9369   12.9115   13.3040 C   0  0  0  0  0  0  0  0  0  0  0  0
   44.8235   14.9698    9.3424 O   0  0  0  0  0  0  0  0  0  0  0  0
   44.3773   11.9031   12.3387 N   0  0  0  0  0  0  0  0  0  0  0  0
   44.8004   10.5224   12.7237 C   0  0  0  0  0  0  0  0  0  0  0  0
   44.3604   10.2320   14.1867 C   0  0  0  0  0  0  0  0  0  0  0  0
   44.8123   12.1780   10.9246 C   0  0  0  0  0  0  0  0  0  0  0  0
   43.9145   13.2503   10.2612 C   0  0  0  0  0  0  0  0  0  0  0  0
   44.5565   13.7206    8.6374 S   0  0  0  0  0  0  0  0  0  0  0  0
  1  3  1  0  0  0  0
  1  9  1  0  0  0  0
  2 12  1  0  0  0  0
  3  5  1  0  0  0  0
  4 12  2  0  0  0  0
  5  7  1  0  0  0  0
  6 12  2  0  0  0  0
  7  8  1  0  0  0  0
  7 10  1  0  0  0  0
  8  9  1  0  0  0  0
 10 11  1  0  0  0  0
 11 12  1  0  0  0  0
M  END
>  <CHROM.1>
-82.78823087,173.24742968,-33.30854361,44.52757550,12.79898017,11.12455102
1.84176386,-1.37492449,2.29677516

>  <Name>
ligand

>  <RI>
0

>  <Rbt.Current_Directory>
/home/itssahil/PROJECTS/Mol_Feturizer/New_Systems/rnas/2HO6

>  <Rbt.Executable>
rbdock ($Id: //depot/dev/client3/rdock/2013.1/src/exe/rbdock.cxx#4 $)

>  <Rbt.Library>
libRbt.so (2013.1, Build901 2013/11/27)

>  <Rbt.Parameter_File>
/export/apps/rDock/src/rDock_2013.1_src/data/scripts/dock_solv.prm

>  <Rbt.Receptor>
prm/pocket_docking_7.prm

>  <SCORE>
-11.3841

>  <SCORE.INTER>
-10.8367

>  <SCORE.INTER.CONST>
1

>  <SCORE.INTER.POLAR>
0

>  <SCORE.INTER.ROT>
3

>  <SCORE.INTER.SOLV>
8.91383

>  <SCORE.INTER.VDW>
-15.7958

>  <SCORE.INTER.norm>
-0.903061

>  <SCORE.INTRA>
-0.547335

>  <SCORE.INTRA.DIHEDRAL>
0.845735

>  <SCORE.INTRA.DIHEDRAL.0>
1.88407

>  <SCORE.INTRA.POLAR>
0

>  <SCORE.INTRA.POLAR.0>
0

>  <SCORE.INTRA.REPUL>
0

>  <SCORE.INTRA.REPUL.0>
0

>  <SCORE.INTRA.SOLV>
-0.0423897

>  <SCORE.INTRA.SOLV.lig_0>
-10.2714

>  <SCORE.INTRA.VDW>
-0.949008

>  <SCORE.INTRA.VDW.0>
0.416923

>  <SCORE.INTRA.norm>
-0.0456113

>  <SCORE.RESTR>
0

>  <SCORE.RESTR.CAVITY>
0

>  <SCORE.RESTR.norm>
0

>  <SCORE.SYSTEM>
0

>  <SCORE.SYSTEM.CONST>
0

>  <SCORE.SYSTEM.DIHEDRAL>
0

>  <SCORE.SYSTEM.SOLV>
0

>  <SCORE.SYSTEM.norm>
0

>  <SCORE.heavy>
12

>  <SCORE.norm>
-0.948672

>  <RMSD>
6.210

$$$$
ligand
 OpenBabel11021811433D
libRbt.so/2013.1/901 2013/11/27
 12 12  0  0  0  0  0  0  0  0999 V2000
   44.9386   10.2661   12.0509 O   0  0  0  0  0  0  0  0  0  0  0  0
   44.0193   15.9979   12.9073 O   0  0  0  0  0  0  0  0  0  0  0  0
   44.1501    9.6523   13.1149 C   0  0  0  0  0  0  0  0  0  0  0  0
   42.0582   14.8718   11.9248 O   0  0  0  0  0  0  0  0  0  0  0  0
   43.7815   10.6919   14.2129 C   0  0  0  0  0  0  0  0  0  0  0  0
   42.2168   15.8232   13.6452 O   0  0  0  0  0  0  0  0  0  0  0  0
   44.3432   12.0330   13.8280 N   0  0  0  0  0  0  0  0  0  0  0  0
   45.8243   11.9459   13.6488 C   0  0  0  0  0  0  0  0  0  0  0  0
   46.1578   10.8524   12.5946 C   0  0  0  0  0  0  0  0  0  0  0  0
   44.0297   13.0883   14.8538 C   0  0  0  0  0  0  0  0  0  0  0  0
   42.7817   13.9095   14.4488 C   0  0  0  0  0  0  0  0  0  0  0  0
   43.1017   14.8864   12.9610 S   0  0  0  0  0  0  0  0  0  0  0  0
  1  3  1  0  0  0  0
  1  9  1  0  0  0  0
  2 12  1  0  0  0  0
  3  5  1  0  0  0  0
  4 12  2  0  0  0  0
  5  7  1  0  0  0  0
  6 12  2  0  0  0  0
  7  8  1  0  0  0  0
  7 10  1  0  0  0  0
  8  9  1  0  0  0  0
 10 11  1  0  0  0  0
 11 12  1  0  0  0  0
M  END
>  <CHROM.1>
-96.90170670,-66.37387758,-67.55442463,43.84531978,13.08252267,13.28402115
-0.84839550,0.90643226,-0.60820798

>  <Name>
ligand

>  <RI>
0

>  <Rbt.Current_Directory>
/home/itssahil/PROJECTS/Mol_Feturizer/New_Systems/rnas/2HO6

>  <Rbt.Executable>
rbdock ($Id: //depot/dev/client3/rdock/2013.1/src/exe/rbdock.cxx#4 $)

>  <Rbt.Library>
libRbt.so (2013.1, Build901 2013/11/27)

>  <Rbt.Parameter_File>
/export/apps/rDock/src/rDock_2013.1_src/data/scripts/dock_solv.prm

>  <Rbt.Receptor>
prm/pocket_docking_8.prm

>  <SCORE>
-10.5652

>  <SCORE.INTER>
-9.97996

>  <SCORE.INTER.CONST>
1

>  <SCORE.INTER.POLAR>
0

>  <SCORE.INTER.ROT>
3

>  <SCORE.INTER.SOLV>
8.9446

>  <SCORE.INTER.VDW>
-15.2348

>  <SCORE.INTER.norm>
-0.831664

>  <SCORE.INTRA>
-0.585217

>  <SCORE.INTRA.DIHEDRAL>
1.78041

>  <SCORE.INTRA.DIHEDRAL.0>
1.88407

>  <SCORE.INTRA.POLAR>
0

>  <SCORE.INTRA.POLAR.0>
0

>  <SCORE.INTRA.REPUL>
0

>  <SCORE.INTRA.REPUL.0>
0

>  <SCORE.INTRA.SOLV>
0.192848

>  <SCORE.INTRA.SOLV.lig_0>
-10.2714

>  <SCORE.INTRA.VDW>
-1.57184

>  <SCORE.INTRA.VDW.0>
0.416923

>  <SCORE.INTRA.norm>
-0.0487681

>  <SCORE.RESTR>
0

>  <SCORE.RESTR.CAVITY>
0

>  <SCORE.RESTR.norm>
0

>  <SCORE.SYSTEM>
0

>  <SCORE.SYSTEM.CONST>
0

>  <SCORE.SYSTEM.DIHEDRAL>
0

>  <SCORE.SYSTEM.SOLV>
0

>  <SCORE.SYSTEM.norm>
0

>  <SCORE.heavy>
12

>  <SCORE.norm>
-0.880432

>  <RMSD>
6.219

$$$$
ligand
 OpenBabel11021811433D
libRbt.so/2013.1/901 2013/11/27
 12 12  0  0  0  0  0  0  0  0999 V2000
   53.5602   15.0917   16.6946 O   0  0  0  0  0  0  0  0  0  0  0  0
   48.7670   12.0748   18.1632 O   0  0  0  0  0  0  0  0  0  0  0  0
   52.9451   14.9024   15.3845 C   0  0  0  0  0  0  0  0  0  0  0  0
   49.1075    9.8312   19.1272 O   0  0  0  0  0  0  0  0  0  0  0  0
   52.2398   13.5184   15.2891 C   0  0  0  0  0  0  0  0  0  0  0  0
   50.0275   11.5231   19.5526 O   0  0  0  0  0  0  0  0  0  0  0  0
   52.3947   12.7967   16.5995 N   0  0  0  0  0  0  0  0  0  0  0  0
   53.8414   12.6380   16.9393 C   0  0  0  0  0  0  0  0  0  0  0  0
   54.5273   14.0335   16.9603 C   0  0  0  0  0  0  0  0  0  0  0  0
   51.7403   11.4420   16.5752 C   0  0  0  0  0  0  0  0  0  0  0  0
   51.4105   10.9538   18.0065 C   0  0  0  0  0  0  0  0  0  0  0  0
   49.6241   10.9214   18.2861 S   0  0  0  0  0  0  0  0  0  0  0  0
  1  3  1  0  0  0  0
  1  9  1  0  0  0  0
  2 12  1  0  0  0  0
  3  5  1  0  0  0  0
  4 12  2  0  0  0  0
  5  7  1  0  0  0  0
  6 12  2  0  0  0  0
  7  8  1  0  0  0  0
  7 10  1  0  0  0  0
  8  9  1  0  0  0  0
 10 11  1  0  0  0  0
 11 12  1  0  0  0  0
M  END
>  <CHROM.1>
-157.67448433,111.10724187,-58.39424618,51.43748475,12.31866251,17.43410716
0.80031057,-0.00284887,-0.64187229

>  <Name>
ligand

>  <RI>
0

>  <Rbt.Current_Directory>
/home/itssahil/PROJECTS/Mol_Feturizer/New_Systems/rnas/2HO6

>  <Rbt.Executable>
rbdock ($Id: //depot/dev/client3/rdock/2013.1/src/exe/rbdock.cxx#4 $)

>  <Rbt.Library>
libRbt.so (2013.1, Build901 2013/11/27)

>  <Rbt.Parameter_File>
/export/apps/rDock/src/rDock_2013.1_src/data/scripts/dock_solv.prm

>  <Rbt.Receptor>
prm/pocket_docking_8.prm

>  <SCORE>
-11.7552

>  <SCORE.INTER>
-13.7518

>  <SCORE.INTER.CONST>
1

>  <SCORE.INTER.POLAR>
0

>  <SCORE.INTER.ROT>
3

>  <SCORE.INTER.SOLV>
7.27404

>  <SCORE.INTER.VDW>
-17.1926

>  <SCORE.INTER.norm>
-1.14599

>  <SCORE.INTRA>
1.99666

>  <SCORE.INTRA.DIHEDRAL>
5.77988

>  <SCORE.INTRA.DIHEDRAL.0>
1.88407

>  <SCORE.INTRA.POLAR>
0

>  <SCORE.INTRA.POLAR.0>
0

>  <SCORE.INTRA.REPUL>
0

>  <SCORE.INTRA.REPUL.0>
0

>  <SCORE.INTRA.SOLV>
0.107237

>  <SCORE.INTRA.SOLV.lig_0>
-10.2714

>  <SCORE.INTRA.VDW>
-0.946895

>  <SCORE.INTRA.VDW.0>
0.416923

>  <SCORE.INTRA.norm>
0.166389

>  <SCORE.RESTR>
0

>  <SCORE.RESTR.CAVITY>
0

>  <SCORE.RESTR.norm>
0

>  <SCORE.SYSTEM>
0

>  <SCORE.SYSTEM.CONST>
0

>  <SCORE.SYSTEM.DIHEDRAL>
0

>  <SCORE.SYSTEM.SOLV>
0

>  <SCORE.SYSTEM.norm>
0

>  <SCORE.heavy>
12

>  <SCORE.norm>
-0.979598

>  <RMSD>
6.219

$$$$
ligand
 OpenBabel11021811433D
libRbt.so/2013.1/901 2013/11/27
 12 12  0  0  0  0  0  0  0  0999 V2000
   43.6196   11.3214   14.6942 O   0  0  0  0  0  0  0  0  0  0  0  0
   45.8838   13.8539    8.2741 O   0  0  0  0  0  0  0  0  0  0  0  0
   44.3763   12.5693   14.7248 C   0  0  0  0  0  0  0  0  0  0  0  0
   43.5936   14.6420    7.8122 O   0  0  0  0  0  0  0  0  0  0  0  0
   44.8578   12.9701   13.3002 C   0  0  0  0  0  0  0  0  0  0  0  0
   44.7624   15.0408    9.3500 O   0  0  0  0  0  0  0  0  0  0  0  0
   44.3749   11.9446   12.3118 N   0  0  0  0  0  0  0  0  0  0  0  0
   44.8752   10.5862   12.6835 C   0  0  0  0  0  0  0  0  0  0  0  0
   44.4320   10.2475   14.1351 C   0  0  0  0  0  0  0  0  0  0  0  0
   44.8132   12.2669   10.9089 C   0  0  0  0  0  0  0  0  0  0  0  0
   43.8702   13.3037   10.2519 C   0  0  0  0  0  0  0  0  0  0  0  0
   44.4862   13.8040    8.6270 S   0  0  0  0  0  0  0  0  0  0  0  0
  1  3  1  0  0  0  0
  1  9  1  0  0  0  0
  2 12  1  0  0  0  0
  3  5  1  0  0  0  0
  4 12  2  0  0  0  0
  5  7  1  0  0  0  0
  6 12  2  0  0  0  0
  7  8  1  0  0  0  0
  7 10  1  0  0  0  0
  8  9  1  0  0  0  0
 10 11  1  0  0  0  0
 11 12  1  0  0  0  0
M  END
>  <CHROM.1>
-82.21483256,174.68919246,-30.82180755,44.49334428,12.85464946,11.10665733
1.72152136,-1.30089532,2.18843949

>  <Name>
ligand

>  <RI>
0

>  <Rbt.Current_Directory>
/home/itssahil/PROJECTS/Mol_Feturizer/New_Systems/rnas/2HO6

>  <Rbt.Executable>
rbdock ($Id: //depot/dev/client3/rdock/2013.1/src/exe/rbdock.cxx#4 $)

>  <Rbt.Library>
libRbt.so (2013.1, Build901 2013/11/27)

>  <Rbt.Parameter_File>
/export/apps/rDock/src/rDock_2013.1_src/data/scripts/dock_solv.prm

>  <Rbt.Receptor>
prm/pocket_docking_6.prm

>  <SCORE>
-11.3783

>  <SCORE.INTER>
-10.8048

>  <SCORE.INTER.CONST>
1

>  <SCORE.INTER.POLAR>
0

>  <SCORE.INTER.ROT>
3

>  <SCORE.INTER.SOLV>
8.77357

>  <SCORE.INTER.VDW>
-15.7277

>  <SCORE.INTER.norm>
-0.900398

>  <SCORE.INTRA>
-0.573519

>  <SCORE.INTRA.DIHEDRAL>
0.747871

>  <SCORE.INTRA.DIHEDRAL.0>
1.88407

>  <SCORE.INTRA.POLAR>
0

>  <SCORE.INTRA.POLAR.0>
0

>  <SCORE.INTRA.REPUL>
0

>  <SCORE.INTRA.REPUL.0>
0

>  <SCORE.INTRA.SOLV>
-0.0407605

>  <SCORE.INTRA.SOLV.lig_0>
-10.2714

>  <SCORE.INTRA.VDW>
-0.927074

>  <SCORE.INTRA.VDW.0>
0.416923

>  <SCORE.INTRA.norm>
-0.0477932

>  <SCORE.RESTR>
0

>  <SCORE.RESTR.CAVITY>
0

>  <SCORE.RESTR.norm>
0

>  <SCORE.SYSTEM>
0

>  <SCORE.SYSTEM.CONST>
0

>  <SCORE.SYSTEM.DIHEDRAL>
0

>  <SCORE.SYSTEM.SOLV>
0

>  <SCORE.SYSTEM.norm>
0

>  <SCORE.heavy>
12

>  <SCORE.norm>
-0.948192

>  <RMSD>
6.221

$$$$
ligand
 OpenBabel11021811433D
libRbt.so/2013.1/901 2013/11/27
 12 12  0  0  0  0  0  0  0  0999 V2000
   53.1849   15.6734   16.1711 O   0  0  0  0  0  0  0  0  0  0  0  0
   49.9944   12.5975   18.9840 O   0  0  0  0  0  0  0  0  0  0  0  0
   52.8623   15.1263   14.8568 C   0  0  0  0  0  0  0  0  0  0  0  0
   49.4991   11.0925   17.0949 O   0  0  0  0  0  0  0  0  0  0  0  0
   52.7330   13.5763   14.9092 C   0  0  0  0  0  0  0  0  0  0  0  0
   50.3877   10.6900   18.8090 O   0  0  0  0  0  0  0  0  0  0  0  0
   52.9657   13.1114   16.3205 N   0  0  0  0  0  0  0  0  0  0  0  0
   54.3107   13.5528   16.7997 C   0  0  0  0  0  0  0  0  0  0  0  0
   54.4279   15.0981   16.6706 C   0  0  0  0  0  0  0  0  0  0  0  0
   52.8630   11.6151   16.4428 C   0  0  0  0  0  0  0  0  0  0  0  0
   52.2069   11.2068   17.7839 C   0  0  0  0  0  0  0  0  0  0  0  0
   50.5067   11.8142   17.8866 S   0  0  0  0  0  0  0  0  0  0  0  0
  1  3  1  0  0  0  0
  1  9  1  0  0  0  0
  2 12  1  0  0  0  0
  3  5  1  0  0  0  0
  4 12  2  0  0  0  0
  5  7  1  0  0  0  0
  6 12  2  0  0  0  0
  7  8  1  0  0  0  0
  7 10  1  0  0  0  0
  8  9  1  0  0  0  0
 10 11  1  0  0  0  0
 11 12  1  0  0  0  0
M  END
>  <CHROM.1>
-143.35829718,62.99485441,-127.00530529,51.95140796,12.80904670,17.02168583
0.84268109,0.31264345,-0.33353319

>  <Name>
ligand

>  <RI>
0

>  <Rbt.Current_Directory>
/home/itssahil/PROJECTS/Mol_Feturizer/New_Systems/rnas/2HO6

>  <Rbt.Executable>
rbdock ($Id: //depot/dev/client3/rdock/2013.1/src/exe/rbdock.cxx#4 $)

>  <Rbt.Library>
libRbt.so (2013.1, Build901 2013/11/27)

>  <Rbt.Parameter_File>
/export/apps/rDock/src/rDock_2013.1_src/data/scripts/dock_solv.prm

>  <Rbt.Receptor>
prm/pocket_docking_8.prm

>  <SCORE>
-11.5611

>  <SCORE.INTER>
-10.9474

>  <SCORE.INTER.CONST>
1

>  <SCORE.INTER.POLAR>
0

>  <SCORE.INTER.ROT>
3

>  <SCORE.INTER.SOLV>
6.73386

>  <SCORE.INTER.VDW>
-15.1429

>  <SCORE.INTER.norm>
-0.912284

>  <SCORE.INTRA>
-0.613675

>  <SCORE.INTRA.DIHEDRAL>
1.46881

>  <SCORE.INTRA.DIHEDRAL.0>
1.88407

>  <SCORE.INTRA.POLAR>
0

>  <SCORE.INTRA.POLAR.0>
0

>  <SCORE.INTRA.REPUL>
0

>  <SCORE.INTRA.REPUL.0>
0

>  <SCORE.INTRA.SOLV>
0.325483

>  <SCORE.INTRA.SOLV.lig_0>
-10.2714

>  <SCORE.INTRA.VDW>
-1.51082

>  <SCORE.INTRA.VDW.0>
0.416923

>  <SCORE.INTRA.norm>
-0.0511396

>  <SCORE.RESTR>
0

>  <SCORE.RESTR.CAVITY>
0

>  <SCORE.RESTR.norm>
0

>  <SCORE.SYSTEM>
0

>  <SCORE.SYSTEM.CONST>
0

>  <SCORE.SYSTEM.DIHEDRAL>
0

>  <SCORE.SYSTEM.SOLV>
0

>  <SCORE.SYSTEM.norm>
0

>  <SCORE.heavy>
12

>  <SCORE.norm>
-0.963424

>  <RMSD>
6.230

$$$$
ligand
 OpenBabel11021811433D
libRbt.so/2013.1/901 2013/11/27
 12 12  0  0  0  0  0  0  0  0999 V2000
   44.8832   10.2797   12.1015 O   0  0  0  0  0  0  0  0  0  0  0  0
   44.2629   15.7504   12.7928 O   0  0  0  0  0  0  0  0  0  0  0  0
   44.1052    9.6731   13.1773 C   0  0  0  0  0  0  0  0  0  0  0  0
   41.9490   15.2349   12.1150 O   0  0  0  0  0  0  0  0  0  0  0  0
   43.7435   10.7210   14.2696 C   0  0  0  0  0  0  0  0  0  0  0  0
   42.6102   16.0028   13.8070 O   0  0  0  0  0  0  0  0  0  0  0  0
   44.2987   12.0600   13.8687 N   0  0  0  0  0  0  0  0  0  0  0  0
   45.7785   11.9749   13.6777 C   0  0  0  0  0  0  0  0  0  0  0  0
   46.1056   10.8734   12.6299 C   0  0  0  0  0  0  0  0  0  0  0  0
   43.9914   13.1232   14.8882 C   0  0  0  0  0  0  0  0  0  0  0  0
   42.7596   13.9616   14.4690 C   0  0  0  0  0  0  0  0  0  0  0  0
   43.1016   14.9135   12.9700 S   0  0  0  0  0  0  0  0  0  0  0  0
  1  3  1  0  0  0  0
  1  9  1  0  0  0  0
  2 12  1  0  0  0  0
  3  5  1  0  0  0  0
  4 12  2  0  0  0  0
  5  7  1  0  0  0  0
  6 12  2  0  0  0  0
  7  8  1  0  0  0  0
  7 10  1  0  0  0  0
  8  9  1  0  0  0  0
 10 11  1  0  0  0  0
 11 12  1  0  0  0  0
M  END
>  <CHROM.1>
-98.35704479,-65.68943940,-50.29586419,43.86361345,13.12787679,13.32932934
-0.97417857,0.81832299,-0.46389374

>  <Name>
ligand

>  <RI>
0

>  <Rbt.Current_Directory>
/home/itssahil/PROJECTS/Mol_Feturizer/New_Systems/rnas/2HO6

>  <Rbt.Executable>
rbdock ($Id: //depot/dev/client3/rdock/2013.1/src/exe/rbdock.cxx#4 $)

>  <Rbt.Library>
libRbt.so (2013.1, Build901 2013/11/27)

>  <Rbt.Parameter_File>
/export/apps/rDock/src/rDock_2013.1_src/data/scripts/dock_solv.prm

>  <Rbt.Receptor>
prm/pocket_docking_6.prm

>  <SCORE>
-10.5594

>  <SCORE.INTER>
-9.91818

>  <SCORE.INTER.CONST>
1

>  <SCORE.INTER.POLAR>
0

>  <SCORE.INTER.ROT>
3

>  <SCORE.INTER.SOLV>
8.81947

>  <SCORE.INTER.VDW>
-15.1519

>  <SCORE.INTER.norm>
-0.826515

>  <SCORE.INTRA>
-0.641242

>  <SCORE.INTRA.DIHEDRAL>
1.76761

>  <SCORE.INTRA.DIHEDRAL.0>
1.88407

>  <SCORE.INTRA.POLAR>
0

>  <SCORE.INTRA.POLAR.0>
0

>  <SCORE.INTRA.REPUL>
0

>  <SCORE.INTRA.REPUL.0>
0

>  <SCORE.INTRA.SOLV>
0.122856

>  <SCORE.INTRA.SOLV.lig_0>
-10.2714

>  <SCORE.INTRA.VDW>
-1.58648

>  <SCORE.INTRA.VDW.0>
0.416923

>  <SCORE.INTRA.norm>
-0.0534369

>  <SCORE.RESTR>
0

>  <SCORE.RESTR.CAVITY>
0

>  <SCORE.RESTR.norm>
0

>  <SCORE.SYSTEM>
0

>  <SCORE.SYSTEM.CONST>
0

>  <SCORE.SYSTEM.DIHEDRAL>
0

>  <SCORE.SYSTEM.SOLV>
0

>  <SCORE.SYSTEM.norm>
0

>  <SCORE.heavy>
12

>  <SCORE.norm>
-0.879951

>  <RMSD>
6.239

$$$$
ligand
 OpenBabel11021811433D
libRbt.so/2013.1/901 2013/11/27
 12 12  0  0  0  0  0  0  0  0999 V2000
   53.5586   15.0536   16.8117 O   0  0  0  0  0  0  0  0  0  0  0  0
   48.8024   12.0801   18.1552 O   0  0  0  0  0  0  0  0  0  0  0  0
   52.9273   14.9034   15.5042 C   0  0  0  0  0  0  0  0  0  0  0  0
   49.0751    9.8357   19.1388 O   0  0  0  0  0  0  0  0  0  0  0  0
   52.2298   13.5184   15.3724 C   0  0  0  0  0  0  0  0  0  0  0  0
   50.0444   11.5032   19.5511 O   0  0  0  0  0  0  0  0  0  0  0  0
   52.4069   12.7550   16.6560 N   0  0  0  0  0  0  0  0  0  0  0  0
   53.8590   12.5952   16.9715 C   0  0  0  0  0  0  0  0  0  0  0  0
   54.5360   13.9939   17.0296 C   0  0  0  0  0  0  0  0  0  0  0  0
   51.7611   11.3972   16.5955 C   0  0  0  0  0  0  0  0  0  0  0  0
   51.4117   10.8798   18.0118 C   0  0  0  0  0  0  0  0  0  0  0  0
   49.6248   10.9028   18.2892 S   0  0  0  0  0  0  0  0  0  0  0  0
  1  3  1  0  0  0  0
  1  9  1  0  0  0  0
  2 12  1  0  0  0  0
  3  5  1  0  0  0  0
  4 12  2  0  0  0  0
  5  7  1  0  0  0  0
  6 12  2  0  0  0  0
  7  8  1  0  0  0  0
  7 10  1  0  0  0  0
  8  9  1  0  0  0  0
 10 11  1  0  0  0  0
 11 12  1  0  0  0  0
M  END
>  <CHROM.1>
-155.83137641,108.53239057,-56.21598371,51.44145872,12.29414822,17.47236737
0.79187718,0.03364082,-0.58927734

>  <Name>
ligand

>  <RI>
0

>  <Rbt.Current_Directory>
/home/itssahil/PROJECTS/Mol_Feturizer/New_Systems/rnas/2HO6

>  <Rbt.Executable>
rbdock ($Id: //depot/dev/client3/rdock/2013.1/src/exe/rbdock.cxx#4 $)

>  <Rbt.Library>
libRbt.so (2013.1, Build901 2013/11/27)

>  <Rbt.Parameter_File>
/export/apps/rDock/src/rDock_2013.1_src/data/scripts/dock_solv.prm

>  <Rbt.Receptor>
prm/pocket_docking_8.prm

>  <SCORE>
-11.7252

>  <SCORE.INTER>
-13.5997

>  <SCORE.INTER.CONST>
1

>  <SCORE.INTER.POLAR>
0

>  <SCORE.INTER.ROT>
3

>  <SCORE.INTER.SOLV>
7.43643

>  <SCORE.INTER.VDW>
-17.1453

>  <SCORE.INTER.norm>
-1.13331

>  <SCORE.INTRA>
1.87452

>  <SCORE.INTRA.DIHEDRAL>
5.68829

>  <SCORE.INTRA.DIHEDRAL.0>
1.88407

>  <SCORE.INTRA.POLAR>
0

>  <SCORE.INTRA.POLAR.0>
0

>  <SCORE.INTRA.REPUL>
0

>  <SCORE.INTRA.REPUL.0>
0

>  <SCORE.INTRA.SOLV>
0.127892

>  <SCORE.INTRA.SOLV.lig_0>
-10.2714

>  <SCORE.INTRA.VDW>
-1.03357

>  <SCORE.INTRA.VDW.0>
0.416923

>  <SCORE.INTRA.norm>
0.15621

>  <SCORE.RESTR>
0

>  <SCORE.RESTR.CAVITY>
0

>  <SCORE.RESTR.norm>
0

>  <SCORE.SYSTEM>
0

>  <SCORE.SYSTEM.CONST>
0

>  <SCORE.SYSTEM.DIHEDRAL>
0

>  <SCORE.SYSTEM.SOLV>
0

>  <SCORE.SYSTEM.norm>
0

>  <SCORE.heavy>
12

>  <SCORE.norm>
-0.977102

>  <RMSD>
6.255

$$$$
ligand
 OpenBabel11021811433D
libRbt.so/2013.1/901 2013/11/27
 12 12  0  0  0  0  0  0  0  0999 V2000
   53.1836   15.6817   16.2462 O   0  0  0  0  0  0  0  0  0  0  0  0
   49.9601   12.5653   19.0440 O   0  0  0  0  0  0  0  0  0  0  0  0
   52.8661   15.1339   14.9310 C   0  0  0  0  0  0  0  0  0  0  0  0
   49.5069   11.0456   17.1561 O   0  0  0  0  0  0  0  0  0  0  0  0
   52.7363   13.5839   14.9838 C   0  0  0  0  0  0  0  0  0  0  0  0
   50.3925   10.6656   18.8769 O   0  0  0  0  0  0  0  0  0  0  0  0
   52.9636   13.1197   16.3961 N   0  0  0  0  0  0  0  0  0  0  0  0
   54.3068   13.5613   16.8802 C   0  0  0  0  0  0  0  0  0  0  0  0
   54.4247   15.1064   16.7508 C   0  0  0  0  0  0  0  0  0  0  0  0
   52.8602   11.6236   16.5189 C   0  0  0  0  0  0  0  0  0  0  0  0
   52.2074   11.2158   17.8619 C   0  0  0  0  0  0  0  0  0  0  0  0
   50.4948   11.7894   17.9521 S   0  0  0  0  0  0  0  0  0  0  0  0
  1  3  1  0  0  0  0
  1  9  1  0  0  0  0
  2 12  1  0  0  0  0
  3  5  1  0  0  0  0
  4 12  2  0  0  0  0
  5  7  1  0  0  0  0
  6 12  2  0  0  0  0
  7  8  1  0  0  0  0
  7 10  1  0  0  0  0
  8  9  1  0  0  0  0
 10 11  1  0  0  0  0
 11 12  1  0  0  0  0
M  END
>  <CHROM.1>
-143.73338536,64.38489660,-127.46652797,51.94723909,12.80128638,17.09318154
0.85008102,0.29190053,-0.34606930

>  <Name>
ligand

>  <RI>
0

>  <Rbt.Current_Directory>
/home/itssahil/PROJECTS/Mol_Feturizer/New_Systems/rnas/2HO6

>  <Rbt.Executable>
rbdock ($Id: //depot/dev/client3/rdock/2013.1/src/exe/rbdock.cxx#4 $)

>  <Rbt.Library>
libRbt.so (2013.1, Build901 2013/11/27)

>  <Rbt.Parameter_File>
/export/apps/rDock/src/rDock_2013.1_src/data/scripts/dock_solv.prm

>  <Rbt.Receptor>
prm/pocket_docking_8.prm

>  <SCORE>
-11.5163

>  <SCORE.INTER>
-10.9202

>  <SCORE.INTER.CONST>
1

>  <SCORE.INTER.POLAR>
0

>  <SCORE.INTER.ROT>
3

>  <SCORE.INTER.SOLV>
6.80066

>  <SCORE.INTER.VDW>
-15.1471

>  <SCORE.INTER.norm>
-0.910021

>  <SCORE.INTRA>
-0.597061

>  <SCORE.INTRA.DIHEDRAL>
1.48292

>  <SCORE.INTRA.DIHEDRAL.0>
1.88407

>  <SCORE.INTRA.POLAR>
0

>  <SCORE.INTRA.POLAR.0>
0

>  <SCORE.INTRA.REPUL>
0

>  <SCORE.INTRA.REPUL.0>
0

>  <SCORE.INTRA.SOLV>
0.317821

>  <SCORE.INTRA.SOLV.lig_0>
-10.2714

>  <SCORE.INTRA.VDW>
-1.49743

>  <SCORE.INTRA.VDW.0>
0.416923

>  <SCORE.INTRA.norm>
-0.0497551

>  <SCORE.RESTR>
0.00101009

>  <SCORE.RESTR.CAVITY>
0.00101009

>  <SCORE.RESTR.norm>
8.4174e-05

>  <SCORE.SYSTEM>
0

>  <SCORE.SYSTEM.CONST>
0

>  <SCORE.SYSTEM.DIHEDRAL>
0

>  <SCORE.SYSTEM.SOLV>
0

>  <SCORE.SYSTEM.norm>
0

>  <SCORE.heavy>
12

>  <SCORE.norm>
-0.959691

>  <RMSD>
6.283

$$$$
ligand
 OpenBabel11021811433D
libRbt.so/2013.1/901 2013/11/27
 12 12  0  0  0  0  0  0  0  0999 V2000
   43.6207   12.3121   14.6111 O   0  0  0  0  0  0  0  0  0  0  0  0
   43.6117   14.9440    7.3392 O   0  0  0  0  0  0  0  0  0  0  0  0
   43.1941   13.7079   14.5925 C   0  0  0  0  0  0  0  0  0  0  0  0
   45.7654   15.2540    8.4987 O   0  0  0  0  0  0  0  0  0  0  0  0
   43.6600   14.4210   13.2900 C   0  0  0  0  0  0  0  0  0  0  0  0
   44.7211   13.6026    8.2301 O   0  0  0  0  0  0  0  0  0  0  0  0
   44.4022   13.4361   12.4293 N   0  0  0  0  0  0  0  0  0  0  0  0
   45.5664   12.8668   13.1737 C   0  0  0  0  0  0  0  0  0  0  0  0
   45.0716   12.2220   14.4995 C   0  0  0  0  0  0  0  0  0  0  0  0
   44.8903   14.0632   11.1515 C   0  0  0  0  0  0  0  0  0  0  0  0
   43.7665   14.1151   10.0884 C   0  0  0  0  0  0  0  0  0  0  0  0
   44.3274   14.9603    8.5913 S   0  0  0  0  0  0  0  0  0  0  0  0
  1  3  1  0  0  0  0
  1  9  1  0  0  0  0
  2 12  1  0  0  0  0
  3  5  1  0  0  0  0
  4 12  2  0  0  0  0
  5  7  1  0  0  0  0
  6 12  2  0  0  0  0
  7  8  1  0  0  0  0
  7 10  1  0  0  0  0
  8  9  1  0  0  0  0
 10 11  1  0  0  0  0
 11 12  1  0  0  0  0
M  END
>  <CHROM.1>
-81.88258222,176.52046515,167.51120100,44.37984216,13.93905526,11.04679204
1.62215064,-0.40733106,1.88561640

>  <Name>
ligand

>  <RI>
0

>  <Rbt.Current_Directory>
/home/itssahil/PROJECTS/Mol_Feturizer/New_Systems/rnas/2HO6

>  <Rbt.Executable>
rbdock ($Id: //depot/dev/client3/rdock/2013.1/src/exe/rbdock.cxx#4 $)

>  <Rbt.Library>
libRbt.so (2013.1, Build901 2013/11/27)

>  <Rbt.Parameter_File>
/export/apps/rDock/src/rDock_2013.1_src/data/scripts/dock_solv.prm

>  <Rbt.Receptor>
prm/pocket_docking_8.prm

>  <SCORE>
-9.37738

>  <SCORE.INTER>
-9.23884

>  <SCORE.INTER.CONST>
1

>  <SCORE.INTER.POLAR>
0

>  <SCORE.INTER.ROT>
3

>  <SCORE.INTER.SOLV>
6.525

>  <SCORE.INTER.VDW>
-13.9342

>  <SCORE.INTER.norm>
-0.769903

>  <SCORE.INTRA>
-0.138547

>  <SCORE.INTRA.DIHEDRAL>
0.775261

>  <SCORE.INTRA.DIHEDRAL.0>
1.88407

>  <SCORE.INTRA.POLAR>
0

>  <SCORE.INTRA.POLAR.0>
0

>  <SCORE.INTRA.REPUL>
0

>  <SCORE.INTRA.REPUL.0>
0

>  <SCORE.INTRA.SOLV>
0.219034

>  <SCORE.INTRA.SOLV.lig_0>
-10.2714

>  <SCORE.INTRA.VDW>
-0.635694

>  <SCORE.INTRA.VDW.0>
0.416923

>  <SCORE.INTRA.norm>
-0.0115456

>  <SCORE.RESTR>
0

>  <SCORE.RESTR.CAVITY>
0

>  <SCORE.RESTR.norm>
0

>  <SCORE.SYSTEM>
0

>  <SCORE.SYSTEM.CONST>
0

>  <SCORE.SYSTEM.DIHEDRAL>
0

>  <SCORE.SYSTEM.SOLV>
0

>  <SCORE.SYSTEM.norm>
0

>  <SCORE.heavy>
12

>  <SCORE.norm>
-0.781449

>  <RMSD>
6.307

$$$$
ligand
 OpenBabel11021811433D
libRbt.so/2013.1/901 2013/11/27
 12 12  0  0  0  0  0  0  0  0999 V2000
   43.9028   17.3828   12.3786 O   0  0  0  0  0  0  0  0  0  0  0  0
   43.9621   10.7144   16.2209 O   0  0  0  0  0  0  0  0  0  0  0  0
   42.4559   17.3717   12.5713 C   0  0  0  0  0  0  0  0  0  0  0  0
   43.2906   10.4371   13.8647 O   0  0  0  0  0  0  0  0  0  0  0  0
   41.9770   16.0115   13.1566 C   0  0  0  0  0  0  0  0  0  0  0  0
   44.9767   11.1433   14.6052 O   0  0  0  0  0  0  0  0  0  0  0  0
   43.1695   15.1188   13.3639 N   0  0  0  0  0  0  0  0  0  0  0  0
   43.9016   14.9194   12.0763 C   0  0  0  0  0  0  0  0  0  0  0  0
   44.3058   16.3010   11.4880 C   0  0  0  0  0  0  0  0  0  0  0  0
   42.7768   13.7781   13.9228 C   0  0  0  0  0  0  0  0  0  0  0  0
   43.9929   13.0554   14.5511 C   0  0  0  0  0  0  0  0  0  0  0  0
   43.5821   11.3478   14.9821 S   0  0  0  0  0  0  0  0  0  0  0  0
  1  3  1  0  0  0  0
  1  9  1  0  0  0  0
  2 12  1  0  0  0  0
  3  5  1  0  0  0  0
  4 12  2  0  0  0  0
  5  7  1  0  0  0  0
  6 12  2  0  0  0  0
  7  8  1  0  0  0  0
  7 10  1  0  0  0  0
  8  9  1  0  0  0  0
 10 11  1  0  0  0  0
 11 12  1  0  0  0  0
M  END
>  <CHROM.1>
-161.66522293,-170.94039070,-136.35099533,43.55053522,13.65918898,13.75411798
-1.68950756,-0.61767162,2.63439659

>  <Name>
ligand

>  <RI>
0

>  <Rbt.Current_Directory>
/home/itssahil/PROJECTS/Mol_Feturizer/New_Systems/rnas/2HO6

>  <Rbt.Executable>
rbdock ($Id: //depot/dev/client3/rdock/2013.1/src/exe/rbdock.cxx#4 $)

>  <Rbt.Library>
libRbt.so (2013.1, Build901 2013/11/27)

>  <Rbt.Parameter_File>
/export/apps/rDock/src/rDock_2013.1_src/data/scripts/dock_solv.prm

>  <Rbt.Receptor>
prm/pocket_docking_6.prm

>  <SCORE>
-8.9702

>  <SCORE.INTER>
-8.62839

>  <SCORE.INTER.CONST>
1

>  <SCORE.INTER.POLAR>
0

>  <SCORE.INTER.ROT>
3

>  <SCORE.INTER.SOLV>
5.86051

>  <SCORE.INTER.VDW>
-13.3058

>  <SCORE.INTER.norm>
-0.719033

>  <SCORE.INTRA>
-0.341813

>  <SCORE.INTRA.DIHEDRAL>
0.623799

>  <SCORE.INTRA.DIHEDRAL.0>
1.88407

>  <SCORE.INTRA.POLAR>
0

>  <SCORE.INTRA.POLAR.0>
0

>  <SCORE.INTRA.REPUL>
0

>  <SCORE.INTRA.REPUL.0>
0

>  <SCORE.INTRA.SOLV>
0.0791492

>  <SCORE.INTRA.SOLV.lig_0>
-10.2714

>  <SCORE.INTRA.VDW>
-0.693287

>  <SCORE.INTRA.VDW.0>
0.416923

>  <SCORE.INTRA.norm>
-0.0284844

>  <SCORE.RESTR>
0

>  <SCORE.RESTR.CAVITY>
0

>  <SCORE.RESTR.norm>
0

>  <SCORE.SYSTEM>
0

>  <SCORE.SYSTEM.CONST>
0

>  <SCORE.SYSTEM.DIHEDRAL>
0

>  <SCORE.SYSTEM.SOLV>
0

>  <SCORE.SYSTEM.norm>
0

>  <SCORE.heavy>
12

>  <SCORE.norm>
-0.747517

>  <RMSD>
6.308

$$$$
ligand
 OpenBabel11021811433D
libRbt.so/2013.1/901 2013/11/27
 12 12  0  0  0  0  0  0  0  0999 V2000
   54.0736   14.3829   16.5372 O   0  0  0  0  0  0  0  0  0  0  0  0
   47.4483   11.8241   19.3004 O   0  0  0  0  0  0  0  0  0  0  0  0
   53.1856   14.3571   15.3790 C   0  0  0  0  0  0  0  0  0  0  0  0
   49.0065    9.9134   19.3229 O   0  0  0  0  0  0  0  0  0  0  0  0
   51.9611   13.4299   15.6299 C   0  0  0  0  0  0  0  0  0  0  0  0
   49.0979   11.6080   20.3279 O   0  0  0  0  0  0  0  0  0  0  0  0
   52.0595   12.8499   17.0140 N   0  0  0  0  0  0  0  0  0  0  0  0
   53.3415   12.0988   17.1746 C   0  0  0  0  0  0  0  0  0  0  0  0
   54.5386   13.0374   16.8519 C   0  0  0  0  0  0  0  0  0  0  0  0
   50.9066   11.9332   17.3219 C   0  0  0  0  0  0  0  0  0  0  0  0
   50.1957   12.3484   18.6327 C   0  0  0  0  0  0  0  0  0  0  0  0
   48.7478   11.3105   18.9431 S   0  0  0  0  0  0  0  0  0  0  0  0
  1  3  1  0  0  0  0
  1  9  1  0  0  0  0
  2 12  1  0  0  0  0
  3  5  1  0  0  0  0
  4 12  2  0  0  0  0
  5  7  1  0  0  0  0
  6 12  2  0  0  0  0
  7  8  1  0  0  0  0
  7 10  1  0  0  0  0
  8  9  1  0  0  0  0
 10 11  1  0  0  0  0
 11 12  1  0  0  0  0
M  END
>  <CHROM.1>
-126.20414396,176.35856628,-132.05818880,50.93143070,12.30099308,17.86567078
0.65987341,0.10153790,-0.78256253

>  <Name>
ligand

>  <RI>
0

>  <Rbt.Current_Directory>
/home/itssahil/PROJECTS/Mol_Feturizer/New_Systems/rnas/2HO6

>  <Rbt.Executable>
rbdock ($Id: //depot/dev/client3/rdock/2013.1/src/exe/rbdock.cxx#4 $)

>  <Rbt.Library>
libRbt.so (2013.1, Build901 2013/11/27)

>  <Rbt.Parameter_File>
/export/apps/rDock/src/rDock_2013.1_src/data/scripts/dock_solv.prm

>  <Rbt.Receptor>
prm/pocket_docking_8.prm

>  <SCORE>
-12.6503

>  <SCORE.INTER>
-12.6574

>  <SCORE.INTER.CONST>
1

>  <SCORE.INTER.POLAR>
0

>  <SCORE.INTER.ROT>
3

>  <SCORE.INTER.SOLV>
7.58086

>  <SCORE.INTER.VDW>
-16.5653

>  <SCORE.INTER.norm>
-1.05479

>  <SCORE.INTRA>
0.00716499

>  <SCORE.INTRA.DIHEDRAL>
2.24092

>  <SCORE.INTRA.DIHEDRAL.0>
1.88407

>  <SCORE.INTRA.POLAR>
0

>  <SCORE.INTRA.POLAR.0>
0

>  <SCORE.INTRA.REPUL>
0

>  <SCORE.INTRA.REPUL.0>
0

>  <SCORE.INTRA.SOLV>
0.0585725

>  <SCORE.INTRA.SOLV.lig_0>
-10.2714

>  <SCORE.INTRA.VDW>
-1.14258

>  <SCORE.INTRA.VDW.0>
0.416923

>  <SCORE.INTRA.norm>
0.000597083

>  <SCORE.RESTR>
0

>  <SCORE.RESTR.CAVITY>
0

>  <SCORE.RESTR.norm>
0

>  <SCORE.SYSTEM>
0

>  <SCORE.SYSTEM.CONST>
0

>  <SCORE.SYSTEM.DIHEDRAL>
0

>  <SCORE.SYSTEM.SOLV>
0

>  <SCORE.SYSTEM.norm>
0

>  <SCORE.heavy>
12

>  <SCORE.norm>
-1.05419

>  <RMSD>
6.354

$$$$
ligand
 OpenBabel11021811433D
libRbt.so/2013.1/901 2013/11/27
 12 12  0  0  0  0  0  0  0  0999 V2000
   54.2141   15.4795   14.9315 O   0  0  0  0  0  0  0  0  0  0  0  0
   49.5222   10.2094   17.9966 O   0  0  0  0  0  0  0  0  0  0  0  0
   54.4975   14.3746   14.0207 C   0  0  0  0  0  0  0  0  0  0  0  0
   51.6124   10.4178   19.2876 O   0  0  0  0  0  0  0  0  0  0  0  0
   53.9737   13.0255   14.5931 C   0  0  0  0  0  0  0  0  0  0  0  0
   50.2314   11.7781   18.9240 O   0  0  0  0  0  0  0  0  0  0  0  0
   53.3114   13.2787   15.9194 N   0  0  0  0  0  0  0  0  0  0  0  0
   54.2702   13.9256   16.8659 C   0  0  0  0  0  0  0  0  0  0  0  0
   54.8227   15.2344   16.2335 C   0  0  0  0  0  0  0  0  0  0  0  0
   52.7865   12.0104   16.5360 C   0  0  0  0  0  0  0  0  0  0  0  0
   51.3923   12.2318   17.1708 C   0  0  0  0  0  0  0  0  0  0  0  0
   50.8511   10.7639   18.0778 S   0  0  0  0  0  0  0  0  0  0  0  0
  1  3  1  0  0  0  0
  1  9  1  0  0  0  0
  2 12  1  0  0  0  0
  3  5  1  0  0  0  0
  4 12  2  0  0  0  0
  5  7  1  0  0  0  0
  6 12  2  0  0  0  0
  7  8  1  0  0  0  0
  7 10  1  0  0  0  0
  8  9  1  0  0  0  0
 10 11  1  0  0  0  0
 11 12  1  0  0  0  0
M  END
>  <CHROM.1>
-138.46509086,-173.31393142,-135.42093451,52.40921138,12.51438865,16.88340860
-0.42845022,0.83950278,1.40913503

>  <Name>
ligand

>  <RI>
0

>  <Rbt.Current_Directory>
/home/itssahil/PROJECTS/Mol_Feturizer/New_Systems/rnas/2HO6

>  <Rbt.Executable>
rbdock ($Id: //depot/dev/client3/rdock/2013.1/src/exe/rbdock.cxx#4 $)

>  <Rbt.Library>
libRbt.so (2013.1, Build901 2013/11/27)

>  <Rbt.Parameter_File>
/export/apps/rDock/src/rDock_2013.1_src/data/scripts/dock_solv.prm

>  <Rbt.Receptor>
prm/pocket_docking_8.prm

>  <SCORE>
-11.723

>  <SCORE.INTER>
-11.5487

>  <SCORE.INTER.CONST>
1

>  <SCORE.INTER.POLAR>
0

>  <SCORE.INTER.ROT>
3

>  <SCORE.INTER.SOLV>
5.18379

>  <SCORE.INTER.VDW>
-15.0271

>  <SCORE.INTER.norm>
-0.962392

>  <SCORE.INTRA>
-0.175678

>  <SCORE.INTRA.DIHEDRAL>
1.85264

>  <SCORE.INTRA.DIHEDRAL.0>
1.88407

>  <SCORE.INTRA.POLAR>
0

>  <SCORE.INTRA.POLAR.0>
0

>  <SCORE.INTRA.REPUL>
0

>  <SCORE.INTRA.REPUL.0>
0

>  <SCORE.INTRA.SOLV>
0.069915

>  <SCORE.INTRA.SOLV.lig_0>
-10.2714

>  <SCORE.INTRA.VDW>
-1.13696

>  <SCORE.INTRA.VDW.0>
0.416923

>  <SCORE.INTRA.norm>
-0.0146398

>  <SCORE.RESTR>
0.00133555

>  <SCORE.RESTR.CAVITY>
0.00133555

>  <SCORE.RESTR.norm>
0.000111296

>  <SCORE.SYSTEM>
0

>  <SCORE.SYSTEM.CONST>
0

>  <SCORE.SYSTEM.DIHEDRAL>
0

>  <SCORE.SYSTEM.SOLV>
0

>  <SCORE.SYSTEM.norm>
0

>  <SCORE.heavy>
12

>  <SCORE.norm>
-0.97692

>  <RMSD>
6.364

$$$$
ligand
 OpenBabel11021811433D
libRbt.so/2013.1/901 2013/11/27
 12 12  0  0  0  0  0  0  0  0999 V2000
   54.0546   15.3731   14.8881 O   0  0  0  0  0  0  0  0  0  0  0  0
   49.4031   10.2241   18.2813 O   0  0  0  0  0  0  0  0  0  0  0  0
   54.2788   14.1945   14.0567 C   0  0  0  0  0  0  0  0  0  0  0  0
   51.5870   10.4701   19.3990 O   0  0  0  0  0  0  0  0  0  0  0  0
   53.8176   12.8977   14.7832 C   0  0  0  0  0  0  0  0  0  0  0  0
   50.2266   11.8430   19.0059 O   0  0  0  0  0  0  0  0  0  0  0  0
   53.2582   13.2622   16.1309 N   0  0  0  0  0  0  0  0  0  0  0  0
   54.2804   13.9939   16.9391 C   0  0  0  0  0  0  0  0  0  0  0  0
   54.7662   15.2454   16.1542 C   0  0  0  0  0  0  0  0  0  0  0  0
   52.7983   12.0499   16.8944 C   0  0  0  0  0  0  0  0  0  0  0  0
   51.2709   12.0900   17.1415 C   0  0  0  0  0  0  0  0  0  0  0  0
   50.7512   10.7328   18.2177 S   0  0  0  0  0  0  0  0  0  0  0  0
  1  3  1  0  0  0  0
  1  9  1  0  0  0  0
  2 12  1  0  0  0  0
  3  5  1  0  0  0  0
  4 12  2  0  0  0  0
  5  7  1  0  0  0  0
  6 12  2  0  0  0  0
  7  8  1  0  0  0  0
  7 10  1  0  0  0  0
  8  9  1  0  0  0  0
 10 11  1  0  0  0  0
 11 12  1  0  0  0  0
M  END
>  <CHROM.1>
-116.16448379,-173.53791274,-158.42669865,52.32512419,12.48625690,16.99721730
0.52845416,-0.79736989,-1.61829779

>  <Name>
ligand

>  <RI>
0

>  <Rbt.Current_Directory>
/home/itssahil/PROJECTS/Mol_Feturizer/New_Systems/rnas/2HO6

>  <Rbt.Executable>
rbdock ($Id: //depot/dev/client3/rdock/2013.1/src/exe/rbdock.cxx#4 $)

>  <Rbt.Library>
libRbt.so (2013.1, Build901 2013/11/27)

>  <Rbt.Parameter_File>
/export/apps/rDock/src/rDock_2013.1_src/data/scripts/dock_solv.prm

>  <Rbt.Receptor>
prm/pocket_docking_8.prm

>  <SCORE>
-11.7429

>  <SCORE.INTER>
-11.8121

>  <SCORE.INTER.CONST>
1

>  <SCORE.INTER.POLAR>
0

>  <SCORE.INTER.ROT>
3

>  <SCORE.INTER.SOLV>
4.90948

>  <SCORE.INTER.VDW>
-15.1112

>  <SCORE.INTER.norm>
-0.984341

>  <SCORE.INTRA>
0.0692143

>  <SCORE.INTRA.DIHEDRAL>
2.38601

>  <SCORE.INTRA.DIHEDRAL.0>
1.88407

>  <SCORE.INTRA.POLAR>
0

>  <SCORE.INTRA.POLAR.0>
0

>  <SCORE.INTRA.REPUL>
0

>  <SCORE.INTRA.REPUL.0>
0

>  <SCORE.INTRA.SOLV>
0.123071

>  <SCORE.INTRA.SOLV.lig_0>
-10.2714

>  <SCORE.INTRA.VDW>
-1.18533

>  <SCORE.INTRA.VDW.0>
0.416923

>  <SCORE.INTRA.norm>
0.00576785

>  <SCORE.RESTR>
0

>  <SCORE.RESTR.CAVITY>
0

>  <SCORE.RESTR.norm>
0

>  <SCORE.SYSTEM>
0

>  <SCORE.SYSTEM.CONST>
0

>  <SCORE.SYSTEM.DIHEDRAL>
0

>  <SCORE.SYSTEM.SOLV>
0

>  <SCORE.SYSTEM.norm>
0

>  <SCORE.heavy>
12

>  <SCORE.norm>
-0.978573

>  <RMSD>
6.407

$$$$
ligand
 OpenBabel11021811433D
libRbt.so/2013.1/901 2013/11/27
 12 12  0  0  0  0  0  0  0  0999 V2000
   52.9151   14.1264   10.7330 O   0  0  0  0  0  0  0  0  0  0  0  0
   52.0715   15.5425   14.7422 O   0  0  0  0  0  0  0  0  0  0  0  0
   53.3329   12.7283   10.7710 C   0  0  0  0  0  0  0  0  0  0  0  0
   52.3681   14.0629   16.6921 O   0  0  0  0  0  0  0  0  0  0  0  0
   54.1652   12.4247   12.0505 C   0  0  0  0  0  0  0  0  0  0  0  0
   53.2962   15.7469   16.2529 O   0  0  0  0  0  0  0  0  0  0  0  0
   54.2712   13.6772   12.8763 N   0  0  0  0  0  0  0  0  0  0  0  0
   54.8965   14.7758   12.0791 C   0  0  0  0  0  0  0  0  0  0  0  0
   54.0770   15.0060   10.7777 C   0  0  0  0  0  0  0  0  0  0  0  0
   55.0735   13.4568   14.1301 C   0  0  0  0  0  0  0  0  0  0  0  0
   54.7060   14.4933   15.2193 C   0  0  0  0  0  0  0  0  0  0  0  0
   52.9138   14.5998   15.4363 S   0  0  0  0  0  0  0  0  0  0  0  0
  1  3  1  0  0  0  0
  1  9  1  0  0  0  0
  2 12  1  0  0  0  0
  3  5  1  0  0  0  0
  4 12  2  0  0  0  0
  5  7  1  0  0  0  0
  6 12  2  0  0  0  0
  7  8  1  0  0  0  0
  7 10  1  0  0  0  0
  8  9  1  0  0  0  0
 10 11  1  0  0  0  0
 11 12  1  0  0  0  0
M  END
>  <CHROM.1>
-156.36292429,49.34214250,-92.72254724,53.56219758,14.28174744,13.70746154
1.34530454,0.63748131,-1.66697667

>  <Name>
ligand

>  <RI>
0

>  <Rbt.Current_Directory>
/home/itssahil/PROJECTS/Mol_Feturizer/New_Systems/rnas/2HO6

>  <Rbt.Executable>
rbdock ($Id: //depot/dev/client3/rdock/2013.1/src/exe/rbdock.cxx#4 $)

>  <Rbt.Library>
libRbt.so (2013.1, Build901 2013/11/27)

>  <Rbt.Parameter_File>
/export/apps/rDock/src/rDock_2013.1_src/data/scripts/dock_solv.prm

>  <Rbt.Receptor>
prm/pocket_docking_7.prm

>  <SCORE>
-7.7302

>  <SCORE.INTER>
-6.91215

>  <SCORE.INTER.CONST>
1

>  <SCORE.INTER.POLAR>
0

>  <SCORE.INTER.ROT>
3

>  <SCORE.INTER.SOLV>
4.89008

>  <SCORE.INTER.VDW>
-11.8381

>  <SCORE.INTER.norm>
-0.576012

>  <SCORE.INTRA>
-0.818051

>  <SCORE.INTRA.DIHEDRAL>
1.1431

>  <SCORE.INTRA.DIHEDRAL.0>
1.88407

>  <SCORE.INTRA.POLAR>
0

>  <SCORE.INTRA.POLAR.0>
0

>  <SCORE.INTRA.REPUL>
0

>  <SCORE.INTRA.REPUL.0>
0

>  <SCORE.INTRA.SOLV>
0.253519

>  <SCORE.INTRA.SOLV.lig_0>
-10.2714

>  <SCORE.INTRA.VDW>
-1.51636

>  <SCORE.INTRA.VDW.0>
0.416923

>  <SCORE.INTRA.norm>
-0.0681709

>  <SCORE.RESTR>
0

>  <SCORE.RESTR.CAVITY>
0

>  <SCORE.RESTR.norm>
0

>  <SCORE.SYSTEM>
0

>  <SCORE.SYSTEM.CONST>
0

>  <SCORE.SYSTEM.DIHEDRAL>
0

>  <SCORE.SYSTEM.SOLV>
0

>  <SCORE.SYSTEM.norm>
0

>  <SCORE.heavy>
12

>  <SCORE.norm>
-0.644183

>  <RMSD>
6.444

$$$$
ligand
 OpenBabel11021811433D
libRbt.so/2013.1/901 2013/11/27
 12 12  0  0  0  0  0  0  0  0999 V2000
   54.2687   15.5944   14.8389 O   0  0  0  0  0  0  0  0  0  0  0  0
   51.8267   10.1395   18.8850 O   0  0  0  0  0  0  0  0  0  0  0  0
   54.5569   14.4149   14.0288 C   0  0  0  0  0  0  0  0  0  0  0  0
   49.5122   10.8956   18.4969 O   0  0  0  0  0  0  0  0  0  0  0  0
   54.0773   13.1150   14.7376 C   0  0  0  0  0  0  0  0  0  0  0  0
   50.8576   10.2805   17.1924 O   0  0  0  0  0  0  0  0  0  0  0  0
   53.4394   13.4780   16.0503 N   0  0  0  0  0  0  0  0  0  0  0  0
   54.4041   14.2308   16.9082 C   0  0  0  0  0  0  0  0  0  0  0  0
   54.9120   15.4856   16.1428 C   0  0  0  0  0  0  0  0  0  0  0  0
   52.9579   12.2627   16.7956 C   0  0  0  0  0  0  0  0  0  0  0  0
   51.4398   12.3486   17.0852 C   0  0  0  0  0  0  0  0  0  0  0  0
   50.9525   11.1569   18.3551 S   0  0  0  0  0  0  0  0  0  0  0  0
  1  3  1  0  0  0  0
  1  9  1  0  0  0  0
  2 12  1  0  0  0  0
  3  5  1  0  0  0  0
  4 12  2  0  0  0  0
  5  7  1  0  0  0  0
  6 12  2  0  0  0  0
  7  8  1  0  0  0  0
  7 10  1  0  0  0  0
  8  9  1  0  0  0  0
 10 11  1  0  0  0  0
 11 12  1  0  0  0  0
M  END
>  <CHROM.1>
-121.95688912,-163.99304431,-8.09842773,52.55177945,12.58954297,16.81650687
-0.37994786,0.87504581,1.39645558

>  <Name>
ligand

>  <RI>
0

>  <Rbt.Current_Directory>
/home/itssahil/PROJECTS/Mol_Feturizer/New_Systems/rnas/2HO6

>  <Rbt.Executable>
rbdock ($Id: //depot/dev/client3/rdock/2013.1/src/exe/rbdock.cxx#4 $)

>  <Rbt.Library>
libRbt.so (2013.1, Build901 2013/11/27)

>  <Rbt.Parameter_File>
/export/apps/rDock/src/rDock_2013.1_src/data/scripts/dock_solv.prm

>  <Rbt.Receptor>
prm/pocket_docking_8.prm

>  <SCORE>
-9.88289

>  <SCORE.INTER>
-10.5839

>  <SCORE.INTER.CONST>
1

>  <SCORE.INTER.POLAR>
0

>  <SCORE.INTER.ROT>
3

>  <SCORE.INTER.SOLV>
6.16142

>  <SCORE.INTER.VDW>
-14.7098

>  <SCORE.INTER.norm>
-0.881995

>  <SCORE.INTRA>
0.70105

>  <SCORE.INTRA.DIHEDRAL>
3.19323

>  <SCORE.INTRA.DIHEDRAL.0>
1.88407

>  <SCORE.INTRA.POLAR>
0

>  <SCORE.INTRA.POLAR.0>
0

>  <SCORE.INTRA.REPUL>
0

>  <SCORE.INTRA.REPUL.0>
0

>  <SCORE.INTRA.SOLV>
-0.0190988

>  <SCORE.INTRA.SOLV.lig_0>
-10.2714

>  <SCORE.INTRA.VDW>
-0.886014

>  <SCORE.INTRA.VDW.0>
0.416923

>  <SCORE.INTRA.norm>
0.0584208

>  <SCORE.RESTR>
0

>  <SCORE.RESTR.CAVITY>
0

>  <SCORE.RESTR.norm>
0

>  <SCORE.SYSTEM>
0

>  <SCORE.SYSTEM.CONST>
0

>  <SCORE.SYSTEM.DIHEDRAL>
0

>  <SCORE.SYSTEM.SOLV>
0

>  <SCORE.SYSTEM.norm>
0

>  <SCORE.heavy>
12

>  <SCORE.norm>
-0.823574

>  <RMSD>
6.452

$$$$
ligand
 OpenBabel11021811433D
libRbt.so/2013.1/901 2013/11/27
 12 12  0  0  0  0  0  0  0  0999 V2000
   52.5839   14.1840   12.0504 O   0  0  0  0  0  0  0  0  0  0  0  0
   53.4865   12.2193   15.1559 O   0  0  0  0  0  0  0  0  0  0  0  0
   53.8375   14.8418   11.6951 C   0  0  0  0  0  0  0  0  0  0  0  0
   53.4214   12.0200   17.6126 O   0  0  0  0  0  0  0  0  0  0  0  0
   54.6155   15.2932   12.9652 C   0  0  0  0  0  0  0  0  0  0  0  0
   52.3362   13.1618   16.4257 O   0  0  0  0  0  0  0  0  0  0  0  0
   53.8355   14.8927   14.1872 N   0  0  0  0  0  0  0  0  0  0  0  0
   52.4686   15.4960   14.1540 C   0  0  0  0  0  0  0  0  0  0  0  0
   51.7467   15.0779   12.8416 C   0  0  0  0  0  0  0  0  0  0  0  0
   54.5290   15.3072   15.4566 C   0  0  0  0  0  0  0  0  0  0  0  0
   53.8988   14.6163   16.6900 C   0  0  0  0  0  0  0  0  0  0  0  0
   53.7574   12.8318   16.4332 S   0  0  0  0  0  0  0  0  0  0  0  0
  1  3  1  0  0  0  0
  1  9  1  0  0  0  0
  2 12  1  0  0  0  0
  3  5  1  0  0  0  0
  4 12  2  0  0  0  0
  5  7  1  0  0  0  0
  6 12  2  0  0  0  0
  7  8  1  0  0  0  0
  7 10  1  0  0  0  0
  8  9  1  0  0  0  0
 10 11  1  0  0  0  0
 11 12  1  0  0  0  0
M  END
>  <CHROM.1>
-166.91235118,50.15179194,-34.08474094,53.39469861,13.98685632,14.83291247
1.66623665,-0.89081484,-1.01592200

>  <Name>
ligand

>  <RI>
0

>  <Rbt.Current_Directory>
/home/itssahil/PROJECTS/Mol_Feturizer/New_Systems/rnas/2HO6

>  <Rbt.Executable>
rbdock ($Id: //depot/dev/client3/rdock/2013.1/src/exe/rbdock.cxx#4 $)

>  <Rbt.Library>
libRbt.so (2013.1, Build901 2013/11/27)

>  <Rbt.Parameter_File>
/export/apps/rDock/src/rDock_2013.1_src/data/scripts/dock_solv.prm

>  <Rbt.Receptor>
prm/pocket_docking_8.prm

>  <SCORE>
-8.73611

>  <SCORE.INTER>
-7.6878

>  <SCORE.INTER.CONST>
1

>  <SCORE.INTER.POLAR>
0

>  <SCORE.INTER.ROT>
3

>  <SCORE.INTER.SOLV>
4.78929

>  <SCORE.INTER.VDW>
-12.3216

>  <SCORE.INTER.norm>
-0.64065

>  <SCORE.INTRA>
-1.0483

>  <SCORE.INTRA.DIHEDRAL>
0.423828

>  <SCORE.INTRA.DIHEDRAL.0>
1.88407

>  <SCORE.INTRA.POLAR>
0

>  <SCORE.INTRA.POLAR.0>
0

>  <SCORE.INTRA.REPUL>
0

>  <SCORE.INTRA.REPUL.0>
0

>  <SCORE.INTRA.SOLV>
0.496327

>  <SCORE.INTRA.SOLV.lig_0>
-10.2714

>  <SCORE.INTRA.VDW>
-1.50838

>  <SCORE.INTRA.VDW.0>
0.416923

>  <SCORE.INTRA.norm>
-0.0873587

>  <SCORE.RESTR>
0

>  <SCORE.RESTR.CAVITY>
0

>  <SCORE.RESTR.norm>
0

>  <SCORE.SYSTEM>
0

>  <SCORE.SYSTEM.CONST>
0

>  <SCORE.SYSTEM.DIHEDRAL>
0

>  <SCORE.SYSTEM.SOLV>
0

>  <SCORE.SYSTEM.norm>
0

>  <SCORE.heavy>
12

>  <SCORE.norm>
-0.728009

>  <RMSD>
6.466

$$$$
ligand
 OpenBabel11021811433D
libRbt.so/2013.1/901 2013/11/27
 12 12  0  0  0  0  0  0  0  0999 V2000
   43.8921   10.6514   14.5321 O   0  0  0  0  0  0  0  0  0  0  0  0
   42.2165   15.1881   14.7322 O   0  0  0  0  0  0  0  0  0  0  0  0
   44.3130   11.8509   15.2496 C   0  0  0  0  0  0  0  0  0  0  0  0
   43.0482   17.0851   13.3947 O   0  0  0  0  0  0  0  0  0  0  0  0
   44.4247   13.0705   14.2892 C   0  0  0  0  0  0  0  0  0  0  0  0
   41.4959   15.9138   13.0655 O   0  0  0  0  0  0  0  0  0  0  0  0
   44.0428   12.6385   12.9002 N   0  0  0  0  0  0  0  0  0  0  0  0
   44.9179   11.5162   12.4441 C   0  0  0  0  0  0  0  0  0  0  0  0
   44.8323   10.3429   13.4612 C   0  0  0  0  0  0  0  0  0  0  0  0
   44.1363   13.7714   11.9143 C   0  0  0  0  0  0  0  0  0  0  0  0
   42.8832   14.6774   11.9820 C   0  0  0  0  0  0  0  0  0  0  0  0
   42.8544   15.6324   13.5174 S   0  0  0  0  0  0  0  0  0  0  0  0
  1  3  1  0  0  0  0
  1  9  1  0  0  0  0
  2 12  1  0  0  0  0
  3  5  1  0  0  0  0
  4 12  2  0  0  0  0
  5  7  1  0  0  0  0
  6 12  2  0  0  0  0
  7  8  1  0  0  0  0
  7 10  1  0  0  0  0
  8  9  1  0  0  0  0
 10 11  1  0  0  0  0
 11 12  1  0  0  0  0
M  END
>  <CHROM.1>
-80.82876791,70.55902253,-91.01027937,43.48235777,13.77166130,13.48181402
0.56122761,-1.10669411,2.09756805

>  <Name>
ligand

>  <RI>
0

>  <Rbt.Current_Directory>
/home/itssahil/PROJECTS/Mol_Feturizer/New_Systems/rnas/2HO6

>  <Rbt.Executable>
rbdock ($Id: //depot/dev/client3/rdock/2013.1/src/exe/rbdock.cxx#4 $)

>  <Rbt.Library>
libRbt.so (2013.1, Build901 2013/11/27)

>  <Rbt.Parameter_File>
/export/apps/rDock/src/rDock_2013.1_src/data/scripts/dock_solv.prm

>  <Rbt.Receptor>
prm/pocket_docking_6.prm

>  <SCORE>
-9.91897

>  <SCORE.INTER>
-9.3713

>  <SCORE.INTER.CONST>
1

>  <SCORE.INTER.POLAR>
0

>  <SCORE.INTER.ROT>
3

>  <SCORE.INTER.SOLV>
7.04539

>  <SCORE.INTER.VDW>
-14.196

>  <SCORE.INTER.norm>
-0.780942

>  <SCORE.INTRA>
-0.547667

>  <SCORE.INTRA.DIHEDRAL>
1.12094

>  <SCORE.INTRA.DIHEDRAL.0>
1.88407

>  <SCORE.INTRA.POLAR>
0

>  <SCORE.INTRA.POLAR.0>
0

>  <SCORE.INTRA.REPUL>
0

>  <SCORE.INTRA.REPUL.0>
0

>  <SCORE.INTRA.SOLV>
0.135802

>  <SCORE.INTRA.SOLV.lig_0>
-10.2714

>  <SCORE.INTRA.VDW>
-1.17604

>  <SCORE.INTRA.VDW.0>
0.416923

>  <SCORE.INTRA.norm>
-0.0456389

>  <SCORE.RESTR>
0

>  <SCORE.RESTR.CAVITY>
0

>  <SCORE.RESTR.norm>
0

>  <SCORE.SYSTEM>
0

>  <SCORE.SYSTEM.CONST>
0

>  <SCORE.SYSTEM.DIHEDRAL>
0

>  <SCORE.SYSTEM.SOLV>
0

>  <SCORE.SYSTEM.norm>
0

>  <SCORE.heavy>
12

>  <SCORE.norm>
-0.826581

>  <RMSD>
6.558

$$$$
ligand
 OpenBabel11021811433D
libRbt.so/2013.1/901 2013/11/27
 12 12  0  0  0  0  0  0  0  0999 V2000
   53.0677   14.0553   16.7633 O   0  0  0  0  0  0  0  0  0  0  0  0
   51.3512   15.5551   13.6864 O   0  0  0  0  0  0  0  0  0  0  0  0
   54.1390   15.0205   16.9897 C   0  0  0  0  0  0  0  0  0  0  0  0
   51.4093   16.5715   11.4408 O   0  0  0  0  0  0  0  0  0  0  0  0
   54.8007   15.4512   15.6485 C   0  0  0  0  0  0  0  0  0  0  0  0
   51.5358   14.6708   11.9521 O   0  0  0  0  0  0  0  0  0  0  0  0
   54.1132   14.7449   14.5125 N   0  0  0  0  0  0  0  0  0  0  0  0
   54.1906   13.2638   14.6963 C   0  0  0  0  0  0  0  0  0  0  0  0
   53.5812   12.8776   16.0739 C   0  0  0  0  0  0  0  0  0  0  0  0
   54.7103   15.1104   13.1806 C   0  0  0  0  0  0  0  0  0  0  0  0
   53.6557   15.0220   12.0510 C   0  0  0  0  0  0  0  0  0  0  0  0
   52.1318   15.8768   12.5170 S   0  0  0  0  0  0  0  0  0  0  0  0
  1  3  1  0  0  0  0
  1  9  1  0  0  0  0
  2 12  1  0  0  0  0
  3  5  1  0  0  0  0
  4 12  2  0  0  0  0
  5  7  1  0  0  0  0
  6 12  2  0  0  0  0
  7  8  1  0  0  0  0
  7 10  1  0  0  0  0
  8  9  1  0  0  0  0
 10 11  1  0  0  0  0
 11 12  1  0  0  0  0
M  END
>  <CHROM.1>
-150.72789211,48.40934477,-57.89125260,53.06619546,14.96152659,13.94954984
1.12177056,-0.14446089,1.87416108

>  <Name>
ligand

>  <RI>
0

>  <Rbt.Current_Directory>
/home/itssahil/PROJECTS/Mol_Feturizer/New_Systems/rnas/2HO6

>  <Rbt.Executable>
rbdock ($Id: //depot/dev/client3/rdock/2013.1/src/exe/rbdock.cxx#4 $)

>  <Rbt.Library>
libRbt.so (2013.1, Build901 2013/11/27)

>  <Rbt.Parameter_File>
/export/apps/rDock/src/rDock_2013.1_src/data/scripts/dock_solv.prm

>  <Rbt.Receptor>
prm/pocket_docking_8.prm

>  <SCORE>
-9.86324

>  <SCORE.INTER>
-8.84754

>  <SCORE.INTER.CONST>
1

>  <SCORE.INTER.POLAR>
0

>  <SCORE.INTER.ROT>
3

>  <SCORE.INTER.SOLV>
4.31032

>  <SCORE.INTER.VDW>
-12.9351

>  <SCORE.INTER.norm>
-0.737295

>  <SCORE.INTRA>
-1.0157

>  <SCORE.INTRA.DIHEDRAL>
1.46002

>  <SCORE.INTRA.DIHEDRAL.0>
1.88407

>  <SCORE.INTRA.POLAR>
0

>  <SCORE.INTRA.POLAR.0>
0

>  <SCORE.INTRA.REPUL>
0

>  <SCORE.INTRA.REPUL.0>
0

>  <SCORE.INTRA.SOLV>
0.275928

>  <SCORE.INTRA.SOLV.lig_0>
-10.2714

>  <SCORE.INTRA.VDW>
-1.88368

>  <SCORE.INTRA.VDW.0>
0.416923

>  <SCORE.INTRA.norm>
-0.084642

>  <SCORE.RESTR>
0

>  <SCORE.RESTR.CAVITY>
0

>  <SCORE.RESTR.norm>
0

>  <SCORE.SYSTEM>
0

>  <SCORE.SYSTEM.CONST>
0

>  <SCORE.SYSTEM.DIHEDRAL>
0

>  <SCORE.SYSTEM.SOLV>
0

>  <SCORE.SYSTEM.norm>
0

>  <SCORE.heavy>
12

>  <SCORE.norm>
-0.821937

>  <RMSD>
6.563

$$$$
ligand
 OpenBabel11021811433D
libRbt.so/2013.1/901 2013/11/27
 12 12  0  0  0  0  0  0  0  0999 V2000
   43.1403   10.1562   14.2340 O   0  0  0  0  0  0  0  0  0  0  0  0
   42.5682   14.4158   14.9102 O   0  0  0  0  0  0  0  0  0  0  0  0
   43.7000   10.8289   15.4023 C   0  0  0  0  0  0  0  0  0  0  0  0
   41.8588   16.1161   13.2716 O   0  0  0  0  0  0  0  0  0  0  0  0
   44.4435   12.1347   14.9969 C   0  0  0  0  0  0  0  0  0  0  0  0
   42.0262   14.1636   13.0483 O   0  0  0  0  0  0  0  0  0  0  0  0
   44.3415   12.3158   13.5074 N   0  0  0  0  0  0  0  0  0  0  0  0
   44.9139   11.1316   12.7978 C   0  0  0  0  0  0  0  0  0  0  0  0
   44.1931    9.8394   13.2763 C   0  0  0  0  0  0  0  0  0  0  0  0
   45.0485   13.5604   13.0435 C   0  0  0  0  0  0  0  0  0  0  0  0
   44.0496   14.5839   12.4513 C   0  0  0  0  0  0  0  0  0  0  0  0
   42.8774   15.1487   13.7071 S   0  0  0  0  0  0  0  0  0  0  0  0
  1  3  1  0  0  0  0
  1  9  1  0  0  0  0
  2 12  1  0  0  0  0
  3  5  1  0  0  0  0
  4 12  2  0  0  0  0
  5  7  1  0  0  0  0
  6 12  2  0  0  0  0
  7  8  1  0  0  0  0
  7 10  1  0  0  0  0
  8  9  1  0  0  0  0
 10 11  1  0  0  0  0
 11 12  1  0  0  0  0
M  END
>  <CHROM.1>
-115.13135370,63.35062098,-21.88725213,43.48119260,13.11261535,13.72526304
1.12864716,-0.75650075,2.71930480

>  <Name>
ligand

>  <RI>
0

>  <Rbt.Current_Directory>
/home/itssahil/PROJECTS/Mol_Feturizer/New_Systems/rnas/2HO6

>  <Rbt.Executable>
rbdock ($Id: //depot/dev/client3/rdock/2013.1/src/exe/rbdock.cxx#4 $)

>  <Rbt.Library>
libRbt.so (2013.1, Build901 2013/11/27)

>  <Rbt.Parameter_File>
/export/apps/rDock/src/rDock_2013.1_src/data/scripts/dock_solv.prm

>  <Rbt.Receptor>
prm/pocket_docking_6.prm

>  <SCORE>
-10.9163

>  <SCORE.INTER>
-10.3578

>  <SCORE.INTER.CONST>
1

>  <SCORE.INTER.POLAR>
0

>  <SCORE.INTER.ROT>
3

>  <SCORE.INTER.SOLV>
8.227

>  <SCORE.INTER.VDW>
-15.2476

>  <SCORE.INTER.norm>
-0.863152

>  <SCORE.INTRA>
-0.558433

>  <SCORE.INTRA.DIHEDRAL>
2.27352

>  <SCORE.INTRA.DIHEDRAL.0>
1.88407

>  <SCORE.INTRA.POLAR>
0

>  <SCORE.INTRA.POLAR.0>
0

>  <SCORE.INTRA.REPUL>
0

>  <SCORE.INTRA.REPUL.0>
0

>  <SCORE.INTRA.SOLV>
0.46614

>  <SCORE.INTRA.SOLV.lig_0>
-10.2714

>  <SCORE.INTRA.VDW>
-1.92826

>  <SCORE.INTRA.VDW.0>
0.416923

>  <SCORE.INTRA.norm>
-0.0465361

>  <SCORE.RESTR>
0

>  <SCORE.RESTR.CAVITY>
0

>  <SCORE.RESTR.norm>
0

>  <SCORE.SYSTEM>
0

>  <SCORE.SYSTEM.CONST>
0

>  <SCORE.SYSTEM.DIHEDRAL>
0

>  <SCORE.SYSTEM.SOLV>
0

>  <SCORE.SYSTEM.norm>
0

>  <SCORE.heavy>
12

>  <SCORE.norm>
-0.909688

>  <RMSD>
6.578

$$$$
ligand
 OpenBabel11021811433D
libRbt.so/2013.1/901 2013/11/27
 12 12  0  0  0  0  0  0  0  0999 V2000
   43.1246   10.1535   14.3121 O   0  0  0  0  0  0  0  0  0  0  0  0
   42.5991   14.3650   14.9550 O   0  0  0  0  0  0  0  0  0  0  0  0
   43.7521   10.8070   15.4566 C   0  0  0  0  0  0  0  0  0  0  0  0
   41.9249   16.1299   13.3708 O   0  0  0  0  0  0  0  0  0  0  0  0
   44.5080   12.0965   15.0231 C   0  0  0  0  0  0  0  0  0  0  0  0
   42.0325   14.1802   13.0925 O   0  0  0  0  0  0  0  0  0  0  0  0
   44.3439   12.2871   13.5403 N   0  0  0  0  0  0  0  0  0  0  0  0
   44.8553   11.0928   12.8015 C   0  0  0  0  0  0  0  0  0  0  0  0
   44.1256    9.8161   13.3071 C   0  0  0  0  0  0  0  0  0  0  0  0
   45.0593   13.5166   13.0497 C   0  0  0  0  0  0  0  0  0  0  0  0
   44.0617   14.5575   12.4866 C   0  0  0  0  0  0  0  0  0  0  0  0
   42.9185   15.1215   13.7693 S   0  0  0  0  0  0  0  0  0  0  0  0
  1  3  1  0  0  0  0
  1  9  1  0  0  0  0
  2 12  1  0  0  0  0
  3  5  1  0  0  0  0
  4 12  2  0  0  0  0
  5  7  1  0  0  0  0
  6 12  2  0  0  0  0
  7  8  1  0  0  0  0
  7 10  1  0  0  0  0
  8  9  1  0  0  0  0
 10 11  1  0  0  0  0
 11 12  1  0  0  0  0
M  END
>  <CHROM.1>
-116.00528648,62.11726012,-23.37186610,43.49634674,13.09026093,13.77113798
1.13327257,-0.78166431,2.71828573

>  <Name>
ligand

>  <RI>
0

>  <Rbt.Current_Directory>
/home/itssahil/PROJECTS/Mol_Feturizer/New_Systems/rnas/2HO6

>  <Rbt.Executable>
rbdock ($Id: //depot/dev/client3/rdock/2013.1/src/exe/rbdock.cxx#4 $)

>  <Rbt.Library>
libRbt.so (2013.1, Build901 2013/11/27)

>  <Rbt.Parameter_File>
/export/apps/rDock/src/rDock_2013.1_src/data/scripts/dock_solv.prm

>  <Rbt.Receptor>
prm/pocket_docking_8.prm

>  <SCORE>
-10.9364

>  <SCORE.INTER>
-10.3297

>  <SCORE.INTER.CONST>
1

>  <SCORE.INTER.POLAR>
0

>  <SCORE.INTER.ROT>
3

>  <SCORE.INTER.SOLV>
8.32343

>  <SCORE.INTER.VDW>
-15.261

>  <SCORE.INTER.norm>
-0.86081

>  <SCORE.INTRA>
-0.606631

>  <SCORE.INTRA.DIHEDRAL>
2.25386

>  <SCORE.INTRA.DIHEDRAL.0>
1.88407

>  <SCORE.INTRA.POLAR>
0

>  <SCORE.INTRA.POLAR.0>
0

>  <SCORE.INTRA.REPUL>
0

>  <SCORE.INTRA.REPUL.0>
0

>  <SCORE.INTRA.SOLV>
0.448718

>  <SCORE.INTRA.SOLV.lig_0>
-10.2714

>  <SCORE.INTRA.VDW>
-1.95792

>  <SCORE.INTRA.VDW.0>
0.416923

>  <SCORE.INTRA.norm>
-0.0505526

>  <SCORE.RESTR>
0

>  <SCORE.RESTR.CAVITY>
0

>  <SCORE.RESTR.norm>
0

>  <SCORE.SYSTEM>
0

>  <SCORE.SYSTEM.CONST>
0

>  <SCORE.SYSTEM.DIHEDRAL>
0

>  <SCORE.SYSTEM.SOLV>
0

>  <SCORE.SYSTEM.norm>
0

>  <SCORE.heavy>
12

>  <SCORE.norm>
-0.911363

>  <RMSD>
6.582

$$$$
ligand
 OpenBabel11021811433D
libRbt.so/2013.1/901 2013/11/27
 12 12  0  0  0  0  0  0  0  0999 V2000
   43.1020   10.1585   14.2998 O   0  0  0  0  0  0  0  0  0  0  0  0
   42.5952   14.4235   14.9193 O   0  0  0  0  0  0  0  0  0  0  0  0
   43.7503   10.7995   15.4398 C   0  0  0  0  0  0  0  0  0  0  0  0
   41.8492   16.0768   13.2491 O   0  0  0  0  0  0  0  0  0  0  0  0
   44.5075   12.0877   15.0049 C   0  0  0  0  0  0  0  0  0  0  0  0
   42.0324   14.1211   13.0711 O   0  0  0  0  0  0  0  0  0  0  0  0
   44.3227   12.2907   13.5262 N   0  0  0  0  0  0  0  0  0  0  0  0
   44.8158   11.0991   12.7709 C   0  0  0  0  0  0  0  0  0  0  0  0
   44.0859    9.8229   13.2775 C   0  0  0  0  0  0  0  0  0  0  0  0
   45.0382   13.5196   13.0344 C   0  0  0  0  0  0  0  0  0  0  0  0
   44.0441   14.5454   12.4383 C   0  0  0  0  0  0  0  0  0  0  0  0
   42.8823   15.1297   13.6949 S   0  0  0  0  0  0  0  0  0  0  0  0
  1  3  1  0  0  0  0
  1  9  1  0  0  0  0
  2 12  1  0  0  0  0
  3  5  1  0  0  0  0
  4 12  2  0  0  0  0
  5  7  1  0  0  0  0
  6 12  2  0  0  0  0
  7  8  1  0  0  0  0
  7 10  1  0  0  0  0
  8  9  1  0  0  0  0
 10 11  1  0  0  0  0
 11 12  1  0  0  0  0
M  END
>  <CHROM.1>
-118.44958071,62.73561797,-20.50160944,43.47173231,13.08698519,13.73062213
1.13005949,-0.78107817,2.70320394

>  <Name>
ligand

>  <RI>
0

>  <Rbt.Current_Directory>
/home/itssahil/PROJECTS/Mol_Feturizer/New_Systems/rnas/2HO6

>  <Rbt.Executable>
rbdock ($Id: //depot/dev/client3/rdock/2013.1/src/exe/rbdock.cxx#4 $)

>  <Rbt.Library>
libRbt.so (2013.1, Build901 2013/11/27)

>  <Rbt.Parameter_File>
/export/apps/rDock/src/rDock_2013.1_src/data/scripts/dock_solv.prm

>  <Rbt.Receptor>
prm/pocket_docking_8.prm

>  <SCORE>
-10.9454

>  <SCORE.INTER>
-10.3363

>  <SCORE.INTER.CONST>
1

>  <SCORE.INTER.POLAR>
0

>  <SCORE.INTER.ROT>
3

>  <SCORE.INTER.SOLV>
8.25814

>  <SCORE.INTER.VDW>
-15.2436

>  <SCORE.INTER.norm>
-0.861356

>  <SCORE.INTRA>
-0.609095

>  <SCORE.INTRA.DIHEDRAL>
2.28369

>  <SCORE.INTRA.DIHEDRAL.0>
1.88407

>  <SCORE.INTRA.POLAR>
0

>  <SCORE.INTRA.POLAR.0>
0

>  <SCORE.INTRA.REPUL>
0

>  <SCORE.INTRA.REPUL.0>
0

>  <SCORE.INTRA.SOLV>
0.485864

>  <SCORE.INTRA.SOLV.lig_0>
-10.2714

>  <SCORE.INTRA.VDW>
-1.99387

>  <SCORE.INTRA.VDW.0>
0.416923

>  <SCORE.INTRA.norm>
-0.0507579

>  <SCORE.RESTR>
0

>  <SCORE.RESTR.CAVITY>
0

>  <SCORE.RESTR.norm>
0

>  <SCORE.SYSTEM>
0

>  <SCORE.SYSTEM.CONST>
0

>  <SCORE.SYSTEM.DIHEDRAL>
0

>  <SCORE.SYSTEM.SOLV>
0

>  <SCORE.SYSTEM.norm>
0

>  <SCORE.heavy>
12

>  <SCORE.norm>
-0.912113

>  <RMSD>
6.588

$$$$
ligand
 OpenBabel11021811433D
libRbt.so/2013.1/901 2013/11/27
 12 12  0  0  0  0  0  0  0  0999 V2000
   43.1098   10.1662   14.3265 O   0  0  0  0  0  0  0  0  0  0  0  0
   42.6015   14.4230   14.9102 O   0  0  0  0  0  0  0  0  0  0  0  0
   43.7555   10.8281   15.4560 C   0  0  0  0  0  0  0  0  0  0  0  0
   41.9596   16.1804   13.3043 O   0  0  0  0  0  0  0  0  0  0  0  0
   44.5120   12.1093   14.9995 C   0  0  0  0  0  0  0  0  0  0  0  0
   42.0131   14.2245   13.0559 O   0  0  0  0  0  0  0  0  0  0  0  0
   44.3293   12.2857   13.5171 N   0  0  0  0  0  0  0  0  0  0  0  0
   44.8250   11.0815   12.7838 C   0  0  0  0  0  0  0  0  0  0  0  0
   44.0957    9.8136   13.3119 C   0  0  0  0  0  0  0  0  0  0  0  0
   45.0442   13.5066   13.0047 C   0  0  0  0  0  0  0  0  0  0  0  0
   44.0459   14.5384   12.4263 C   0  0  0  0  0  0  0  0  0  0  0  0
   42.9298   15.1523   13.7099 S   0  0  0  0  0  0  0  0  0  0  0  0
  1  3  1  0  0  0  0
  1  9  1  0  0  0  0
  2 12  1  0  0  0  0
  3  5  1  0  0  0  0
  4 12  2  0  0  0  0
  5  7  1  0  0  0  0
  6 12  2  0  0  0  0
  7  8  1  0  0  0  0
  7 10  1  0  0  0  0
  8  9  1  0  0  0  0
 10 11  1  0  0  0  0
 11 12  1  0  0  0  0
M  END
>  <CHROM.1>
-116.79183666,63.41102747,-24.80131950,43.49135304,13.10823740,13.73836218
1.13493672,-0.79968680,2.70279416

>  <Name>
ligand

>  <RI>
0

>  <Rbt.Current_Directory>
/home/itssahil/PROJECTS/Mol_Feturizer/New_Systems/rnas/2HO6

>  <Rbt.Executable>
rbdock ($Id: //depot/dev/client3/rdock/2013.1/src/exe/rbdock.cxx#4 $)

>  <Rbt.Library>
libRbt.so (2013.1, Build901 2013/11/27)

>  <Rbt.Parameter_File>
/export/apps/rDock/src/rDock_2013.1_src/data/scripts/dock_solv.prm

>  <Rbt.Receptor>
prm/pocket_docking_6.prm

>  <SCORE>
-10.9427

>  <SCORE.INTER>
-10.3037

>  <SCORE.INTER.CONST>
1

>  <SCORE.INTER.POLAR>
0

>  <SCORE.INTER.ROT>
3

>  <SCORE.INTER.SOLV>
8.22372

>  <SCORE.INTER.VDW>
-15.2104

>  <SCORE.INTER.norm>
-0.85864

>  <SCORE.INTRA>
-0.639063

>  <SCORE.INTRA.DIHEDRAL>
2.28405

>  <SCORE.INTRA.DIHEDRAL.0>
1.88407

>  <SCORE.INTRA.POLAR>
0

>  <SCORE.INTRA.POLAR.0>
0

>  <SCORE.INTRA.REPUL>
0

>  <SCORE.INTRA.REPUL.0>
0

>  <SCORE.INTRA.SOLV>
0.430341

>  <SCORE.INTRA.SOLV.lig_0>
-10.2714

>  <SCORE.INTRA.VDW>
-1.99626

>  <SCORE.INTRA.VDW.0>
0.416923

>  <SCORE.INTRA.norm>
-0.0532552

>  <SCORE.RESTR>
0

>  <SCORE.RESTR.CAVITY>
0

>  <SCORE.RESTR.norm>
0

>  <SCORE.SYSTEM>
0

>  <SCORE.SYSTEM.CONST>
0

>  <SCORE.SYSTEM.DIHEDRAL>
0

>  <SCORE.SYSTEM.SOLV>
0

>  <SCORE.SYSTEM.norm>
0

>  <SCORE.heavy>
12

>  <SCORE.norm>
-0.911896

>  <RMSD>
6.590

$$$$
ligand
 OpenBabel11021811433D
libRbt.so/2013.1/901 2013/11/27
 12 12  0  0  0  0  0  0  0  0999 V2000
   43.0975   10.1617   14.3203 O   0  0  0  0  0  0  0  0  0  0  0  0
   42.5912   14.3876   14.9948 O   0  0  0  0  0  0  0  0  0  0  0  0
   43.7116   10.8102   15.4749 C   0  0  0  0  0  0  0  0  0  0  0  0
   41.8413   16.0743   13.3602 O   0  0  0  0  0  0  0  0  0  0  0  0
   44.4700   12.1031   15.0562 C   0  0  0  0  0  0  0  0  0  0  0  0
   42.0363   14.1242   13.1383 O   0  0  0  0  0  0  0  0  0  0  0  0
   44.3216   12.3011   13.5727 N   0  0  0  0  0  0  0  0  0  0  0  0
   44.8429   11.1116   12.8333 C   0  0  0  0  0  0  0  0  0  0  0  0
   44.1098    9.8311   13.3244 C   0  0  0  0  0  0  0  0  0  0  0  0
   45.0402   13.5343   13.0962 C   0  0  0  0  0  0  0  0  0  0  0  0
   44.0476   14.5742   12.5224 C   0  0  0  0  0  0  0  0  0  0  0  0
   42.8783   15.1231   13.7879 S   0  0  0  0  0  0  0  0  0  0  0  0
  1  3  1  0  0  0  0
  1  9  1  0  0  0  0
  2 12  1  0  0  0  0
  3  5  1  0  0  0  0
  4 12  2  0  0  0  0
  5  7  1  0  0  0  0
  6 12  2  0  0  0  0
  7  8  1  0  0  0  0
  7 10  1  0  0  0  0
  8  9  1  0  0  0  0
 10 11  1  0  0  0  0
 11 12  1  0  0  0  0
M  END
>  <CHROM.1>
-116.24307835,61.77362815,-20.15674476,43.46852818,13.09052874,13.79658980
1.13386082,-0.76887273,2.72222646

>  <Name>
ligand

>  <RI>
0

>  <Rbt.Current_Directory>
/home/itssahil/PROJECTS/Mol_Feturizer/New_Systems/rnas/2HO6

>  <Rbt.Executable>
rbdock ($Id: //depot/dev/client3/rdock/2013.1/src/exe/rbdock.cxx#4 $)

>  <Rbt.Library>
libRbt.so (2013.1, Build901 2013/11/27)

>  <Rbt.Parameter_File>
/export/apps/rDock/src/rDock_2013.1_src/data/scripts/dock_solv.prm

>  <Rbt.Receptor>
prm/pocket_docking_6.prm

>  <SCORE>
-10.9114

>  <SCORE.INTER>
-10.3545

>  <SCORE.INTER.CONST>
1

>  <SCORE.INTER.POLAR>
0

>  <SCORE.INTER.ROT>
3

>  <SCORE.INTER.SOLV>
8.36789

>  <SCORE.INTER.VDW>
-15.2923

>  <SCORE.INTER.norm>
-0.862874

>  <SCORE.INTRA>
-0.556895

>  <SCORE.INTRA.DIHEDRAL>
2.25829

>  <SCORE.INTRA.DIHEDRAL.0>
1.88407

>  <SCORE.INTRA.POLAR>
0

>  <SCORE.INTRA.POLAR.0>
0

>  <SCORE.INTRA.REPUL>
0

>  <SCORE.INTRA.REPUL.0>
0

>  <SCORE.INTRA.SOLV>
0.489785

>  <SCORE.INTRA.SOLV.lig_0>
-10.2714

>  <SCORE.INTRA.VDW>
-1.93093

>  <SCORE.INTRA.VDW.0>
0.416923

>  <SCORE.INTRA.norm>
-0.0464079

>  <SCORE.RESTR>
0

>  <SCORE.RESTR.CAVITY>
0

>  <SCORE.RESTR.norm>
0

>  <SCORE.SYSTEM>
0

>  <SCORE.SYSTEM.CONST>
0

>  <SCORE.SYSTEM.DIHEDRAL>
0

>  <SCORE.SYSTEM.SOLV>
0

>  <SCORE.SYSTEM.norm>
0

>  <SCORE.heavy>
12

>  <SCORE.norm>
-0.909282

>  <RMSD>
6.603

$$$$
ligand
 OpenBabel11021811433D
libRbt.so/2013.1/901 2013/11/27
 12 12  0  0  0  0  0  0  0  0999 V2000
   43.0615   10.1789   14.2650 O   0  0  0  0  0  0  0  0  0  0  0  0
   42.5515   14.4297   14.8796 O   0  0  0  0  0  0  0  0  0  0  0  0
   43.6694   10.8327   15.4199 C   0  0  0  0  0  0  0  0  0  0  0  0
   41.9436   16.1938   13.2679 O   0  0  0  0  0  0  0  0  0  0  0  0
   44.4411   12.1166   14.9977 C   0  0  0  0  0  0  0  0  0  0  0  0
   42.0137   14.2398   13.0092 O   0  0  0  0  0  0  0  0  0  0  0  0
   44.3080   12.3031   13.5112 N   0  0  0  0  0  0  0  0  0  0  0  0
   44.8276   11.1037   12.7867 C   0  0  0  0  0  0  0  0  0  0  0  0
   44.0807    9.8326   13.2815 C   0  0  0  0  0  0  0  0  0  0  0  0
   45.0401   13.5271   13.0313 C   0  0  0  0  0  0  0  0  0  0  0  0
   44.0609   14.5675   12.4359 C   0  0  0  0  0  0  0  0  0  0  0  0
   42.9079   15.1680   13.6930 S   0  0  0  0  0  0  0  0  0  0  0  0
  1  3  1  0  0  0  0
  1  9  1  0  0  0  0
  2 12  1  0  0  0  0
  3  5  1  0  0  0  0
  4 12  2  0  0  0  0
  5  7  1  0  0  0  0
  6 12  2  0  0  0  0
  7  8  1  0  0  0  0
  7 10  1  0  0  0  0
  8  9  1  0  0  0  0
 10 11  1  0  0  0  0
 11 12  1  0  0  0  0
M  END
>  <CHROM.1>
-116.39622360,63.24335610,-24.26530956,43.46538433,13.12346378,13.71860973
1.15437791,-0.77267321,2.72682156

>  <Name>
ligand

>  <RI>
0

>  <Rbt.Current_Directory>
/home/itssahil/PROJECTS/Mol_Feturizer/New_Systems/rnas/2HO6

>  <Rbt.Executable>
rbdock ($Id: //depot/dev/client3/rdock/2013.1/src/exe/rbdock.cxx#4 $)

>  <Rbt.Library>
libRbt.so (2013.1, Build901 2013/11/27)

>  <Rbt.Parameter_File>
/export/apps/rDock/src/rDock_2013.1_src/data/scripts/dock_solv.prm

>  <Rbt.Receptor>
prm/pocket_docking_6.prm

>  <SCORE>
-10.9042

>  <SCORE.INTER>
-10.2792

>  <SCORE.INTER.CONST>
1

>  <SCORE.INTER.POLAR>
0

>  <SCORE.INTER.ROT>
3

>  <SCORE.INTER.SOLV>
8.20576

>  <SCORE.INTER.VDW>
-15.1881

>  <SCORE.INTER.norm>
-0.856602

>  <SCORE.INTRA>
-0.624959

>  <SCORE.INTRA.DIHEDRAL>
2.27808

>  <SCORE.INTRA.DIHEDRAL.0>
1.88407

>  <SCORE.INTRA.POLAR>
0

>  <SCORE.INTRA.POLAR.0>
0

>  <SCORE.INTRA.REPUL>
0

>  <SCORE.INTRA.REPUL.0>
0

>  <SCORE.INTRA.SOLV>
0.436932

>  <SCORE.INTRA.SOLV.lig_0>
-10.2714

>  <SCORE.INTRA.VDW>
-1.98247

>  <SCORE.INTRA.VDW.0>
0.416923

>  <SCORE.INTRA.norm>
-0.0520799

>  <SCORE.RESTR>
0

>  <SCORE.RESTR.CAVITY>
0

>  <SCORE.RESTR.norm>
0

>  <SCORE.SYSTEM>
0

>  <SCORE.SYSTEM.CONST>
0

>  <SCORE.SYSTEM.DIHEDRAL>
0

>  <SCORE.SYSTEM.SOLV>
0

>  <SCORE.SYSTEM.norm>
0

>  <SCORE.heavy>
12

>  <SCORE.norm>
-0.908682

>  <RMSD>
6.610

$$$$
ligand
 OpenBabel11021811433D
libRbt.so/2013.1/901 2013/11/27
 12 12  0  0  0  0  0  0  0  0999 V2000
   54.8490   13.2683   11.5121 O   0  0  0  0  0  0  0  0  0  0  0  0
   53.6223   12.1808   15.5483 O   0  0  0  0  0  0  0  0  0  0  0  0
   55.3854   14.6161   11.6744 C   0  0  0  0  0  0  0  0  0  0  0  0
   54.6264   13.0396   17.6300 O   0  0  0  0  0  0  0  0  0  0  0  0
   54.6702   15.3703   12.8328 C   0  0  0  0  0  0  0  0  0  0  0  0
   52.8191   13.3425   16.9008 O   0  0  0  0  0  0  0  0  0  0  0  0
   53.6434   14.4614   13.4505 N   0  0  0  0  0  0  0  0  0  0  0  0
   52.6608   14.0083   12.4197 C   0  0  0  0  0  0  0  0  0  0  0  0
   53.4160   13.3194   11.2478 C   0  0  0  0  0  0  0  0  0  0  0  0
   52.9052   15.1322   14.5772 C   0  0  0  0  0  0  0  0  0  0  0  0
   53.6979   15.0334   15.9030 C   0  0  0  0  0  0  0  0  0  0  0  0
   54.1354   13.3180   16.2719 S   0  0  0  0  0  0  0  0  0  0  0  0
  1  3  1  0  0  0  0
  1  9  1  0  0  0  0
  2 12  1  0  0  0  0
  3  5  1  0  0  0  0
  4 12  2  0  0  0  0
  5  7  1  0  0  0  0
  6 12  2  0  0  0  0
  7  8  1  0  0  0  0
  7 10  1  0  0  0  0
  8  9  1  0  0  0  0
 10 11  1  0  0  0  0
 11 12  1  0  0  0  0
M  END
>  <CHROM.1>
-83.74412825,-53.40901564,-9.63432960,53.89846390,13.82858775,14.40996222
-1.21202576,-1.35366039,2.07887223

>  <Name>
ligand

>  <RI>
0

>  <Rbt.Current_Directory>
/home/itssahil/PROJECTS/Mol_Feturizer/New_Systems/rnas/2HO6

>  <Rbt.Executable>
rbdock ($Id: //depot/dev/client3/rdock/2013.1/src/exe/rbdock.cxx#4 $)

>  <Rbt.Library>
libRbt.so (2013.1, Build901 2013/11/27)

>  <Rbt.Parameter_File>
/export/apps/rDock/src/rDock_2013.1_src/data/scripts/dock_solv.prm

>  <Rbt.Receptor>
prm/pocket_docking_7.prm

>  <SCORE>
-8.49149

>  <SCORE.INTER>
-7.62655

>  <SCORE.INTER.CONST>
1

>  <SCORE.INTER.POLAR>
0

>  <SCORE.INTER.ROT>
3

>  <SCORE.INTER.SOLV>
5.08287

>  <SCORE.INTER.VDW>
-12.3787

>  <SCORE.INTER.norm>
-0.635546

>  <SCORE.INTRA>
-0.864941

>  <SCORE.INTRA.DIHEDRAL>
0.94783

>  <SCORE.INTRA.DIHEDRAL.0>
1.88407

>  <SCORE.INTRA.POLAR>
0

>  <SCORE.INTRA.POLAR.0>
0

>  <SCORE.INTRA.REPUL>
0

>  <SCORE.INTRA.REPUL.0>
0

>  <SCORE.INTRA.SOLV>
0.287118

>  <SCORE.INTRA.SOLV.lig_0>
-10.2714

>  <SCORE.INTRA.VDW>
-1.48242

>  <SCORE.INTRA.VDW.0>
0.416923

>  <SCORE.INTRA.norm>
-0.0720784

>  <SCORE.RESTR>
0

>  <SCORE.RESTR.CAVITY>
0

>  <SCORE.RESTR.norm>
0

>  <SCORE.SYSTEM>
0

>  <SCORE.SYSTEM.CONST>
0

>  <SCORE.SYSTEM.DIHEDRAL>
0

>  <SCORE.SYSTEM.SOLV>
0

>  <SCORE.SYSTEM.norm>
0

>  <SCORE.heavy>
12

>  <SCORE.norm>
-0.707624

>  <RMSD>
6.663

$$$$
ligand
 OpenBabel11021811433D
libRbt.so/2013.1/901 2013/11/27
 12 12  0  0  0  0  0  0  0  0999 V2000
   43.1522   10.1368   14.3525 O   0  0  0  0  0  0  0  0  0  0  0  0
   41.3988   15.9218   12.8667 O   0  0  0  0  0  0  0  0  0  0  0  0
   43.7790   10.8164   15.4821 C   0  0  0  0  0  0  0  0  0  0  0  0
   42.5900   14.8535   14.7426 O   0  0  0  0  0  0  0  0  0  0  0  0
   44.4342   12.1567   15.0389 C   0  0  0  0  0  0  0  0  0  0  0  0
   43.2525   16.1741   13.4361 O   0  0  0  0  0  0  0  0  0  0  0  0
   44.2030   12.3530   13.5658 N   0  0  0  0  0  0  0  0  0  0  0  0
   44.7617   11.2025   12.7926 C   0  0  0  0  0  0  0  0  0  0  0  0
   44.1344    9.8759   13.3070 C   0  0  0  0  0  0  0  0  0  0  0  0
   44.8196   13.6314   13.0662 C   0  0  0  0  0  0  0  0  0  0  0  0
   43.8000   14.4639   12.2518 C   0  0  0  0  0  0  0  0  0  0  0  0
   42.4145   14.9888   13.2887 S   0  0  0  0  0  0  0  0  0  0  0  0
  1  3  1  0  0  0  0
  1  9  1  0  0  0  0
  2 12  1  0  0  0  0
  3  5  1  0  0  0  0
  4 12  2  0  0  0  0
  5  7  1  0  0  0  0
  6 12  2  0  0  0  0
  7  8  1  0  0  0  0
  7 10  1  0  0  0  0
  8  9  1  0  0  0  0
 10 11  1  0  0  0  0
 11 12  1  0  0  0  0
M  END
>  <CHROM.1>
-129.64175476,63.54882771,171.39434359,43.41594773,13.27789020,13.65280485
1.10095461,-0.84803137,2.60981227

>  <Name>
ligand

>  <RI>
0

>  <Rbt.Current_Directory>
/home/itssahil/PROJECTS/Mol_Feturizer/New_Systems/rnas/2HO6

>  <Rbt.Executable>
rbdock ($Id: //depot/dev/client3/rdock/2013.1/src/exe/rbdock.cxx#4 $)

>  <Rbt.Library>
libRbt.so (2013.1, Build901 2013/11/27)

>  <Rbt.Parameter_File>
/export/apps/rDock/src/rDock_2013.1_src/data/scripts/dock_solv.prm

>  <Rbt.Receptor>
prm/pocket_docking_8.prm

>  <SCORE>
-10.0482

>  <SCORE.INTER>
-10.0425

>  <SCORE.INTER.CONST>
1

>  <SCORE.INTER.POLAR>
0

>  <SCORE.INTER.ROT>
3

>  <SCORE.INTER.SOLV>
8.09552

>  <SCORE.INTER.VDW>
-14.9935

>  <SCORE.INTER.norm>
-0.836875

>  <SCORE.INTRA>
-0.00568354

>  <SCORE.INTRA.DIHEDRAL>
2.18883

>  <SCORE.INTRA.DIHEDRAL.0>
1.88407

>  <SCORE.INTRA.POLAR>
0

>  <SCORE.INTRA.POLAR.0>
0

>  <SCORE.INTRA.REPUL>
0

>  <SCORE.INTRA.REPUL.0>
0

>  <SCORE.INTRA.SOLV>
0.956666

>  <SCORE.INTRA.SOLV.lig_0>
-10.2714

>  <SCORE.INTRA.VDW>
-1.57843

>  <SCORE.INTRA.VDW.0>
0.416923

>  <SCORE.INTRA.norm>
-0.000473629

>  <SCORE.RESTR>
0

>  <SCORE.RESTR.CAVITY>
0

>  <SCORE.RESTR.norm>
0

>  <SCORE.SYSTEM>
0

>  <SCORE.SYSTEM.CONST>
0

>  <SCORE.SYSTEM.DIHEDRAL>
0

>  <SCORE.SYSTEM.SOLV>
0

>  <SCORE.SYSTEM.norm>
0

>  <SCORE.heavy>
12

>  <SCORE.norm>
-0.837349

>  <RMSD>
6.663

$$$$
ligand
 OpenBabel11021811433D
libRbt.so/2013.1/901 2013/11/27
 12 12  0  0  0  0  0  0  0  0999 V2000
   52.2382   15.1358   14.5113 O   0  0  0  0  0  0  0  0  0  0  0  0
   55.9729   11.2483    9.5461 O   0  0  0  0  0  0  0  0  0  0  0  0
   52.2917   15.8554   13.2425 C   0  0  0  0  0  0  0  0  0  0  0  0
   53.8687   10.0369    9.1175 O   0  0  0  0  0  0  0  0  0  0  0  0
   53.1449   15.0840   12.1941 C   0  0  0  0  0  0  0  0  0  0  0  0
   54.2837   11.9466    8.8512 O   0  0  0  0  0  0  0  0  0  0  0  0
   53.6456   13.8073   12.8117 N   0  0  0  0  0  0  0  0  0  0  0  0
   54.4442   14.1008   14.0404 C   0  0  0  0  0  0  0  0  0  0  0  0
   53.5827   14.9285   15.0358 C   0  0  0  0  0  0  0  0  0  0  0  0
   54.4882   13.0120   11.8517 C   0  0  0  0  0  0  0  0  0  0  0  0
   53.6061   12.1939   10.8777 C   0  0  0  0  0  0  0  0  0  0  0  0
   54.6021   11.0184    9.9309 S   0  0  0  0  0  0  0  0  0  0  0  0
  1  3  1  0  0  0  0
  1  9  1  0  0  0  0
  2 12  1  0  0  0  0
  3  5  1  0  0  0  0
  4 12  2  0  0  0  0
  5  7  1  0  0  0  0
  6 12  2  0  0  0  0
  7  8  1  0  0  0  0
  7 10  1  0  0  0  0
  8  9  1  0  0  0  0
 10 11  1  0  0  0  0
 11 12  1  0  0  0  0
M  END
>  <CHROM.1>
-81.06064583,-169.72125655,-31.58280719,53.92739757,12.95005194,11.60347475
1.88869424,-0.63133743,1.03336047

>  <Name>
ligand

>  <RI>
0

>  <Rbt.Current_Directory>
/home/itssahil/PROJECTS/Mol_Feturizer/New_Systems/rnas/2HO6

>  <Rbt.Executable>
rbdock ($Id: //depot/dev/client3/rdock/2013.1/src/exe/rbdock.cxx#4 $)

>  <Rbt.Library>
libRbt.so (2013.1, Build901 2013/11/27)

>  <Rbt.Parameter_File>
/export/apps/rDock/src/rDock_2013.1_src/data/scripts/dock_solv.prm

>  <Rbt.Receptor>
prm/pocket_docking_7.prm

>  <SCORE>
-9.66551

>  <SCORE.INTER>
-9.22981

>  <SCORE.INTER.CONST>
1

>  <SCORE.INTER.POLAR>
0

>  <SCORE.INTER.ROT>
3

>  <SCORE.INTER.SOLV>
3.60741

>  <SCORE.INTER.VDW>
-12.9557

>  <SCORE.INTER.norm>
-0.769151

>  <SCORE.INTRA>
-0.435705

>  <SCORE.INTRA.DIHEDRAL>
0.964174

>  <SCORE.INTRA.DIHEDRAL.0>
1.88407

>  <SCORE.INTRA.POLAR>
0

>  <SCORE.INTRA.POLAR.0>
0

>  <SCORE.INTRA.REPUL>
0

>  <SCORE.INTRA.REPUL.0>
0

>  <SCORE.INTRA.SOLV>
-0.0587677

>  <SCORE.INTRA.SOLV.lig_0>
-10.2714

>  <SCORE.INTRA.VDW>
-0.888409

>  <SCORE.INTRA.VDW.0>
0.416923

>  <SCORE.INTRA.norm>
-0.0363088

>  <SCORE.RESTR>
0

>  <SCORE.RESTR.CAVITY>
0

>  <SCORE.RESTR.norm>
0

>  <SCORE.SYSTEM>
0

>  <SCORE.SYSTEM.CONST>
0

>  <SCORE.SYSTEM.DIHEDRAL>
0

>  <SCORE.SYSTEM.SOLV>
0

>  <SCORE.SYSTEM.norm>
0

>  <SCORE.heavy>
12

>  <SCORE.norm>
-0.805459

>  <RMSD>
6.713

$$$$
ligand
 OpenBabel11021811433D
libRbt.so/2013.1/901 2013/11/27
 12 12  0  0  0  0  0  0  0  0999 V2000
   52.5706   14.4728   15.2057 O   0  0  0  0  0  0  0  0  0  0  0  0
   54.1080   12.0275    8.1681 O   0  0  0  0  0  0  0  0  0  0  0  0
   52.2519   15.3916   14.1171 C   0  0  0  0  0  0  0  0  0  0  0  0
   55.5007   10.6416    9.6576 O   0  0  0  0  0  0  0  0  0  0  0  0
   52.9801   14.9819   12.8041 C   0  0  0  0  0  0  0  0  0  0  0  0
   53.5355   10.7349    9.5191 O   0  0  0  0  0  0  0  0  0  0  0  0
   53.7865   13.7379   13.0573 N   0  0  0  0  0  0  0  0  0  0  0  0
   54.7653   13.9671   14.1631 C   0  0  0  0  0  0  0  0  0  0  0  0
   54.0096   14.4386   15.4378 C   0  0  0  0  0  0  0  0  0  0  0  0
   54.5263   13.2882   11.8265 C   0  0  0  0  0  0  0  0  0  0  0  0
   53.6822   12.2881   11.0001 C   0  0  0  0  0  0  0  0  0  0  0  0
   54.5661   11.7676    9.5108 S   0  0  0  0  0  0  0  0  0  0  0  0
  1  3  1  0  0  0  0
  1  9  1  0  0  0  0
  2 12  1  0  0  0  0
  3  5  1  0  0  0  0
  4 12  2  0  0  0  0
  5  7  1  0  0  0  0
  6 12  2  0  0  0  0
  7  8  1  0  0  0  0
  7 10  1  0  0  0  0
  8  9  1  0  0  0  0
 10 11  1  0  0  0  0
 11 12  1  0  0  0  0
M  END
>  <CHROM.1>
-91.14424934,179.23812456,-117.14185697,53.92568348,12.96912264,11.74717487
1.81027590,-0.65161793,1.16543721

>  <Name>
ligand

>  <RI>
0

>  <Rbt.Current_Directory>
/home/itssahil/PROJECTS/Mol_Feturizer/New_Systems/rnas/2HO6

>  <Rbt.Executable>
rbdock ($Id: //depot/dev/client3/rdock/2013.1/src/exe/rbdock.cxx#4 $)

>  <Rbt.Library>
libRbt.so (2013.1, Build901 2013/11/27)

>  <Rbt.Parameter_File>
/export/apps/rDock/src/rDock_2013.1_src/data/scripts/dock_solv.prm

>  <Rbt.Receptor>
prm/pocket_docking_6.prm

>  <SCORE>
-8.39553

>  <SCORE.INTER>
-8.0308

>  <SCORE.INTER.CONST>
1

>  <SCORE.INTER.POLAR>
0

>  <SCORE.INTER.ROT>
3

>  <SCORE.INTER.SOLV>
4.62715

>  <SCORE.INTER.VDW>
-12.4963

>  <SCORE.INTER.norm>
-0.669233

>  <SCORE.INTRA>
-0.378351

>  <SCORE.INTRA.DIHEDRAL>
1.2956

>  <SCORE.INTRA.DIHEDRAL.0>
1.88407

>  <SCORE.INTRA.POLAR>
0

>  <SCORE.INTRA.POLAR.0>
0

>  <SCORE.INTRA.REPUL>
0

>  <SCORE.INTRA.REPUL.0>
0

>  <SCORE.INTRA.SOLV>
0.0247778

>  <SCORE.INTRA.SOLV.lig_0>
-10.2714

>  <SCORE.INTRA.VDW>
-1.03854

>  <SCORE.INTRA.VDW.0>
0.416923

>  <SCORE.INTRA.norm>
-0.0315293

>  <SCORE.RESTR>
0.0136199

>  <SCORE.RESTR.CAVITY>
0.0136199

>  <SCORE.RESTR.norm>
0.00113499

>  <SCORE.SYSTEM>
0

>  <SCORE.SYSTEM.CONST>
0

>  <SCORE.SYSTEM.DIHEDRAL>
0

>  <SCORE.SYSTEM.SOLV>
0

>  <SCORE.SYSTEM.norm>
0

>  <SCORE.heavy>
12

>  <SCORE.norm>
-0.699628

>  <RMSD>
6.720

$$$$
ligand
 OpenBabel11021811433D
libRbt.so/2013.1/901 2013/11/27
 12 12  0  0  0  0  0  0  0  0999 V2000
   54.2571   14.1888   10.8983 O   0  0  0  0  0  0  0  0  0  0  0  0
   55.2857   13.3221   15.0270 O   0  0  0  0  0  0  0  0  0  0  0  0
   55.1834   15.0066   11.6754 C   0  0  0  0  0  0  0  0  0  0  0  0
   54.7317   14.1104   17.2966 O   0  0  0  0  0  0  0  0  0  0  0  0
   54.5346   15.4777   13.0093 C   0  0  0  0  0  0  0  0  0  0  0  0
   53.8663   12.7021   16.2207 O   0  0  0  0  0  0  0  0  0  0  0  0
   53.1389   14.9244   13.0989 N   0  0  0  0  0  0  0  0  0  0  0  0
   52.3271   15.3647   11.9239 C   0  0  0  0  0  0  0  0  0  0  0  0
   53.0385   14.9355   10.6095 C   0  0  0  0  0  0  0  0  0  0  0  0
   52.4470   15.3491   14.3659 C   0  0  0  0  0  0  0  0  0  0  0  0
   52.6143   14.2860   15.4785 C   0  0  0  0  0  0  0  0  0  0  0  0
   54.3599   14.0311   15.8759 S   0  0  0  0  0  0  0  0  0  0  0  0
  1  3  1  0  0  0  0
  1  9  1  0  0  0  0
  2 12  1  0  0  0  0
  3  5  1  0  0  0  0
  4 12  2  0  0  0  0
  5  7  1  0  0  0  0
  6 12  2  0  0  0  0
  7  8  1  0  0  0  0
  7 10  1  0  0  0  0
  8  9  1  0  0  0  0
 10 11  1  0  0  0  0
 11 12  1  0  0  0  0
M  END
>  <CHROM.1>
-93.99401318,60.49403187,-73.70635202,53.89525300,14.39728824,14.02722103
-1.70888753,-0.35560466,1.76681535

>  <Name>
ligand

>  <RI>
0

>  <Rbt.Current_Directory>
/home/itssahil/PROJECTS/Mol_Feturizer/New_Systems/rnas/2HO6

>  <Rbt.Executable>
rbdock ($Id: //depot/dev/client3/rdock/2013.1/src/exe/rbdock.cxx#4 $)

>  <Rbt.Library>
libRbt.so (2013.1, Build901 2013/11/27)

>  <Rbt.Parameter_File>
/export/apps/rDock/src/rDock_2013.1_src/data/scripts/dock_solv.prm

>  <Rbt.Receptor>
prm/pocket_docking_8.prm

>  <SCORE>
-9.20555

>  <SCORE.INTER>
-8.39388

>  <SCORE.INTER.CONST>
1

>  <SCORE.INTER.POLAR>
0

>  <SCORE.INTER.ROT>
3

>  <SCORE.INTER.SOLV>
4.6323

>  <SCORE.INTER.VDW>
-12.74

>  <SCORE.INTER.norm>
-0.69949

>  <SCORE.INTRA>
-0.811679

>  <SCORE.INTRA.DIHEDRAL>
1.48073

>  <SCORE.INTRA.DIHEDRAL.0>
1.88407

>  <SCORE.INTRA.POLAR>
0

>  <SCORE.INTRA.POLAR.0>
0

>  <SCORE.INTRA.REPUL>
0

>  <SCORE.INTRA.REPUL.0>
0

>  <SCORE.INTRA.SOLV>
0.164148

>  <SCORE.INTRA.SOLV.lig_0>
-10.2714

>  <SCORE.INTRA.VDW>
-1.63412

>  <SCORE.INTRA.VDW.0>
0.416923

>  <SCORE.INTRA.norm>
-0.0676399

>  <SCORE.RESTR>
0

>  <SCORE.RESTR.CAVITY>
0

>  <SCORE.RESTR.norm>
0

>  <SCORE.SYSTEM>
0

>  <SCORE.SYSTEM.CONST>
0

>  <SCORE.SYSTEM.DIHEDRAL>
0

>  <SCORE.SYSTEM.SOLV>
0

>  <SCORE.SYSTEM.norm>
0

>  <SCORE.heavy>
12

>  <SCORE.norm>
-0.76713

>  <RMSD>
6.750

$$$$
ligand
 OpenBabel11021811433D
libRbt.so/2013.1/901 2013/11/27
 12 12  0  0  0  0  0  0  0  0999 V2000
   52.8181   13.7459   15.5252 O   0  0  0  0  0  0  0  0  0  0  0  0
   55.5963   10.9754   10.2574 O   0  0  0  0  0  0  0  0  0  0  0  0
   52.5744   15.0545   14.9262 C   0  0  0  0  0  0  0  0  0  0  0  0
   53.2482   10.7949   10.9876 O   0  0  0  0  0  0  0  0  0  0  0  0
   53.3747   15.2248   13.6023 C   0  0  0  0  0  0  0  0  0  0  0  0
   54.0077   11.8008    9.4706 O   0  0  0  0  0  0  0  0  0  0  0  0
   54.1513   13.9654   13.3323 N   0  0  0  0  0  0  0  0  0  0  0  0
   55.0652   13.6614   14.4750 C   0  0  0  0  0  0  0  0  0  0  0  0
   54.2404   13.5643   15.7897 C   0  0  0  0  0  0  0  0  0  0  0  0
   54.9579   14.0639   12.0658 C   0  0  0  0  0  0  0  0  0  0  0  0
   54.2101   13.4182   10.8742 C   0  0  0  0  0  0  0  0  0  0  0  0
   54.4533   11.6264   10.8489 S   0  0  0  0  0  0  0  0  0  0  0  0
  1  3  1  0  0  0  0
  1  9  1  0  0  0  0
  2 12  1  0  0  0  0
  3  5  1  0  0  0  0
  4 12  2  0  0  0  0
  5  7  1  0  0  0  0
  6 12  2  0  0  0  0
  7  8  1  0  0  0  0
  7 10  1  0  0  0  0
  8  9  1  0  0  0  0
 10 11  1  0  0  0  0
 11 12  1  0  0  0  0
M  END
>  <CHROM.1>
-96.84913324,-82.67870780,-84.08432702,54.08910003,12.96171449,12.46407739
-3.06965284,1.40137095,-0.62191877

>  <Name>
ligand

>  <RI>
0

>  <Rbt.Current_Directory>
/home/itssahil/PROJECTS/Mol_Feturizer/New_Systems/rnas/2HO6

>  <Rbt.Executable>
rbdock ($Id: //depot/dev/client3/rdock/2013.1/src/exe/rbdock.cxx#4 $)

>  <Rbt.Library>
libRbt.so (2013.1, Build901 2013/11/27)

>  <Rbt.Parameter_File>
/export/apps/rDock/src/rDock_2013.1_src/data/scripts/dock_solv.prm

>  <Rbt.Receptor>
prm/pocket_docking_7.prm

>  <SCORE>
-8.63295

>  <SCORE.INTER>
-8.99852

>  <SCORE.INTER.CONST>
1

>  <SCORE.INTER.POLAR>
0

>  <SCORE.INTER.ROT>
3

>  <SCORE.INTER.SOLV>
3.86609

>  <SCORE.INTER.VDW>
-12.8877

>  <SCORE.INTER.norm>
-0.749877

>  <SCORE.INTRA>
0.365573

>  <SCORE.INTRA.DIHEDRAL>
3.40383

>  <SCORE.INTRA.DIHEDRAL.0>
1.88407

>  <SCORE.INTRA.POLAR>
0

>  <SCORE.INTRA.POLAR.0>
0

>  <SCORE.INTRA.REPUL>
0

>  <SCORE.INTRA.REPUL.0>
0

>  <SCORE.INTRA.SOLV>
0.18245

>  <SCORE.INTRA.SOLV.lig_0>
-10.2714

>  <SCORE.INTRA.VDW>
-1.42757

>  <SCORE.INTRA.VDW.0>
0.416923

>  <SCORE.INTRA.norm>
0.0304645

>  <SCORE.RESTR>
0

>  <SCORE.RESTR.CAVITY>
0

>  <SCORE.RESTR.norm>
0

>  <SCORE.SYSTEM>
0

>  <SCORE.SYSTEM.CONST>
0

>  <SCORE.SYSTEM.DIHEDRAL>
0

>  <SCORE.SYSTEM.SOLV>
0

>  <SCORE.SYSTEM.norm>
0

>  <SCORE.heavy>
12

>  <SCORE.norm>
-0.719412

>  <RMSD>
6.778

$$$$
ligand
 OpenBabel11021811433D
libRbt.so/2013.1/901 2013/11/27
 12 12  0  0  0  0  0  0  0  0999 V2000
   44.9991   11.2249   13.3462 O   0  0  0  0  0  0  0  0  0  0  0  0
   40.2649   16.9525   11.4265 O   0  0  0  0  0  0  0  0  0  0  0  0
   44.7042   11.5381   14.7410 C   0  0  0  0  0  0  0  0  0  0  0  0
   42.0630   17.7871   12.8927 O   0  0  0  0  0  0  0  0  0  0  0  0
   43.9514   12.8945   14.8658 C   0  0  0  0  0  0  0  0  0  0  0  0
   42.1951   16.9483   11.1125 O   0  0  0  0  0  0  0  0  0  0  0  0
   43.7397   13.4671   13.4913 N   0  0  0  0  0  0  0  0  0  0  0  0
   45.0491   13.6438   12.7929 C   0  0  0  0  0  0  0  0  0  0  0  0
   45.8017   12.2838   12.7457 C   0  0  0  0  0  0  0  0  0  0  0  0
   43.0212   14.7884   13.5381 C   0  0  0  0  0  0  0  0  0  0  0  0
   42.3194   15.0920   12.1923 C   0  0  0  0  0  0  0  0  0  0  0  0
   41.3815   16.6354   12.2826 S   0  0  0  0  0  0  0  0  0  0  0  0
  1  3  1  0  0  0  0
  1  9  1  0  0  0  0
  2 12  1  0  0  0  0
  3  5  1  0  0  0  0
  4 12  2  0  0  0  0
  5  7  1  0  0  0  0
  6 12  2  0  0  0  0
  7  8  1  0  0  0  0
  7 10  1  0  0  0  0
  8  9  1  0  0  0  0
 10 11  1  0  0  0  0
 11 12  1  0  0  0  0
M  END
>  <CHROM.1>
-157.33328771,176.83912368,-156.48290825,43.07654058,14.69453447,12.85926776
-0.69183855,0.75568351,-1.04225142

>  <Name>
ligand

>  <RI>
0

>  <Rbt.Current_Directory>
/home/itssahil/PROJECTS/Mol_Feturizer/New_Systems/rnas/2HO6

>  <Rbt.Executable>
rbdock ($Id: //depot/dev/client3/rdock/2013.1/src/exe/rbdock.cxx#4 $)

>  <Rbt.Library>
libRbt.so (2013.1, Build901 2013/11/27)

>  <Rbt.Parameter_File>
/export/apps/rDock/src/rDock_2013.1_src/data/scripts/dock_solv.prm

>  <Rbt.Receptor>
prm/pocket_docking_8.prm

>  <SCORE>
-11.7688

>  <SCORE.INTER>
-11.317

>  <SCORE.INTER.CONST>
1

>  <SCORE.INTER.POLAR>
0

>  <SCORE.INTER.ROT>
3

>  <SCORE.INTER.SOLV>
5.20255

>  <SCORE.INTER.VDW>
-14.8788

>  <SCORE.INTER.norm>
-0.943081

>  <SCORE.INTRA>
-0.451866

>  <SCORE.INTRA.DIHEDRAL>
0.557152

>  <SCORE.INTRA.DIHEDRAL.0>
1.88407

>  <SCORE.INTRA.POLAR>
0

>  <SCORE.INTRA.POLAR.0>
0

>  <SCORE.INTRA.REPUL>
0

>  <SCORE.INTRA.REPUL.0>
0

>  <SCORE.INTRA.SOLV>
0.122782

>  <SCORE.INTRA.SOLV.lig_0>
-10.2714

>  <SCORE.INTRA.VDW>
-0.791832

>  <SCORE.INTRA.VDW.0>
0.416923

>  <SCORE.INTRA.norm>
-0.0376555

>  <SCORE.RESTR>
0

>  <SCORE.RESTR.CAVITY>
0

>  <SCORE.RESTR.norm>
0

>  <SCORE.SYSTEM>
0

>  <SCORE.SYSTEM.CONST>
0

>  <SCORE.SYSTEM.DIHEDRAL>
0

>  <SCORE.SYSTEM.SOLV>
0

>  <SCORE.SYSTEM.norm>
0

>  <SCORE.heavy>
12

>  <SCORE.norm>
-0.980737

>  <RMSD>
6.818

$$$$
ligand
 OpenBabel11021811433D
libRbt.so/2013.1/901 2013/11/27
 12 12  0  0  0  0  0  0  0  0999 V2000
   44.9246   10.5929   13.3690 O   0  0  0  0  0  0  0  0  0  0  0  0
   40.5829   16.7299   11.8037 O   0  0  0  0  0  0  0  0  0  0  0  0
   44.1877   10.5664   14.6288 C   0  0  0  0  0  0  0  0  0  0  0  0
   42.4282   17.3479   13.3177 O   0  0  0  0  0  0  0  0  0  0  0  0
   43.4058   11.8936   14.8509 C   0  0  0  0  0  0  0  0  0  0  0  0
   42.5094   16.6133   11.4890 O   0  0  0  0  0  0  0  0  0  0  0  0
   43.6377   12.8030   13.6757 N   0  0  0  0  0  0  0  0  0  0  0  0
   45.0985   13.0653   13.4997 C   0  0  0  0  0  0  0  0  0  0  0  0
   45.8551   11.7153   13.3474 C   0  0  0  0  0  0  0  0  0  0  0  0
   42.9142   14.1135   13.8285 C   0  0  0  0  0  0  0  0  0  0  0  0
   42.5030   14.6899   12.4521 C   0  0  0  0  0  0  0  0  0  0  0  0
   41.6721   16.2852   12.6380 S   0  0  0  0  0  0  0  0  0  0  0  0
  1  3  1  0  0  0  0
  1  9  1  0  0  0  0
  2 12  1  0  0  0  0
  3  5  1  0  0  0  0
  4 12  2  0  0  0  0
  5  7  1  0  0  0  0
  6 12  2  0  0  0  0
  7  8  1  0  0  0  0
  7 10  1  0  0  0  0
  8  9  1  0  0  0  0
 10 11  1  0  0  0  0
 11 12  1  0  0  0  0
M  END
>  <CHROM.1>
-149.34870818,-178.52741037,-144.39229152,43.12945051,14.15159553,13.15526878
-1.03254524,0.38738226,-0.51392490

>  <Name>
ligand

>  <RI>
0

>  <Rbt.Current_Directory>
/home/itssahil/PROJECTS/Mol_Feturizer/New_Systems/rnas/2HO6

>  <Rbt.Executable>
rbdock ($Id: //depot/dev/client3/rdock/2013.1/src/exe/rbdock.cxx#4 $)

>  <Rbt.Library>
libRbt.so (2013.1, Build901 2013/11/27)

>  <Rbt.Parameter_File>
/export/apps/rDock/src/rDock_2013.1_src/data/scripts/dock_solv.prm

>  <Rbt.Receptor>
prm/pocket_docking_7.prm

>  <SCORE>
-11.8937

>  <SCORE.INTER>
-11.4553

>  <SCORE.INTER.CONST>
1

>  <SCORE.INTER.POLAR>
0

>  <SCORE.INTER.ROT>
3

>  <SCORE.INTER.SOLV>
6.00265

>  <SCORE.INTER.VDW>
-15.2377

>  <SCORE.INTER.norm>
-0.954605

>  <SCORE.INTRA>
-0.438419

>  <SCORE.INTRA.DIHEDRAL>
1.01828

>  <SCORE.INTRA.DIHEDRAL.0>
1.88407

>  <SCORE.INTRA.POLAR>
0

>  <SCORE.INTRA.POLAR.0>
0

>  <SCORE.INTRA.REPUL>
0

>  <SCORE.INTRA.REPUL.0>
0

>  <SCORE.INTRA.SOLV>
0.0923913

>  <SCORE.INTRA.SOLV.lig_0>
-10.2714

>  <SCORE.INTRA.VDW>
-0.993756

>  <SCORE.INTRA.VDW.0>
0.416923

>  <SCORE.INTRA.norm>
-0.0365349

>  <SCORE.RESTR>
0

>  <SCORE.RESTR.CAVITY>
0

>  <SCORE.RESTR.norm>
0

>  <SCORE.SYSTEM>
0

>  <SCORE.SYSTEM.CONST>
0

>  <SCORE.SYSTEM.DIHEDRAL>
0

>  <SCORE.SYSTEM.SOLV>
0

>  <SCORE.SYSTEM.norm>
0

>  <SCORE.heavy>
12

>  <SCORE.norm>
-0.99114

>  <RMSD>
6.859

$$$$
ligand
 OpenBabel11021811433D
libRbt.so/2013.1/901 2013/11/27
 12 12  0  0  0  0  0  0  0  0999 V2000
   44.9376   10.5739   13.4005 O   0  0  0  0  0  0  0  0  0  0  0  0
   40.5890   16.6832   11.8612 O   0  0  0  0  0  0  0  0  0  0  0  0
   44.1750   10.5252   14.6443 C   0  0  0  0  0  0  0  0  0  0  0  0
   42.4369   17.3693   13.3423 O   0  0  0  0  0  0  0  0  0  0  0  0
   43.3790   11.8437   14.8679 C   0  0  0  0  0  0  0  0  0  0  0  0
   42.5130   16.6282   11.5161 O   0  0  0  0  0  0  0  0  0  0  0  0
   43.6284   12.7704   13.7099 N   0  0  0  0  0  0  0  0  0  0  0  0
   45.0905   13.0454   13.5678 C   0  0  0  0  0  0  0  0  0  0  0  0
   45.8600   11.7030   13.4132 C   0  0  0  0  0  0  0  0  0  0  0  0
   42.8923   14.0736   13.8651 C   0  0  0  0  0  0  0  0  0  0  0  0
   42.5852   14.7106   12.4883 C   0  0  0  0  0  0  0  0  0  0  0  0
   41.7053   16.2789   12.6800 S   0  0  0  0  0  0  0  0  0  0  0  0
  1  3  1  0  0  0  0
  1  9  1  0  0  0  0
  2 12  1  0  0  0  0
  3  5  1  0  0  0  0
  4 12  2  0  0  0  0
  5  7  1  0  0  0  0
  6 12  2  0  0  0  0
  7  8  1  0  0  0  0
  7 10  1  0  0  0  0
  8  9  1  0  0  0  0
 10 11  1  0  0  0  0
 11 12  1  0  0  0  0
M  END
>  <CHROM.1>
-152.99055480,-179.81714984,-137.79490035,43.13811130,14.13546714,13.19353059
-1.04572085,0.36093717,-0.49196085

>  <Name>
ligand

>  <RI>
0

>  <Rbt.Current_Directory>
/home/itssahil/PROJECTS/Mol_Feturizer/New_Systems/rnas/2HO6

>  <Rbt.Executable>
rbdock ($Id: //depot/dev/client3/rdock/2013.1/src/exe/rbdock.cxx#4 $)

>  <Rbt.Library>
libRbt.so (2013.1, Build901 2013/11/27)

>  <Rbt.Parameter_File>
/export/apps/rDock/src/rDock_2013.1_src/data/scripts/dock_solv.prm

>  <Rbt.Receptor>
prm/pocket_docking_8.prm

>  <SCORE>
-11.8959

>  <SCORE.INTER>
-11.411

>  <SCORE.INTER.CONST>
1

>  <SCORE.INTER.POLAR>
0

>  <SCORE.INTER.ROT>
3

>  <SCORE.INTER.SOLV>
6.08977

>  <SCORE.INTER.VDW>
-15.2372

>  <SCORE.INTER.norm>
-0.950915

>  <SCORE.INTRA>
-0.484888

>  <SCORE.INTRA.DIHEDRAL>
0.800089

>  <SCORE.INTRA.DIHEDRAL.0>
1.88407

>  <SCORE.INTRA.POLAR>
0

>  <SCORE.INTRA.POLAR.0>
0

>  <SCORE.INTRA.REPUL>
0

>  <SCORE.INTRA.REPUL.0>
0

>  <SCORE.INTRA.SOLV>
0.0767846

>  <SCORE.INTRA.SOLV.lig_0>
-10.2714

>  <SCORE.INTRA.VDW>
-0.923325

>  <SCORE.INTRA.VDW.0>
0.416923

>  <SCORE.INTRA.norm>
-0.0404074

>  <SCORE.RESTR>
0

>  <SCORE.RESTR.CAVITY>
0

>  <SCORE.RESTR.norm>
0

>  <SCORE.SYSTEM>
0

>  <SCORE.SYSTEM.CONST>
0

>  <SCORE.SYSTEM.DIHEDRAL>
0

>  <SCORE.SYSTEM.SOLV>
0

>  <SCORE.SYSTEM.norm>
0

>  <SCORE.heavy>
12

>  <SCORE.norm>
-0.991322

>  <RMSD>
6.866

$$$$
ligand
 OpenBabel11021811433D
libRbt.so/2013.1/901 2013/11/27
 12 12  0  0  0  0  0  0  0  0999 V2000
   52.6149   14.3935   15.1655 O   0  0  0  0  0  0  0  0  0  0  0  0
   54.6763   11.7692    8.4520 O   0  0  0  0  0  0  0  0  0  0  0  0
   52.3875   15.4587   14.1938 C   0  0  0  0  0  0  0  0  0  0  0  0
   56.1056   10.4091    9.9307 O   0  0  0  0  0  0  0  0  0  0  0  0
   53.0838   15.1416   12.8385 C   0  0  0  0  0  0  0  0  0  0  0  0
   54.1396   10.4324    9.7745 O   0  0  0  0  0  0  0  0  0  0  0  0
   53.7728   13.8086   12.9402 N   0  0  0  0  0  0  0  0  0  0  0  0
   54.7614   13.8170   14.0610 C   0  0  0  0  0  0  0  0  0  0  0  0
   54.0435   14.2021   15.3856 C   0  0  0  0  0  0  0  0  0  0  0  0
   54.4765   13.4414   11.6619 C   0  0  0  0  0  0  0  0  0  0  0  0
   54.2152   11.9633   11.2837 C   0  0  0  0  0  0  0  0  0  0  0  0
   55.1314   11.5024    9.7943 S   0  0  0  0  0  0  0  0  0  0  0  0
  1  3  1  0  0  0  0
  1  9  1  0  0  0  0
  2 12  1  0  0  0  0
  3  5  1  0  0  0  0
  4 12  2  0  0  0  0
  5  7  1  0  0  0  0
  6 12  2  0  0  0  0
  7  8  1  0  0  0  0
  7 10  1  0  0  0  0
  8  9  1  0  0  0  0
 10 11  1  0  0  0  0
 11 12  1  0  0  0  0
M  END
>  <CHROM.1>
-135.55516225,-177.05655075,-82.80439964,54.22238265,12.83462902,11.85461520
-2.02189270,0.85862412,-1.84241582

>  <Name>
ligand

>  <RI>
0

>  <Rbt.Current_Directory>
/home/itssahil/PROJECTS/Mol_Feturizer/New_Systems/rnas/2HO6

>  <Rbt.Executable>
rbdock ($Id: //depot/dev/client3/rdock/2013.1/src/exe/rbdock.cxx#4 $)

>  <Rbt.Library>
libRbt.so (2013.1, Build901 2013/11/27)

>  <Rbt.Parameter_File>
/export/apps/rDock/src/rDock_2013.1_src/data/scripts/dock_solv.prm

>  <Rbt.Receptor>
prm/pocket_docking_7.prm

>  <SCORE>
-11.0801

>  <SCORE.INTER>
-10.9503

>  <SCORE.INTER.CONST>
1

>  <SCORE.INTER.POLAR>
0

>  <SCORE.INTER.ROT>
3

>  <SCORE.INTER.SOLV>
5.92564

>  <SCORE.INTER.VDW>
-14.8754

>  <SCORE.INTER.norm>
-0.912525

>  <SCORE.INTRA>
-0.129767

>  <SCORE.INTRA.DIHEDRAL>
1.97304

>  <SCORE.INTRA.DIHEDRAL.0>
1.88407

>  <SCORE.INTRA.POLAR>
0

>  <SCORE.INTRA.POLAR.0>
0

>  <SCORE.INTRA.REPUL>
0

>  <SCORE.INTRA.REPUL.0>
0

>  <SCORE.INTRA.SOLV>
-0.0393489

>  <SCORE.INTRA.SOLV.lig_0>
-10.2714

>  <SCORE.INTRA.VDW>
-1.09661

>  <SCORE.INTRA.VDW.0>
0.416923

>  <SCORE.INTRA.norm>
-0.0108139

>  <SCORE.RESTR>
0

>  <SCORE.RESTR.CAVITY>
0

>  <SCORE.RESTR.norm>
0

>  <SCORE.SYSTEM>
0

>  <SCORE.SYSTEM.CONST>
0

>  <SCORE.SYSTEM.DIHEDRAL>
0

>  <SCORE.SYSTEM.SOLV>
0

>  <SCORE.SYSTEM.norm>
0

>  <SCORE.heavy>
12

>  <SCORE.norm>
-0.923339

>  <RMSD>
6.987

$$$$
ligand
 OpenBabel11021811433D
libRbt.so/2013.1/901 2013/11/27
 12 12  0  0  0  0  0  0  0  0999 V2000
   53.7231   13.4143   16.7694 O   0  0  0  0  0  0  0  0  0  0  0  0
   54.8556   11.6514   11.1600 O   0  0  0  0  0  0  0  0  0  0  0  0
   52.4480   13.5958   16.0824 C   0  0  0  0  0  0  0  0  0  0  0  0
   52.8511   12.7714   12.0584 O   0  0  0  0  0  0  0  0  0  0  0  0
   52.6463   14.2873   14.7023 C   0  0  0  0  0  0  0  0  0  0  0  0
   54.0776   13.3663   10.6330 O   0  0  0  0  0  0  0  0  0  0  0  0
   54.1125   14.5447   14.4879 N   0  0  0  0  0  0  0  0  0  0  0  0
   54.6607   15.3883   15.5931 C   0  0  0  0  0  0  0  0  0  0  0  0
   54.3859   14.6989   16.9596 C   0  0  0  0  0  0  0  0  0  0  0  0
   54.3769   15.2217   13.1704 C   0  0  0  0  0  0  0  0  0  0  0  0
   55.1847   14.3036   12.2214 C   0  0  0  0  0  0  0  0  0  0  0  0
   54.3160   12.7443   11.9311 S   0  0  0  0  0  0  0  0  0  0  0  0
  1  3  1  0  0  0  0
  1  9  1  0  0  0  0
  2 12  1  0  0  0  0
  3  5  1  0  0  0  0
  4 12  2  0  0  0  0
  5  7  1  0  0  0  0
  6 12  2  0  0  0  0
  7  8  1  0  0  0  0
  7 10  1  0  0  0  0
  8  9  1  0  0  0  0
 10 11  1  0  0  0  0
 11 12  1  0  0  0  0
M  END
>  <CHROM.1>
-114.57309873,57.95357119,-175.85933264,53.99820667,13.68933905,13.59209634
1.74952556,0.90674112,1.11686906

>  <Name>
ligand

>  <RI>
0

>  <Rbt.Current_Directory>
/home/itssahil/PROJECTS/Mol_Feturizer/New_Systems/rnas/2HO6

>  <Rbt.Executable>
rbdock ($Id: //depot/dev/client3/rdock/2013.1/src/exe/rbdock.cxx#4 $)

>  <Rbt.Library>
libRbt.so (2013.1, Build901 2013/11/27)

>  <Rbt.Parameter_File>
/export/apps/rDock/src/rDock_2013.1_src/data/scripts/dock_solv.prm

>  <Rbt.Receptor>
prm/pocket_docking_7.prm

>  <SCORE>
-10.4151

>  <SCORE.INTER>
-10.3263

>  <SCORE.INTER.CONST>
1

>  <SCORE.INTER.POLAR>
0

>  <SCORE.INTER.ROT>
3

>  <SCORE.INTER.SOLV>
3.85889

>  <SCORE.INTER.VDW>
-13.7705

>  <SCORE.INTER.norm>
-0.860525

>  <SCORE.INTRA>
-0.088837

>  <SCORE.INTRA.DIHEDRAL>
2.27057

>  <SCORE.INTRA.DIHEDRAL.0>
1.88407

>  <SCORE.INTRA.POLAR>
0

>  <SCORE.INTRA.POLAR.0>
0

>  <SCORE.INTRA.REPUL>
0

>  <SCORE.INTRA.REPUL.0>
0

>  <SCORE.INTRA.SOLV>
0.973467

>  <SCORE.INTRA.SOLV.lig_0>
-10.2714

>  <SCORE.INTRA.VDW>
-1.71086

>  <SCORE.INTRA.VDW.0>
0.416923

>  <SCORE.INTRA.norm>
-0.00740308

>  <SCORE.RESTR>
0

>  <SCORE.RESTR.CAVITY>
0

>  <SCORE.RESTR.norm>
0

>  <SCORE.SYSTEM>
0

>  <SCORE.SYSTEM.CONST>
0

>  <SCORE.SYSTEM.DIHEDRAL>
0

>  <SCORE.SYSTEM.SOLV>
0

>  <SCORE.SYSTEM.norm>
0

>  <SCORE.heavy>
12

>  <SCORE.norm>
-0.867928

>  <RMSD>
7.011

$$$$
ligand
 OpenBabel11021811433D
libRbt.so/2013.1/901 2013/11/27
 12 12  0  0  0  0  0  0  0  0999 V2000
   52.2151   14.0482   15.0303 O   0  0  0  0  0  0  0  0  0  0  0  0
   54.7179   11.7057    8.2493 O   0  0  0  0  0  0  0  0  0  0  0  0
   53.1366   15.1566   14.8003 C   0  0  0  0  0  0  0  0  0  0  0  0
   56.0819   10.5200    9.9265 O   0  0  0  0  0  0  0  0  0  0  0  0
   54.0479   14.8841   13.5685 C   0  0  0  0  0  0  0  0  0  0  0  0
   54.1433   10.3978    9.5847 O   0  0  0  0  0  0  0  0  0  0  0  0
   53.6836   13.5518   12.9732 N   0  0  0  0  0  0  0  0  0  0  0  0
   53.8246   12.4689   13.9934 C   0  0  0  0  0  0  0  0  0  0  0  0
   52.9529   12.8075   15.2359 C   0  0  0  0  0  0  0  0  0  0  0  0
   54.5347   13.2196   11.7776 C   0  0  0  0  0  0  0  0  0  0  0  0
   53.9707   11.9991   11.0106 C   0  0  0  0  0  0  0  0  0  0  0  0
   55.0562   11.5346    9.6409 S   0  0  0  0  0  0  0  0  0  0  0  0
  1  3  1  0  0  0  0
  1  9  1  0  0  0  0
  2 12  1  0  0  0  0
  3  5  1  0  0  0  0
  4 12  2  0  0  0  0
  5  7  1  0  0  0  0
  6 12  2  0  0  0  0
  7  8  1  0  0  0  0
  7 10  1  0  0  0  0
  8  9  1  0  0  0  0
 10 11  1  0  0  0  0
 11 12  1  0  0  0  0
M  END
>  <CHROM.1>
-168.58974069,-176.17665651,-110.35423803,54.13625304,12.54212089,11.85731456
2.63448754,1.21795864,0.03109382

>  <Name>
ligand

>  <RI>
0

>  <Rbt.Current_Directory>
/home/itssahil/PROJECTS/Mol_Feturizer/New_Systems/rnas/2HO6

>  <Rbt.Executable>
rbdock ($Id: //depot/dev/client3/rdock/2013.1/src/exe/rbdock.cxx#4 $)

>  <Rbt.Library>
libRbt.so (2013.1, Build901 2013/11/27)

>  <Rbt.Parameter_File>
/export/apps/rDock/src/rDock_2013.1_src/data/scripts/dock_solv.prm

>  <Rbt.Receptor>
prm/pocket_docking_7.prm

>  <SCORE>
-9.79997

>  <SCORE.INTER>
-9.56149

>  <SCORE.INTER.CONST>
1

>  <SCORE.INTER.POLAR>
0

>  <SCORE.INTER.ROT>
3

>  <SCORE.INTER.SOLV>
5.9275

>  <SCORE.INTER.VDW>
-13.9502

>  <SCORE.INTER.norm>
-0.796791

>  <SCORE.INTRA>
-0.247489

>  <SCORE.INTRA.DIHEDRAL>
0.186876

>  <SCORE.INTRA.DIHEDRAL.0>
1.88407

>  <SCORE.INTRA.POLAR>
0

>  <SCORE.INTRA.POLAR.0>
0

>  <SCORE.INTRA.REPUL>
0

>  <SCORE.INTRA.REPUL.0>
0

>  <SCORE.INTRA.SOLV>
0.0182948

>  <SCORE.INTRA.SOLV.lig_0>
-10.2714

>  <SCORE.INTRA.VDW>
-0.350074

>  <SCORE.INTRA.VDW.0>
0.416923

>  <SCORE.INTRA.norm>
-0.0206241

>  <SCORE.RESTR>
0.00901047

>  <SCORE.RESTR.CAVITY>
0.00901047

>  <SCORE.RESTR.norm>
0.000750872

>  <SCORE.SYSTEM>
0

>  <SCORE.SYSTEM.CONST>
0

>  <SCORE.SYSTEM.DIHEDRAL>
0

>  <SCORE.SYSTEM.SOLV>
0

>  <SCORE.SYSTEM.norm>
0

>  <SCORE.heavy>
12

>  <SCORE.norm>
-0.816664

>  <RMSD>
7.015

$$$$
ligand
 OpenBabel11021811433D
libRbt.so/2013.1/901 2013/11/27
 12 12  0  0  0  0  0  0  0  0999 V2000
   54.3667   13.9778   10.9685 O   0  0  0  0  0  0  0  0  0  0  0  0
   54.8954   13.8556   17.3228 O   0  0  0  0  0  0  0  0  0  0  0  0
   55.3471   14.6324   11.8293 C   0  0  0  0  0  0  0  0  0  0  0  0
   54.8530   16.0737   16.2470 O   0  0  0  0  0  0  0  0  0  0  0  0
   54.6808   15.1818   13.1240 C   0  0  0  0  0  0  0  0  0  0  0  0
   53.4862   15.2103   17.3768 O   0  0  0  0  0  0  0  0  0  0  0  0
   53.2140   14.8505   13.1002 N   0  0  0  0  0  0  0  0  0  0  0  0
   52.5693   15.4258   11.8808 C   0  0  0  0  0  0  0  0  0  0  0  0
   53.3022   14.9078   10.6109 C   0  0  0  0  0  0  0  0  0  0  0  0
   52.5031   15.3614   14.3240 C   0  0  0  0  0  0  0  0  0  0  0  0
   52.7171   14.4166   15.5312 C   0  0  0  0  0  0  0  0  0  0  0  0
   54.3290   14.7006   16.3004 S   0  0  0  0  0  0  0  0  0  0  0  0
  1  3  1  0  0  0  0
  1  9  1  0  0  0  0
  2 12  1  0  0  0  0
  3  5  1  0  0  0  0
  4 12  2  0  0  0  0
  5  7  1  0  0  0  0
  6 12  2  0  0  0  0
  7  8  1  0  0  0  0
  7 10  1  0  0  0  0
  8  9  1  0  0  0  0
 10 11  1  0  0  0  0
 11 12  1  0  0  0  0
M  END
>  <CHROM.1>
-80.17019241,79.95385724,-170.94483213,53.92149969,14.86172310,14.31822726
-1.64125309,-0.24065435,1.53900707

>  <Name>
ligand

>  <RI>
0

>  <Rbt.Current_Directory>
/home/itssahil/PROJECTS/Mol_Feturizer/New_Systems/rnas/2HO6

>  <Rbt.Executable>
rbdock ($Id: //depot/dev/client3/rdock/2013.1/src/exe/rbdock.cxx#4 $)

>  <Rbt.Library>
libRbt.so (2013.1, Build901 2013/11/27)

>  <Rbt.Parameter_File>
/export/apps/rDock/src/rDock_2013.1_src/data/scripts/dock_solv.prm

>  <Rbt.Receptor>
prm/pocket_docking_7.prm

>  <SCORE>
-10.2857

>  <SCORE.INTER>
-10.3179

>  <SCORE.INTER.CONST>
1

>  <SCORE.INTER.POLAR>
0

>  <SCORE.INTER.ROT>
3

>  <SCORE.INTER.SOLV>
5.46862

>  <SCORE.INTER.VDW>
-14.3015

>  <SCORE.INTER.norm>
-0.859827

>  <SCORE.INTRA>
0.0322475

>  <SCORE.INTRA.DIHEDRAL>
1.92515

>  <SCORE.INTRA.DIHEDRAL.0>
1.88407

>  <SCORE.INTRA.POLAR>
0

>  <SCORE.INTRA.POLAR.0>
0

>  <SCORE.INTRA.REPUL>
0

>  <SCORE.INTRA.REPUL.0>
0

>  <SCORE.INTRA.SOLV>
0.64183

>  <SCORE.INTRA.SOLV.lig_0>
-10.2714

>  <SCORE.INTRA.VDW>
-1.25124

>  <SCORE.INTRA.VDW.0>
0.416923

>  <SCORE.INTRA.norm>
0.00268729

>  <SCORE.RESTR>
0

>  <SCORE.RESTR.CAVITY>
0

>  <SCORE.RESTR.norm>
0

>  <SCORE.SYSTEM>
0

>  <SCORE.SYSTEM.CONST>
0

>  <SCORE.SYSTEM.DIHEDRAL>
0

>  <SCORE.SYSTEM.SOLV>
0

>  <SCORE.SYSTEM.norm>
0

>  <SCORE.heavy>
12

>  <SCORE.norm>
-0.85714

>  <RMSD>
7.049

$$$$
ligand
 OpenBabel11021811433D
libRbt.so/2013.1/901 2013/11/27
 12 12  0  0  0  0  0  0  0  0999 V2000
   45.5054   12.3921   14.7187 O   0  0  0  0  0  0  0  0  0  0  0  0
   40.4952   16.6141   11.4119 O   0  0  0  0  0  0  0  0  0  0  0  0
   45.6427   12.5191   13.2710 C   0  0  0  0  0  0  0  0  0  0  0  0
   41.7981   18.5523   12.2025 O   0  0  0  0  0  0  0  0  0  0  0  0
   44.4967   13.3848   12.6713 C   0  0  0  0  0  0  0  0  0  0  0  0
   42.3493   17.0845   11.0060 O   0  0  0  0  0  0  0  0  0  0  0  0
   43.5961   13.8464   13.7838 N   0  0  0  0  0  0  0  0  0  0  0  0
   43.0468   12.6740   14.5304 C   0  0  0  0  0  0  0  0  0  0  0  0
   44.2181   11.7973   15.0574 C   0  0  0  0  0  0  0  0  0  0  0  0
   42.4567   14.6856   13.2722 C   0  0  0  0  0  0  0  0  0  0  0  0
   42.9504   16.0777   12.8094 C   0  0  0  0  0  0  0  0  0  0  0  0
   41.5714   17.0997   12.2403 S   0  0  0  0  0  0  0  0  0  0  0  0
  1  3  1  0  0  0  0
  1  9  1  0  0  0  0
  2 12  1  0  0  0  0
  3  5  1  0  0  0  0
  4 12  2  0  0  0  0
  5  7  1  0  0  0  0
  6 12  2  0  0  0  0
  7  8  1  0  0  0  0
  7 10  1  0  0  0  0
  8  9  1  0  0  0  0
 10 11  1  0  0  0  0
 11 12  1  0  0  0  0
M  END
>  <CHROM.1>
-71.73808628,-178.35587334,-42.52909342,43.00207751,15.00589997,12.97275796
-1.02392838,0.30227702,-0.63320627

>  <Name>
ligand

>  <RI>
0

>  <Rbt.Current_Directory>
/home/itssahil/PROJECTS/Mol_Feturizer/New_Systems/rnas/2HO6

>  <Rbt.Executable>
rbdock ($Id: //depot/dev/client3/rdock/2013.1/src/exe/rbdock.cxx#4 $)

>  <Rbt.Library>
libRbt.so (2013.1, Build901 2013/11/27)

>  <Rbt.Parameter_File>
/export/apps/rDock/src/rDock_2013.1_src/data/scripts/dock_solv.prm

>  <Rbt.Receptor>
prm/pocket_docking_8.prm

>  <SCORE>
-11.0758

>  <SCORE.INTER>
-10.4301

>  <SCORE.INTER.CONST>
1

>  <SCORE.INTER.POLAR>
0

>  <SCORE.INTER.ROT>
3

>  <SCORE.INTER.SOLV>
6.10426

>  <SCORE.INTER.VDW>
-14.5882

>  <SCORE.INTER.norm>
-0.869179

>  <SCORE.INTRA>
-0.64562

>  <SCORE.INTRA.DIHEDRAL>
0.12901

>  <SCORE.INTRA.DIHEDRAL.0>
1.88407

>  <SCORE.INTRA.POLAR>
0

>  <SCORE.INTRA.POLAR.0>
0

>  <SCORE.INTRA.REPUL>
0

>  <SCORE.INTRA.REPUL.0>
0

>  <SCORE.INTRA.SOLV>
-0.0601129

>  <SCORE.INTRA.SOLV.lig_0>
-10.2714

>  <SCORE.INTRA.VDW>
-0.680068

>  <SCORE.INTRA.VDW.0>
0.416923

>  <SCORE.INTRA.norm>
-0.0538017

>  <SCORE.RESTR>
0

>  <SCORE.RESTR.CAVITY>
0

>  <SCORE.RESTR.norm>
0

>  <SCORE.SYSTEM>
0

>  <SCORE.SYSTEM.CONST>
0

>  <SCORE.SYSTEM.DIHEDRAL>
0

>  <SCORE.SYSTEM.SOLV>
0

>  <SCORE.SYSTEM.norm>
0

>  <SCORE.heavy>
12

>  <SCORE.norm>
-0.922981

>  <RMSD>
7.055

$$$$
ligand
 OpenBabel11021811433D
libRbt.so/2013.1/901 2013/11/27
 12 12  0  0  0  0  0  0  0  0999 V2000
   53.8712   13.4019   16.6298 O   0  0  0  0  0  0  0  0  0  0  0  0
   54.9687   12.1047   10.7397 O   0  0  0  0  0  0  0  0  0  0  0  0
   52.5656   13.6041   16.0092 C   0  0  0  0  0  0  0  0  0  0  0  0
   53.0324   12.8744   12.0579 O   0  0  0  0  0  0  0  0  0  0  0  0
   52.6959   14.3750   14.6635 C   0  0  0  0  0  0  0  0  0  0  0  0
   53.9744   13.7810   10.5812 O   0  0  0  0  0  0  0  0  0  0  0  0
   54.1484   14.6644   14.4018 N   0  0  0  0  0  0  0  0  0  0  0  0
   54.7343   15.4519   15.5288 C   0  0  0  0  0  0  0  0  0  0  0  0
   54.5270   14.6828   16.8644 C   0  0  0  0  0  0  0  0  0  0  0  0
   54.3477   15.4182   13.1149 C   0  0  0  0  0  0  0  0  0  0  0  0
   55.2220   14.6125   12.1237 C   0  0  0  0  0  0  0  0  0  0  0  0
   54.4583   13.0215   11.7292 S   0  0  0  0  0  0  0  0  0  0  0  0
  1  3  1  0  0  0  0
  1  9  1  0  0  0  0
  2 12  1  0  0  0  0
  3  5  1  0  0  0  0
  4 12  2  0  0  0  0
  5  7  1  0  0  0  0
  6 12  2  0  0  0  0
  7  8  1  0  0  0  0
  7 10  1  0  0  0  0
  8  9  1  0  0  0  0
 10 11  1  0  0  0  0
 11 12  1  0  0  0  0
M  END
>  <CHROM.1>
-119.18668723,59.62700334,173.89084878,54.08038784,13.86955788,13.47145412
1.75673954,0.93785800,1.17308257

>  <Name>
ligand

>  <RI>
0

>  <Rbt.Current_Directory>
/home/itssahil/PROJECTS/Mol_Feturizer/New_Systems/rnas/2HO6

>  <Rbt.Executable>
rbdock ($Id: //depot/dev/client3/rdock/2013.1/src/exe/rbdock.cxx#4 $)

>  <Rbt.Library>
libRbt.so (2013.1, Build901 2013/11/27)

>  <Rbt.Parameter_File>
/export/apps/rDock/src/rDock_2013.1_src/data/scripts/dock_solv.prm

>  <Rbt.Receptor>
prm/pocket_docking_7.prm

>  <SCORE>
-10.3539

>  <SCORE.INTER>
-10.448

>  <SCORE.INTER.CONST>
1

>  <SCORE.INTER.POLAR>
0

>  <SCORE.INTER.ROT>
3

>  <SCORE.INTER.SOLV>
3.96761

>  <SCORE.INTER.VDW>
-13.8879

>  <SCORE.INTER.norm>
-0.87067

>  <SCORE.INTRA>
0.0941655

>  <SCORE.INTRA.DIHEDRAL>
2.32242

>  <SCORE.INTRA.DIHEDRAL.0>
1.88407

>  <SCORE.INTRA.POLAR>
0

>  <SCORE.INTRA.POLAR.0>
0

>  <SCORE.INTRA.REPUL>
0

>  <SCORE.INTRA.REPUL.0>
0

>  <SCORE.INTRA.SOLV>
1.05785

>  <SCORE.INTRA.SOLV.lig_0>
-10.2714

>  <SCORE.INTRA.VDW>
-1.59597

>  <SCORE.INTRA.VDW.0>
0.416923

>  <SCORE.INTRA.norm>
0.00784712

>  <SCORE.RESTR>
0

>  <SCORE.RESTR.CAVITY>
0

>  <SCORE.RESTR.norm>
0

>  <SCORE.SYSTEM>
0

>  <SCORE.SYSTEM.CONST>
0

>  <SCORE.SYSTEM.DIHEDRAL>
0

>  <SCORE.SYSTEM.SOLV>
0

>  <SCORE.SYSTEM.norm>
0

>  <SCORE.heavy>
12

>  <SCORE.norm>
-0.862823

>  <RMSD>
7.082

$$$$
ligand
 OpenBabel11021811433D
libRbt.so/2013.1/901 2013/11/27
 12 12  0  0  0  0  0  0  0  0999 V2000
   53.9371   13.3620   16.7493 O   0  0  0  0  0  0  0  0  0  0  0  0
   54.9170   11.9209   10.9106 O   0  0  0  0  0  0  0  0  0  0  0  0
   52.6438   13.4274   16.0755 C   0  0  0  0  0  0  0  0  0  0  0  0
   52.9137   12.8877   11.9743 O   0  0  0  0  0  0  0  0  0  0  0  0
   52.7570   14.1691   14.7119 C   0  0  0  0  0  0  0  0  0  0  0  0
   54.0663   13.6475   10.5657 O   0  0  0  0  0  0  0  0  0  0  0  0
   54.1868   14.5818   14.4944 N   0  0  0  0  0  0  0  0  0  0  0  0
   54.6551   15.4505   15.6168 C   0  0  0  0  0  0  0  0  0  0  0  0
   54.4655   14.7033   16.9674 C   0  0  0  0  0  0  0  0  0  0  0  0
   54.3678   15.3144   13.1926 C   0  0  0  0  0  0  0  0  0  0  0  0
   55.2026   14.4794   12.1917 C   0  0  0  0  0  0  0  0  0  0  0  0
   54.3729   12.9226   11.7942 S   0  0  0  0  0  0  0  0  0  0  0  0
  1  3  1  0  0  0  0
  1  9  1  0  0  0  0
  2 12  1  0  0  0  0
  3  5  1  0  0  0  0
  4 12  2  0  0  0  0
  5  7  1  0  0  0  0
  6 12  2  0  0  0  0
  7  8  1  0  0  0  0
  7 10  1  0  0  0  0
  8  9  1  0  0  0  0
 10 11  1  0  0  0  0
 11 12  1  0  0  0  0
M  END
>  <CHROM.1>
-111.94248962,61.58267059,-178.69781578,54.06800181,13.77556895,13.53723531
1.73083114,0.96822524,1.18184559

>  <Name>
ligand

>  <RI>
0

>  <Rbt.Current_Directory>
/home/itssahil/PROJECTS/Mol_Feturizer/New_Systems/rnas/2HO6

>  <Rbt.Executable>
rbdock ($Id: //depot/dev/client3/rdock/2013.1/src/exe/rbdock.cxx#4 $)

>  <Rbt.Library>
libRbt.so (2013.1, Build901 2013/11/27)

>  <Rbt.Parameter_File>
/export/apps/rDock/src/rDock_2013.1_src/data/scripts/dock_solv.prm

>  <Rbt.Receptor>
prm/pocket_docking_7.prm

>  <SCORE>
-10.2263

>  <SCORE.INTER>
-10.2006

>  <SCORE.INTER.CONST>
1

>  <SCORE.INTER.POLAR>
0

>  <SCORE.INTER.ROT>
3

>  <SCORE.INTER.SOLV>
3.95885

>  <SCORE.INTER.VDW>
-13.72

>  <SCORE.INTER.norm>
-0.850049

>  <SCORE.INTRA>
-0.0256915

>  <SCORE.INTRA.DIHEDRAL>
2.22827

>  <SCORE.INTRA.DIHEDRAL.0>
1.88407

>  <SCORE.INTRA.POLAR>
0

>  <SCORE.INTRA.POLAR.0>
0

>  <SCORE.INTRA.REPUL>
0

>  <SCORE.INTRA.REPUL.0>
0

>  <SCORE.INTRA.SOLV>
0.965873

>  <SCORE.INTRA.SOLV.lig_0>
-10.2714

>  <SCORE.INTRA.VDW>
-1.62276

>  <SCORE.INTRA.VDW.0>
0.416923

>  <SCORE.INTRA.norm>
-0.00214096

>  <SCORE.RESTR>
0

>  <SCORE.RESTR.CAVITY>
0

>  <SCORE.RESTR.norm>
0

>  <SCORE.SYSTEM>
0

>  <SCORE.SYSTEM.CONST>
0

>  <SCORE.SYSTEM.DIHEDRAL>
0

>  <SCORE.SYSTEM.SOLV>
0

>  <SCORE.SYSTEM.norm>
0

>  <SCORE.heavy>
12

>  <SCORE.norm>
-0.85219

>  <RMSD>
7.083

$$$$
ligand
 OpenBabel11021811433D
libRbt.so/2013.1/901 2013/11/27
 12 12  0  0  0  0  0  0  0  0999 V2000
   53.6671   13.4110   16.6879 O   0  0  0  0  0  0  0  0  0  0  0  0
   54.2804   11.5638   12.3129 O   0  0  0  0  0  0  0  0  0  0  0  0
   52.4403   13.6005   15.9199 C   0  0  0  0  0  0  0  0  0  0  0  0
   53.2112   13.0150   10.6306 O   0  0  0  0  0  0  0  0  0  0  0  0
   52.7286   14.3131   14.5666 C   0  0  0  0  0  0  0  0  0  0  0  0
   55.1188   12.5696   10.8605 O   0  0  0  0  0  0  0  0  0  0  0  0
   54.2051   14.5763   14.4547 N   0  0  0  0  0  0  0  0  0  0  0  0
   54.6758   15.4042   15.6065 C   0  0  0  0  0  0  0  0  0  0  0  0
   54.3121   14.6938   16.9412 C   0  0  0  0  0  0  0  0  0  0  0  0
   54.5552   15.2735   13.1680 C   0  0  0  0  0  0  0  0  0  0  0  0
   55.1821   14.2896   12.1508 C   0  0  0  0  0  0  0  0  0  0  0  0
   54.0703   12.9025   11.8190 S   0  0  0  0  0  0  0  0  0  0  0  0
  1  3  1  0  0  0  0
  1  9  1  0  0  0  0
  2 12  1  0  0  0  0
  3  5  1  0  0  0  0
  4 12  2  0  0  0  0
  5  7  1  0  0  0  0
  6 12  2  0  0  0  0
  7  8  1  0  0  0  0
  7 10  1  0  0  0  0
  8  9  1  0  0  0  0
 10 11  1  0  0  0  0
 11 12  1  0  0  0  0
M  END
>  <CHROM.1>
-103.39163610,57.19144288,-106.75366208,54.04159822,13.67038748,13.53339648
1.75308919,0.97744776,1.10197385

>  <Name>
ligand

>  <RI>
0

>  <Rbt.Current_Directory>
/home/itssahil/PROJECTS/Mol_Feturizer/New_Systems/rnas/2HO6

>  <Rbt.Executable>
rbdock ($Id: //depot/dev/client3/rdock/2013.1/src/exe/rbdock.cxx#4 $)

>  <Rbt.Library>
libRbt.so (2013.1, Build901 2013/11/27)

>  <Rbt.Parameter_File>
/export/apps/rDock/src/rDock_2013.1_src/data/scripts/dock_solv.prm

>  <Rbt.Receptor>
prm/pocket_docking_7.prm

>  <SCORE>
-10.6275

>  <SCORE.INTER>
-10.0266

>  <SCORE.INTER.CONST>
1

>  <SCORE.INTER.POLAR>
0

>  <SCORE.INTER.ROT>
3

>  <SCORE.INTER.SOLV>
4.59284

>  <SCORE.INTER.VDW>
-13.8153

>  <SCORE.INTER.norm>
-0.835547

>  <SCORE.INTRA>
-0.600888

>  <SCORE.INTRA.DIHEDRAL>
2.03637

>  <SCORE.INTRA.DIHEDRAL.0>
1.88407

>  <SCORE.INTRA.POLAR>
0

>  <SCORE.INTRA.POLAR.0>
0

>  <SCORE.INTRA.REPUL>
0

>  <SCORE.INTRA.REPUL.0>
0

>  <SCORE.INTRA.SOLV>
0.286633

>  <SCORE.INTRA.SOLV.lig_0>
-10.2714

>  <SCORE.INTRA.VDW>
-1.76239

>  <SCORE.INTRA.VDW.0>
0.416923

>  <SCORE.INTRA.norm>
-0.050074

>  <SCORE.RESTR>
0

>  <SCORE.RESTR.CAVITY>
0

>  <SCORE.RESTR.norm>
0

>  <SCORE.SYSTEM>
0

>  <SCORE.SYSTEM.CONST>
0

>  <SCORE.SYSTEM.DIHEDRAL>
0

>  <SCORE.SYSTEM.SOLV>
0

>  <SCORE.SYSTEM.norm>
0

>  <SCORE.heavy>
12

>  <SCORE.norm>
-0.885621

>  <RMSD>
7.096

$$$$
ligand
 OpenBabel11021811433D
libRbt.so/2013.1/901 2013/11/27
 12 12  0  0  0  0  0  0  0  0999 V2000
   53.7174   13.3957   16.7178 O   0  0  0  0  0  0  0  0  0  0  0  0
   54.2413   11.6192   12.2795 O   0  0  0  0  0  0  0  0  0  0  0  0
   52.4733   13.5693   15.9744 C   0  0  0  0  0  0  0  0  0  0  0  0
   53.2361   13.0840   10.5698 O   0  0  0  0  0  0  0  0  0  0  0  0
   52.7232   14.2980   14.6221 C   0  0  0  0  0  0  0  0  0  0  0  0
   55.1334   12.6334   10.8655 O   0  0  0  0  0  0  0  0  0  0  0  0
   54.1925   14.5888   14.4850 N   0  0  0  0  0  0  0  0  0  0  0  0
   54.6697   15.4156   15.6348 C   0  0  0  0  0  0  0  0  0  0  0  0
   54.3440   14.6879   16.9699 C   0  0  0  0  0  0  0  0  0  0  0  0
   54.5058   15.3028   13.1980 C   0  0  0  0  0  0  0  0  0  0  0  0
   55.1528   14.3443   12.1692 C   0  0  0  0  0  0  0  0  0  0  0  0
   54.0514   12.9616   11.7877 S   0  0  0  0  0  0  0  0  0  0  0  0
  1  3  1  0  0  0  0
  1  9  1  0  0  0  0
  2 12  1  0  0  0  0
  3  5  1  0  0  0  0
  4 12  2  0  0  0  0
  5  7  1  0  0  0  0
  6 12  2  0  0  0  0
  7  8  1  0  0  0  0
  7 10  1  0  0  0  0
  8  9  1  0  0  0  0
 10 11  1  0  0  0  0
 11 12  1  0  0  0  0
M  END
>  <CHROM.1>
-104.33912492,59.69670193,-105.27764315,54.03991965,13.69839213,13.54109559
1.74512765,0.99698380,1.12510811

>  <Name>
ligand

>  <RI>
0

>  <Rbt.Current_Directory>
/home/itssahil/PROJECTS/Mol_Feturizer/New_Systems/rnas/2HO6

>  <Rbt.Executable>
rbdock ($Id: //depot/dev/client3/rdock/2013.1/src/exe/rbdock.cxx#4 $)

>  <Rbt.Library>
libRbt.so (2013.1, Build901 2013/11/27)

>  <Rbt.Parameter_File>
/export/apps/rDock/src/rDock_2013.1_src/data/scripts/dock_solv.prm

>  <Rbt.Receptor>
prm/pocket_docking_7.prm

>  <SCORE>
-10.5546

>  <SCORE.INTER>
-9.93414

>  <SCORE.INTER.CONST>
1

>  <SCORE.INTER.POLAR>
0

>  <SCORE.INTER.ROT>
3

>  <SCORE.INTER.SOLV>
4.62231

>  <SCORE.INTER.VDW>
-13.7635

>  <SCORE.INTER.norm>
-0.827845

>  <SCORE.INTRA>
-0.620479

>  <SCORE.INTRA.DIHEDRAL>
2.05206

>  <SCORE.INTRA.DIHEDRAL.0>
1.88407

>  <SCORE.INTRA.POLAR>
0

>  <SCORE.INTRA.POLAR.0>
0

>  <SCORE.INTRA.REPUL>
0

>  <SCORE.INTRA.REPUL.0>
0

>  <SCORE.INTRA.SOLV>
0.250788

>  <SCORE.INTRA.SOLV.lig_0>
-10.2714

>  <SCORE.INTRA.VDW>
-1.7719

>  <SCORE.INTRA.VDW.0>
0.416923

>  <SCORE.INTRA.norm>
-0.0517066

>  <SCORE.RESTR>
0

>  <SCORE.RESTR.CAVITY>
0

>  <SCORE.RESTR.norm>
0

>  <SCORE.SYSTEM>
0

>  <SCORE.SYSTEM.CONST>
0

>  <SCORE.SYSTEM.DIHEDRAL>
0

>  <SCORE.SYSTEM.SOLV>
0

>  <SCORE.SYSTEM.norm>
0

>  <SCORE.heavy>
12

>  <SCORE.norm>
-0.879552

>  <RMSD>
7.109

$$$$
ligand
 OpenBabel11021811433D
libRbt.so/2013.1/901 2013/11/27
 12 12  0  0  0  0  0  0  0  0999 V2000
   53.8285   13.3693   16.7353 O   0  0  0  0  0  0  0  0  0  0  0  0
   54.3090   11.5792   12.3086 O   0  0  0  0  0  0  0  0  0  0  0  0
   52.5769   13.4558   15.9890 C   0  0  0  0  0  0  0  0  0  0  0  0
   53.2014   13.0047   10.6291 O   0  0  0  0  0  0  0  0  0  0  0  0
   52.7829   14.1817   14.6278 C   0  0  0  0  0  0  0  0  0  0  0  0
   55.1201   12.6087   10.8573 O   0  0  0  0  0  0  0  0  0  0  0  0
   54.2313   14.5618   14.4880 N   0  0  0  0  0  0  0  0  0  0  0  0
   54.6546   15.4309   15.6277 C   0  0  0  0  0  0  0  0  0  0  0  0
   54.3730   14.7010   16.9716 C   0  0  0  0  0  0  0  0  0  0  0  0
   54.5013   15.2778   13.1924 C   0  0  0  0  0  0  0  0  0  0  0  0
   55.1394   14.3278   12.1502 C   0  0  0  0  0  0  0  0  0  0  0  0
   54.0639   12.9128   11.8168 S   0  0  0  0  0  0  0  0  0  0  0  0
  1  3  1  0  0  0  0
  1  9  1  0  0  0  0
  2 12  1  0  0  0  0
  3  5  1  0  0  0  0
  4 12  2  0  0  0  0
  5  7  1  0  0  0  0
  6 12  2  0  0  0  0
  7  8  1  0  0  0  0
  7 10  1  0  0  0  0
  8  9  1  0  0  0  0
 10 11  1  0  0  0  0
 11 12  1  0  0  0  0
M  END
>  <CHROM.1>
-101.30890459,58.83767787,-105.52177395,54.06705950,13.65680812,13.55346995
1.73319723,1.04033880,1.12717694

>  <Name>
ligand

>  <RI>
0

>  <Rbt.Current_Directory>
/home/itssahil/PROJECTS/Mol_Feturizer/New_Systems/rnas/2HO6

>  <Rbt.Executable>
rbdock ($Id: //depot/dev/client3/rdock/2013.1/src/exe/rbdock.cxx#4 $)

>  <Rbt.Library>
libRbt.so (2013.1, Build901 2013/11/27)

>  <Rbt.Parameter_File>
/export/apps/rDock/src/rDock_2013.1_src/data/scripts/dock_solv.prm

>  <Rbt.Receptor>
prm/pocket_docking_7.prm

>  <SCORE>
-10.6313

>  <SCORE.INTER>
-9.97206

>  <SCORE.INTER.CONST>
1

>  <SCORE.INTER.POLAR>
0

>  <SCORE.INTER.ROT>
3

>  <SCORE.INTER.SOLV>
4.61148

>  <SCORE.INTER.VDW>
-13.7852

>  <SCORE.INTER.norm>
-0.831005

>  <SCORE.INTRA>
-0.65928

>  <SCORE.INTRA.DIHEDRAL>
1.91597

>  <SCORE.INTRA.DIHEDRAL.0>
1.88407

>  <SCORE.INTRA.POLAR>
0

>  <SCORE.INTRA.POLAR.0>
0

>  <SCORE.INTRA.REPUL>
0

>  <SCORE.INTRA.REPUL.0>
0

>  <SCORE.INTRA.SOLV>
0.257971

>  <SCORE.INTRA.SOLV.lig_0>
-10.2714

>  <SCORE.INTRA.VDW>
-1.74625

>  <SCORE.INTRA.VDW.0>
0.416923

>  <SCORE.INTRA.norm>
-0.05494

>  <SCORE.RESTR>
0

>  <SCORE.RESTR.CAVITY>
0

>  <SCORE.RESTR.norm>
0

>  <SCORE.SYSTEM>
0

>  <SCORE.SYSTEM.CONST>
0

>  <SCORE.SYSTEM.DIHEDRAL>
0

>  <SCORE.SYSTEM.SOLV>
0

>  <SCORE.SYSTEM.norm>
0

>  <SCORE.heavy>
12

>  <SCORE.norm>
-0.885945

>  <RMSD>
7.120

$$$$
ligand
 OpenBabel11021811433D
libRbt.so/2013.1/901 2013/11/27
 12 12  0  0  0  0  0  0  0  0999 V2000
   53.8886   13.2379   16.6931 O   0  0  0  0  0  0  0  0  0  0  0  0
   55.1171   12.2145   10.7662 O   0  0  0  0  0  0  0  0  0  0  0  0
   52.5646   13.3899   16.0976 C   0  0  0  0  0  0  0  0  0  0  0  0
   53.0497   12.8613   11.9438 O   0  0  0  0  0  0  0  0  0  0  0  0
   52.6330   14.2091   14.7762 C   0  0  0  0  0  0  0  0  0  0  0  0
   54.0646   13.8511   10.5726 O   0  0  0  0  0  0  0  0  0  0  0  0
   54.0639   14.5837   14.5039 N   0  0  0  0  0  0  0  0  0  0  0  0
   54.6249   15.3651   15.6478 C   0  0  0  0  0  0  0  0  0  0  0  0
   54.4793   14.5438   16.9603 C   0  0  0  0  0  0  0  0  0  0  0  0
   54.2030   15.3877   13.2396 C   0  0  0  0  0  0  0  0  0  0  0  0
   55.1473   14.6881   12.2323 C   0  0  0  0  0  0  0  0  0  0  0  0
   54.4892   13.0787   11.7353 S   0  0  0  0  0  0  0  0  0  0  0  0
  1  3  1  0  0  0  0
  1  9  1  0  0  0  0
  2 12  1  0  0  0  0
  3  5  1  0  0  0  0
  4 12  2  0  0  0  0
  5  7  1  0  0  0  0
  6 12  2  0  0  0  0
  7  8  1  0  0  0  0
  7 10  1  0  0  0  0
  8  9  1  0  0  0  0
 10 11  1  0  0  0  0
 11 12  1  0  0  0  0
M  END
>  <CHROM.1>
-121.40246026,62.02760334,177.41413643,54.07011195,13.83289426,13.52400559
1.80205550,0.98199826,1.17766055

>  <Name>
ligand

>  <RI>
0

>  <Rbt.Current_Directory>
/home/itssahil/PROJECTS/Mol_Feturizer/New_Systems/rnas/2HO6

>  <Rbt.Executable>
rbdock ($Id: //depot/dev/client3/rdock/2013.1/src/exe/rbdock.cxx#4 $)

>  <Rbt.Library>
libRbt.so (2013.1, Build901 2013/11/27)

>  <Rbt.Parameter_File>
/export/apps/rDock/src/rDock_2013.1_src/data/scripts/dock_solv.prm

>  <Rbt.Receptor>
prm/pocket_docking_7.prm

>  <SCORE>
-10.3335

>  <SCORE.INTER>
-10.3095

>  <SCORE.INTER.CONST>
1

>  <SCORE.INTER.POLAR>
0

>  <SCORE.INTER.ROT>
3

>  <SCORE.INTER.SOLV>
3.89155

>  <SCORE.INTER.VDW>
-13.7702

>  <SCORE.INTER.norm>
-0.859121

>  <SCORE.INTRA>
-0.0240056

>  <SCORE.INTRA.DIHEDRAL>
2.31213

>  <SCORE.INTRA.DIHEDRAL.0>
1.88407

>  <SCORE.INTRA.POLAR>
0

>  <SCORE.INTRA.POLAR.0>
0

>  <SCORE.INTRA.REPUL>
0

>  <SCORE.INTRA.REPUL.0>
0

>  <SCORE.INTRA.SOLV>
0.953144

>  <SCORE.INTRA.SOLV.lig_0>
-10.2714

>  <SCORE.INTRA.VDW>
-1.65664

>  <SCORE.INTRA.VDW.0>
0.416923

>  <SCORE.INTRA.norm>
-0.00200047

>  <SCORE.RESTR>
0

>  <SCORE.RESTR.CAVITY>
0

>  <SCORE.RESTR.norm>
0

>  <SCORE.SYSTEM>
0

>  <SCORE.SYSTEM.CONST>
0

>  <SCORE.SYSTEM.DIHEDRAL>
0

>  <SCORE.SYSTEM.SOLV>
0

>  <SCORE.SYSTEM.norm>
0

>  <SCORE.heavy>
12

>  <SCORE.norm>
-0.861122

>  <RMSD>
7.120

$$$$
ligand
 OpenBabel11021811433D
libRbt.so/2013.1/901 2013/11/27
 12 12  0  0  0  0  0  0  0  0999 V2000
   53.7940   13.3718   16.7192 O   0  0  0  0  0  0  0  0  0  0  0  0
   54.3072   11.5619   12.3304 O   0  0  0  0  0  0  0  0  0  0  0  0
   52.5663   13.4554   15.9341 C   0  0  0  0  0  0  0  0  0  0  0  0
   53.2058   13.0017   10.6590 O   0  0  0  0  0  0  0  0  0  0  0  0
   52.8147   14.1750   14.5767 C   0  0  0  0  0  0  0  0  0  0  0  0
   55.1193   12.5700   10.8647 O   0  0  0  0  0  0  0  0  0  0  0  0
   54.2670   14.5538   14.4801 N   0  0  0  0  0  0  0  0  0  0  0  0
   54.6553   15.4280   15.6284 C   0  0  0  0  0  0  0  0  0  0  0  0
   54.3317   14.7043   16.9663 C   0  0  0  0  0  0  0  0  0  0  0  0
   54.5775   15.2637   13.1903 C   0  0  0  0  0  0  0  0  0  0  0  0
   55.1878   14.2935   12.1500 C   0  0  0  0  0  0  0  0  0  0  0  0
   54.0813   12.8980   11.8362 S   0  0  0  0  0  0  0  0  0  0  0  0
  1  3  1  0  0  0  0
  1  9  1  0  0  0  0
  2 12  1  0  0  0  0
  3  5  1  0  0  0  0
  4 12  2  0  0  0  0
  5  7  1  0  0  0  0
  6 12  2  0  0  0  0
  7  8  1  0  0  0  0
  7 10  1  0  0  0  0
  8  9  1  0  0  0  0
 10 11  1  0  0  0  0
 11 12  1  0  0  0  0
M  END
>  <CHROM.1>
-98.71498084,57.19028011,-105.84295142,54.07741014,13.64516638,13.55150488
1.73660312,1.01978032,1.11928217

>  <Name>
ligand

>  <RI>
0

>  <Rbt.Current_Directory>
/home/itssahil/PROJECTS/Mol_Feturizer/New_Systems/rnas/2HO6

>  <Rbt.Executable>
rbdock ($Id: //depot/dev/client3/rdock/2013.1/src/exe/rbdock.cxx#4 $)

>  <Rbt.Library>
libRbt.so (2013.1, Build901 2013/11/27)

>  <Rbt.Parameter_File>
/export/apps/rDock/src/rDock_2013.1_src/data/scripts/dock_solv.prm

>  <Rbt.Receptor>
prm/pocket_docking_7.prm

>  <SCORE>
-10.6034

>  <SCORE.INTER>
-9.93799

>  <SCORE.INTER.CONST>
1

>  <SCORE.INTER.POLAR>
0

>  <SCORE.INTER.ROT>
3

>  <SCORE.INTER.SOLV>
4.62458

>  <SCORE.INTER.VDW>
-13.7669

>  <SCORE.INTER.norm>
-0.828166

>  <SCORE.INTRA>
-0.665421

>  <SCORE.INTRA.DIHEDRAL>
1.80504

>  <SCORE.INTRA.DIHEDRAL.0>
1.88407

>  <SCORE.INTRA.POLAR>
0

>  <SCORE.INTRA.POLAR.0>
0

>  <SCORE.INTRA.REPUL>
0

>  <SCORE.INTRA.REPUL.0>
0

>  <SCORE.INTRA.SOLV>
0.274816

>  <SCORE.INTRA.SOLV.lig_0>
-10.2714

>  <SCORE.INTRA.VDW>
-1.70535

>  <SCORE.INTRA.VDW.0>
0.416923

>  <SCORE.INTRA.norm>
-0.0554518

>  <SCORE.RESTR>
0

>  <SCORE.RESTR.CAVITY>
0

>  <SCORE.RESTR.norm>
0

>  <SCORE.SYSTEM>
0

>  <SCORE.SYSTEM.CONST>
0

>  <SCORE.SYSTEM.DIHEDRAL>
0

>  <SCORE.SYSTEM.SOLV>
0

>  <SCORE.SYSTEM.norm>
0

>  <SCORE.heavy>
12

>  <SCORE.norm>
-0.883618

>  <RMSD>
7.122

$$$$
ligand
 OpenBabel11021811433D
libRbt.so/2013.1/901 2013/11/27
 12 12  0  0  0  0  0  0  0  0999 V2000
   52.7674   13.5641   10.0581 O   0  0  0  0  0  0  0  0  0  0  0  0
   54.5781   13.8098   17.4333 O   0  0  0  0  0  0  0  0  0  0  0  0
   53.6741   12.4244   10.1561 C   0  0  0  0  0  0  0  0  0  0  0  0
   55.0367   16.0520   16.5158 O   0  0  0  0  0  0  0  0  0  0  0  0
   54.3929   12.3947   11.5362 C   0  0  0  0  0  0  0  0  0  0  0  0
   53.3120   15.1165   16.7166 O   0  0  0  0  0  0  0  0  0  0  0  0
   53.9139   13.5550   12.3645 N   0  0  0  0  0  0  0  0  0  0  0  0
   54.1720   14.8443   11.6542 C   0  0  0  0  0  0  0  0  0  0  0  0
   53.4956   14.8119   10.2543 C   0  0  0  0  0  0  0  0  0  0  0  0
   54.5769   13.5923   13.7149 C   0  0  0  0  0  0  0  0  0  0  0  0
   53.7031   14.3454   14.7469 C   0  0  0  0  0  0  0  0  0  0  0  0
   54.6246   14.6617   16.2704 S   0  0  0  0  0  0  0  0  0  0  0  0
  1  3  1  0  0  0  0
  1  9  1  0  0  0  0
  2 12  1  0  0  0  0
  3  5  1  0  0  0  0
  4 12  2  0  0  0  0
  5  7  1  0  0  0  0
  6 12  2  0  0  0  0
  7  8  1  0  0  0  0
  7 10  1  0  0  0  0
  8  9  1  0  0  0  0
 10 11  1  0  0  0  0
 11 12  1  0  0  0  0
M  END
>  <CHROM.1>
-155.55493618,-169.29085324,-95.00576771,54.07274408,14.17194892,13.78383192
2.29040958,1.36720528,-2.49860995

>  <Name>
ligand

>  <RI>
0

>  <Rbt.Current_Directory>
/home/itssahil/PROJECTS/Mol_Feturizer/New_Systems/rnas/2HO6

>  <Rbt.Executable>
rbdock ($Id: //depot/dev/client3/rdock/2013.1/src/exe/rbdock.cxx#4 $)

>  <Rbt.Library>
libRbt.so (2013.1, Build901 2013/11/27)

>  <Rbt.Parameter_File>
/export/apps/rDock/src/rDock_2013.1_src/data/scripts/dock_solv.prm

>  <Rbt.Receptor>
prm/pocket_docking_7.prm

>  <SCORE>
-8.92737

>  <SCORE.INTER>
-8.6937

>  <SCORE.INTER.CONST>
1

>  <SCORE.INTER.POLAR>
0

>  <SCORE.INTER.ROT>
3

>  <SCORE.INTER.SOLV>
4.34348

>  <SCORE.INTER.VDW>
-12.8436

>  <SCORE.INTER.norm>
-0.724475

>  <SCORE.INTRA>
-0.233889

>  <SCORE.INTRA.DIHEDRAL>
1.19406

>  <SCORE.INTRA.DIHEDRAL.0>
1.88407

>  <SCORE.INTRA.POLAR>
0

>  <SCORE.INTRA.POLAR.0>
0

>  <SCORE.INTRA.REPUL>
0

>  <SCORE.INTRA.REPUL.0>
0

>  <SCORE.INTRA.SOLV>
-0.0113135

>  <SCORE.INTRA.SOLV.lig_0>
-10.2714

>  <SCORE.INTRA.VDW>
-0.825261

>  <SCORE.INTRA.VDW.0>
0.416923

>  <SCORE.INTRA.norm>
-0.0194908

>  <SCORE.RESTR>
0.000221355

>  <SCORE.RESTR.CAVITY>
0.000221355

>  <SCORE.RESTR.norm>
1.84463e-05

>  <SCORE.SYSTEM>
0

>  <SCORE.SYSTEM.CONST>
0

>  <SCORE.SYSTEM.DIHEDRAL>
0

>  <SCORE.SYSTEM.SOLV>
0

>  <SCORE.SYSTEM.norm>
0

>  <SCORE.heavy>
12

>  <SCORE.norm>
-0.743948

>  <RMSD>
7.124

$$$$
ligand
 OpenBabel11021811433D
libRbt.so/2013.1/901 2013/11/27
 12 12  0  0  0  0  0  0  0  0999 V2000
   53.8354   13.3654   16.7437 O   0  0  0  0  0  0  0  0  0  0  0  0
   54.3381   11.5621   12.3051 O   0  0  0  0  0  0  0  0  0  0  0  0
   52.5857   13.4316   15.9923 C   0  0  0  0  0  0  0  0  0  0  0  0
   53.2135   12.9864   10.6360 O   0  0  0  0  0  0  0  0  0  0  0  0
   52.7871   14.1537   14.6285 C   0  0  0  0  0  0  0  0  0  0  0  0
   55.1360   12.6049   10.8561 O   0  0  0  0  0  0  0  0  0  0  0  0
   54.2308   14.5525   14.4922 N   0  0  0  0  0  0  0  0  0  0  0  0
   54.6381   15.4327   15.6293 C   0  0  0  0  0  0  0  0  0  0  0  0
   54.3611   14.7054   16.9757 C   0  0  0  0  0  0  0  0  0  0  0  0
   54.4962   15.2658   13.1942 C   0  0  0  0  0  0  0  0  0  0  0  0
   55.1457   14.3180   12.1571 C   0  0  0  0  0  0  0  0  0  0  0  0
   54.0805   12.8959   11.8205 S   0  0  0  0  0  0  0  0  0  0  0  0
  1  3  1  0  0  0  0
  1  9  1  0  0  0  0
  2 12  1  0  0  0  0
  3  5  1  0  0  0  0
  4 12  2  0  0  0  0
  5  7  1  0  0  0  0
  6 12  2  0  0  0  0
  7  8  1  0  0  0  0
  7 10  1  0  0  0  0
  8  9  1  0  0  0  0
 10 11  1  0  0  0  0
 11 12  1  0  0  0  0
M  END
>  <CHROM.1>
-101.07447713,59.16128820,-106.14968768,54.07401771,13.64492159,13.55658232
1.74289155,1.04769357,1.11654658

>  <Name>
ligand

>  <RI>
0

>  <Rbt.Current_Directory>
/home/itssahil/PROJECTS/Mol_Feturizer/New_Systems/rnas/2HO6

>  <Rbt.Executable>
rbdock ($Id: //depot/dev/client3/rdock/2013.1/src/exe/rbdock.cxx#4 $)

>  <Rbt.Library>
libRbt.so (2013.1, Build901 2013/11/27)

>  <Rbt.Parameter_File>
/export/apps/rDock/src/rDock_2013.1_src/data/scripts/dock_solv.prm

>  <Rbt.Receptor>
prm/pocket_docking_8.prm

>  <SCORE>
-10.6201

>  <SCORE.INTER>
-9.95777

>  <SCORE.INTER.CONST>
1

>  <SCORE.INTER.POLAR>
0

>  <SCORE.INTER.ROT>
3

>  <SCORE.INTER.SOLV>
4.6105

>  <SCORE.INTER.VDW>
-13.7753

>  <SCORE.INTER.norm>
-0.829814

>  <SCORE.INTRA>
-0.662348

>  <SCORE.INTRA.DIHEDRAL>
1.90039

>  <SCORE.INTRA.DIHEDRAL.0>
1.88407

>  <SCORE.INTRA.POLAR>
0

>  <SCORE.INTRA.POLAR.0>
0

>  <SCORE.INTRA.REPUL>
0

>  <SCORE.INTRA.REPUL.0>
0

>  <SCORE.INTRA.SOLV>
0.259425

>  <SCORE.INTRA.SOLV.lig_0>
-10.2714

>  <SCORE.INTRA.VDW>
-1.74225

>  <SCORE.INTRA.VDW.0>
0.416923

>  <SCORE.INTRA.norm>
-0.0551956

>  <SCORE.RESTR>
0

>  <SCORE.RESTR.CAVITY>
0

>  <SCORE.RESTR.norm>
0

>  <SCORE.SYSTEM>
0

>  <SCORE.SYSTEM.CONST>
0

>  <SCORE.SYSTEM.DIHEDRAL>
0

>  <SCORE.SYSTEM.SOLV>
0

>  <SCORE.SYSTEM.norm>
0

>  <SCORE.heavy>
12

>  <SCORE.norm>
-0.88501

>  <RMSD>
7.128

$$$$
ligand
 OpenBabel11021811433D
libRbt.so/2013.1/901 2013/11/27
 12 12  0  0  0  0  0  0  0  0999 V2000
   53.6987   13.4457   16.6868 O   0  0  0  0  0  0  0  0  0  0  0  0
   54.2901   11.7201   12.3880 O   0  0  0  0  0  0  0  0  0  0  0  0
   52.4640   13.6760   15.9429 C   0  0  0  0  0  0  0  0  0  0  0  0
   53.2444   13.1118   10.6420 O   0  0  0  0  0  0  0  0  0  0  0  0
   52.7433   14.4264   14.6083 C   0  0  0  0  0  0  0  0  0  0  0  0
   55.1502   12.6888   10.9232 O   0  0  0  0  0  0  0  0  0  0  0  0
   54.2217   14.6725   14.4832 N   0  0  0  0  0  0  0  0  0  0  0  0
   54.7203   15.4575   15.6531 C   0  0  0  0  0  0  0  0  0  0  0  0
   54.3654   14.7110   16.9703 C   0  0  0  0  0  0  0  0  0  0  0  0
   54.5635   15.4046   13.2138 C   0  0  0  0  0  0  0  0  0  0  0  0
   55.1745   14.4470   12.1624 C   0  0  0  0  0  0  0  0  0  0  0  0
   54.0801   13.0417   11.8501 S   0  0  0  0  0  0  0  0  0  0  0  0
  1  3  1  0  0  0  0
  1  9  1  0  0  0  0
  2 12  1  0  0  0  0
  3  5  1  0  0  0  0
  4 12  2  0  0  0  0
  5  7  1  0  0  0  0
  6 12  2  0  0  0  0
  7  8  1  0  0  0  0
  7 10  1  0  0  0  0
  8  9  1  0  0  0  0
 10 11  1  0  0  0  0
 11 12  1  0  0  0  0
M  END
>  <CHROM.1>
-103.94031105,54.94347149,-102.70839965,54.06302108,13.77339598,13.56709115
1.75056678,0.98813494,1.11944620

>  <Name>
ligand

>  <RI>
0

>  <Rbt.Current_Directory>
/home/itssahil/PROJECTS/Mol_Feturizer/New_Systems/rnas/2HO6

>  <Rbt.Executable>
rbdock ($Id: //depot/dev/client3/rdock/2013.1/src/exe/rbdock.cxx#4 $)

>  <Rbt.Library>
libRbt.so (2013.1, Build901 2013/11/27)

>  <Rbt.Parameter_File>
/export/apps/rDock/src/rDock_2013.1_src/data/scripts/dock_solv.prm

>  <Rbt.Receptor>
prm/pocket_docking_8.prm

>  <SCORE>
-10.6041

>  <SCORE.INTER>
-10.0036

>  <SCORE.INTER.CONST>
1

>  <SCORE.INTER.POLAR>
0

>  <SCORE.INTER.ROT>
3

>  <SCORE.INTER.SOLV>
4.73567

>  <SCORE.INTER.VDW>
-13.8476

>  <SCORE.INTER.norm>
-0.83363

>  <SCORE.INTRA>
-0.60056

>  <SCORE.INTRA.DIHEDRAL>
2.13574

>  <SCORE.INTRA.DIHEDRAL.0>
1.88407

>  <SCORE.INTRA.POLAR>
0

>  <SCORE.INTRA.POLAR.0>
0

>  <SCORE.INTRA.REPUL>
0

>  <SCORE.INTRA.REPUL.0>
0

>  <SCORE.INTRA.SOLV>
0.277837

>  <SCORE.INTRA.SOLV.lig_0>
-10.2714

>  <SCORE.INTRA.VDW>
-1.80735

>  <SCORE.INTRA.VDW.0>
0.416923

>  <SCORE.INTRA.norm>
-0.0500467

>  <SCORE.RESTR>
0

>  <SCORE.RESTR.CAVITY>
0

>  <SCORE.RESTR.norm>
0

>  <SCORE.SYSTEM>
0

>  <SCORE.SYSTEM.CONST>
0

>  <SCORE.SYSTEM.DIHEDRAL>
0

>  <SCORE.SYSTEM.SOLV>
0

>  <SCORE.SYSTEM.norm>
0

>  <SCORE.heavy>
12

>  <SCORE.norm>
-0.883676

>  <RMSD>
7.134

$$$$
ligand
 OpenBabel11021811433D
libRbt.so/2013.1/901 2013/11/27
 12 12  0  0  0  0  0  0  0  0999 V2000
   54.6139   13.3015   16.9239 O   0  0  0  0  0  0  0  0  0  0  0  0
   54.8332   11.4537   11.1804 O   0  0  0  0  0  0  0  0  0  0  0  0
   53.4858   12.7346   16.1914 C   0  0  0  0  0  0  0  0  0  0  0  0
   52.7928   12.6685   11.8438 O   0  0  0  0  0  0  0  0  0  0  0  0
   53.3692   13.3561   14.7693 C   0  0  0  0  0  0  0  0  0  0  0  0
   54.1618   13.1650   10.5137 O   0  0  0  0  0  0  0  0  0  0  0  0
   54.4799   14.3515   14.5757 N   0  0  0  0  0  0  0  0  0  0  0  0
   54.4208   15.4101   15.6291 C   0  0  0  0  0  0  0  0  0  0  0  0
   54.4726   14.7484   17.0354 C   0  0  0  0  0  0  0  0  0  0  0  0
   54.4229   14.9995   13.2189 C   0  0  0  0  0  0  0  0  0  0  0  0
   55.1502   14.1398   12.1569 C   0  0  0  0  0  0  0  0  0  0  0  0
   54.2616   12.5944   11.8528 S   0  0  0  0  0  0  0  0  0  0  0  0
  1  3  1  0  0  0  0
  1  9  1  0  0  0  0
  2 12  1  0  0  0  0
  3  5  1  0  0  0  0
  4 12  2  0  0  0  0
  5  7  1  0  0  0  0
  6 12  2  0  0  0  0
  7  8  1  0  0  0  0
  7 10  1  0  0  0  0
  8  9  1  0  0  0  0
 10 11  1  0  0  0  0
 11 12  1  0  0  0  0
M  END
>  <CHROM.1>
-85.54031454,67.87591757,-164.24104214,54.20631410,13.44786378,13.59204074
1.54239450,1.27449729,1.30800425

>  <Name>
ligand

>  <RI>
0

>  <Rbt.Current_Directory>
/home/itssahil/PROJECTS/Mol_Feturizer/New_Systems/rnas/2HO6

>  <Rbt.Executable>
rbdock ($Id: //depot/dev/client3/rdock/2013.1/src/exe/rbdock.cxx#4 $)

>  <Rbt.Library>
libRbt.so (2013.1, Build901 2013/11/27)

>  <Rbt.Parameter_File>
/export/apps/rDock/src/rDock_2013.1_src/data/scripts/dock_solv.prm

>  <Rbt.Receptor>
prm/pocket_docking_7.prm

>  <SCORE>
-10.0962

>  <SCORE.INTER>
-9.76593

>  <SCORE.INTER.CONST>
1

>  <SCORE.INTER.POLAR>
0

>  <SCORE.INTER.ROT>
3

>  <SCORE.INTER.SOLV>
4.34872

>  <SCORE.INTER.VDW>
-13.5602

>  <SCORE.INTER.norm>
-0.813828

>  <SCORE.INTRA>
-0.330276

>  <SCORE.INTRA.DIHEDRAL>
1.08481

>  <SCORE.INTRA.DIHEDRAL.0>
1.88407

>  <SCORE.INTRA.POLAR>
0

>  <SCORE.INTRA.POLAR.0>
0

>  <SCORE.INTRA.REPUL>
0

>  <SCORE.INTRA.REPUL.0>
0

>  <SCORE.INTRA.SOLV>
0.753368

>  <SCORE.INTRA.SOLV.lig_0>
-10.2714

>  <SCORE.INTRA.VDW>
-1.24937

>  <SCORE.INTRA.VDW.0>
0.416923

>  <SCORE.INTRA.norm>
-0.027523

>  <SCORE.RESTR>
0

>  <SCORE.RESTR.CAVITY>
0

>  <SCORE.RESTR.norm>
0

>  <SCORE.SYSTEM>
0

>  <SCORE.SYSTEM.CONST>
0

>  <SCORE.SYSTEM.DIHEDRAL>
0

>  <SCORE.SYSTEM.SOLV>
0

>  <SCORE.SYSTEM.norm>
0

>  <SCORE.heavy>
12

>  <SCORE.norm>
-0.841351

>  <RMSD>
7.140

$$$$
ligand
 OpenBabel11021811433D
libRbt.so/2013.1/901 2013/11/27
 12 12  0  0  0  0  0  0  0  0999 V2000
   53.8635   13.3755   16.8449 O   0  0  0  0  0  0  0  0  0  0  0  0
   54.3254   11.6445   12.3883 O   0  0  0  0  0  0  0  0  0  0  0  0
   52.6330   13.3427   16.0603 C   0  0  0  0  0  0  0  0  0  0  0  0
   53.2323   13.0643   10.6946 O   0  0  0  0  0  0  0  0  0  0  0  0
   52.8126   14.0804   14.7017 C   0  0  0  0  0  0  0  0  0  0  0  0
   55.1511   12.6914   10.9578 O   0  0  0  0  0  0  0  0  0  0  0  0
   54.2231   14.5932   14.6039 N   0  0  0  0  0  0  0  0  0  0  0  0
   54.5283   15.5016   15.7507 C   0  0  0  0  0  0  0  0  0  0  0  0
   54.2743   14.7529   17.0898 C   0  0  0  0  0  0  0  0  0  0  0  0
   54.4653   15.3271   13.3128 C   0  0  0  0  0  0  0  0  0  0  0  0
   55.1238   14.4040   12.2591 C   0  0  0  0  0  0  0  0  0  0  0  0
   54.0728   12.9773   11.8983 S   0  0  0  0  0  0  0  0  0  0  0  0
  1  3  1  0  0  0  0
  1  9  1  0  0  0  0
  2 12  1  0  0  0  0
  3  5  1  0  0  0  0
  4 12  2  0  0  0  0
  5  7  1  0  0  0  0
  6 12  2  0  0  0  0
  7  8  1  0  0  0  0
  7 10  1  0  0  0  0
  8  9  1  0  0  0  0
 10 11  1  0  0  0  0
 11 12  1  0  0  0  0
M  END
>  <CHROM.1>
-96.96846370,59.84546360,-104.47545875,54.06351085,13.68976328,13.64901828
1.76036044,1.08583712,1.11325746

>  <Name>
ligand

>  <RI>
0

>  <Rbt.Current_Directory>
/home/itssahil/PROJECTS/Mol_Feturizer/New_Systems/rnas/2HO6

>  <Rbt.Executable>
rbdock ($Id: //depot/dev/client3/rdock/2013.1/src/exe/rbdock.cxx#4 $)

>  <Rbt.Library>
libRbt.so (2013.1, Build901 2013/11/27)

>  <Rbt.Parameter_File>
/export/apps/rDock/src/rDock_2013.1_src/data/scripts/dock_solv.prm

>  <Rbt.Receptor>
prm/pocket_docking_8.prm

>  <SCORE>
-10.494

>  <SCORE.INTER>
-9.76823

>  <SCORE.INTER.CONST>
1

>  <SCORE.INTER.POLAR>
0

>  <SCORE.INTER.ROT>
3

>  <SCORE.INTER.SOLV>
4.69211

>  <SCORE.INTER.VDW>
-13.6762

>  <SCORE.INTER.norm>
-0.814019

>  <SCORE.INTRA>
-0.72581

>  <SCORE.INTRA.DIHEDRAL>
1.68114

>  <SCORE.INTRA.DIHEDRAL.0>
1.88407

>  <SCORE.INTRA.POLAR>
0

>  <SCORE.INTRA.POLAR.0>
0

>  <SCORE.INTRA.REPUL>
0

>  <SCORE.INTRA.REPUL.0>
0

>  <SCORE.INTRA.SOLV>
0.238233

>  <SCORE.INTRA.SOLV.lig_0>
-10.2714

>  <SCORE.INTRA.VDW>
-1.6855

>  <SCORE.INTRA.VDW.0>
0.416923

>  <SCORE.INTRA.norm>
-0.0604842

>  <SCORE.RESTR>
0

>  <SCORE.RESTR.CAVITY>
0

>  <SCORE.RESTR.norm>
0

>  <SCORE.SYSTEM>
0

>  <SCORE.SYSTEM.CONST>
0

>  <SCORE.SYSTEM.DIHEDRAL>
0

>  <SCORE.SYSTEM.SOLV>
0

>  <SCORE.SYSTEM.norm>
0

>  <SCORE.heavy>
12

>  <SCORE.norm>
-0.874504

>  <RMSD>
7.159

$$$$
ligand
 OpenBabel11021811433D
libRbt.so/2013.1/901 2013/11/27
 12 12  0  0  0  0  0  0  0  0999 V2000
   53.8851   13.3791   16.7750 O   0  0  0  0  0  0  0  0  0  0  0  0
   54.3328   11.6513   12.3265 O   0  0  0  0  0  0  0  0  0  0  0  0
   52.6355   13.4425   16.0231 C   0  0  0  0  0  0  0  0  0  0  0  0
   53.2551   13.0882   10.6374 O   0  0  0  0  0  0  0  0  0  0  0  0
   52.8310   14.1842   14.6690 C   0  0  0  0  0  0  0  0  0  0  0  0
   55.1690   12.6864   10.8936 O   0  0  0  0  0  0  0  0  0  0  0  0
   54.2709   14.5990   14.5395 N   0  0  0  0  0  0  0  0  0  0  0  0
   54.6683   15.4685   15.6883 C   0  0  0  0  0  0  0  0  0  0  0  0
   54.3972   14.7211   17.0248 C   0  0  0  0  0  0  0  0  0  0  0  0
   54.5304   15.3318   13.2511 C   0  0  0  0  0  0  0  0  0  0  0  0
   55.1719   14.3987   12.1958 C   0  0  0  0  0  0  0  0  0  0  0  0
   54.0985   12.9879   11.8381 S   0  0  0  0  0  0  0  0  0  0  0  0
  1  3  1  0  0  0  0
  1  9  1  0  0  0  0
  2 12  1  0  0  0  0
  3  5  1  0  0  0  0
  4 12  2  0  0  0  0
  5  7  1  0  0  0  0
  6 12  2  0  0  0  0
  7  8  1  0  0  0  0
  7 10  1  0  0  0  0
  8  9  1  0  0  0  0
 10 11  1  0  0  0  0
 11 12  1  0  0  0  0
M  END
>  <CHROM.1>
-100.27261748,59.41280090,-104.53778189,54.10559403,13.70433810,13.59029433
1.73452905,1.05210881,1.13877648

>  <Name>
ligand

>  <RI>
0

>  <Rbt.Current_Directory>
/home/itssahil/PROJECTS/Mol_Feturizer/New_Systems/rnas/2HO6

>  <Rbt.Executable>
rbdock ($Id: //depot/dev/client3/rdock/2013.1/src/exe/rbdock.cxx#4 $)

>  <Rbt.Library>
libRbt.so (2013.1, Build901 2013/11/27)

>  <Rbt.Parameter_File>
/export/apps/rDock/src/rDock_2013.1_src/data/scripts/dock_solv.prm

>  <Rbt.Receptor>
prm/pocket_docking_8.prm

>  <SCORE>
-10.566

>  <SCORE.INTER>
-9.88208

>  <SCORE.INTER.CONST>
1

>  <SCORE.INTER.POLAR>
0

>  <SCORE.INTER.ROT>
3

>  <SCORE.INTER.SOLV>
4.74925

>  <SCORE.INTER.VDW>
-13.7711

>  <SCORE.INTER.norm>
-0.823506

>  <SCORE.INTRA>
-0.683896

>  <SCORE.INTRA.DIHEDRAL>
1.8619

>  <SCORE.INTRA.DIHEDRAL.0>
1.88407

>  <SCORE.INTRA.POLAR>
0

>  <SCORE.INTRA.POLAR.0>
0

>  <SCORE.INTRA.REPUL>
0

>  <SCORE.INTRA.REPUL.0>
0

>  <SCORE.INTRA.SOLV>
0.244849

>  <SCORE.INTRA.SOLV.lig_0>
-10.2714

>  <SCORE.INTRA.VDW>
-1.73727

>  <SCORE.INTRA.VDW.0>
0.416923

>  <SCORE.INTRA.norm>
-0.0569913

>  <SCORE.RESTR>
0

>  <SCORE.RESTR.CAVITY>
0

>  <SCORE.RESTR.norm>
0

>  <SCORE.SYSTEM>
0

>  <SCORE.SYSTEM.CONST>
0

>  <SCORE.SYSTEM.DIHEDRAL>
0

>  <SCORE.SYSTEM.SOLV>
0

>  <SCORE.SYSTEM.norm>
0

>  <SCORE.heavy>
12

>  <SCORE.norm>
-0.880498

>  <RMSD>
7.172

$$$$
ligand
 OpenBabel11021811433D
libRbt.so/2013.1/901 2013/11/27
 12 12  0  0  0  0  0  0  0  0999 V2000
   53.8765   10.9284   10.9818 O   0  0  0  0  0  0  0  0  0  0  0  0
   55.0948   16.0062   16.4995 O   0  0  0  0  0  0  0  0  0  0  0  0
   54.6573   12.0137   10.3960 C   0  0  0  0  0  0  0  0  0  0  0  0
   52.9413   14.9331   17.0383 O   0  0  0  0  0  0  0  0  0  0  0  0
   54.6673   13.2634   11.3234 C   0  0  0  0  0  0  0  0  0  0  0  0
   54.7484   14.1445   16.9875 O   0  0  0  0  0  0  0  0  0  0  0  0
   53.8733   12.9607   12.5643 N   0  0  0  0  0  0  0  0  0  0  0  0
   52.4757   12.5706   12.2067 C   0  0  0  0  0  0  0  0  0  0  0  0
   52.5066   11.3625   11.2280 C   0  0  0  0  0  0  0  0  0  0  0  0
   53.8345   14.1336   13.5061 C   0  0  0  0  0  0  0  0  0  0  0  0
   54.3172   13.7319   14.9208 C   0  0  0  0  0  0  0  0  0  0  0  0
   54.0644   15.0792   16.1002 S   0  0  0  0  0  0  0  0  0  0  0  0
  1  3  1  0  0  0  0
  1  9  1  0  0  0  0
  2 12  1  0  0  0  0
  3  5  1  0  0  0  0
  4 12  2  0  0  0  0
  5  7  1  0  0  0  0
  6 12  2  0  0  0  0
  7  8  1  0  0  0  0
  7 10  1  0  0  0  0
  8  9  1  0  0  0  0
 10 11  1  0  0  0  0
 11 12  1  0  0  0  0
M  END
>  <CHROM.1>
-125.86556444,-172.50836354,-98.03395493,53.94462813,13.60411953,13.94432101
1.66389460,-0.49663532,-2.05633991

>  <Name>
ligand

>  <RI>
0

>  <Rbt.Current_Directory>
/home/itssahil/PROJECTS/Mol_Feturizer/New_Systems/rnas/2HO6

>  <Rbt.Executable>
rbdock ($Id: //depot/dev/client3/rdock/2013.1/src/exe/rbdock.cxx#4 $)

>  <Rbt.Library>
libRbt.so (2013.1, Build901 2013/11/27)

>  <Rbt.Parameter_File>
/export/apps/rDock/src/rDock_2013.1_src/data/scripts/dock_solv.prm

>  <Rbt.Receptor>
prm/pocket_docking_7.prm

>  <SCORE>
-8.35187

>  <SCORE.INTER>
-8.45843

>  <SCORE.INTER.CONST>
1

>  <SCORE.INTER.POLAR>
0

>  <SCORE.INTER.ROT>
3

>  <SCORE.INTER.SOLV>
5.06665

>  <SCORE.INTER.VDW>
-12.9278

>  <SCORE.INTER.norm>
-0.704869

>  <SCORE.INTRA>
0.106324

>  <SCORE.INTRA.DIHEDRAL>
2.51333

>  <SCORE.INTRA.DIHEDRAL.0>
1.88407

>  <SCORE.INTRA.POLAR>
0

>  <SCORE.INTRA.POLAR.0>
0

>  <SCORE.INTRA.REPUL>
0

>  <SCORE.INTRA.REPUL.0>
0

>  <SCORE.INTRA.SOLV>
-0.0147564

>  <SCORE.INTRA.SOLV.lig_0>
-10.2714

>  <SCORE.INTRA.VDW>
-1.14296

>  <SCORE.INTRA.VDW.0>
0.416923

>  <SCORE.INTRA.norm>
0.00886036

>  <SCORE.RESTR>
0.000228935

>  <SCORE.RESTR.CAVITY>
0.000228935

>  <SCORE.RESTR.norm>
1.90779e-05

>  <SCORE.SYSTEM>
0

>  <SCORE.SYSTEM.CONST>
0

>  <SCORE.SYSTEM.DIHEDRAL>
0

>  <SCORE.SYSTEM.SOLV>
0

>  <SCORE.SYSTEM.norm>
0

>  <SCORE.heavy>
12

>  <SCORE.norm>
-0.695989

>  <RMSD>
7.191

$$$$
ligand
 OpenBabel11021811433D
libRbt.so/2013.1/901 2013/11/27
 12 12  0  0  0  0  0  0  0  0999 V2000
   52.5254   13.3392   10.2761 O   0  0  0  0  0  0  0  0  0  0  0  0
   54.6328   14.2825   17.6033 O   0  0  0  0  0  0  0  0  0  0  0  0
   53.4122   12.2808   10.7496 C   0  0  0  0  0  0  0  0  0  0  0  0
   55.2217   16.2976   16.3102 O   0  0  0  0  0  0  0  0  0  0  0  0
   54.2167   12.7390   12.0006 C   0  0  0  0  0  0  0  0  0  0  0  0
   53.4444   15.5189   16.6636 O   0  0  0  0  0  0  0  0  0  0  0  0
   53.8162   14.1448   12.3544 N   0  0  0  0  0  0  0  0  0  0  0  0
   54.0557   15.0616   11.1987 C   0  0  0  0  0  0  0  0  0  0  0  0
   53.2909   14.5367    9.9506 C   0  0  0  0  0  0  0  0  0  0  0  0
   54.5645   14.6563   13.5555 C   0  0  0  0  0  0  0  0  0  0  0  0
   53.7752   14.3931   14.8607 C   0  0  0  0  0  0  0  0  0  0  0  0
   54.7239   14.9137   16.3096 S   0  0  0  0  0  0  0  0  0  0  0  0
  1  3  1  0  0  0  0
  1  9  1  0  0  0  0
  2 12  1  0  0  0  0
  3  5  1  0  0  0  0
  4 12  2  0  0  0  0
  5  7  1  0  0  0  0
  6 12  2  0  0  0  0
  7  8  1  0  0  0  0
  7 10  1  0  0  0  0
  8  9  1  0  0  0  0
 10 11  1  0  0  0  0
 11 12  1  0  0  0  0
M  END
>  <CHROM.1>
-92.66778774,176.38491056,-148.85282361,54.04230529,14.42046957,13.81853701
2.55965593,-1.34618613,-0.84884366

>  <Name>
ligand

>  <RI>
0

>  <Rbt.Current_Directory>
/home/itssahil/PROJECTS/Mol_Feturizer/New_Systems/rnas/2HO6

>  <Rbt.Executable>
rbdock ($Id: //depot/dev/client3/rdock/2013.1/src/exe/rbdock.cxx#4 $)

>  <Rbt.Library>
libRbt.so (2013.1, Build901 2013/11/27)

>  <Rbt.Parameter_File>
/export/apps/rDock/src/rDock_2013.1_src/data/scripts/dock_solv.prm

>  <Rbt.Receptor>
prm/pocket_docking_8.prm

>  <SCORE>
-8.9515

>  <SCORE.INTER>
-8.60926

>  <SCORE.INTER.CONST>
1

>  <SCORE.INTER.POLAR>
0

>  <SCORE.INTER.ROT>
3

>  <SCORE.INTER.SOLV>
4.03482

>  <SCORE.INTER.VDW>
-12.6844

>  <SCORE.INTER.norm>
-0.717438

>  <SCORE.INTRA>
-0.34224

>  <SCORE.INTRA.DIHEDRAL>
1.33845

>  <SCORE.INTRA.DIHEDRAL.0>
1.88407

>  <SCORE.INTRA.POLAR>
0

>  <SCORE.INTRA.POLAR.0>
0

>  <SCORE.INTRA.REPUL>
0

>  <SCORE.INTRA.REPUL.0>
0

>  <SCORE.INTRA.SOLV>
0.101155

>  <SCORE.INTRA.SOLV.lig_0>
-10.2714

>  <SCORE.INTRA.VDW>
-1.06204

>  <SCORE.INTRA.VDW.0>
0.416923

>  <SCORE.INTRA.norm>
-0.02852

>  <SCORE.RESTR>
0

>  <SCORE.RESTR.CAVITY>
0

>  <SCORE.RESTR.norm>
0

>  <SCORE.SYSTEM>
0

>  <SCORE.SYSTEM.CONST>
0

>  <SCORE.SYSTEM.DIHEDRAL>
0

>  <SCORE.SYSTEM.SOLV>
0

>  <SCORE.SYSTEM.norm>
0

>  <SCORE.heavy>
12

>  <SCORE.norm>
-0.745958

>  <RMSD>
7.233

$$$$
ligand
 OpenBabel11021811433D
libRbt.so/2013.1/901 2013/11/27
 12 12  0  0  0  0  0  0  0  0999 V2000
   54.4830   13.0297   16.6561 O   0  0  0  0  0  0  0  0  0  0  0  0
   55.6079   15.4110   11.4873 O   0  0  0  0  0  0  0  0  0  0  0  0
   53.1350   12.5722   16.3335 C   0  0  0  0  0  0  0  0  0  0  0  0
   54.9280   13.0449   11.3498 O   0  0  0  0  0  0  0  0  0  0  0  0
   52.4891   13.4592   15.2297 C   0  0  0  0  0  0  0  0  0  0  0  0
   54.0862   14.6327   10.5372 O   0  0  0  0  0  0  0  0  0  0  0  0
   53.4713   14.5200   14.8150 N   0  0  0  0  0  0  0  0  0  0  0  0
   53.8778   15.3437   15.9939 C   0  0  0  0  0  0  0  0  0  0  0  0
   54.4563   14.4178   17.1012 C   0  0  0  0  0  0  0  0  0  0  0  0
   52.9070   15.4225   13.7513 C   0  0  0  0  0  0  0  0  0  0  0  0
   52.9505   14.7441   12.3607 C   0  0  0  0  0  0  0  0  0  0  0  0
   54.6532   14.3964   11.8607 S   0  0  0  0  0  0  0  0  0  0  0  0
  1  3  1  0  0  0  0
  1  9  1  0  0  0  0
  2 12  1  0  0  0  0
  3  5  1  0  0  0  0
  4 12  2  0  0  0  0
  5  7  1  0  0  0  0
  6 12  2  0  0  0  0
  7  8  1  0  0  0  0
  7 10  1  0  0  0  0
  8  9  1  0  0  0  0
 10 11  1  0  0  0  0
 11 12  1  0  0  0  0
M  END
>  <CHROM.1>
-78.12574673,-62.42043802,-70.50726514,54.02329249,14.25418199,13.70283264
-2.02918825,1.18209179,-1.00008657

>  <Name>
ligand

>  <RI>
0

>  <Rbt.Current_Directory>
/home/itssahil/PROJECTS/Mol_Feturizer/New_Systems/rnas/2HO6

>  <Rbt.Executable>
rbdock ($Id: //depot/dev/client3/rdock/2013.1/src/exe/rbdock.cxx#4 $)

>  <Rbt.Library>
libRbt.so (2013.1, Build901 2013/11/27)

>  <Rbt.Parameter_File>
/export/apps/rDock/src/rDock_2013.1_src/data/scripts/dock_solv.prm

>  <Rbt.Receptor>
prm/pocket_docking_7.prm

>  <SCORE>
-10.8055

>  <SCORE.INTER>
-9.88075

>  <SCORE.INTER.CONST>
1

>  <SCORE.INTER.POLAR>
0

>  <SCORE.INTER.ROT>
3

>  <SCORE.INTER.SOLV>
4.41864

>  <SCORE.INTER.VDW>
-13.66

>  <SCORE.INTER.norm>
-0.823395

>  <SCORE.INTRA>
-0.924712

>  <SCORE.INTRA.DIHEDRAL>
0.533451

>  <SCORE.INTRA.DIHEDRAL.0>
1.88407

>  <SCORE.INTRA.POLAR>
0

>  <SCORE.INTRA.POLAR.0>
0

>  <SCORE.INTRA.REPUL>
0

>  <SCORE.INTRA.REPUL.0>
0

>  <SCORE.INTRA.SOLV>
0.237465

>  <SCORE.INTRA.SOLV.lig_0>
-10.2714

>  <SCORE.INTRA.VDW>
-1.31017

>  <SCORE.INTRA.VDW.0>
0.416923

>  <SCORE.INTRA.norm>
-0.0770593

>  <SCORE.RESTR>
0

>  <SCORE.RESTR.CAVITY>
0

>  <SCORE.RESTR.norm>
0

>  <SCORE.SYSTEM>
0

>  <SCORE.SYSTEM.CONST>
0

>  <SCORE.SYSTEM.DIHEDRAL>
0

>  <SCORE.SYSTEM.SOLV>
0

>  <SCORE.SYSTEM.norm>
0

>  <SCORE.heavy>
12

>  <SCORE.norm>
-0.900455

>  <RMSD>
7.392

$$$$
ligand
 OpenBabel11021811433D
libRbt.so/2013.1/901 2013/11/27
 12 12  0  0  0  0  0  0  0  0999 V2000
   54.5133   13.0959   16.6390 O   0  0  0  0  0  0  0  0  0  0  0  0
   55.6131   15.4307   11.5021 O   0  0  0  0  0  0  0  0  0  0  0  0
   53.1560   12.6368   16.3605 C   0  0  0  0  0  0  0  0  0  0  0  0
   54.9457   13.0573   11.4777 O   0  0  0  0  0  0  0  0  0  0  0  0
   52.4799   13.5119   15.2654 C   0  0  0  0  0  0  0  0  0  0  0  0
   54.1148   14.5950   10.5637 O   0  0  0  0  0  0  0  0  0  0  0  0
   53.4511   14.5663   14.8103 N   0  0  0  0  0  0  0  0  0  0  0  0
   53.8922   15.4030   15.9673 C   0  0  0  0  0  0  0  0  0  0  0  0
   54.5011   14.4892   17.0684 C   0  0  0  0  0  0  0  0  0  0  0  0
   52.8577   15.4571   13.7527 C   0  0  0  0  0  0  0  0  0  0  0  0
   52.9406   14.7982   12.3545 C   0  0  0  0  0  0  0  0  0  0  0  0
   54.6548   14.4328   11.9094 S   0  0  0  0  0  0  0  0  0  0  0  0
  1  3  1  0  0  0  0
  1  9  1  0  0  0  0
  2 12  1  0  0  0  0
  3  5  1  0  0  0  0
  4 12  2  0  0  0  0
  5  7  1  0  0  0  0
  6 12  2  0  0  0  0
  7  8  1  0  0  0  0
  7 10  1  0  0  0  0
  8  9  1  0  0  0  0
 10 11  1  0  0  0  0
 11 12  1  0  0  0  0
M  END
>  <CHROM.1>
-81.65937609,-58.83056956,-74.64494689,54.02969630,14.29284920,13.72296379
-1.89833738,1.02094184,-1.15176317

>  <Name>
ligand

>  <RI>
0

>  <Rbt.Current_Directory>
/home/itssahil/PROJECTS/Mol_Feturizer/New_Systems/rnas/2HO6

>  <Rbt.Executable>
rbdock ($Id: //depot/dev/client3/rdock/2013.1/src/exe/rbdock.cxx#4 $)

>  <Rbt.Library>
libRbt.so (2013.1, Build901 2013/11/27)

>  <Rbt.Parameter_File>
/export/apps/rDock/src/rDock_2013.1_src/data/scripts/dock_solv.prm

>  <Rbt.Receptor>
prm/pocket_docking_7.prm

>  <SCORE>
-10.8469

>  <SCORE.INTER>
-9.94583

>  <SCORE.INTER.CONST>
1

>  <SCORE.INTER.POLAR>
0

>  <SCORE.INTER.ROT>
3

>  <SCORE.INTER.SOLV>
4.38537

>  <SCORE.INTER.VDW>
-13.6923

>  <SCORE.INTER.norm>
-0.828819

>  <SCORE.INTRA>
-0.901039

>  <SCORE.INTRA.DIHEDRAL>
0.729078

>  <SCORE.INTRA.DIHEDRAL.0>
1.88407

>  <SCORE.INTRA.POLAR>
0

>  <SCORE.INTRA.POLAR.0>
0

>  <SCORE.INTRA.REPUL>
0

>  <SCORE.INTRA.REPUL.0>
0

>  <SCORE.INTRA.SOLV>
0.280347

>  <SCORE.INTRA.SOLV.lig_0>
-10.2714

>  <SCORE.INTRA.VDW>
-1.40575

>  <SCORE.INTRA.VDW.0>
0.416923

>  <SCORE.INTRA.norm>
-0.0750866

>  <SCORE.RESTR>
0

>  <SCORE.RESTR.CAVITY>
0

>  <SCORE.RESTR.norm>
0

>  <SCORE.SYSTEM>
0

>  <SCORE.SYSTEM.CONST>
0

>  <SCORE.SYSTEM.DIHEDRAL>
0

>  <SCORE.SYSTEM.SOLV>
0

>  <SCORE.SYSTEM.norm>
0

>  <SCORE.heavy>
12

>  <SCORE.norm>
-0.903906

>  <RMSD>
7.395

$$$$
ligand
 OpenBabel11021811433D
libRbt.so/2013.1/901 2013/11/27
 12 12  0  0  0  0  0  0  0  0999 V2000
   55.5947   13.7769   11.2924 O   0  0  0  0  0  0  0  0  0  0  0  0
   55.5170   16.1013   16.5452 O   0  0  0  0  0  0  0  0  0  0  0  0
   54.9503   14.9912   11.7832 C   0  0  0  0  0  0  0  0  0  0  0  0
   53.0784   15.8930   16.2473 O   0  0  0  0  0  0  0  0  0  0  0  0
   54.1988   14.7279   13.1204 C   0  0  0  0  0  0  0  0  0  0  0  0
   54.2578   14.9851   17.5414 O   0  0  0  0  0  0  0  0  0  0  0  0
   54.3834   13.2877   13.5123 N   0  0  0  0  0  0  0  0  0  0  0  0
   53.8840   12.3851   12.4309 C   0  0  0  0  0  0  0  0  0  0  0  0
   54.6084   12.7211   11.0965 C   0  0  0  0  0  0  0  0  0  0  0  0
   53.6732   12.9602   14.7979 C   0  0  0  0  0  0  0  0  0  0  0  0
   54.4666   13.4759   16.0228 C   0  0  0  0  0  0  0  0  0  0  0  0
   54.4095   15.2807   16.1206 S   0  0  0  0  0  0  0  0  0  0  0  0
  1  3  1  0  0  0  0
  1  9  1  0  0  0  0
  2 12  1  0  0  0  0
  3  5  1  0  0  0  0
  4 12  2  0  0  0  0
  5  7  1  0  0  0  0
  6 12  2  0  0  0  0
  7  8  1  0  0  0  0
  7 10  1  0  0  0  0
  8  9  1  0  0  0  0
 10 11  1  0  0  0  0
 11 12  1  0  0  0  0
M  END
>  <CHROM.1>
-77.66098607,70.81067501,-142.67915524,54.42554233,14.35407242,14.43542953
-1.39169831,1.14258155,1.02967050

>  <Name>
ligand

>  <RI>
0

>  <Rbt.Current_Directory>
/home/itssahil/PROJECTS/Mol_Feturizer/New_Systems/rnas/2HO6

>  <Rbt.Executable>
rbdock ($Id: //depot/dev/client3/rdock/2013.1/src/exe/rbdock.cxx#4 $)

>  <Rbt.Library>
libRbt.so (2013.1, Build901 2013/11/27)

>  <Rbt.Parameter_File>
/export/apps/rDock/src/rDock_2013.1_src/data/scripts/dock_solv.prm

>  <Rbt.Receptor>
prm/pocket_docking_8.prm

>  <SCORE>
-12.9154

>  <SCORE.INTER>
-12.5588

>  <SCORE.INTER.CONST>
1

>  <SCORE.INTER.POLAR>
0

>  <SCORE.INTER.ROT>
3

>  <SCORE.INTER.SOLV>
6.549

>  <SCORE.INTER.VDW>
-16.1555

>  <SCORE.INTER.norm>
-1.04656

>  <SCORE.INTRA>
-0.356657

>  <SCORE.INTRA.DIHEDRAL>
0.828582

>  <SCORE.INTRA.DIHEDRAL.0>
1.88407

>  <SCORE.INTRA.POLAR>
0

>  <SCORE.INTRA.POLAR.0>
0

>  <SCORE.INTRA.REPUL>
0

>  <SCORE.INTRA.REPUL.0>
0

>  <SCORE.INTRA.SOLV>
0.469328

>  <SCORE.INTRA.SOLV.lig_0>
-10.2714

>  <SCORE.INTRA.VDW>
-1.00561

>  <SCORE.INTRA.VDW.0>
0.416923

>  <SCORE.INTRA.norm>
-0.0297215

>  <SCORE.RESTR>
0

>  <SCORE.RESTR.CAVITY>
0

>  <SCORE.RESTR.norm>
0

>  <SCORE.SYSTEM>
0

>  <SCORE.SYSTEM.CONST>
0

>  <SCORE.SYSTEM.DIHEDRAL>
0

>  <SCORE.SYSTEM.SOLV>
0

>  <SCORE.SYSTEM.norm>
0

>  <SCORE.heavy>
12

>  <SCORE.norm>
-1.07629

>  <RMSD>
7.395

$$$$
ligand
 OpenBabel11021811433D
libRbt.so/2013.1/901 2013/11/27
 12 12  0  0  0  0  0  0  0  0999 V2000
   55.5982   13.7437   11.2947 O   0  0  0  0  0  0  0  0  0  0  0  0
   55.5281   16.1081   16.5288 O   0  0  0  0  0  0  0  0  0  0  0  0
   54.9759   14.9711   11.7814 C   0  0  0  0  0  0  0  0  0  0  0  0
   53.0863   15.9161   16.2456 O   0  0  0  0  0  0  0  0  0  0  0  0
   54.2187   14.7257   13.1187 C   0  0  0  0  0  0  0  0  0  0  0  0
   54.2665   15.0056   17.5372 O   0  0  0  0  0  0  0  0  0  0  0  0
   54.3765   13.2835   13.5151 N   0  0  0  0  0  0  0  0  0  0  0  0
   53.8615   12.3869   12.4360 C   0  0  0  0  0  0  0  0  0  0  0  0
   54.5929   12.7056   11.1012 C   0  0  0  0  0  0  0  0  0  0  0  0
   53.6595   12.9730   14.8011 C   0  0  0  0  0  0  0  0  0  0  0  0
   54.4557   13.4880   16.0245 C   0  0  0  0  0  0  0  0  0  0  0  0
   54.4123   15.2936   16.1143 S   0  0  0  0  0  0  0  0  0  0  0  0
  1  3  1  0  0  0  0
  1  9  1  0  0  0  0
  2 12  1  0  0  0  0
  3  5  1  0  0  0  0
  4 12  2  0  0  0  0
  5  7  1  0  0  0  0
  6 12  2  0  0  0  0
  7  8  1  0  0  0  0
  7 10  1  0  0  0  0
  8  9  1  0  0  0  0
 10 11  1  0  0  0  0
 11 12  1  0  0  0  0
M  END
>  <CHROM.1>
-77.19352781,71.08485683,-142.30325315,54.42683383,14.35652029,14.43374137
-1.40038567,1.12759020,1.03226928

>  <Name>
ligand

>  <RI>
0

>  <Rbt.Current_Directory>
/home/itssahil/PROJECTS/Mol_Feturizer/New_Systems/rnas/2HO6

>  <Rbt.Executable>
rbdock ($Id: //depot/dev/client3/rdock/2013.1/src/exe/rbdock.cxx#4 $)

>  <Rbt.Library>
libRbt.so (2013.1, Build901 2013/11/27)

>  <Rbt.Parameter_File>
/export/apps/rDock/src/rDock_2013.1_src/data/scripts/dock_solv.prm

>  <Rbt.Receptor>
prm/pocket_docking_8.prm

>  <SCORE>
-12.9155

>  <SCORE.INTER>
-12.5761

>  <SCORE.INTER.CONST>
1

>  <SCORE.INTER.POLAR>
0

>  <SCORE.INTER.ROT>
3

>  <SCORE.INTER.SOLV>
6.56327

>  <SCORE.INTER.VDW>
-16.1718

>  <SCORE.INTER.norm>
-1.04801

>  <SCORE.INTRA>
-0.339453

>  <SCORE.INTRA.DIHEDRAL>
0.826566

>  <SCORE.INTRA.DIHEDRAL.0>
1.88407

>  <SCORE.INTRA.POLAR>
0

>  <SCORE.INTRA.POLAR.0>
0

>  <SCORE.INTRA.REPUL>
0

>  <SCORE.INTRA.REPUL.0>
0

>  <SCORE.INTRA.SOLV>
0.462897

>  <SCORE.INTRA.SOLV.lig_0>
-10.2714

>  <SCORE.INTRA.VDW>
-0.984184

>  <SCORE.INTRA.VDW.0>
0.416923

>  <SCORE.INTRA.norm>
-0.0282878

>  <SCORE.RESTR>
0

>  <SCORE.RESTR.CAVITY>
0

>  <SCORE.RESTR.norm>
0

>  <SCORE.SYSTEM>
0

>  <SCORE.SYSTEM.CONST>
0

>  <SCORE.SYSTEM.DIHEDRAL>
0

>  <SCORE.SYSTEM.SOLV>
0

>  <SCORE.SYSTEM.norm>
0

>  <SCORE.heavy>
12

>  <SCORE.norm>
-1.07629

>  <RMSD>
7.400

$$$$
ligand
 OpenBabel11021811433D
libRbt.so/2013.1/901 2013/11/27
 12 12  0  0  0  0  0  0  0  0999 V2000
   55.5951   13.7750   11.2901 O   0  0  0  0  0  0  0  0  0  0  0  0
   55.5363   16.0962   16.5130 O   0  0  0  0  0  0  0  0  0  0  0  0
   54.9670   14.9950   11.7878 C   0  0  0  0  0  0  0  0  0  0  0  0
   53.0898   15.8989   16.2785 O   0  0  0  0  0  0  0  0  0  0  0  0
   54.2133   14.7345   13.1243 C   0  0  0  0  0  0  0  0  0  0  0  0
   54.2983   14.9861   17.5420 O   0  0  0  0  0  0  0  0  0  0  0  0
   54.3794   13.2900   13.5085 N   0  0  0  0  0  0  0  0  0  0  0  0
   53.8673   12.3996   12.4228 C   0  0  0  0  0  0  0  0  0  0  0  0
   54.5949   12.7332   11.0895 C   0  0  0  0  0  0  0  0  0  0  0  0
   53.6661   12.9650   14.7929 C   0  0  0  0  0  0  0  0  0  0  0  0
   54.4608   13.4754   16.0192 C   0  0  0  0  0  0  0  0  0  0  0  0
   54.4144   15.2805   16.1177 S   0  0  0  0  0  0  0  0  0  0  0  0
  1  3  1  0  0  0  0
  1  9  1  0  0  0  0
  2 12  1  0  0  0  0
  3  5  1  0  0  0  0
  4 12  2  0  0  0  0
  5  7  1  0  0  0  0
  6 12  2  0  0  0  0
  7  8  1  0  0  0  0
  7 10  1  0  0  0  0
  8  9  1  0  0  0  0
 10 11  1  0  0  0  0
 11 12  1  0  0  0  0
M  END
>  <CHROM.1>
-77.13240193,70.75141261,-141.10812961,54.43109946,14.35717261,14.43333286
-1.40292434,1.13088061,1.04187414

>  <Name>
ligand

>  <RI>
0

>  <Rbt.Current_Directory>
/home/itssahil/PROJECTS/Mol_Feturizer/New_Systems/rnas/2HO6

>  <Rbt.Executable>
rbdock ($Id: //depot/dev/client3/rdock/2013.1/src/exe/rbdock.cxx#4 $)

>  <Rbt.Library>
libRbt.so (2013.1, Build901 2013/11/27)

>  <Rbt.Parameter_File>
/export/apps/rDock/src/rDock_2013.1_src/data/scripts/dock_solv.prm

>  <Rbt.Receptor>
prm/pocket_docking_8.prm

>  <SCORE>
-12.9147

>  <SCORE.INTER>
-12.5748

>  <SCORE.INTER.CONST>
1

>  <SCORE.INTER.POLAR>
0

>  <SCORE.INTER.ROT>
3

>  <SCORE.INTER.SOLV>
6.53601

>  <SCORE.INTER.VDW>
-16.1619

>  <SCORE.INTER.norm>
-1.0479

>  <SCORE.INTRA>
-0.339902

>  <SCORE.INTRA.DIHEDRAL>
0.800129

>  <SCORE.INTRA.DIHEDRAL.0>
1.88407

>  <SCORE.INTRA.POLAR>
0

>  <SCORE.INTRA.POLAR.0>
0

>  <SCORE.INTRA.REPUL>
0

>  <SCORE.INTRA.REPUL.0>
0

>  <SCORE.INTRA.SOLV>
0.455789

>  <SCORE.INTRA.SOLV.lig_0>
-10.2714

>  <SCORE.INTRA.VDW>
-0.967861

>  <SCORE.INTRA.VDW.0>
0.416923

>  <SCORE.INTRA.norm>
-0.0283252

>  <SCORE.RESTR>
0

>  <SCORE.RESTR.CAVITY>
0

>  <SCORE.RESTR.norm>
0

>  <SCORE.SYSTEM>
0

>  <SCORE.SYSTEM.CONST>
0

>  <SCORE.SYSTEM.DIHEDRAL>
0

>  <SCORE.SYSTEM.SOLV>
0

>  <SCORE.SYSTEM.norm>
0

>  <SCORE.heavy>
12

>  <SCORE.norm>
-1.07623

>  <RMSD>
7.401

$$$$
ligand
 OpenBabel11021811433D
libRbt.so/2013.1/901 2013/11/27
 12 12  0  0  0  0  0  0  0  0999 V2000
   54.4895   13.0327   16.6630 O   0  0  0  0  0  0  0  0  0  0  0  0
   55.6236   15.4280   11.5039 O   0  0  0  0  0  0  0  0  0  0  0  0
   53.1383   12.5769   16.3510 C   0  0  0  0  0  0  0  0  0  0  0  0
   54.9707   13.0521   11.4141 O   0  0  0  0  0  0  0  0  0  0  0  0
   52.4868   13.4619   15.2490 C   0  0  0  0  0  0  0  0  0  0  0  0
   54.1197   14.6116   10.5575 O   0  0  0  0  0  0  0  0  0  0  0  0
   53.4681   14.5195   14.8243 N   0  0  0  0  0  0  0  0  0  0  0  0
   53.8843   15.3460   15.9980 C   0  0  0  0  0  0  0  0  0  0  0  0
   54.4686   14.4222   17.1041 C   0  0  0  0  0  0  0  0  0  0  0  0
   52.8984   15.4200   13.7618 C   0  0  0  0  0  0  0  0  0  0  0  0
   52.9652   14.7520   12.3671 C   0  0  0  0  0  0  0  0  0  0  0  0
   54.6764   14.4117   11.8913 S   0  0  0  0  0  0  0  0  0  0  0  0
  1  3  1  0  0  0  0
  1  9  1  0  0  0  0
  2 12  1  0  0  0  0
  3  5  1  0  0  0  0
  4 12  2  0  0  0  0
  5  7  1  0  0  0  0
  6 12  2  0  0  0  0
  7  8  1  0  0  0  0
  7 10  1  0  0  0  0
  8  9  1  0  0  0  0
 10 11  1  0  0  0  0
 11 12  1  0  0  0  0
M  END
>  <CHROM.1>
-79.62250521,-61.51548269,-72.34124930,54.03687226,14.25860552,13.72186233
-1.97868166,1.11914698,-1.05494068

>  <Name>
ligand

>  <RI>
0

>  <Rbt.Current_Directory>
/home/itssahil/PROJECTS/Mol_Feturizer/New_Systems/rnas/2HO6

>  <Rbt.Executable>
rbdock ($Id: //depot/dev/client3/rdock/2013.1/src/exe/rbdock.cxx#4 $)

>  <Rbt.Library>
libRbt.so (2013.1, Build901 2013/11/27)

>  <Rbt.Parameter_File>
/export/apps/rDock/src/rDock_2013.1_src/data/scripts/dock_solv.prm

>  <Rbt.Receptor>
prm/pocket_docking_7.prm

>  <SCORE>
-10.8486

>  <SCORE.INTER>
-9.92923

>  <SCORE.INTER.CONST>
1

>  <SCORE.INTER.POLAR>
0

>  <SCORE.INTER.ROT>
3

>  <SCORE.INTER.SOLV>
4.43874

>  <SCORE.INTER.VDW>
-13.6991

>  <SCORE.INTER.norm>
-0.827436

>  <SCORE.INTRA>
-0.919385

>  <SCORE.INTRA.DIHEDRAL>
0.608276

>  <SCORE.INTRA.DIHEDRAL.0>
1.88407

>  <SCORE.INTRA.POLAR>
0

>  <SCORE.INTRA.POLAR.0>
0

>  <SCORE.INTRA.REPUL>
0

>  <SCORE.INTRA.REPUL.0>
0

>  <SCORE.INTRA.SOLV>
0.250945

>  <SCORE.INTRA.SOLV.lig_0>
-10.2714

>  <SCORE.INTRA.VDW>
-1.349

>  <SCORE.INTRA.VDW.0>
0.416923

>  <SCORE.INTRA.norm>
-0.0766154

>  <SCORE.RESTR>
0

>  <SCORE.RESTR.CAVITY>
0

>  <SCORE.RESTR.norm>
0

>  <SCORE.SYSTEM>
0

>  <SCORE.SYSTEM.CONST>
0

>  <SCORE.SYSTEM.DIHEDRAL>
0

>  <SCORE.SYSTEM.SOLV>
0

>  <SCORE.SYSTEM.norm>
0

>  <SCORE.heavy>
12

>  <SCORE.norm>
-0.904052

>  <RMSD>
7.406

$$$$
ligand
 OpenBabel11021811433D
libRbt.so/2013.1/901 2013/11/27
 12 12  0  0  0  0  0  0  0  0999 V2000
   54.4877   13.0696   16.6746 O   0  0  0  0  0  0  0  0  0  0  0  0
   55.6393   15.4264   11.6186 O   0  0  0  0  0  0  0  0  0  0  0  0
   53.1434   12.6063   16.3448 C   0  0  0  0  0  0  0  0  0  0  0  0
   54.8763   13.1308   11.1419 O   0  0  0  0  0  0  0  0  0  0  0  0
   52.5027   13.4857   15.2321 C   0  0  0  0  0  0  0  0  0  0  0  0
   54.1038   14.8480   10.5548 O   0  0  0  0  0  0  0  0  0  0  0  0
   53.4845   14.5475   14.8189 N   0  0  0  0  0  0  0  0  0  0  0  0
   53.8801   15.3784   15.9964 C   0  0  0  0  0  0  0  0  0  0  0  0
   54.4537   14.4599   17.1125 C   0  0  0  0  0  0  0  0  0  0  0  0
   52.9251   15.4428   13.7466 C   0  0  0  0  0  0  0  0  0  0  0  0
   52.9475   14.7440   12.3657 C   0  0  0  0  0  0  0  0  0  0  0  0
   54.6434   14.4061   11.8364 S   0  0  0  0  0  0  0  0  0  0  0  0
  1  3  1  0  0  0  0
  1  9  1  0  0  0  0
  2 12  1  0  0  0  0
  3  5  1  0  0  0  0
  4 12  2  0  0  0  0
  5  7  1  0  0  0  0
  6 12  2  0  0  0  0
  7  8  1  0  0  0  0
  7 10  1  0  0  0  0
  8  9  1  0  0  0  0
 10 11  1  0  0  0  0
 11 12  1  0  0  0  0
M  END
>  <CHROM.1>
-76.69477791,-64.02087822,-60.95225891,54.02544340,14.29853530,13.69778133
-2.20143908,1.28921978,-0.81592836

>  <Name>
ligand

>  <RI>
0

>  <Rbt.Current_Directory>
/home/itssahil/PROJECTS/Mol_Feturizer/New_Systems/rnas/2HO6

>  <Rbt.Executable>
rbdock ($Id: //depot/dev/client3/rdock/2013.1/src/exe/rbdock.cxx#4 $)

>  <Rbt.Library>
libRbt.so (2013.1, Build901 2013/11/27)

>  <Rbt.Parameter_File>
/export/apps/rDock/src/rDock_2013.1_src/data/scripts/dock_solv.prm

>  <Rbt.Receptor>
prm/pocket_docking_7.prm

>  <SCORE>
-10.6861

>  <SCORE.INTER>
-9.74811

>  <SCORE.INTER.CONST>
1

>  <SCORE.INTER.POLAR>
0

>  <SCORE.INTER.ROT>
3

>  <SCORE.INTER.SOLV>
4.56064

>  <SCORE.INTER.VDW>
-13.619

>  <SCORE.INTER.norm>
-0.812343

>  <SCORE.INTRA>
-0.93799

>  <SCORE.INTRA.DIHEDRAL>
0.460788

>  <SCORE.INTRA.DIHEDRAL.0>
1.88407

>  <SCORE.INTRA.POLAR>
0

>  <SCORE.INTRA.POLAR.0>
0

>  <SCORE.INTRA.REPUL>
0

>  <SCORE.INTRA.REPUL.0>
0

>  <SCORE.INTRA.SOLV>
0.195307

>  <SCORE.INTRA.SOLV.lig_0>
-10.2714

>  <SCORE.INTRA.VDW>
-1.26604

>  <SCORE.INTRA.VDW.0>
0.416923

>  <SCORE.INTRA.norm>
-0.0781658

>  <SCORE.RESTR>
0

>  <SCORE.RESTR.CAVITY>
0

>  <SCORE.RESTR.norm>
0

>  <SCORE.SYSTEM>
0

>  <SCORE.SYSTEM.CONST>
0

>  <SCORE.SYSTEM.DIHEDRAL>
0

>  <SCORE.SYSTEM.SOLV>
0

>  <SCORE.SYSTEM.norm>
0

>  <SCORE.heavy>
12

>  <SCORE.norm>
-0.890508

>  <RMSD>
7.411

$$$$
ligand
 OpenBabel11021811433D
libRbt.so/2013.1/901 2013/11/27
 12 12  0  0  0  0  0  0  0  0999 V2000
   55.5914   13.7403   11.2961 O   0  0  0  0  0  0  0  0  0  0  0  0
   55.5315   16.1398   16.5017 O   0  0  0  0  0  0  0  0  0  0  0  0
   54.9465   14.9597   11.7734 C   0  0  0  0  0  0  0  0  0  0  0  0
   53.0889   15.9158   16.2510 O   0  0  0  0  0  0  0  0  0  0  0  0
   54.2018   14.7129   13.1175 C   0  0  0  0  0  0  0  0  0  0  0  0
   54.2961   15.0318   17.5360 O   0  0  0  0  0  0  0  0  0  0  0  0
   54.3915   13.2785   13.5280 N   0  0  0  0  0  0  0  0  0  0  0  0
   53.8892   12.3602   12.4612 C   0  0  0  0  0  0  0  0  0  0  0  0
   54.6066   12.6798   11.1190 C   0  0  0  0  0  0  0  0  0  0  0  0
   53.6880   12.9668   14.8211 C   0  0  0  0  0  0  0  0  0  0  0  0
   54.4849   13.5024   16.0352 C   0  0  0  0  0  0  0  0  0  0  0  0
   54.4206   15.3081   16.1088 S   0  0  0  0  0  0  0  0  0  0  0  0
  1  3  1  0  0  0  0
  1  9  1  0  0  0  0
  2 12  1  0  0  0  0
  3  5  1  0  0  0  0
  4 12  2  0  0  0  0
  5  7  1  0  0  0  0
  6 12  2  0  0  0  0
  7  8  1  0  0  0  0
  7 10  1  0  0  0  0
  8  9  1  0  0  0  0
 10 11  1  0  0  0  0
 11 12  1  0  0  0  0
M  END
>  <CHROM.1>
-77.58398903,70.87302170,-141.91191852,54.43547593,14.35804575,14.43665971
-1.39821504,1.14591275,1.02187684

>  <Name>
ligand

>  <RI>
0

>  <Rbt.Current_Directory>
/home/itssahil/PROJECTS/Mol_Feturizer/New_Systems/rnas/2HO6

>  <Rbt.Executable>
rbdock ($Id: //depot/dev/client3/rdock/2013.1/src/exe/rbdock.cxx#4 $)

>  <Rbt.Library>
libRbt.so (2013.1, Build901 2013/11/27)

>  <Rbt.Parameter_File>
/export/apps/rDock/src/rDock_2013.1_src/data/scripts/dock_solv.prm

>  <Rbt.Receptor>
prm/pocket_docking_8.prm

>  <SCORE>
-12.9197

>  <SCORE.INTER>
-12.5629

>  <SCORE.INTER.CONST>
1

>  <SCORE.INTER.POLAR>
0

>  <SCORE.INTER.ROT>
3

>  <SCORE.INTER.SOLV>
6.58526

>  <SCORE.INTER.VDW>
-16.1704

>  <SCORE.INTER.norm>
-1.04691

>  <SCORE.INTRA>
-0.356849

>  <SCORE.INTRA.DIHEDRAL>
0.831104

>  <SCORE.INTRA.DIHEDRAL.0>
1.88407

>  <SCORE.INTRA.POLAR>
0

>  <SCORE.INTRA.POLAR.0>
0

>  <SCORE.INTRA.REPUL>
0

>  <SCORE.INTRA.REPUL.0>
0

>  <SCORE.INTRA.SOLV>
0.461364

>  <SCORE.INTRA.SOLV.lig_0>
-10.2714

>  <SCORE.INTRA.VDW>
-1.00308

>  <SCORE.INTRA.VDW.0>
0.416923

>  <SCORE.INTRA.norm>
-0.0297375

>  <SCORE.RESTR>
0

>  <SCORE.RESTR.CAVITY>
0

>  <SCORE.RESTR.norm>
0

>  <SCORE.SYSTEM>
0

>  <SCORE.SYSTEM.CONST>
0

>  <SCORE.SYSTEM.DIHEDRAL>
0

>  <SCORE.SYSTEM.SOLV>
0

>  <SCORE.SYSTEM.norm>
0

>  <SCORE.heavy>
12

>  <SCORE.norm>
-1.07665

>  <RMSD>
7.411

$$$$
ligand
 OpenBabel11021811433D
libRbt.so/2013.1/901 2013/11/27
 12 12  0  0  0  0  0  0  0  0999 V2000
   54.5087   13.0509   16.6472 O   0  0  0  0  0  0  0  0  0  0  0  0
   55.6368   15.4429   11.5533 O   0  0  0  0  0  0  0  0  0  0  0  0
   53.1531   12.5932   16.3585 C   0  0  0  0  0  0  0  0  0  0  0  0
   54.9754   13.0714   11.4192 O   0  0  0  0  0  0  0  0  0  0  0  0
   52.4842   13.4723   15.2622 C   0  0  0  0  0  0  0  0  0  0  0  0
   54.1466   14.6464   10.5690 O   0  0  0  0  0  0  0  0  0  0  0  0
   53.4584   14.5280   14.8170 N   0  0  0  0  0  0  0  0  0  0  0  0
   53.8924   15.3606   15.9798 C   0  0  0  0  0  0  0  0  0  0  0  0
   54.4941   14.4427   17.0815 C   0  0  0  0  0  0  0  0  0  0  0  0
   52.8720   15.4228   13.7589 C   0  0  0  0  0  0  0  0  0  0  0  0
   52.9604   14.7673   12.3594 C   0  0  0  0  0  0  0  0  0  0  0  0
   54.6784   14.4257   11.9097 S   0  0  0  0  0  0  0  0  0  0  0  0
  1  3  1  0  0  0  0
  1  9  1  0  0  0  0
  2 12  1  0  0  0  0
  3  5  1  0  0  0  0
  4 12  2  0  0  0  0
  5  7  1  0  0  0  0
  6 12  2  0  0  0  0
  7  8  1  0  0  0  0
  7 10  1  0  0  0  0
  8  9  1  0  0  0  0
 10 11  1  0  0  0  0
 11 12  1  0  0  0  0
M  END
>  <CHROM.1>
-81.52105466,-59.80770715,-72.06423645,54.04281577,14.27446530,13.72629598
-1.91567725,1.03213606,-1.12452376

>  <Name>
ligand

>  <RI>
0

>  <Rbt.Current_Directory>
/home/itssahil/PROJECTS/Mol_Feturizer/New_Systems/rnas/2HO6

>  <Rbt.Executable>
rbdock ($Id: //depot/dev/client3/rdock/2013.1/src/exe/rbdock.cxx#4 $)

>  <Rbt.Library>
libRbt.so (2013.1, Build901 2013/11/27)

>  <Rbt.Parameter_File>
/export/apps/rDock/src/rDock_2013.1_src/data/scripts/dock_solv.prm

>  <Rbt.Receptor>
prm/pocket_docking_7.prm

>  <SCORE>
-10.8179

>  <SCORE.INTER>
-9.90316

>  <SCORE.INTER.CONST>
1

>  <SCORE.INTER.POLAR>
0

>  <SCORE.INTER.ROT>
3

>  <SCORE.INTER.SOLV>
4.45181

>  <SCORE.INTER.VDW>
-13.686

>  <SCORE.INTER.norm>
-0.825263

>  <SCORE.INTRA>
-0.914773

>  <SCORE.INTRA.DIHEDRAL>
0.707059

>  <SCORE.INTRA.DIHEDRAL.0>
1.88407

>  <SCORE.INTRA.POLAR>
0

>  <SCORE.INTRA.POLAR.0>
0

>  <SCORE.INTRA.REPUL>
0

>  <SCORE.INTRA.REPUL.0>
0

>  <SCORE.INTRA.SOLV>
0.257747

>  <SCORE.INTRA.SOLV.lig_0>
-10.2714

>  <SCORE.INTRA.VDW>
-1.39718

>  <SCORE.INTRA.VDW.0>
0.416923

>  <SCORE.INTRA.norm>
-0.0762311

>  <SCORE.RESTR>
0

>  <SCORE.RESTR.CAVITY>
0

>  <SCORE.RESTR.norm>
0

>  <SCORE.SYSTEM>
0

>  <SCORE.SYSTEM.CONST>
0

>  <SCORE.SYSTEM.DIHEDRAL>
0

>  <SCORE.SYSTEM.SOLV>
0

>  <SCORE.SYSTEM.norm>
0

>  <SCORE.heavy>
12

>  <SCORE.norm>
-0.901494

>  <RMSD>
7.412

$$$$
ligand
 OpenBabel11021811433D
libRbt.so/2013.1/901 2013/11/27
 12 12  0  0  0  0  0  0  0  0999 V2000
   54.5067   13.0668   16.6806 O   0  0  0  0  0  0  0  0  0  0  0  0
   55.6413   15.4407   11.5707 O   0  0  0  0  0  0  0  0  0  0  0  0
   53.1621   12.5928   16.3674 C   0  0  0  0  0  0  0  0  0  0  0  0
   54.9741   13.0718   11.4221 O   0  0  0  0  0  0  0  0  0  0  0  0
   52.4997   13.4685   15.2645 C   0  0  0  0  0  0  0  0  0  0  0  0
   54.1456   14.6546   10.5864 O   0  0  0  0  0  0  0  0  0  0  0  0
   53.4671   14.5391   14.8404 N   0  0  0  0  0  0  0  0  0  0  0  0
   53.8709   15.3715   16.0142 C   0  0  0  0  0  0  0  0  0  0  0  0
   54.4666   14.4561   17.1212 C   0  0  0  0  0  0  0  0  0  0  0  0
   52.8863   15.4314   13.7770 C   0  0  0  0  0  0  0  0  0  0  0  0
   52.9665   14.7653   12.3822 C   0  0  0  0  0  0  0  0  0  0  0  0
   54.6819   14.4232   11.9235 S   0  0  0  0  0  0  0  0  0  0  0  0
  1  3  1  0  0  0  0
  1  9  1  0  0  0  0
  2 12  1  0  0  0  0
  3  5  1  0  0  0  0
  4 12  2  0  0  0  0
  5  7  1  0  0  0  0
  6 12  2  0  0  0  0
  7  8  1  0  0  0  0
  7 10  1  0  0  0  0
  8  9  1  0  0  0  0
 10 11  1  0  0  0  0
 11 12  1  0  0  0  0
M  END
>  <CHROM.1>
-79.75322173,-60.46204802,-71.16550292,54.04374753,14.27861055,13.74522204
-1.96168156,1.09713223,-1.07562302

>  <Name>
ligand

>  <RI>
0

>  <Rbt.Current_Directory>
/home/itssahil/PROJECTS/Mol_Feturizer/New_Systems/rnas/2HO6

>  <Rbt.Executable>
rbdock ($Id: //depot/dev/client3/rdock/2013.1/src/exe/rbdock.cxx#4 $)

>  <Rbt.Library>
libRbt.so (2013.1, Build901 2013/11/27)

>  <Rbt.Parameter_File>
/export/apps/rDock/src/rDock_2013.1_src/data/scripts/dock_solv.prm

>  <Rbt.Receptor>
prm/pocket_docking_7.prm

>  <SCORE>
-10.8479

>  <SCORE.INTER>
-9.91772

>  <SCORE.INTER.CONST>
1

>  <SCORE.INTER.POLAR>
0

>  <SCORE.INTER.ROT>
3

>  <SCORE.INTER.SOLV>
4.48009

>  <SCORE.INTER.VDW>
-13.7052

>  <SCORE.INTER.norm>
-0.826477

>  <SCORE.INTRA>
-0.930197

>  <SCORE.INTRA.DIHEDRAL>
0.603461

>  <SCORE.INTRA.DIHEDRAL.0>
1.88407

>  <SCORE.INTRA.POLAR>
0

>  <SCORE.INTRA.POLAR.0>
0

>  <SCORE.INTRA.REPUL>
0

>  <SCORE.INTRA.REPUL.0>
0

>  <SCORE.INTRA.SOLV>
0.252083

>  <SCORE.INTRA.SOLV.lig_0>
-10.2714

>  <SCORE.INTRA.VDW>
-1.35797

>  <SCORE.INTRA.VDW.0>
0.416923

>  <SCORE.INTRA.norm>
-0.0775164

>  <SCORE.RESTR>
0

>  <SCORE.RESTR.CAVITY>
0

>  <SCORE.RESTR.norm>
0

>  <SCORE.SYSTEM>
0

>  <SCORE.SYSTEM.CONST>
0

>  <SCORE.SYSTEM.DIHEDRAL>
0

>  <SCORE.SYSTEM.SOLV>
0

>  <SCORE.SYSTEM.norm>
0

>  <SCORE.heavy>
12

>  <SCORE.norm>
-0.903993

>  <RMSD>
7.420

$$$$
ligand
 OpenBabel11021811433D
libRbt.so/2013.1/901 2013/11/27
 12 12  0  0  0  0  0  0  0  0999 V2000
   53.8983   11.0052   11.1448 O   0  0  0  0  0  0  0  0  0  0  0  0
   55.5805   16.0215   16.5251 O   0  0  0  0  0  0  0  0  0  0  0  0
   54.6036   12.0443   10.4007 C   0  0  0  0  0  0  0  0  0  0  0  0
   53.2292   15.4412   16.9875 O   0  0  0  0  0  0  0  0  0  0  0  0
   54.8203   13.3134   11.2750 C   0  0  0  0  0  0  0  0  0  0  0  0
   54.8376   14.3048   17.0952 O   0  0  0  0  0  0  0  0  0  0  0  0
   54.2445   13.0715   12.6432 N   0  0  0  0  0  0  0  0  0  0  0  0
   52.7927   12.7306   12.5450 C   0  0  0  0  0  0  0  0  0  0  0  0
   52.6089   11.5003   11.6118 C   0  0  0  0  0  0  0  0  0  0  0  0
   54.4128   14.2662   13.5424 C   0  0  0  0  0  0  0  0  0  0  0  0
   54.4354   13.8468   15.0322 C   0  0  0  0  0  0  0  0  0  0  0  0
   54.4040   15.2948   16.1150 S   0  0  0  0  0  0  0  0  0  0  0  0
  1  3  1  0  0  0  0
  1  9  1  0  0  0  0
  2 12  1  0  0  0  0
  3  5  1  0  0  0  0
  4 12  2  0  0  0  0
  5  7  1  0  0  0  0
  6 12  2  0  0  0  0
  7  8  1  0  0  0  0
  7 10  1  0  0  0  0
  8  9  1  0  0  0  0
 10 11  1  0  0  0  0
 11 12  1  0  0  0  0
M  END
>  <CHROM.1>
-154.18097114,-172.04949160,-86.15152405,54.18808104,13.75554878,14.03236134
1.69717684,-0.55588580,-2.05988151

>  <Name>
ligand

>  <RI>
0

>  <Rbt.Current_Directory>
/home/itssahil/PROJECTS/Mol_Feturizer/New_Systems/rnas/2HO6

>  <Rbt.Executable>
rbdock ($Id: //depot/dev/client3/rdock/2013.1/src/exe/rbdock.cxx#4 $)

>  <Rbt.Library>
libRbt.so (2013.1, Build901 2013/11/27)

>  <Rbt.Parameter_File>
/export/apps/rDock/src/rDock_2013.1_src/data/scripts/dock_solv.prm

>  <Rbt.Receptor>
prm/pocket_docking_8.prm

>  <SCORE>
-10.3519

>  <SCORE.INTER>
-10.0416

>  <SCORE.INTER.CONST>
1

>  <SCORE.INTER.POLAR>
0

>  <SCORE.INTER.ROT>
3

>  <SCORE.INTER.SOLV>
5.72063

>  <SCORE.INTER.VDW>
-14.2012

>  <SCORE.INTER.norm>
-0.836797

>  <SCORE.INTRA>
-0.310376

>  <SCORE.INTRA.DIHEDRAL>
1.083

>  <SCORE.INTRA.DIHEDRAL.0>
1.88407

>  <SCORE.INTRA.POLAR>
0

>  <SCORE.INTRA.POLAR.0>
0

>  <SCORE.INTRA.REPUL>
0

>  <SCORE.INTRA.REPUL.0>
0

>  <SCORE.INTRA.SOLV>
-0.0277863

>  <SCORE.INTRA.SOLV.lig_0>
-10.2714

>  <SCORE.INTRA.VDW>
-0.837982

>  <SCORE.INTRA.VDW.0>
0.416923

>  <SCORE.INTRA.norm>
-0.0258647

>  <SCORE.RESTR>
0

>  <SCORE.RESTR.CAVITY>
0

>  <SCORE.RESTR.norm>
0

>  <SCORE.SYSTEM>
0

>  <SCORE.SYSTEM.CONST>
0

>  <SCORE.SYSTEM.DIHEDRAL>
0

>  <SCORE.SYSTEM.SOLV>
0

>  <SCORE.SYSTEM.norm>
0

>  <SCORE.heavy>
12

>  <SCORE.norm>
-0.862661

>  <RMSD>
7.435

$$$$
ligand
 OpenBabel11021811433D
libRbt.so/2013.1/901 2013/11/27
 12 12  0  0  0  0  0  0  0  0999 V2000
   54.8408   13.6948   17.0711 O   0  0  0  0  0  0  0  0  0  0  0  0
   55.1929   15.8411   12.6264 O   0  0  0  0  0  0  0  0  0  0  0  0
   53.8494   12.6309   16.9442 C   0  0  0  0  0  0  0  0  0  0  0  0
   55.6006   13.8211   11.2726 O   0  0  0  0  0  0  0  0  0  0  0  0
   52.9197   12.8718   15.7195 C   0  0  0  0  0  0  0  0  0  0  0  0
   54.1394   15.1388   11.1361 O   0  0  0  0  0  0  0  0  0  0  0  0
   53.3438   14.1348   15.0218 N   0  0  0  0  0  0  0  0  0  0  0  0
   53.2968   15.2927   15.9655 C   0  0  0  0  0  0  0  0  0  0  0  0
   54.1835   14.9892   17.2064 C   0  0  0  0  0  0  0  0  0  0  0  0
   52.4787   14.4341   13.8275 C   0  0  0  0  0  0  0  0  0  0  0  0
   53.1025   13.8687   12.5286 C   0  0  0  0  0  0  0  0  0  0  0  0
   54.7782   14.5029   12.2834 S   0  0  0  0  0  0  0  0  0  0  0  0
  1  3  1  0  0  0  0
  1  9  1  0  0  0  0
  2 12  1  0  0  0  0
  3  5  1  0  0  0  0
  4 12  2  0  0  0  0
  5  7  1  0  0  0  0
  6 12  2  0  0  0  0
  7  8  1  0  0  0  0
  7 10  1  0  0  0  0
  8  9  1  0  0  0  0
 10 11  1  0  0  0  0
 11 12  1  0  0  0  0
M  END
>  <CHROM.1>
-94.06345901,-56.10198238,-36.28973161,54.09089192,14.30465144,14.06117897
-1.77388080,-0.56733725,-1.51587473

>  <Name>
ligand

>  <RI>
0

>  <Rbt.Current_Directory>
/home/itssahil/PROJECTS/Mol_Feturizer/New_Systems/rnas/2HO6

>  <Rbt.Executable>
rbdock ($Id: //depot/dev/client3/rdock/2013.1/src/exe/rbdock.cxx#4 $)

>  <Rbt.Library>
libRbt.so (2013.1, Build901 2013/11/27)

>  <Rbt.Parameter_File>
/export/apps/rDock/src/rDock_2013.1_src/data/scripts/dock_solv.prm

>  <Rbt.Receptor>
prm/pocket_docking_8.prm

>  <SCORE>
-9.5048

>  <SCORE.INTER>
-8.65341

>  <SCORE.INTER.CONST>
1

>  <SCORE.INTER.POLAR>
0

>  <SCORE.INTER.ROT>
3

>  <SCORE.INTER.SOLV>
5.5738

>  <SCORE.INTER.VDW>
-13.2269

>  <SCORE.INTER.norm>
-0.721117

>  <SCORE.INTRA>
-0.85197

>  <SCORE.INTRA.DIHEDRAL>
1.42945

>  <SCORE.INTRA.DIHEDRAL.0>
1.88407

>  <SCORE.INTRA.POLAR>
0

>  <SCORE.INTRA.POLAR.0>
0

>  <SCORE.INTRA.REPUL>
0

>  <SCORE.INTRA.REPUL.0>
0

>  <SCORE.INTRA.SOLV>
0.18991

>  <SCORE.INTRA.SOLV.lig_0>
-10.2714

>  <SCORE.INTRA.VDW>
-1.66165

>  <SCORE.INTRA.VDW.0>
0.416923

>  <SCORE.INTRA.norm>
-0.0709975

>  <SCORE.RESTR>
0.000580838

>  <SCORE.RESTR.CAVITY>
0.000580838

>  <SCORE.RESTR.norm>
4.84032e-05

>  <SCORE.SYSTEM>
0

>  <SCORE.SYSTEM.CONST>
0

>  <SCORE.SYSTEM.DIHEDRAL>
0

>  <SCORE.SYSTEM.SOLV>
0

>  <SCORE.SYSTEM.norm>
0

>  <SCORE.heavy>
12

>  <SCORE.norm>
-0.792066

>  <RMSD>
7.494

$$$$
ligand
 OpenBabel11021811433D
libRbt.so/2013.1/901 2013/11/27
 12 12  0  0  0  0  0  0  0  0999 V2000
   52.7049   14.5037   16.4135 O   0  0  0  0  0  0  0  0  0  0  0  0
   54.9464   15.6918   12.7462 O   0  0  0  0  0  0  0  0  0  0  0  0
   54.1643   14.4865   16.3903 C   0  0  0  0  0  0  0  0  0  0  0  0
   56.4843   14.3706   11.3432 O   0  0  0  0  0  0  0  0  0  0  0  0
   54.6978   13.6210   15.2119 C   0  0  0  0  0  0  0  0  0  0  0  0
   54.6141   14.8904   10.9937 O   0  0  0  0  0  0  0  0  0  0  0  0
   53.5309   13.0740   14.4366 N   0  0  0  0  0  0  0  0  0  0  0  0
   52.6414   12.2716   15.3302 C   0  0  0  0  0  0  0  0  0  0  0  0
   52.1818   13.1477   16.5300 C   0  0  0  0  0  0  0  0  0  0  0  0
   53.9759   12.2174   13.2823 C   0  0  0  0  0  0  0  0  0  0  0  0
   54.1040   13.0502   11.9839 C   0  0  0  0  0  0  0  0  0  0  0  0
   55.2853   14.4032   12.1941 S   0  0  0  0  0  0  0  0  0  0  0  0
  1  3  1  0  0  0  0
  1  9  1  0  0  0  0
  2 12  1  0  0  0  0
  3  5  1  0  0  0  0
  4 12  2  0  0  0  0
  5  7  1  0  0  0  0
  6 12  2  0  0  0  0
  7  8  1  0  0  0  0
  7 10  1  0  0  0  0
  8  9  1  0  0  0  0
 10 11  1  0  0  0  0
 11 12  1  0  0  0  0
M  END
>  <CHROM.1>
-92.48670470,58.71224023,-85.49350851,54.24343581,13.90857608,13.70392293
-2.54606439,-0.97521810,-2.22601809

>  <Name>
ligand

>  <RI>
0

>  <Rbt.Current_Directory>
/home/itssahil/PROJECTS/Mol_Feturizer/New_Systems/rnas/2HO6

>  <Rbt.Executable>
rbdock ($Id: //depot/dev/client3/rdock/2013.1/src/exe/rbdock.cxx#4 $)

>  <Rbt.Library>
libRbt.so (2013.1, Build901 2013/11/27)

>  <Rbt.Parameter_File>
/export/apps/rDock/src/rDock_2013.1_src/data/scripts/dock_solv.prm

>  <Rbt.Receptor>
prm/pocket_docking_7.prm

>  <SCORE>
-11.072

>  <SCORE.INTER>
-10.2637

>  <SCORE.INTER.CONST>
1

>  <SCORE.INTER.POLAR>
0

>  <SCORE.INTER.ROT>
3

>  <SCORE.INTER.SOLV>
7.17932

>  <SCORE.INTER.VDW>
-14.8356

>  <SCORE.INTER.norm>
-0.855308

>  <SCORE.INTRA>
-0.808314

>  <SCORE.INTRA.DIHEDRAL>
1.42518

>  <SCORE.INTRA.DIHEDRAL.0>
1.88407

>  <SCORE.INTRA.POLAR>
0

>  <SCORE.INTRA.POLAR.0>
0

>  <SCORE.INTRA.REPUL>
0

>  <SCORE.INTRA.REPUL.0>
0

>  <SCORE.INTRA.SOLV>
0.18589

>  <SCORE.INTRA.SOLV.lig_0>
-10.2714

>  <SCORE.INTRA.VDW>
-1.61385

>  <SCORE.INTRA.VDW.0>
0.416923

>  <SCORE.INTRA.norm>
-0.0673595

>  <SCORE.RESTR>
0

>  <SCORE.RESTR.CAVITY>
0

>  <SCORE.RESTR.norm>
0

>  <SCORE.SYSTEM>
0

>  <SCORE.SYSTEM.CONST>
0

>  <SCORE.SYSTEM.DIHEDRAL>
0

>  <SCORE.SYSTEM.SOLV>
0

>  <SCORE.SYSTEM.norm>
0

>  <SCORE.heavy>
12

>  <SCORE.norm>
-0.922668

>  <RMSD>
7.542

$$$$
ligand
 OpenBabel11021811433D
libRbt.so/2013.1/901 2013/11/27
 12 12  0  0  0  0  0  0  0  0999 V2000
   55.0377   14.1143   17.1859 O   0  0  0  0  0  0  0  0  0  0  0  0
   54.7571   16.0153   13.3079 O   0  0  0  0  0  0  0  0  0  0  0  0
   54.3594   12.8247   17.2722 C   0  0  0  0  0  0  0  0  0  0  0  0
   55.5498   15.0618   11.1768 O   0  0  0  0  0  0  0  0  0  0  0  0
   53.5002   12.5552   16.0029 C   0  0  0  0  0  0  0  0  0  0  0  0
   53.7047   15.4343   11.7656 O   0  0  0  0  0  0  0  0  0  0  0  0
   53.6472   13.7136   15.0551 N   0  0  0  0  0  0  0  0  0  0  0  0
   53.2350   14.9869   15.7202 C   0  0  0  0  0  0  0  0  0  0  0  0
   54.0672   15.1894   17.0181 C   0  0  0  0  0  0  0  0  0  0  0  0
   52.8332   13.5223   13.8041 C   0  0  0  0  0  0  0  0  0  0  0  0
   53.7410   13.4331   12.5536 C   0  0  0  0  0  0  0  0  0  0  0  0
   54.8529   14.8559   12.4554 S   0  0  0  0  0  0  0  0  0  0  0  0
  1  3  1  0  0  0  0
  1  9  1  0  0  0  0
  2 12  1  0  0  0  0
  3  5  1  0  0  0  0
  4 12  2  0  0  0  0
  5  7  1  0  0  0  0
  6 12  2  0  0  0  0
  7  8  1  0  0  0  0
  7 10  1  0  0  0  0
  8  9  1  0  0  0  0
 10 11  1  0  0  0  0
 11 12  1  0  0  0  0
M  END
>  <CHROM.1>
-116.58795186,-53.51423360,-9.10537650,54.20303569,14.39419985,14.21449532
-1.78665498,-1.03800693,-1.49685700

>  <Name>
ligand

>  <RI>
0

>  <Rbt.Current_Directory>
/home/itssahil/PROJECTS/Mol_Feturizer/New_Systems/rnas/2HO6

>  <Rbt.Executable>
rbdock ($Id: //depot/dev/client3/rdock/2013.1/src/exe/rbdock.cxx#4 $)

>  <Rbt.Library>
libRbt.so (2013.1, Build901 2013/11/27)

>  <Rbt.Parameter_File>
/export/apps/rDock/src/rDock_2013.1_src/data/scripts/dock_solv.prm

>  <Rbt.Receptor>
prm/pocket_docking_8.prm

>  <SCORE>
-10.1454

>  <SCORE.INTER>
-9.80586

>  <SCORE.INTER.CONST>
1

>  <SCORE.INTER.POLAR>
0

>  <SCORE.INTER.ROT>
3

>  <SCORE.INTER.SOLV>
6.3131

>  <SCORE.INTER.VDW>
-14.2416

>  <SCORE.INTER.norm>
-0.817155

>  <SCORE.INTRA>
-0.339567

>  <SCORE.INTRA.DIHEDRAL>
2.44282

>  <SCORE.INTRA.DIHEDRAL.0>
1.88407

>  <SCORE.INTRA.POLAR>
0

>  <SCORE.INTRA.POLAR.0>
0

>  <SCORE.INTRA.REPUL>
0

>  <SCORE.INTRA.REPUL.0>
0

>  <SCORE.INTRA.SOLV>
0.263293

>  <SCORE.INTRA.SOLV.lig_0>
-10.2714

>  <SCORE.INTRA.VDW>
-1.69262

>  <SCORE.INTRA.VDW.0>
0.416923

>  <SCORE.INTRA.norm>
-0.0282973

>  <SCORE.RESTR>
0

>  <SCORE.RESTR.CAVITY>
0

>  <SCORE.RESTR.norm>
0

>  <SCORE.SYSTEM>
0

>  <SCORE.SYSTEM.CONST>
0

>  <SCORE.SYSTEM.DIHEDRAL>
0

>  <SCORE.SYSTEM.SOLV>
0

>  <SCORE.SYSTEM.norm>
0

>  <SCORE.heavy>
12

>  <SCORE.norm>
-0.845452

>  <RMSD>
7.561

$$$$
ligand
 OpenBabel11021811433D
libRbt.so/2013.1/901 2013/11/27
 12 12  0  0  0  0  0  0  0  0999 V2000
   54.4367   12.8076   16.8779 O   0  0  0  0  0  0  0  0  0  0  0  0
   56.3329   14.4531   11.4338 O   0  0  0  0  0  0  0  0  0  0  0  0
   53.0508   12.4459   16.5968 C   0  0  0  0  0  0  0  0  0  0  0  0
   54.4690   12.9912   12.1177 O   0  0  0  0  0  0  0  0  0  0  0  0
   52.4692   13.3059   15.4374 C   0  0  0  0  0  0  0  0  0  0  0  0
   54.4241   14.6559   11.0609 O   0  0  0  0  0  0  0  0  0  0  0  0
   53.5328   14.2472   14.9427 N   0  0  0  0  0  0  0  0  0  0  0  0
   54.0222   15.1132   16.0581 C   0  0  0  0  0  0  0  0  0  0  0  0
   54.5335   14.2206   17.2243 C   0  0  0  0  0  0  0  0  0  0  0  0
   53.0343   15.1184   13.8217 C   0  0  0  0  0  0  0  0  0  0  0  0
   54.2062   15.6452   12.9585 C   0  0  0  0  0  0  0  0  0  0  0  0
   55.1641   14.2793   12.2607 S   0  0  0  0  0  0  0  0  0  0  0  0
  1  3  1  0  0  0  0
  1  9  1  0  0  0  0
  2 12  1  0  0  0  0
  3  5  1  0  0  0  0
  4 12  2  0  0  0  0
  5  7  1  0  0  0  0
  6 12  2  0  0  0  0
  7  8  1  0  0  0  0
  7 10  1  0  0  0  0
  8  9  1  0  0  0  0
 10 11  1  0  0  0  0
 11 12  1  0  0  0  0
M  END
>  <CHROM.1>
-157.11320792,58.46004503,-178.74347629,54.26635999,14.10750711,13.99413721
-2.16901388,1.06062328,-0.84954525

>  <Name>
ligand

>  <RI>
0

>  <Rbt.Current_Directory>
/home/itssahil/PROJECTS/Mol_Feturizer/New_Systems/rnas/2HO6

>  <Rbt.Executable>
rbdock ($Id: //depot/dev/client3/rdock/2013.1/src/exe/rbdock.cxx#4 $)

>  <Rbt.Library>
libRbt.so (2013.1, Build901 2013/11/27)

>  <Rbt.Parameter_File>
/export/apps/rDock/src/rDock_2013.1_src/data/scripts/dock_solv.prm

>  <Rbt.Receptor>
prm/pocket_docking_7.prm

>  <SCORE>
-12.3728

>  <SCORE.INTER>
-11.8042

>  <SCORE.INTER.CONST>
1

>  <SCORE.INTER.POLAR>
0

>  <SCORE.INTER.ROT>
3

>  <SCORE.INTER.SOLV>
4.66492

>  <SCORE.INTER.VDW>
-15.0244

>  <SCORE.INTER.norm>
-0.98368

>  <SCORE.INTRA>
-0.568684

>  <SCORE.INTRA.DIHEDRAL>
0.595614

>  <SCORE.INTRA.DIHEDRAL.0>
1.88407

>  <SCORE.INTRA.POLAR>
0

>  <SCORE.INTRA.POLAR.0>
0

>  <SCORE.INTRA.REPUL>
0

>  <SCORE.INTRA.REPUL.0>
0

>  <SCORE.INTRA.SOLV>
0.819142

>  <SCORE.INTRA.SOLV.lig_0>
-10.2714

>  <SCORE.INTRA.VDW>
-1.27606

>  <SCORE.INTRA.VDW.0>
0.416923

>  <SCORE.INTRA.norm>
-0.0473903

>  <SCORE.RESTR>
0

>  <SCORE.RESTR.CAVITY>
0

>  <SCORE.RESTR.norm>
0

>  <SCORE.SYSTEM>
0

>  <SCORE.SYSTEM.CONST>
0

>  <SCORE.SYSTEM.DIHEDRAL>
0

>  <SCORE.SYSTEM.SOLV>
0

>  <SCORE.SYSTEM.norm>
0

>  <SCORE.heavy>
12

>  <SCORE.norm>
-1.03107

>  <RMSD>
7.602

$$$$
ligand
 OpenBabel11021811433D
libRbt.so/2013.1/901 2013/11/27
 12 12  0  0  0  0  0  0  0  0999 V2000
   54.4316   12.8841   16.8792 O   0  0  0  0  0  0  0  0  0  0  0  0
   56.3992   14.4057   11.4531 O   0  0  0  0  0  0  0  0  0  0  0  0
   53.0463   12.5241   16.5927 C   0  0  0  0  0  0  0  0  0  0  0  0
   54.4067   13.0326   11.9261 O   0  0  0  0  0  0  0  0  0  0  0  0
   52.4793   13.3652   15.4123 C   0  0  0  0  0  0  0  0  0  0  0  0
   54.5365   14.7526   10.9696 O   0  0  0  0  0  0  0  0  0  0  0  0
   53.5520   14.2918   14.9097 N   0  0  0  0  0  0  0  0  0  0  0  0
   54.0362   15.1760   16.0130 C   0  0  0  0  0  0  0  0  0  0  0  0
   54.5327   14.3028   17.2001 C   0  0  0  0  0  0  0  0  0  0  0  0
   53.0679   15.1444   13.7682 C   0  0  0  0  0  0  0  0  0  0  0  0
   54.2498   15.6475   12.9046 C   0  0  0  0  0  0  0  0  0  0  0  0
   55.1679   14.2629   12.1904 S   0  0  0  0  0  0  0  0  0  0  0  0
  1  3  1  0  0  0  0
  1  9  1  0  0  0  0
  2 12  1  0  0  0  0
  3  5  1  0  0  0  0
  4 12  2  0  0  0  0
  5  7  1  0  0  0  0
  6 12  2  0  0  0  0
  7  8  1  0  0  0  0
  7 10  1  0  0  0  0
  8  9  1  0  0  0  0
 10 11  1  0  0  0  0
 11 12  1  0  0  0  0
M  END
>  <CHROM.1>
-157.03395469,60.57512684,-173.37664594,54.28446535,14.14423506,13.94367274
-2.26959296,1.12578099,-0.75522324

>  <Name>
ligand

>  <RI>
0

>  <Rbt.Current_Directory>
/home/itssahil/PROJECTS/Mol_Feturizer/New_Systems/rnas/2HO6

>  <Rbt.Executable>
rbdock ($Id: //depot/dev/client3/rdock/2013.1/src/exe/rbdock.cxx#4 $)

>  <Rbt.Library>
libRbt.so (2013.1, Build901 2013/11/27)

>  <Rbt.Parameter_File>
/export/apps/rDock/src/rDock_2013.1_src/data/scripts/dock_solv.prm

>  <Rbt.Receptor>
prm/pocket_docking_7.prm

>  <SCORE>
-12.4456

>  <SCORE.INTER>
-11.8197

>  <SCORE.INTER.CONST>
1

>  <SCORE.INTER.POLAR>
0

>  <SCORE.INTER.ROT>
3

>  <SCORE.INTER.SOLV>
4.77168

>  <SCORE.INTER.VDW>
-15.0704

>  <SCORE.INTER.norm>
-0.984974

>  <SCORE.INTRA>
-0.625958

>  <SCORE.INTRA.DIHEDRAL>
0.573045

>  <SCORE.INTRA.DIHEDRAL.0>
1.88407

>  <SCORE.INTRA.POLAR>
0

>  <SCORE.INTRA.POLAR.0>
0

>  <SCORE.INTRA.REPUL>
0

>  <SCORE.INTRA.REPUL.0>
0

>  <SCORE.INTRA.SOLV>
0.730063

>  <SCORE.INTRA.SOLV.lig_0>
-10.2714

>  <SCORE.INTRA.VDW>
-1.27751

>  <SCORE.INTRA.VDW.0>
0.416923

>  <SCORE.INTRA.norm>
-0.0521631

>  <SCORE.RESTR>
0

>  <SCORE.RESTR.CAVITY>
0

>  <SCORE.RESTR.norm>
0

>  <SCORE.SYSTEM>
0

>  <SCORE.SYSTEM.CONST>
0

>  <SCORE.SYSTEM.DIHEDRAL>
0

>  <SCORE.SYSTEM.SOLV>
0

>  <SCORE.SYSTEM.norm>
0

>  <SCORE.heavy>
12

>  <SCORE.norm>
-1.03714

>  <RMSD>
7.621

$$$$
ligand
 OpenBabel11021811433D
libRbt.so/2013.1/901 2013/11/27
 12 12  0  0  0  0  0  0  0  0999 V2000
   54.3944   12.8717   16.8786 O   0  0  0  0  0  0  0  0  0  0  0  0
   56.4118   14.4375   11.5149 O   0  0  0  0  0  0  0  0  0  0  0  0
   52.9825   12.5833   16.6461 C   0  0  0  0  0  0  0  0  0  0  0  0
   54.4168   13.0554   11.9496 O   0  0  0  0  0  0  0  0  0  0  0  0
   52.4199   13.4374   15.4730 C   0  0  0  0  0  0  0  0  0  0  0  0
   54.5568   14.7770   10.9976 O   0  0  0  0  0  0  0  0  0  0  0  0
   53.5222   14.2975   14.9188 N   0  0  0  0  0  0  0  0  0  0  0  0
   54.0919   15.1695   15.9906 C   0  0  0  0  0  0  0  0  0  0  0  0
   54.5827   14.2872   17.1733 C   0  0  0  0  0  0  0  0  0  0  0  0
   53.0442   15.1591   13.7815 C   0  0  0  0  0  0  0  0  0  0  0  0
   54.2307   15.6685   12.9280 C   0  0  0  0  0  0  0  0  0  0  0  0
   55.1677   14.2886   12.2293 S   0  0  0  0  0  0  0  0  0  0  0  0
  1  3  1  0  0  0  0
  1  9  1  0  0  0  0
  2 12  1  0  0  0  0
  3  5  1  0  0  0  0
  4 12  2  0  0  0  0
  5  7  1  0  0  0  0
  6 12  2  0  0  0  0
  7  8  1  0  0  0  0
  7 10  1  0  0  0  0
  8  9  1  0  0  0  0
 10 11  1  0  0  0  0
 11 12  1  0  0  0  0
M  END
>  <CHROM.1>
-161.08516778,59.67053029,-172.76957858,54.27841354,14.16483621,13.96737629
-1.95954070,0.71985081,-1.13406739

>  <Name>
ligand

>  <RI>
0

>  <Rbt.Current_Directory>
/home/itssahil/PROJECTS/Mol_Feturizer/New_Systems/rnas/2HO6

>  <Rbt.Executable>
rbdock ($Id: //depot/dev/client3/rdock/2013.1/src/exe/rbdock.cxx#4 $)

>  <Rbt.Library>
libRbt.so (2013.1, Build901 2013/11/27)

>  <Rbt.Parameter_File>
/export/apps/rDock/src/rDock_2013.1_src/data/scripts/dock_solv.prm

>  <Rbt.Receptor>
prm/pocket_docking_7.prm

>  <SCORE>
-12.3104

>  <SCORE.INTER>
-11.6952

>  <SCORE.INTER.CONST>
1

>  <SCORE.INTER.POLAR>
0

>  <SCORE.INTER.ROT>
3

>  <SCORE.INTER.SOLV>
4.77711

>  <SCORE.INTER.VDW>
-14.9892

>  <SCORE.INTER.norm>
-0.974601

>  <SCORE.INTRA>
-0.615229

>  <SCORE.INTRA.DIHEDRAL>
0.352957

>  <SCORE.INTRA.DIHEDRAL.0>
1.88407

>  <SCORE.INTRA.POLAR>
0

>  <SCORE.INTRA.POLAR.0>
0

>  <SCORE.INTRA.REPUL>
0

>  <SCORE.INTRA.REPUL.0>
0

>  <SCORE.INTRA.SOLV>
0.729659

>  <SCORE.INTRA.SOLV.lig_0>
-10.2714

>  <SCORE.INTRA.VDW>
-1.15654

>  <SCORE.INTRA.VDW.0>
0.416923

>  <SCORE.INTRA.norm>
-0.0512691

>  <SCORE.RESTR>
0

>  <SCORE.RESTR.CAVITY>
0

>  <SCORE.RESTR.norm>
0

>  <SCORE.SYSTEM>
0

>  <SCORE.SYSTEM.CONST>
0

>  <SCORE.SYSTEM.DIHEDRAL>
0

>  <SCORE.SYSTEM.SOLV>
0

>  <SCORE.SYSTEM.norm>
0

>  <SCORE.heavy>
12

>  <SCORE.norm>
-1.02587

>  <RMSD>
7.625

$$$$
ligand
 OpenBabel11021811433D
libRbt.so/2013.1/901 2013/11/27
 12 12  0  0  0  0  0  0  0  0999 V2000
   54.4002   12.7814   16.8637 O   0  0  0  0  0  0  0  0  0  0  0  0
   56.4110   14.4321   11.4460 O   0  0  0  0  0  0  0  0  0  0  0  0
   53.0048   12.4594   16.5813 C   0  0  0  0  0  0  0  0  0  0  0  0
   54.4484   13.0260   11.9463 O   0  0  0  0  0  0  0  0  0  0  0  0
   52.4532   13.3259   15.4121 C   0  0  0  0  0  0  0  0  0  0  0  0
   54.5344   14.7552   11.0015 O   0  0  0  0  0  0  0  0  0  0  0  0
   53.5464   14.2298   14.9124 N   0  0  0  0  0  0  0  0  0  0  0  0
   54.0586   15.0908   16.0214 C   0  0  0  0  0  0  0  0  0  0  0  0
   54.5390   14.1939   17.1974 C   0  0  0  0  0  0  0  0  0  0  0  0
   53.0781   15.1053   13.7817 C   0  0  0  0  0  0  0  0  0  0  0  0
   54.2723   15.6306   12.9488 C   0  0  0  0  0  0  0  0  0  0  0  0
   55.1965   14.2653   12.2058 S   0  0  0  0  0  0  0  0  0  0  0  0
  1  3  1  0  0  0  0
  1  9  1  0  0  0  0
  2 12  1  0  0  0  0
  3  5  1  0  0  0  0
  4 12  2  0  0  0  0
  5  7  1  0  0  0  0
  6 12  2  0  0  0  0
  7  8  1  0  0  0  0
  7 10  1  0  0  0  0
  8  9  1  0  0  0  0
 10 11  1  0  0  0  0
 11 12  1  0  0  0  0
M  END
>  <CHROM.1>
-159.21104427,61.17591423,-175.81716899,54.28999848,14.10797545,13.95257578
-2.21213981,1.07258725,-0.80275231

>  <Name>
ligand

>  <RI>
0

>  <Rbt.Current_Directory>
/home/itssahil/PROJECTS/Mol_Feturizer/New_Systems/rnas/2HO6

>  <Rbt.Executable>
rbdock ($Id: //depot/dev/client3/rdock/2013.1/src/exe/rbdock.cxx#4 $)

>  <Rbt.Library>
libRbt.so (2013.1, Build901 2013/11/27)

>  <Rbt.Parameter_File>
/export/apps/rDock/src/rDock_2013.1_src/data/scripts/dock_solv.prm

>  <Rbt.Receptor>
prm/pocket_docking_7.prm

>  <SCORE>
-12.3964

>  <SCORE.INTER>
-11.8037

>  <SCORE.INTER.CONST>
1

>  <SCORE.INTER.POLAR>
0

>  <SCORE.INTER.ROT>
3

>  <SCORE.INTER.SOLV>
4.73534

>  <SCORE.INTER.VDW>
-15.0476

>  <SCORE.INTER.norm>
-0.983643

>  <SCORE.INTRA>
-0.592639

>  <SCORE.INTRA.DIHEDRAL>
0.465333

>  <SCORE.INTRA.DIHEDRAL.0>
1.88407

>  <SCORE.INTRA.POLAR>
0

>  <SCORE.INTRA.POLAR.0>
0

>  <SCORE.INTRA.REPUL>
0

>  <SCORE.INTRA.REPUL.0>
0

>  <SCORE.INTRA.SOLV>
0.74428

>  <SCORE.INTRA.SOLV.lig_0>
-10.2714

>  <SCORE.INTRA.VDW>
-1.19745

>  <SCORE.INTRA.VDW.0>
0.416923

>  <SCORE.INTRA.norm>
-0.0493866

>  <SCORE.RESTR>
0

>  <SCORE.RESTR.CAVITY>
0

>  <SCORE.RESTR.norm>
0

>  <SCORE.SYSTEM>
0

>  <SCORE.SYSTEM.CONST>
0

>  <SCORE.SYSTEM.DIHEDRAL>
0

>  <SCORE.SYSTEM.SOLV>
0

>  <SCORE.SYSTEM.norm>
0

>  <SCORE.heavy>
12

>  <SCORE.norm>
-1.03303

>  <RMSD>
7.627

$$$$
ligand
 OpenBabel11021811433D
libRbt.so/2013.1/901 2013/11/27
 12 12  0  0  0  0  0  0  0  0999 V2000
   54.4430   12.9891   16.9640 O   0  0  0  0  0  0  0  0  0  0  0  0
   56.4188   14.4322   11.4870 O   0  0  0  0  0  0  0  0  0  0  0  0
   53.0606   12.5947   16.7108 C   0  0  0  0  0  0  0  0  0  0  0  0
   54.5274   12.9502   12.0398 O   0  0  0  0  0  0  0  0  0  0  0  0
   52.4720   13.3600   15.4901 C   0  0  0  0  0  0  0  0  0  0  0  0
   54.5353   14.6252   10.9984 O   0  0  0  0  0  0  0  0  0  0  0  0
   53.5273   14.2714   14.9264 N   0  0  0  0  0  0  0  0  0  0  0  0
   54.0080   15.2230   15.9738 C   0  0  0  0  0  0  0  0  0  0  0  0
   54.5267   14.4249   17.2035 C   0  0  0  0  0  0  0  0  0  0  0  0
   53.0216   15.0515   13.7432 C   0  0  0  0  0  0  0  0  0  0  0  0
   54.1925   15.5937   12.8883 C   0  0  0  0  0  0  0  0  0  0  0  0
   55.2023   14.2418   12.2381 S   0  0  0  0  0  0  0  0  0  0  0  0
  1  3  1  0  0  0  0
  1  9  1  0  0  0  0
  2 12  1  0  0  0  0
  3  5  1  0  0  0  0
  4 12  2  0  0  0  0
  5  7  1  0  0  0  0
  6 12  2  0  0  0  0
  7  8  1  0  0  0  0
  7 10  1  0  0  0  0
  8  9  1  0  0  0  0
 10 11  1  0  0  0  0
 11 12  1  0  0  0  0
M  END
>  <CHROM.1>
-160.45203830,60.95760201,-175.33113456,54.29133291,14.13916328,13.98283925
-2.04412245,0.89440321,-1.04547411

>  <Name>
ligand

>  <RI>
0

>  <Rbt.Current_Directory>
/home/itssahil/PROJECTS/Mol_Feturizer/New_Systems/rnas/2HO6

>  <Rbt.Executable>
rbdock ($Id: //depot/dev/client3/rdock/2013.1/src/exe/rbdock.cxx#4 $)

>  <Rbt.Library>
libRbt.so (2013.1, Build901 2013/11/27)

>  <Rbt.Parameter_File>
/export/apps/rDock/src/rDock_2013.1_src/data/scripts/dock_solv.prm

>  <Rbt.Receptor>
prm/pocket_docking_7.prm

>  <SCORE>
-12.3548

>  <SCORE.INTER>
-11.7645

>  <SCORE.INTER.CONST>
1

>  <SCORE.INTER.POLAR>
0

>  <SCORE.INTER.ROT>
3

>  <SCORE.INTER.SOLV>
4.74815

>  <SCORE.INTER.VDW>
-15.0257

>  <SCORE.INTER.norm>
-0.980374

>  <SCORE.INTRA>
-0.590264

>  <SCORE.INTRA.DIHEDRAL>
0.396853

>  <SCORE.INTRA.DIHEDRAL.0>
1.88407

>  <SCORE.INTRA.POLAR>
0

>  <SCORE.INTRA.POLAR.0>
0

>  <SCORE.INTRA.REPUL>
0

>  <SCORE.INTRA.REPUL.0>
0

>  <SCORE.INTRA.SOLV>
0.740944

>  <SCORE.INTRA.SOLV.lig_0>
-10.2714

>  <SCORE.INTRA.VDW>
-1.15916

>  <SCORE.INTRA.VDW.0>
0.416923

>  <SCORE.INTRA.norm>
-0.0491887

>  <SCORE.RESTR>
0

>  <SCORE.RESTR.CAVITY>
0

>  <SCORE.RESTR.norm>
0

>  <SCORE.SYSTEM>
0

>  <SCORE.SYSTEM.CONST>
0

>  <SCORE.SYSTEM.DIHEDRAL>
0

>  <SCORE.SYSTEM.SOLV>
0

>  <SCORE.SYSTEM.norm>
0

>  <SCORE.heavy>
12

>  <SCORE.norm>
-1.02956

>  <RMSD>
7.629

$$$$
ligand
 OpenBabel11021811433D
libRbt.so/2013.1/901 2013/11/27
 12 12  0  0  0  0  0  0  0  0999 V2000
   54.4173   12.8777   16.9254 O   0  0  0  0  0  0  0  0  0  0  0  0
   56.4134   14.3506   11.5463 O   0  0  0  0  0  0  0  0  0  0  0  0
   53.0013   12.6032   16.7017 C   0  0  0  0  0  0  0  0  0  0  0  0
   54.3071   13.0949   11.8032 O   0  0  0  0  0  0  0  0  0  0  0  0
   52.4422   13.4553   15.5254 C   0  0  0  0  0  0  0  0  0  0  0  0
   54.6127   14.8608   10.9797 O   0  0  0  0  0  0  0  0  0  0  0  0
   53.5511   14.2995   14.9600 N   0  0  0  0  0  0  0  0  0  0  0  0
   54.1355   15.1725   16.0230 C   0  0  0  0  0  0  0  0  0  0  0  0
   54.6225   14.2930   17.2094 C   0  0  0  0  0  0  0  0  0  0  0  0
   53.0769   15.1585   13.8192 C   0  0  0  0  0  0  0  0  0  0  0  0
   54.2642   15.6438   12.9527 C   0  0  0  0  0  0  0  0  0  0  0  0
   55.1308   14.2475   12.1980 S   0  0  0  0  0  0  0  0  0  0  0  0
  1  3  1  0  0  0  0
  1  9  1  0  0  0  0
  2 12  1  0  0  0  0
  3  5  1  0  0  0  0
  4 12  2  0  0  0  0
  5  7  1  0  0  0  0
  6 12  2  0  0  0  0
  7  8  1  0  0  0  0
  7 10  1  0  0  0  0
  8  9  1  0  0  0  0
 10 11  1  0  0  0  0
 11 12  1  0  0  0  0
M  END
>  <CHROM.1>
-160.82931710,62.24292844,-167.94559726,54.28577301,14.16322786,13.97534277
-1.90368099,0.59276755,-1.21729387

>  <Name>
ligand

>  <RI>
0

>  <Rbt.Current_Directory>
/home/itssahil/PROJECTS/Mol_Feturizer/New_Systems/rnas/2HO6

>  <Rbt.Executable>
rbdock ($Id: //depot/dev/client3/rdock/2013.1/src/exe/rbdock.cxx#4 $)

>  <Rbt.Library>
libRbt.so (2013.1, Build901 2013/11/27)

>  <Rbt.Parameter_File>
/export/apps/rDock/src/rDock_2013.1_src/data/scripts/dock_solv.prm

>  <Rbt.Receptor>
prm/pocket_docking_7.prm

>  <SCORE>
-12.2771

>  <SCORE.INTER>
-11.6332

>  <SCORE.INTER.CONST>
1

>  <SCORE.INTER.POLAR>
0

>  <SCORE.INTER.ROT>
3

>  <SCORE.INTER.SOLV>
4.83624

>  <SCORE.INTER.VDW>
-14.9675

>  <SCORE.INTER.norm>
-0.969434

>  <SCORE.INTRA>
-0.643849

>  <SCORE.INTRA.DIHEDRAL>
0.369976

>  <SCORE.INTRA.DIHEDRAL.0>
1.88407

>  <SCORE.INTRA.POLAR>
0

>  <SCORE.INTRA.POLAR.0>
0

>  <SCORE.INTRA.REPUL>
0

>  <SCORE.INTRA.REPUL.0>
0

>  <SCORE.INTRA.SOLV>
0.649052

>  <SCORE.INTRA.SOLV.lig_0>
-10.2714

>  <SCORE.INTRA.VDW>
-1.15336

>  <SCORE.INTRA.VDW.0>
0.416923

>  <SCORE.INTRA.norm>
-0.0536541

>  <SCORE.RESTR>
0

>  <SCORE.RESTR.CAVITY>
0

>  <SCORE.RESTR.norm>
0

>  <SCORE.SYSTEM>
0

>  <SCORE.SYSTEM.CONST>
0

>  <SCORE.SYSTEM.DIHEDRAL>
0

>  <SCORE.SYSTEM.SOLV>
0

>  <SCORE.SYSTEM.norm>
0

>  <SCORE.heavy>
12

>  <SCORE.norm>
-1.02309

>  <RMSD>
7.641

$$$$
ligand
 OpenBabel11021811433D
libRbt.so/2013.1/901 2013/11/27
 12 12  0  0  0  0  0  0  0  0999 V2000
   54.4038   12.7484   16.8128 O   0  0  0  0  0  0  0  0  0  0  0  0
   56.4289   14.3790   11.4700 O   0  0  0  0  0  0  0  0  0  0  0  0
   52.9808   12.5264   16.5751 C   0  0  0  0  0  0  0  0  0  0  0  0
   54.3398   13.1206   11.8324 O   0  0  0  0  0  0  0  0  0  0  0  0
   52.4503   13.4472   15.4381 C   0  0  0  0  0  0  0  0  0  0  0  0
   54.6033   14.8792   10.9792 O   0  0  0  0  0  0  0  0  0  0  0  0
   53.5851   14.2829   14.9129 N   0  0  0  0  0  0  0  0  0  0  0  0
   54.1924   15.0891   16.0152 C   0  0  0  0  0  0  0  0  0  0  0  0
   54.6501   14.1426   17.1611 C   0  0  0  0  0  0  0  0  0  0  0  0
   53.1395   15.2064   13.8117 C   0  0  0  0  0  0  0  0  0  0  0  0
   54.3407   15.6804   12.9582 C   0  0  0  0  0  0  0  0  0  0  0  0
   55.1769   14.2790   12.1790 S   0  0  0  0  0  0  0  0  0  0  0  0
  1  3  1  0  0  0  0
  1  9  1  0  0  0  0
  2 12  1  0  0  0  0
  3  5  1  0  0  0  0
  4 12  2  0  0  0  0
  5  7  1  0  0  0  0
  6 12  2  0  0  0  0
  7  8  1  0  0  0  0
  7 10  1  0  0  0  0
  8  9  1  0  0  0  0
 10 11  1  0  0  0  0
 11 12  1  0  0  0  0
M  END
>  <CHROM.1>
-160.08692417,60.60247900,-171.47175646,54.31317139,14.14564528,13.93596354
-2.03149387,0.89490467,-1.01012225

>  <Name>
ligand

>  <RI>
0

>  <Rbt.Current_Directory>
/home/itssahil/PROJECTS/Mol_Feturizer/New_Systems/rnas/2HO6

>  <Rbt.Executable>
rbdock ($Id: //depot/dev/client3/rdock/2013.1/src/exe/rbdock.cxx#4 $)

>  <Rbt.Library>
libRbt.so (2013.1, Build901 2013/11/27)

>  <Rbt.Parameter_File>
/export/apps/rDock/src/rDock_2013.1_src/data/scripts/dock_solv.prm

>  <Rbt.Receptor>
prm/pocket_docking_7.prm

>  <SCORE>
-12.4055

>  <SCORE.INTER>
-11.7723

>  <SCORE.INTER.CONST>
1

>  <SCORE.INTER.POLAR>
0

>  <SCORE.INTER.ROT>
3

>  <SCORE.INTER.SOLV>
4.88616

>  <SCORE.INTER.VDW>
-15.0769

>  <SCORE.INTER.norm>
-0.981026

>  <SCORE.INTRA>
-0.633205

>  <SCORE.INTRA.DIHEDRAL>
0.400611

>  <SCORE.INTRA.DIHEDRAL.0>
1.88407

>  <SCORE.INTRA.POLAR>
0

>  <SCORE.INTRA.POLAR.0>
0

>  <SCORE.INTRA.REPUL>
0

>  <SCORE.INTRA.REPUL.0>
0

>  <SCORE.INTRA.SOLV>
0.704671

>  <SCORE.INTRA.SOLV.lig_0>
-10.2714

>  <SCORE.INTRA.VDW>
-1.18585

>  <SCORE.INTRA.VDW.0>
0.416923

>  <SCORE.INTRA.norm>
-0.0527671

>  <SCORE.RESTR>
0

>  <SCORE.RESTR.CAVITY>
0

>  <SCORE.RESTR.norm>
0

>  <SCORE.SYSTEM>
0

>  <SCORE.SYSTEM.CONST>
0

>  <SCORE.SYSTEM.DIHEDRAL>
0

>  <SCORE.SYSTEM.SOLV>
0

>  <SCORE.SYSTEM.norm>
0

>  <SCORE.heavy>
12

>  <SCORE.norm>
-1.03379

>  <RMSD>
7.647

$$$$
ligand
 OpenBabel11021811433D
libRbt.so/2013.1/901 2013/11/27
 12 12  0  0  0  0  0  0  0  0999 V2000
   54.3251   12.8449   16.9106 O   0  0  0  0  0  0  0  0  0  0  0  0
   56.4639   14.3197   11.3847 O   0  0  0  0  0  0  0  0  0  0  0  0
   52.9093   12.6183   16.6367 C   0  0  0  0  0  0  0  0  0  0  0  0
   54.3730   13.0717   11.7719 O   0  0  0  0  0  0  0  0  0  0  0  0
   52.4242   13.4796   15.4347 C   0  0  0  0  0  0  0  0  0  0  0  0
   54.6323   14.8417   10.9413 O   0  0  0  0  0  0  0  0  0  0  0  0
   53.5821   14.2797   14.9046 N   0  0  0  0  0  0  0  0  0  0  0  0
   54.1577   15.1405   15.9821 C   0  0  0  0  0  0  0  0  0  0  0  0
   54.5696   14.2545   17.1919 C   0  0  0  0  0  0  0  0  0  0  0  0
   53.1807   15.1451   13.7409 C   0  0  0  0  0  0  0  0  0  0  0  0
   54.4185   15.6130   12.9380 C   0  0  0  0  0  0  0  0  0  0  0  0
   55.2266   14.2180   12.1188 S   0  0  0  0  0  0  0  0  0  0  0  0
  1  3  1  0  0  0  0
  1  9  1  0  0  0  0
  2 12  1  0  0  0  0
  3  5  1  0  0  0  0
  4 12  2  0  0  0  0
  5  7  1  0  0  0  0
  6 12  2  0  0  0  0
  7  8  1  0  0  0  0
  7 10  1  0  0  0  0
  8  9  1  0  0  0  0
 10 11  1  0  0  0  0
 11 12  1  0  0  0  0
M  END
>  <CHROM.1>
-162.38421854,66.81874666,-174.89657632,54.31591424,14.14277020,13.91582616
2.26535233,1.09436211,1.09243531

>  <Name>
ligand

>  <RI>
0

>  <Rbt.Current_Directory>
/home/itssahil/PROJECTS/Mol_Feturizer/New_Systems/rnas/2HO6

>  <Rbt.Executable>
rbdock ($Id: //depot/dev/client3/rdock/2013.1/src/exe/rbdock.cxx#4 $)

>  <Rbt.Library>
libRbt.so (2013.1, Build901 2013/11/27)

>  <Rbt.Parameter_File>
/export/apps/rDock/src/rDock_2013.1_src/data/scripts/dock_solv.prm

>  <Rbt.Receptor>
prm/pocket_docking_7.prm

>  <SCORE>
-12.3356

>  <SCORE.INTER>
-11.8846

>  <SCORE.INTER.CONST>
1

>  <SCORE.INTER.POLAR>
0

>  <SCORE.INTER.ROT>
3

>  <SCORE.INTER.SOLV>
4.89344

>  <SCORE.INTER.VDW>
-15.1542

>  <SCORE.INTER.norm>
-0.990381

>  <SCORE.INTRA>
-0.451064

>  <SCORE.INTRA.DIHEDRAL>
0.47062

>  <SCORE.INTRA.DIHEDRAL.0>
1.88407

>  <SCORE.INTRA.POLAR>
0

>  <SCORE.INTRA.POLAR.0>
0

>  <SCORE.INTRA.REPUL>
0

>  <SCORE.INTRA.REPUL.0>
0

>  <SCORE.INTRA.SOLV>
0.660457

>  <SCORE.INTRA.SOLV.lig_0>
-10.2714

>  <SCORE.INTRA.VDW>
-1.0166

>  <SCORE.INTRA.VDW.0>
0.416923

>  <SCORE.INTRA.norm>
-0.0375887

>  <SCORE.RESTR>
0

>  <SCORE.RESTR.CAVITY>
0

>  <SCORE.RESTR.norm>
0

>  <SCORE.SYSTEM>
0

>  <SCORE.SYSTEM.CONST>
0

>  <SCORE.SYSTEM.DIHEDRAL>
0

>  <SCORE.SYSTEM.SOLV>
0

>  <SCORE.SYSTEM.norm>
0

>  <SCORE.heavy>
12

>  <SCORE.norm>
-1.02797

>  <RMSD>
7.658

$$$$
ligand
 OpenBabel11021811433D
libRbt.so/2013.1/901 2013/11/27
 12 12  0  0  0  0  0  0  0  0999 V2000
   54.2774   12.3428   16.7679 O   0  0  0  0  0  0  0  0  0  0  0  0
   56.4201   14.3878   11.4391 O   0  0  0  0  0  0  0  0  0  0  0  0
   52.8625   12.1922   16.4420 C   0  0  0  0  0  0  0  0  0  0  0  0
   54.3461   13.1318   11.8865 O   0  0  0  0  0  0  0  0  0  0  0  0
   52.4170   13.2346   15.3757 C   0  0  0  0  0  0  0  0  0  0  0  0
   54.5692   14.9451   11.1434 O   0  0  0  0  0  0  0  0  0  0  0  0
   53.6005   14.0783   14.9891 N   0  0  0  0  0  0  0  0  0  0  0  0
   54.1738   14.7547   16.1921 C   0  0  0  0  0  0  0  0  0  0  0  0
   54.5454   13.6883   17.2612 C   0  0  0  0  0  0  0  0  0  0  0  0
   53.2380   15.1172   13.9626 C   0  0  0  0  0  0  0  0  0  0  0  0
   54.4890   15.6015   13.1903 C   0  0  0  0  0  0  0  0  0  0  0  0
   55.2306   14.2512   12.2433 S   0  0  0  0  0  0  0  0  0  0  0  0
  1  3  1  0  0  0  0
  1  9  1  0  0  0  0
  2 12  1  0  0  0  0
  3  5  1  0  0  0  0
  4 12  2  0  0  0  0
  5  7  1  0  0  0  0
  6 12  2  0  0  0  0
  7  8  1  0  0  0  0
  7 10  1  0  0  0  0
  8  9  1  0  0  0  0
 10 11  1  0  0  0  0
 11 12  1  0  0  0  0
M  END
>  <CHROM.1>
-158.50164373,63.59231091,-178.99016788,54.30768113,13.99137620,13.99734873
-2.93982204,1.26176334,0.05493759

>  <Name>
ligand

>  <RI>
0

>  <Rbt.Current_Directory>
/home/itssahil/PROJECTS/Mol_Feturizer/New_Systems/rnas/2HO6

>  <Rbt.Executable>
rbdock ($Id: //depot/dev/client3/rdock/2013.1/src/exe/rbdock.cxx#4 $)

>  <Rbt.Library>
libRbt.so (2013.1, Build901 2013/11/27)

>  <Rbt.Parameter_File>
/export/apps/rDock/src/rDock_2013.1_src/data/scripts/dock_solv.prm

>  <Rbt.Receptor>
prm/blind_docking_60.prm

>  <SCORE>
-11.9003

>  <SCORE.INTER>
-11.3684

>  <SCORE.INTER.CONST>
1

>  <SCORE.INTER.POLAR>
0

>  <SCORE.INTER.ROT>
3

>  <SCORE.INTER.SOLV>
4.95883

>  <SCORE.INTER.VDW>
-14.8319

>  <SCORE.INTER.norm>
-0.947367

>  <SCORE.INTRA>
-0.531857

>  <SCORE.INTRA.DIHEDRAL>
0.558916

>  <SCORE.INTRA.DIHEDRAL.0>
1.88407

>  <SCORE.INTRA.POLAR>
0

>  <SCORE.INTRA.POLAR.0>
0

>  <SCORE.INTRA.REPUL>
0

>  <SCORE.INTRA.REPUL.0>
0

>  <SCORE.INTRA.SOLV>
0.746278

>  <SCORE.INTRA.SOLV.lig_0>
-10.2714

>  <SCORE.INTRA.VDW>
-1.18445

>  <SCORE.INTRA.VDW.0>
0.416923

>  <SCORE.INTRA.norm>
-0.0443214

>  <SCORE.RESTR>
0

>  <SCORE.RESTR.CAVITY>
0

>  <SCORE.RESTR.norm>
0

>  <SCORE.SYSTEM>
0

>  <SCORE.SYSTEM.CONST>
0

>  <SCORE.SYSTEM.DIHEDRAL>
0

>  <SCORE.SYSTEM.SOLV>
0

>  <SCORE.SYSTEM.norm>
0

>  <SCORE.heavy>
12

>  <SCORE.norm>
-0.991688

>  <RMSD>
7.664

$$$$
ligand
 OpenBabel11021811433D
libRbt.so/2013.1/901 2013/11/27
 12 12  0  0  0  0  0  0  0  0999 V2000
   54.4499   12.7098   16.8777 O   0  0  0  0  0  0  0  0  0  0  0  0
   56.4298   14.3997   11.3973 O   0  0  0  0  0  0  0  0  0  0  0  0
   53.0548   12.4103   16.5701 C   0  0  0  0  0  0  0  0  0  0  0  0
   54.4389   13.0499   11.9393 O   0  0  0  0  0  0  0  0  0  0  0  0
   52.5263   13.3138   15.4183 C   0  0  0  0  0  0  0  0  0  0  0  0
   54.5500   14.7997   11.0361 O   0  0  0  0  0  0  0  0  0  0  0  0
   53.6347   14.2193   14.9563 N   0  0  0  0  0  0  0  0  0  0  0  0
   54.1421   15.0447   16.0943 C   0  0  0  0  0  0  0  0  0  0  0  0
   54.5989   14.1113   17.2512 C   0  0  0  0  0  0  0  0  0  0  0  0
   53.1891   15.1299   13.8444 C   0  0  0  0  0  0  0  0  0  0  0  0
   54.3953   15.6312   13.0139 C   0  0  0  0  0  0  0  0  0  0  0  0
   55.2405   14.2550   12.2003 S   0  0  0  0  0  0  0  0  0  0  0  0
  1  3  1  0  0  0  0
  1  9  1  0  0  0  0
  2 12  1  0  0  0  0
  3  5  1  0  0  0  0
  4 12  2  0  0  0  0
  5  7  1  0  0  0  0
  6 12  2  0  0  0  0
  7  8  1  0  0  0  0
  7 10  1  0  0  0  0
  8  9  1  0  0  0  0
 10 11  1  0  0  0  0
 11 12  1  0  0  0  0
M  END
>  <CHROM.1>
-157.50171379,62.90363590,-177.60188629,54.34589488,14.09068200,13.97226369
-2.63377345,1.24798492,-0.33460727

>  <Name>
ligand

>  <RI>
0

>  <Rbt.Current_Directory>
/home/itssahil/PROJECTS/Mol_Feturizer/New_Systems/rnas/2HO6

>  <Rbt.Executable>
rbdock ($Id: //depot/dev/client3/rdock/2013.1/src/exe/rbdock.cxx#4 $)

>  <Rbt.Library>
libRbt.so (2013.1, Build901 2013/11/27)

>  <Rbt.Parameter_File>
/export/apps/rDock/src/rDock_2013.1_src/data/scripts/dock_solv.prm

>  <Rbt.Receptor>
prm/pocket_docking_7.prm

>  <SCORE>
-12.3936

>  <SCORE.INTER>
-11.833

>  <SCORE.INTER.CONST>
1

>  <SCORE.INTER.POLAR>
0

>  <SCORE.INTER.ROT>
3

>  <SCORE.INTER.SOLV>
4.90152

>  <SCORE.INTER.VDW>
-15.1225

>  <SCORE.INTER.norm>
-0.986086

>  <SCORE.INTRA>
-0.560537

>  <SCORE.INTRA.DIHEDRAL>
0.59225

>  <SCORE.INTRA.DIHEDRAL.0>
1.88407

>  <SCORE.INTRA.POLAR>
0

>  <SCORE.INTRA.POLAR.0>
0

>  <SCORE.INTRA.REPUL>
0

>  <SCORE.INTRA.REPUL.0>
0

>  <SCORE.INTRA.SOLV>
0.743049

>  <SCORE.INTRA.SOLV.lig_0>
-10.2714

>  <SCORE.INTRA.VDW>
-1.22819

>  <SCORE.INTRA.VDW.0>
0.416923

>  <SCORE.INTRA.norm>
-0.0467114

>  <SCORE.RESTR>
0

>  <SCORE.RESTR.CAVITY>
0

>  <SCORE.RESTR.norm>
0

>  <SCORE.SYSTEM>
0

>  <SCORE.SYSTEM.CONST>
0

>  <SCORE.SYSTEM.DIHEDRAL>
0

>  <SCORE.SYSTEM.SOLV>
0

>  <SCORE.SYSTEM.norm>
0

>  <SCORE.heavy>
12

>  <SCORE.norm>
-1.0328

>  <RMSD>
7.674

$$$$
ligand
 OpenBabel11021811433D
libRbt.so/2013.1/901 2013/11/27
 12 12  0  0  0  0  0  0  0  0999 V2000
   54.4510   12.8494   16.8244 O   0  0  0  0  0  0  0  0  0  0  0  0
   56.4472   14.2995   11.6713 O   0  0  0  0  0  0  0  0  0  0  0  0
   53.0609   12.5112   16.5347 C   0  0  0  0  0  0  0  0  0  0  0  0
   54.1630   13.4795   11.2362 O   0  0  0  0  0  0  0  0  0  0  0  0
   52.4963   13.3919   15.3824 C   0  0  0  0  0  0  0  0  0  0  0  0
   54.9263   15.2699   10.9169 O   0  0  0  0  0  0  0  0  0  0  0  0
   53.5754   14.3226   14.9015 N   0  0  0  0  0  0  0  0  0  0  0  0
   54.0735   15.1694   16.0278 C   0  0  0  0  0  0  0  0  0  0  0  0
   54.5674   14.2570   17.1861 C   0  0  0  0  0  0  0  0  0  0  0  0
   53.0939   15.2129   13.7881 C   0  0  0  0  0  0  0  0  0  0  0  0
   54.2741   15.7103   12.9188 C   0  0  0  0  0  0  0  0  0  0  0  0
   55.0516   14.3387   12.0332 S   0  0  0  0  0  0  0  0  0  0  0  0
  1  3  1  0  0  0  0
  1  9  1  0  0  0  0
  2 12  1  0  0  0  0
  3  5  1  0  0  0  0
  4 12  2  0  0  0  0
  5  7  1  0  0  0  0
  6 12  2  0  0  0  0
  7  8  1  0  0  0  0
  7 10  1  0  0  0  0
  8  9  1  0  0  0  0
 10 11  1  0  0  0  0
 11 12  1  0  0  0  0
M  END
>  <CHROM.1>
-156.05958855,66.00631820,-149.86910378,54.29567785,14.23349148,13.86559851
-1.85341882,0.38223359,-1.26674685

>  <Name>
ligand

>  <RI>
0

>  <Rbt.Current_Directory>
/home/itssahil/PROJECTS/Mol_Feturizer/New_Systems/rnas/2HO6

>  <Rbt.Executable>
rbdock ($Id: //depot/dev/client3/rdock/2013.1/src/exe/rbdock.cxx#4 $)

>  <Rbt.Library>
libRbt.so (2013.1, Build901 2013/11/27)

>  <Rbt.Parameter_File>
/export/apps/rDock/src/rDock_2013.1_src/data/scripts/dock_solv.prm

>  <Rbt.Receptor>
prm/pocket_docking_7.prm

>  <SCORE>
-11.5986

>  <SCORE.INTER>
-10.9364

>  <SCORE.INTER.CONST>
1

>  <SCORE.INTER.POLAR>
0

>  <SCORE.INTER.ROT>
3

>  <SCORE.INTER.SOLV>
5.17994

>  <SCORE.INTER.VDW>
-14.6176

>  <SCORE.INTER.norm>
-0.911369

>  <SCORE.INTRA>
-0.662161

>  <SCORE.INTRA.DIHEDRAL>
0.728628

>  <SCORE.INTRA.DIHEDRAL.0>
1.88407

>  <SCORE.INTRA.POLAR>
0

>  <SCORE.INTRA.POLAR.0>
0

>  <SCORE.INTRA.REPUL>
0

>  <SCORE.INTRA.REPUL.0>
0

>  <SCORE.INTRA.SOLV>
0.443583

>  <SCORE.INTRA.SOLV.lig_0>
-10.2714

>  <SCORE.INTRA.VDW>
-1.24827

>  <SCORE.INTRA.VDW.0>
0.416923

>  <SCORE.INTRA.norm>
-0.0551801

>  <SCORE.RESTR>
0

>  <SCORE.RESTR.CAVITY>
0

>  <SCORE.RESTR.norm>
0

>  <SCORE.SYSTEM>
0

>  <SCORE.SYSTEM.CONST>
0

>  <SCORE.SYSTEM.DIHEDRAL>
0

>  <SCORE.SYSTEM.SOLV>
0

>  <SCORE.SYSTEM.norm>
0

>  <SCORE.heavy>
12

>  <SCORE.norm>
-0.966549

>  <RMSD>
7.681

$$$$
ligand
 OpenBabel11021811433D
libRbt.so/2013.1/901 2013/11/27
 12 12  0  0  0  0  0  0  0  0999 V2000
   54.9825   14.1543   17.2083 O   0  0  0  0  0  0  0  0  0  0  0  0
   54.9169   15.8167   12.7962 O   0  0  0  0  0  0  0  0  0  0  0  0
   54.3198   12.8581   17.3152 C   0  0  0  0  0  0  0  0  0  0  0  0
   56.2747   14.3084   11.3959 O   0  0  0  0  0  0  0  0  0  0  0  0
   53.5608   12.5047   16.0033 C   0  0  0  0  0  0  0  0  0  0  0  0
   54.3607   14.7607   11.2471 O   0  0  0  0  0  0  0  0  0  0  0  0
   53.7594   13.6137   15.0069 N   0  0  0  0  0  0  0  0  0  0  0  0
   53.2794   14.9123   15.5698 C   0  0  0  0  0  0  0  0  0  0  0  0
   54.0104   15.1998   16.9119 C   0  0  0  0  0  0  0  0  0  0  0  0
   53.0429   13.3402   13.7123 C   0  0  0  0  0  0  0  0  0  0  0  0
   54.0452   13.0865   12.5604 C   0  0  0  0  0  0  0  0  0  0  0  0
   55.2080   14.4617   12.3967 S   0  0  0  0  0  0  0  0  0  0  0  0
  1  3  1  0  0  0  0
  1  9  1  0  0  0  0
  2 12  1  0  0  0  0
  3  5  1  0  0  0  0
  4 12  2  0  0  0  0
  5  7  1  0  0  0  0
  6 12  2  0  0  0  0
  7  8  1  0  0  0  0
  7 10  1  0  0  0  0
  8  9  1  0  0  0  0
 10 11  1  0  0  0  0
 11 12  1  0  0  0  0
M  END
>  <CHROM.1>
-111.90249515,-55.21497750,-26.58103524,54.42985213,14.14724935,14.11482159
-1.97955409,-1.02817846,-1.77213779

>  <Name>
ligand

>  <RI>
0

>  <Rbt.Current_Directory>
/home/itssahil/PROJECTS/Mol_Feturizer/New_Systems/rnas/2HO6

>  <Rbt.Executable>
rbdock ($Id: //depot/dev/client3/rdock/2013.1/src/exe/rbdock.cxx#4 $)

>  <Rbt.Library>
libRbt.so (2013.1, Build901 2013/11/27)

>  <Rbt.Parameter_File>
/export/apps/rDock/src/rDock_2013.1_src/data/scripts/dock_solv.prm

>  <Rbt.Receptor>
prm/pocket_docking_7.prm

>  <SCORE>
-11.5094

>  <SCORE.INTER>
-10.8753

>  <SCORE.INTER.CONST>
1

>  <SCORE.INTER.POLAR>
0

>  <SCORE.INTER.ROT>
3

>  <SCORE.INTER.SOLV>
6.76214

>  <SCORE.INTER.VDW>
-15.1043

>  <SCORE.INTER.norm>
-0.906279

>  <SCORE.INTRA>
-0.634008

>  <SCORE.INTRA.DIHEDRAL>
2.2541

>  <SCORE.INTRA.DIHEDRAL.0>
1.88407

>  <SCORE.INTRA.POLAR>
0

>  <SCORE.INTRA.POLAR.0>
0

>  <SCORE.INTRA.REPUL>
0

>  <SCORE.INTRA.REPUL.0>
0

>  <SCORE.INTRA.SOLV>
0.176472

>  <SCORE.INTRA.SOLV.lig_0>
-10.2714

>  <SCORE.INTRA.VDW>
-1.84929

>  <SCORE.INTRA.VDW.0>
0.416923

>  <SCORE.INTRA.norm>
-0.052834

>  <SCORE.RESTR>
0

>  <SCORE.RESTR.CAVITY>
0

>  <SCORE.RESTR.norm>
0

>  <SCORE.SYSTEM>
0

>  <SCORE.SYSTEM.CONST>
0

>  <SCORE.SYSTEM.DIHEDRAL>
0

>  <SCORE.SYSTEM.SOLV>
0

>  <SCORE.SYSTEM.norm>
0

>  <SCORE.heavy>
12

>  <SCORE.norm>
-0.959113

>  <RMSD>
7.686

$$$$
ligand
 OpenBabel11021811433D
libRbt.so/2013.1/901 2013/11/27
 12 12  0  0  0  0  0  0  0  0999 V2000
   54.9812   14.2097   17.1948 O   0  0  0  0  0  0  0  0  0  0  0  0
   54.9494   15.8072   12.7811 O   0  0  0  0  0  0  0  0  0  0  0  0
   54.3489   12.8984   17.3013 C   0  0  0  0  0  0  0  0  0  0  0  0
   56.2838   14.2850   11.3734 O   0  0  0  0  0  0  0  0  0  0  0  0
   53.5939   12.5300   15.9912 C   0  0  0  0  0  0  0  0  0  0  0  0
   54.3724   14.7526   11.2387 O   0  0  0  0  0  0  0  0  0  0  0  0
   53.7636   13.6451   14.9964 N   0  0  0  0  0  0  0  0  0  0  0  0
   53.2557   14.9313   15.5633 C   0  0  0  0  0  0  0  0  0  0  0  0
   53.9843   15.2330   16.9036 C   0  0  0  0  0  0  0  0  0  0  0  0
   53.0493   13.3576   13.7035 C   0  0  0  0  0  0  0  0  0  0  0  0
   54.0536   13.0838   12.5580 C   0  0  0  0  0  0  0  0  0  0  0  0
   55.2263   14.4491   12.3822 S   0  0  0  0  0  0  0  0  0  0  0  0
  1  3  1  0  0  0  0
  1  9  1  0  0  0  0
  2 12  1  0  0  0  0
  3  5  1  0  0  0  0
  4 12  2  0  0  0  0
  5  7  1  0  0  0  0
  6 12  2  0  0  0  0
  7  8  1  0  0  0  0
  7 10  1  0  0  0  0
  8  9  1  0  0  0  0
 10 11  1  0  0  0  0
 11 12  1  0  0  0  0
M  END
>  <CHROM.1>
-110.05534776,-55.04980406,-25.73990144,54.43941793,14.15819331,14.10301385
-1.98762764,-1.03063997,-1.79249406

>  <Name>
ligand

>  <RI>
0

>  <Rbt.Current_Directory>
/home/itssahil/PROJECTS/Mol_Feturizer/New_Systems/rnas/2HO6

>  <Rbt.Executable>
rbdock ($Id: //depot/dev/client3/rdock/2013.1/src/exe/rbdock.cxx#4 $)

>  <Rbt.Library>
libRbt.so (2013.1, Build901 2013/11/27)

>  <Rbt.Parameter_File>
/export/apps/rDock/src/rDock_2013.1_src/data/scripts/dock_solv.prm

>  <Rbt.Receptor>
prm/pocket_docking_7.prm

>  <SCORE>
-11.4976

>  <SCORE.INTER>
-10.8567

>  <SCORE.INTER.CONST>
1

>  <SCORE.INTER.POLAR>
0

>  <SCORE.INTER.ROT>
3

>  <SCORE.INTER.SOLV>
6.7629

>  <SCORE.INTER.VDW>
-15.0921

>  <SCORE.INTER.norm>
-0.904724

>  <SCORE.INTRA>
-0.640908

>  <SCORE.INTRA.DIHEDRAL>
2.21578

>  <SCORE.INTRA.DIHEDRAL.0>
1.88407

>  <SCORE.INTRA.POLAR>
0

>  <SCORE.INTRA.POLAR.0>
0

>  <SCORE.INTRA.REPUL>
0

>  <SCORE.INTRA.REPUL.0>
0

>  <SCORE.INTRA.SOLV>
0.182549

>  <SCORE.INTRA.SOLV.lig_0>
-10.2714

>  <SCORE.INTRA.VDW>
-1.84007

>  <SCORE.INTRA.VDW.0>
0.416923

>  <SCORE.INTRA.norm>
-0.053409

>  <SCORE.RESTR>
0

>  <SCORE.RESTR.CAVITY>
0

>  <SCORE.RESTR.norm>
0

>  <SCORE.SYSTEM>
0

>  <SCORE.SYSTEM.CONST>
0

>  <SCORE.SYSTEM.DIHEDRAL>
0

>  <SCORE.SYSTEM.SOLV>
0

>  <SCORE.SYSTEM.norm>
0

>  <SCORE.heavy>
12

>  <SCORE.norm>
-0.958133

>  <RMSD>
7.689

$$$$
ligand
 OpenBabel11021811433D
libRbt.so/2013.1/901 2013/11/27
 12 12  0  0  0  0  0  0  0  0999 V2000
   54.4497   12.7075   16.8777 O   0  0  0  0  0  0  0  0  0  0  0  0
   56.4471   14.3823   11.4437 O   0  0  0  0  0  0  0  0  0  0  0  0
   53.0563   12.4152   16.5556 C   0  0  0  0  0  0  0  0  0  0  0  0
   54.3574   13.1343   11.8370 O   0  0  0  0  0  0  0  0  0  0  0  0
   52.5372   13.3381   15.4151 C   0  0  0  0  0  0  0  0  0  0  0  0
   54.6121   14.9147   11.0275 O   0  0  0  0  0  0  0  0  0  0  0  0
   53.6501   14.2493   14.9756 N   0  0  0  0  0  0  0  0  0  0  0  0
   54.1508   15.0552   16.1304 C   0  0  0  0  0  0  0  0  0  0  0  0
   54.5982   14.1025   17.2751 C   0  0  0  0  0  0  0  0  0  0  0  0
   53.2136   15.1786   13.8756 C   0  0  0  0  0  0  0  0  0  0  0  0
   54.4221   15.6596   13.0365 C   0  0  0  0  0  0  0  0  0  0  0  0
   55.2177   14.2737   12.1899 S   0  0  0  0  0  0  0  0  0  0  0  0
  1  3  1  0  0  0  0
  1  9  1  0  0  0  0
  2 12  1  0  0  0  0
  3  5  1  0  0  0  0
  4 12  2  0  0  0  0
  5  7  1  0  0  0  0
  6 12  2  0  0  0  0
  7  8  1  0  0  0  0
  7 10  1  0  0  0  0
  8  9  1  0  0  0  0
 10 11  1  0  0  0  0
 11 12  1  0  0  0  0
M  END
>  <CHROM.1>
-155.88009558,63.48058987,-173.45151143,54.34825245,14.11855390,13.97357397
-2.85712566,1.28243646,-0.09574473

>  <Name>
ligand

>  <RI>
0

>  <Rbt.Current_Directory>
/home/itssahil/PROJECTS/Mol_Feturizer/New_Systems/rnas/2HO6

>  <Rbt.Executable>
rbdock ($Id: //depot/dev/client3/rdock/2013.1/src/exe/rbdock.cxx#4 $)

>  <Rbt.Library>
libRbt.so (2013.1, Build901 2013/11/27)

>  <Rbt.Parameter_File>
/export/apps/rDock/src/rDock_2013.1_src/data/scripts/dock_solv.prm

>  <Rbt.Receptor>
prm/pocket_docking_7.prm

>  <SCORE>
-12.3995

>  <SCORE.INTER>
-11.8075

>  <SCORE.INTER.CONST>
1

>  <SCORE.INTER.POLAR>
0

>  <SCORE.INTER.ROT>
3

>  <SCORE.INTER.SOLV>
5.01235

>  <SCORE.INTER.VDW>
-15.1424

>  <SCORE.INTER.norm>
-0.983958

>  <SCORE.INTRA>
-0.591999

>  <SCORE.INTRA.DIHEDRAL>
0.684218

>  <SCORE.INTRA.DIHEDRAL.0>
1.88407

>  <SCORE.INTRA.POLAR>
0

>  <SCORE.INTRA.POLAR.0>
0

>  <SCORE.INTRA.REPUL>
0

>  <SCORE.INTRA.REPUL.0>
0

>  <SCORE.INTRA.SOLV>
0.698903

>  <SCORE.INTRA.SOLV.lig_0>
-10.2714

>  <SCORE.INTRA.VDW>
-1.28356

>  <SCORE.INTRA.VDW.0>
0.416923

>  <SCORE.INTRA.norm>
-0.0493332

>  <SCORE.RESTR>
0

>  <SCORE.RESTR.CAVITY>
0

>  <SCORE.RESTR.norm>
0

>  <SCORE.SYSTEM>
0

>  <SCORE.SYSTEM.CONST>
0

>  <SCORE.SYSTEM.DIHEDRAL>
0

>  <SCORE.SYSTEM.SOLV>
0

>  <SCORE.SYSTEM.norm>
0

>  <SCORE.heavy>
12

>  <SCORE.norm>
-1.03329

>  <RMSD>
7.690

$$$$
ligand
 OpenBabel11021811433D
libRbt.so/2013.1/901 2013/11/27
 12 12  0  0  0  0  0  0  0  0999 V2000
   54.4775   12.7458   16.8624 O   0  0  0  0  0  0  0  0  0  0  0  0
   56.4696   14.3466   11.3595 O   0  0  0  0  0  0  0  0  0  0  0  0
   53.0779   12.4629   16.5598 C   0  0  0  0  0  0  0  0  0  0  0  0
   54.3881   13.0949   11.7839 O   0  0  0  0  0  0  0  0  0  0  0  0
   52.5607   13.3613   15.3990 C   0  0  0  0  0  0  0  0  0  0  0  0
   54.6283   14.8714   10.9614 O   0  0  0  0  0  0  0  0  0  0  0  0
   53.6812   14.2459   14.9259 N   0  0  0  0  0  0  0  0  0  0  0  0
   54.2019   15.0762   16.0543 C   0  0  0  0  0  0  0  0  0  0  0  0
   54.6471   14.1490   17.2206 C   0  0  0  0  0  0  0  0  0  0  0  0
   53.2471   15.1507   13.8047 C   0  0  0  0  0  0  0  0  0  0  0  0
   54.4593   15.6270   12.9684 C   0  0  0  0  0  0  0  0  0  0  0  0
   55.2491   14.2387   12.1204 S   0  0  0  0  0  0  0  0  0  0  0  0
  1  3  1  0  0  0  0
  1  9  1  0  0  0  0
  2 12  1  0  0  0  0
  3  5  1  0  0  0  0
  4 12  2  0  0  0  0
  5  7  1  0  0  0  0
  6 12  2  0  0  0  0
  7  8  1  0  0  0  0
  7 10  1  0  0  0  0
  8  9  1  0  0  0  0
 10 11  1  0  0  0  0
 11 12  1  0  0  0  0
M  END
>  <CHROM.1>
-157.56695108,64.97028483,-174.42372614,54.37928258,14.11153747,13.92017426
-3.10867643,1.29602208,0.15010379

>  <Name>
ligand

>  <RI>
0

>  <Rbt.Current_Directory>
/home/itssahil/PROJECTS/Mol_Feturizer/New_Systems/rnas/2HO6

>  <Rbt.Executable>
rbdock ($Id: //depot/dev/client3/rdock/2013.1/src/exe/rbdock.cxx#4 $)

>  <Rbt.Library>
libRbt.so (2013.1, Build901 2013/11/27)

>  <Rbt.Parameter_File>
/export/apps/rDock/src/rDock_2013.1_src/data/scripts/dock_solv.prm

>  <Rbt.Receptor>
prm/pocket_docking_7.prm

>  <SCORE>
-12.4035

>  <SCORE.INTER>
-11.8483

>  <SCORE.INTER.CONST>
1

>  <SCORE.INTER.POLAR>
0

>  <SCORE.INTER.ROT>
3

>  <SCORE.INTER.SOLV>
5.01827

>  <SCORE.INTER.VDW>
-15.1716

>  <SCORE.INTER.norm>
-0.987359

>  <SCORE.INTRA>
-0.555232

>  <SCORE.INTRA.DIHEDRAL>
0.638216

>  <SCORE.INTRA.DIHEDRAL.0>
1.88407

>  <SCORE.INTRA.POLAR>
0

>  <SCORE.INTRA.POLAR.0>
0

>  <SCORE.INTRA.REPUL>
0

>  <SCORE.INTRA.REPUL.0>
0

>  <SCORE.INTRA.SOLV>
0.687313

>  <SCORE.INTRA.SOLV.lig_0>
-10.2714

>  <SCORE.INTRA.VDW>
-1.218

>  <SCORE.INTRA.VDW.0>
0.416923

>  <SCORE.INTRA.norm>
-0.0462694

>  <SCORE.RESTR>
0

>  <SCORE.RESTR.CAVITY>
0

>  <SCORE.RESTR.norm>
0

>  <SCORE.SYSTEM>
0

>  <SCORE.SYSTEM.CONST>
0

>  <SCORE.SYSTEM.DIHEDRAL>
0

>  <SCORE.SYSTEM.SOLV>
0

>  <SCORE.SYSTEM.norm>
0

>  <SCORE.heavy>
12

>  <SCORE.norm>
-1.03363

>  <RMSD>
7.695

$$$$
ligand
 OpenBabel11021811433D
libRbt.so/2013.1/901 2013/11/27
 12 12  0  0  0  0  0  0  0  0999 V2000
   50.7997   11.4724   16.7717 O   0  0  0  0  0  0  0  0  0  0  0  0
   54.5815   14.2797   17.5089 O   0  0  0  0  0  0  0  0  0  0  0  0
   52.0715   11.3237   17.4725 C   0  0  0  0  0  0  0  0  0  0  0  0
   55.3065   16.3685   16.4178 O   0  0  0  0  0  0  0  0  0  0  0  0
   53.2427   11.9314   16.6472 C   0  0  0  0  0  0  0  0  0  0  0  0
   53.4884   15.6279   16.6082 O   0  0  0  0  0  0  0  0  0  0  0  0
   52.6962   12.5095   15.3709 N   0  0  0  0  0  0  0  0  0  0  0  0
   51.9786   11.4581   14.5877 C   0  0  0  0  0  0  0  0  0  0  0  0
   50.8602   10.8278   15.4653 C   0  0  0  0  0  0  0  0  0  0  0  0
   53.7801   13.1095   14.5169 C   0  0  0  0  0  0  0  0  0  0  0  0
   53.8882   14.6372   14.7411 C   0  0  0  0  0  0  0  0  0  0  0  0
   54.7670   15.0076   16.2776 S   0  0  0  0  0  0  0  0  0  0  0  0
  1  3  1  0  0  0  0
  1  9  1  0  0  0  0
  2 12  1  0  0  0  0
  3  5  1  0  0  0  0
  4 12  2  0  0  0  0
  5  7  1  0  0  0  0
  6 12  2  0  0  0  0
  7  8  1  0  0  0  0
  7 10  1  0  0  0  0
  8  9  1  0  0  0  0
 10 11  1  0  0  0  0
 11 12  1  0  0  0  0
M  END
>  <CHROM.1>
-96.37848230,78.03496977,-40.93608873,53.29168519,13.42924386,16.08729312
3.04260884,-0.91536504,-1.60821033

>  <Name>
ligand

>  <RI>
0

>  <Rbt.Current_Directory>
/home/itssahil/PROJECTS/Mol_Feturizer/New_Systems/rnas/2HO6

>  <Rbt.Executable>
rbdock ($Id: //depot/dev/client3/rdock/2013.1/src/exe/rbdock.cxx#4 $)

>  <Rbt.Library>
libRbt.so (2013.1, Build901 2013/11/27)

>  <Rbt.Parameter_File>
/export/apps/rDock/src/rDock_2013.1_src/data/scripts/dock_solv.prm

>  <Rbt.Receptor>
prm/pocket_docking_8.prm

>  <SCORE>
-9.13109

>  <SCORE.INTER>
-9.13257

>  <SCORE.INTER.CONST>
1

>  <SCORE.INTER.POLAR>
0

>  <SCORE.INTER.ROT>
3

>  <SCORE.INTER.SOLV>
7.59011

>  <SCORE.INTER.VDW>
-14.2184

>  <SCORE.INTER.norm>
-0.761047

>  <SCORE.INTRA>
0.00147582

>  <SCORE.INTRA.DIHEDRAL>
2.65523

>  <SCORE.INTRA.DIHEDRAL.0>
1.88407

>  <SCORE.INTRA.POLAR>
0

>  <SCORE.INTRA.POLAR.0>
0

>  <SCORE.INTRA.REPUL>
0

>  <SCORE.INTRA.REPUL.0>
0

>  <SCORE.INTRA.SOLV>
0.244427

>  <SCORE.INTRA.SOLV.lig_0>
-10.2714

>  <SCORE.INTRA.VDW>
-1.44835

>  <SCORE.INTRA.VDW.0>
0.416923

>  <SCORE.INTRA.norm>
0.000122985

>  <SCORE.RESTR>
0

>  <SCORE.RESTR.CAVITY>
0

>  <SCORE.RESTR.norm>
0

>  <SCORE.SYSTEM>
0

>  <SCORE.SYSTEM.CONST>
0

>  <SCORE.SYSTEM.DIHEDRAL>
0

>  <SCORE.SYSTEM.SOLV>
0

>  <SCORE.SYSTEM.norm>
0

>  <SCORE.heavy>
12

>  <SCORE.norm>
-0.760924

>  <RMSD>
7.806

$$$$
ligand
 OpenBabel11021811433D
libRbt.so/2013.1/901 2013/11/27
 12 12  0  0  0  0  0  0  0  0999 V2000
   50.2683   11.4789   20.1043 O   0  0  0  0  0  0  0  0  0  0  0  0
   54.9810   13.0888   14.3877 O   0  0  0  0  0  0  0  0  0  0  0  0
   51.2469   10.4276   19.8438 C   0  0  0  0  0  0  0  0  0  0  0  0
   53.4486   15.0179   14.4854 O   0  0  0  0  0  0  0  0  0  0  0  0
   51.9560   10.6457   18.4757 C   0  0  0  0  0  0  0  0  0  0  0  0
   54.7801   14.4157   15.8100 O   0  0  0  0  0  0  0  0  0  0  0  0
   51.4213   11.8994   17.8397 N   0  0  0  0  0  0  0  0  0  0  0  0
   49.9400   11.8049   17.6659 C   0  0  0  0  0  0  0  0  0  0  0  0
   49.2716   11.5208   19.0409 C   0  0  0  0  0  0  0  0  0  0  0  0
   52.0604   12.1680   16.5042 C   0  0  0  0  0  0  0  0  0  0  0  0
   53.1763   13.2342   16.6218 C   0  0  0  0  0  0  0  0  0  0  0  0
   53.8162   13.6871   14.9922 S   0  0  0  0  0  0  0  0  0  0  0  0
  1  3  1  0  0  0  0
  1  9  1  0  0  0  0
  2 12  1  0  0  0  0
  3  5  1  0  0  0  0
  4 12  2  0  0  0  0
  5  7  1  0  0  0  0
  6 12  2  0  0  0  0
  7  8  1  0  0  0  0
  7 10  1  0  0  0  0
  8  9  1  0  0  0  0
 10 11  1  0  0  0  0
 11 12  1  0  0  0  0
M  END
>  <CHROM.1>
-100.04158908,-173.73746770,-94.72238388,52.39525050,12.60679406,16.90881277
2.22423248,-0.22761125,2.32171583

>  <Name>
ligand

>  <RI>
0

>  <Rbt.Current_Directory>
/home/itssahil/PROJECTS/Mol_Feturizer/New_Systems/rnas/2HO6

>  <Rbt.Executable>
rbdock ($Id: //depot/dev/client3/rdock/2013.1/src/exe/rbdock.cxx#4 $)

>  <Rbt.Library>
libRbt.so (2013.1, Build901 2013/11/27)

>  <Rbt.Parameter_File>
/export/apps/rDock/src/rDock_2013.1_src/data/scripts/dock_solv.prm

>  <Rbt.Receptor>
prm/blind_docking_80.prm

>  <SCORE>
-10.2585

>  <SCORE.INTER>
-10.1429

>  <SCORE.INTER.CONST>
1

>  <SCORE.INTER.POLAR>
0

>  <SCORE.INTER.ROT>
3

>  <SCORE.INTER.SOLV>
5.43737

>  <SCORE.INTER.VDW>
-14.1744

>  <SCORE.INTER.norm>
-0.84524

>  <SCORE.INTRA>
-0.115616

>  <SCORE.INTRA.DIHEDRAL>
2.00717

>  <SCORE.INTRA.DIHEDRAL.0>
1.88407

>  <SCORE.INTRA.POLAR>
0

>  <SCORE.INTRA.POLAR.0>
0

>  <SCORE.INTRA.REPUL>
0

>  <SCORE.INTRA.REPUL.0>
0

>  <SCORE.INTRA.SOLV>
-0.0209584

>  <SCORE.INTRA.SOLV.lig_0>
-10.2714

>  <SCORE.INTRA.VDW>
-1.10872

>  <SCORE.INTRA.VDW.0>
0.416923

>  <SCORE.INTRA.norm>
-0.00963467

>  <SCORE.RESTR>
0

>  <SCORE.RESTR.CAVITY>
0

>  <SCORE.RESTR.norm>
0

>  <SCORE.SYSTEM>
0

>  <SCORE.SYSTEM.CONST>
0

>  <SCORE.SYSTEM.DIHEDRAL>
0

>  <SCORE.SYSTEM.SOLV>
0

>  <SCORE.SYSTEM.norm>
0

>  <SCORE.heavy>
12

>  <SCORE.norm>
-0.854874

>  <RMSD>
8.189

$$$$
ligand
 OpenBabel11021811433D
libRbt.so/2013.1/901 2013/11/27
 12 12  0  0  0  0  0  0  0  0999 V2000
   49.0256   10.5759   18.4811 O   0  0  0  0  0  0  0  0  0  0  0  0
   54.7910   14.4532   16.6774 O   0  0  0  0  0  0  0  0  0  0  0  0
   49.0379   12.0261   18.3160 C   0  0  0  0  0  0  0  0  0  0  0  0
   54.8441   13.4710   14.4165 O   0  0  0  0  0  0  0  0  0  0  0  0
   50.4505   12.5333   17.9046 C   0  0  0  0  0  0  0  0  0  0  0  0
   53.3848   14.4440   15.3187 O   0  0  0  0  0  0  0  0  0  0  0  0
   51.3792   11.3565   17.7842 N   0  0  0  0  0  0  0  0  0  0  0  0
   51.4356   10.6029   19.0736 C   0  0  0  0  0  0  0  0  0  0  0  0
   50.0003   10.1700   19.4867 C   0  0  0  0  0  0  0  0  0  0  0  0
   52.7707   11.7768   17.3952 C   0  0  0  0  0  0  0  0  0  0  0  0
   52.7737   12.5085   16.0312 C   0  0  0  0  0  0  0  0  0  0  0  0
   54.3150   13.4225   15.7879 S   0  0  0  0  0  0  0  0  0  0  0  0
  1  3  1  0  0  0  0
  1  9  1  0  0  0  0
  2 12  1  0  0  0  0
  3  5  1  0  0  0  0
  4 12  2  0  0  0  0
  5  7  1  0  0  0  0
  6 12  2  0  0  0  0
  7  8  1  0  0  0  0
  7 10  1  0  0  0  0
  8  9  1  0  0  0  0
 10 11  1  0  0  0  0
 11 12  1  0  0  0  0
M  END
>  <CHROM.1>
-59.95113573,163.49015463,-58.33813273,52.27115256,12.42362592,17.04887437
2.39024261,-0.12986184,2.43574131

>  <Name>
ligand

>  <RI>
0

>  <Rbt.Current_Directory>
/home/itssahil/PROJECTS/Mol_Feturizer/New_Systems/rnas/2HO6

>  <Rbt.Executable>
rbdock ($Id: //depot/dev/client3/rdock/2013.1/src/exe/rbdock.cxx#4 $)

>  <Rbt.Library>
libRbt.so (2013.1, Build901 2013/11/27)

>  <Rbt.Parameter_File>
/export/apps/rDock/src/rDock_2013.1_src/data/scripts/dock_solv.prm

>  <Rbt.Receptor>
prm/pocket_docking_8.prm

>  <SCORE>
-9.03295

>  <SCORE.INTER>
-9.25163

>  <SCORE.INTER.CONST>
1

>  <SCORE.INTER.POLAR>
0

>  <SCORE.INTER.ROT>
3

>  <SCORE.INTER.SOLV>
7.01611

>  <SCORE.INTER.VDW>
-14.1065

>  <SCORE.INTER.norm>
-0.770969

>  <SCORE.INTRA>
0.218683

>  <SCORE.INTRA.DIHEDRAL>
0.868492

>  <SCORE.INTRA.DIHEDRAL.0>
1.88407

>  <SCORE.INTRA.POLAR>
0

>  <SCORE.INTRA.POLAR.0>
0

>  <SCORE.INTRA.REPUL>
0

>  <SCORE.INTRA.REPUL.0>
0

>  <SCORE.INTRA.SOLV>
-0.018675

>  <SCORE.INTRA.SOLV.lig_0>
-10.2714

>  <SCORE.INTRA.VDW>
-0.206225

>  <SCORE.INTRA.VDW.0>
0.416923

>  <SCORE.INTRA.norm>
0.0182236

>  <SCORE.RESTR>
0

>  <SCORE.RESTR.CAVITY>
0

>  <SCORE.RESTR.norm>
0

>  <SCORE.SYSTEM>
0

>  <SCORE.SYSTEM.CONST>
0

>  <SCORE.SYSTEM.DIHEDRAL>
0

>  <SCORE.SYSTEM.SOLV>
0

>  <SCORE.SYSTEM.norm>
0

>  <SCORE.heavy>
12

>  <SCORE.norm>
-0.752746

>  <RMSD>
8.265

$$$$
ligand
 OpenBabel11021811433D
libRbt.so/2013.1/901 2013/11/27
 12 12  0  0  0  0  0  0  0  0999 V2000
   54.5586   12.0241   22.8149 O   0  0  0  0  0  0  0  0  0  0  0  0
   49.0081    9.6579   18.8357 O   0  0  0  0  0  0  0  0  0  0  0  0
   55.1475   11.7330   21.5114 C   0  0  0  0  0  0  0  0  0  0  0  0
   48.0593   11.9336   18.8184 O   0  0  0  0  0  0  0  0  0  0  0  0
   54.0729   11.2145   20.5121 C   0  0  0  0  0  0  0  0  0  0  0  0
   49.8103   11.3084   18.1602 O   0  0  0  0  0  0  0  0  0  0  0  0
   52.7353   11.1883   21.1990 N   0  0  0  0  0  0  0  0  0  0  0  0
   52.7923   10.3263   22.4185 C   0  0  0  0  0  0  0  0  0  0  0  0
   53.9197   10.8332   23.3620 C   0  0  0  0  0  0  0  0  0  0  0  0
   51.6466   10.6873   20.2890 C   0  0  0  0  0  0  0  0  0  0  0  0
   50.5093   11.7282   20.1508 C   0  0  0  0  0  0  0  0  0  0  0  0
   49.0522   10.9978   19.3675 S   0  0  0  0  0  0  0  0  0  0  0  0
  1  3  1  0  0  0  0
  1  9  1  0  0  0  0
  2 12  1  0  0  0  0
  3  5  1  0  0  0  0
  4 12  2  0  0  0  0
  5  7  1  0  0  0  0
  6 12  2  0  0  0  0
  7  8  1  0  0  0  0
  7 10  1  0  0  0  0
  8  9  1  0  0  0  0
 10 11  1  0  0  0  0
 11 12  1  0  0  0  0
M  END
>  <CHROM.1>
-122.59754020,-167.49967698,-5.22356729,51.46543691,11.12707703,20.46451642
-0.49497498,-0.27795088,-1.18970813

>  <Name>
ligand

>  <RI>
0

>  <Rbt.Current_Directory>
/home/itssahil/PROJECTS/Mol_Feturizer/New_Systems/rnas/2HO6

>  <Rbt.Executable>
rbdock ($Id: //depot/dev/client3/rdock/2013.1/src/exe/rbdock.cxx#4 $)

>  <Rbt.Library>
libRbt.so (2013.1, Build901 2013/11/27)

>  <Rbt.Parameter_File>
/export/apps/rDock/src/rDock_2013.1_src/data/scripts/dock_solv.prm

>  <Rbt.Receptor>
prm/blind_docking_80.prm

>  <SCORE>
-16.1917

>  <SCORE.INTER>
-16.8068

>  <SCORE.INTER.CONST>
1

>  <SCORE.INTER.POLAR>
0

>  <SCORE.INTER.ROT>
3

>  <SCORE.INTER.SOLV>
8.03054

>  <SCORE.INTER.VDW>
-19.4813

>  <SCORE.INTER.norm>
-1.40056

>  <SCORE.INTRA>
0.615081

>  <SCORE.INTRA.DIHEDRAL>
2.8534

>  <SCORE.INTRA.DIHEDRAL.0>
1.88407

>  <SCORE.INTRA.POLAR>
0

>  <SCORE.INTRA.POLAR.0>
0

>  <SCORE.INTRA.REPUL>
0

>  <SCORE.INTRA.REPUL.0>
0

>  <SCORE.INTRA.SOLV>
-0.00506252

>  <SCORE.INTRA.SOLV.lig_0>
-10.2714

>  <SCORE.INTRA.VDW>
-0.809085

>  <SCORE.INTRA.VDW.0>
0.416923

>  <SCORE.INTRA.norm>
0.0512568

>  <SCORE.RESTR>
0

>  <SCORE.RESTR.CAVITY>
0

>  <SCORE.RESTR.norm>
0

>  <SCORE.SYSTEM>
0

>  <SCORE.SYSTEM.CONST>
0

>  <SCORE.SYSTEM.DIHEDRAL>
0

>  <SCORE.SYSTEM.SOLV>
0

>  <SCORE.SYSTEM.norm>
0

>  <SCORE.heavy>
12

>  <SCORE.norm>
-1.34931

>  <RMSD>
9.579

$$$$
ligand
 OpenBabel11021811433D
libRbt.so/2013.1/901 2013/11/27
 12 12  0  0  0  0  0  0  0  0999 V2000
   54.5414   12.0286   22.8482 O   0  0  0  0  0  0  0  0  0  0  0  0
   49.0232    9.6627   18.7926 O   0  0  0  0  0  0  0  0  0  0  0  0
   55.1223   11.7574   21.5369 C   0  0  0  0  0  0  0  0  0  0  0  0
   48.0641   11.9339   18.8264 O   0  0  0  0  0  0  0  0  0  0  0  0
   54.0480   11.2235   20.5454 C   0  0  0  0  0  0  0  0  0  0  0  0
   49.8076   11.3276   18.1316 O   0  0  0  0  0  0  0  0  0  0  0  0
   52.7184   11.1660   21.2460 N   0  0  0  0  0  0  0  0  0  0  0  0
   52.8056   10.2979   22.4594 C   0  0  0  0  0  0  0  0  0  0  0  0
   53.9324   10.8217   23.3944 C   0  0  0  0  0  0  0  0  0  0  0  0
   51.6305   10.6488   20.3442 C   0  0  0  0  0  0  0  0  0  0  0  0
   50.5352   11.7187   20.1177 C   0  0  0  0  0  0  0  0  0  0  0  0
   49.0694   10.9941   19.3452 S   0  0  0  0  0  0  0  0  0  0  0  0
  1  3  1  0  0  0  0
  1  9  1  0  0  0  0
  2 12  1  0  0  0  0
  3  5  1  0  0  0  0
  4 12  2  0  0  0  0
  5  7  1  0  0  0  0
  6 12  2  0  0  0  0
  7  8  1  0  0  0  0
  7 10  1  0  0  0  0
  8  9  1  0  0  0  0
 10 11  1  0  0  0  0
 11 12  1  0  0  0  0
M  END
>  <CHROM.1>
-117.25341739,-167.61313615,-10.60243439,51.46603900,11.12328905,20.47283009
-0.49346616,-0.30414172,-1.14855101

>  <Name>
ligand

>  <RI>
0

>  <Rbt.Current_Directory>
/home/itssahil/PROJECTS/Mol_Feturizer/New_Systems/rnas/2HO6

>  <Rbt.Executable>
rbdock ($Id: //depot/dev/client3/rdock/2013.1/src/exe/rbdock.cxx#4 $)

>  <Rbt.Library>
libRbt.so (2013.1, Build901 2013/11/27)

>  <Rbt.Parameter_File>
/export/apps/rDock/src/rDock_2013.1_src/data/scripts/dock_solv.prm

>  <Rbt.Receptor>
prm/blind_docking_80.prm

>  <SCORE>
-16.1647

>  <SCORE.INTER>
-16.629

>  <SCORE.INTER.CONST>
1

>  <SCORE.INTER.POLAR>
0

>  <SCORE.INTER.ROT>
3

>  <SCORE.INTER.SOLV>
8.01645

>  <SCORE.INTER.VDW>
-19.3582

>  <SCORE.INTER.norm>
-1.38575

>  <SCORE.INTRA>
0.464328

>  <SCORE.INTRA.DIHEDRAL>
2.84394

>  <SCORE.INTRA.DIHEDRAL.0>
1.88407

>  <SCORE.INTRA.POLAR>
0

>  <SCORE.INTRA.POLAR.0>
0

>  <SCORE.INTRA.REPUL>
0

>  <SCORE.INTRA.REPUL.0>
0

>  <SCORE.INTRA.SOLV>
-0.0266938

>  <SCORE.INTRA.SOLV.lig_0>
-10.2714

>  <SCORE.INTRA.VDW>
-0.944297

>  <SCORE.INTRA.VDW.0>
0.416923

>  <SCORE.INTRA.norm>
0.038694

>  <SCORE.RESTR>
0

>  <SCORE.RESTR.CAVITY>
0

>  <SCORE.RESTR.norm>
0

>  <SCORE.SYSTEM>
0

>  <SCORE.SYSTEM.CONST>
0

>  <SCORE.SYSTEM.DIHEDRAL>
0

>  <SCORE.SYSTEM.SOLV>
0

>  <SCORE.SYSTEM.norm>
0

>  <SCORE.heavy>
12

>  <SCORE.norm>
-1.34706

>  <RMSD>
9.594

$$$$
ligand
 OpenBabel11021811433D
libRbt.so/2013.1/901 2013/11/27
 12 12  0  0  0  0  0  0  0  0999 V2000
   54.4352   11.7919   22.9821 O   0  0  0  0  0  0  0  0  0  0  0  0
   48.2555   12.0571   18.3603 O   0  0  0  0  0  0  0  0  0  0  0  0
   55.0786   11.7083   21.6746 C   0  0  0  0  0  0  0  0  0  0  0  0
   48.8537    9.7690   19.0573 O   0  0  0  0  0  0  0  0  0  0  0  0
   54.0620   11.2886   20.5734 C   0  0  0  0  0  0  0  0  0  0  0  0
   48.4339   11.3414   20.1714 O   0  0  0  0  0  0  0  0  0  0  0  0
   52.7056   11.1122   21.1986 N   0  0  0  0  0  0  0  0  0  0  0  0
   52.7633   10.0931   22.2902 C   0  0  0  0  0  0  0  0  0  0  0  0
   53.8350   10.5113   23.3366 C   0  0  0  0  0  0  0  0  0  0  0  0
   51.6712   10.6968   20.1877 C   0  0  0  0  0  0  0  0  0  0  0  0
   50.5434   11.7510   20.0752 C   0  0  0  0  0  0  0  0  0  0  0  0
   49.2351   11.1861   18.9619 S   0  0  0  0  0  0  0  0  0  0  0  0
  1  3  1  0  0  0  0
  1  9  1  0  0  0  0
  2 12  1  0  0  0  0
  3  5  1  0  0  0  0
  4 12  2  0  0  0  0
  5  7  1  0  0  0  0
  6 12  2  0  0  0  0
  7  8  1  0  0  0  0
  7 10  1  0  0  0  0
  8  9  1  0  0  0  0
 10 11  1  0  0  0  0
 11 12  1  0  0  0  0
M  END
>  <CHROM.1>
-118.45069443,-175.33396632,-161.97098452,51.36366840,11.12138780,20.54983679
-0.44500708,-0.31673856,-0.99210190

>  <Name>
ligand

>  <RI>
0

>  <Rbt.Current_Directory>
/home/itssahil/PROJECTS/Mol_Feturizer/New_Systems/rnas/2HO6

>  <Rbt.Executable>
rbdock ($Id: //depot/dev/client3/rdock/2013.1/src/exe/rbdock.cxx#4 $)

>  <Rbt.Library>
libRbt.so (2013.1, Build901 2013/11/27)

>  <Rbt.Parameter_File>
/export/apps/rDock/src/rDock_2013.1_src/data/scripts/dock_solv.prm

>  <Rbt.Receptor>
prm/blind_docking_100.prm

>  <SCORE>
-16.1369

>  <SCORE.INTER>
-16.192

>  <SCORE.INTER.CONST>
1

>  <SCORE.INTER.POLAR>
0

>  <SCORE.INTER.ROT>
3

>  <SCORE.INTER.SOLV>
8.96052

>  <SCORE.INTER.VDW>
-19.3815

>  <SCORE.INTER.norm>
-1.34933

>  <SCORE.INTRA>
0.0550688

>  <SCORE.INTRA.DIHEDRAL>
2.32663

>  <SCORE.INTRA.DIHEDRAL.0>
1.88407

>  <SCORE.INTRA.POLAR>
0

>  <SCORE.INTRA.POLAR.0>
0

>  <SCORE.INTRA.REPUL>
0

>  <SCORE.INTRA.REPUL.0>
0

>  <SCORE.INTRA.SOLV>
0.131111

>  <SCORE.INTRA.SOLV.lig_0>
-10.2714

>  <SCORE.INTRA.VDW>
-1.1738

>  <SCORE.INTRA.VDW.0>
0.416923

>  <SCORE.INTRA.norm>
0.00458906

>  <SCORE.RESTR>
0

>  <SCORE.RESTR.CAVITY>
0

>  <SCORE.RESTR.norm>
0

>  <SCORE.SYSTEM>
0

>  <SCORE.SYSTEM.CONST>
0

>  <SCORE.SYSTEM.DIHEDRAL>
0

>  <SCORE.SYSTEM.SOLV>
0

>  <SCORE.SYSTEM.norm>
0

>  <SCORE.heavy>
12

>  <SCORE.norm>
-1.34474

>  <RMSD>
9.642

$$$$
ligand
 OpenBabel11021811433D
libRbt.so/2013.1/901 2013/11/27
 12 12  0  0  0  0  0  0  0  0999 V2000
   54.4765   11.9134   22.9499 O   0  0  0  0  0  0  0  0  0  0  0  0
   48.1922   12.1075   18.4933 O   0  0  0  0  0  0  0  0  0  0  0  0
   55.1751   11.6340   21.6990 C   0  0  0  0  0  0  0  0  0  0  0  0
   48.8837    9.8064   19.0466 O   0  0  0  0  0  0  0  0  0  0  0  0
   54.1757   11.2427   20.5720 C   0  0  0  0  0  0  0  0  0  0  0  0
   48.3923   11.2848   20.2560 O   0  0  0  0  0  0  0  0  0  0  0  0
   52.7755   11.2897   21.1190 N   0  0  0  0  0  0  0  0  0  0  0  0
   52.6435   10.3745   22.2931 C   0  0  0  0  0  0  0  0  0  0  0  0
   53.7003   10.7526   23.3693 C   0  0  0  0  0  0  0  0  0  0  0  0
   51.7540   10.9131   20.0803 C   0  0  0  0  0  0  0  0  0  0  0  0
   50.4830   11.7881   20.2020 C   0  0  0  0  0  0  0  0  0  0  0  0
   49.2051   11.2415   19.0451 S   0  0  0  0  0  0  0  0  0  0  0  0
  1  3  1  0  0  0  0
  1  9  1  0  0  0  0
  2 12  1  0  0  0  0
  3  5  1  0  0  0  0
  4 12  2  0  0  0  0
  5  7  1  0  0  0  0
  6 12  2  0  0  0  0
  7  8  1  0  0  0  0
  7 10  1  0  0  0  0
  8  9  1  0  0  0  0
 10 11  1  0  0  0  0
 11 12  1  0  0  0  0
M  END
>  <CHROM.1>
-141.38025356,-175.23159164,-152.32200688,51.35938223,11.20327509,20.57783031
0.48752537,0.18576174,1.87563528

>  <Name>
ligand

>  <RI>
0

>  <Rbt.Current_Directory>
/home/itssahil/PROJECTS/Mol_Feturizer/New_Systems/rnas/2HO6

>  <Rbt.Executable>
rbdock ($Id: //depot/dev/client3/rdock/2013.1/src/exe/rbdock.cxx#4 $)

>  <Rbt.Library>
libRbt.so (2013.1, Build901 2013/11/27)

>  <Rbt.Parameter_File>
/export/apps/rDock/src/rDock_2013.1_src/data/scripts/dock_solv.prm

>  <Rbt.Receptor>
prm/blind_docking_80.prm

>  <SCORE>
-16.7104

>  <SCORE.INTER>
-16.4557

>  <SCORE.INTER.CONST>
1

>  <SCORE.INTER.POLAR>
0

>  <SCORE.INTER.ROT>
3

>  <SCORE.INTER.SOLV>
9.05728

>  <SCORE.INTER.VDW>
-19.5896

>  <SCORE.INTER.norm>
-1.37131

>  <SCORE.INTRA>
-0.254661

>  <SCORE.INTRA.DIHEDRAL>
1.57524

>  <SCORE.INTRA.DIHEDRAL.0>
1.88407

>  <SCORE.INTRA.POLAR>
0

>  <SCORE.INTRA.POLAR.0>
0

>  <SCORE.INTRA.REPUL>
0

>  <SCORE.INTRA.REPUL.0>
0

>  <SCORE.INTRA.SOLV>
0.111016

>  <SCORE.INTRA.SOLV.lig_0>
-10.2714

>  <SCORE.INTRA.VDW>
-1.09779

>  <SCORE.INTRA.VDW.0>
0.416923

>  <SCORE.INTRA.norm>
-0.0212218

>  <SCORE.RESTR>
0

>  <SCORE.RESTR.CAVITY>
0

>  <SCORE.RESTR.norm>
0

>  <SCORE.SYSTEM>
0

>  <SCORE.SYSTEM.CONST>
0

>  <SCORE.SYSTEM.DIHEDRAL>
0

>  <SCORE.SYSTEM.SOLV>
0

>  <SCORE.SYSTEM.norm>
0

>  <SCORE.heavy>
12

>  <SCORE.norm>
-1.39253

>  <RMSD>
9.645

$$$$
ligand
 OpenBabel11021811433D
libRbt.so/2013.1/901 2013/11/27
 12 12  0  0  0  0  0  0  0  0999 V2000
   54.2923   12.1200   23.0850 O   0  0  0  0  0  0  0  0  0  0  0  0
   49.3753   11.1478   17.2675 O   0  0  0  0  0  0  0  0  0  0  0  0
   55.1018   11.7834   21.9179 C   0  0  0  0  0  0  0  0  0  0  0  0
   48.8953    9.5087   19.0458 O   0  0  0  0  0  0  0  0  0  0  0  0
   54.2408   11.1052   20.8130 C   0  0  0  0  0  0  0  0  0  0  0  0
   48.8179   11.4783   19.1125 O   0  0  0  0  0  0  0  0  0  0  0  0
   52.8154   11.0187   21.2849 N   0  0  0  0  0  0  0  0  0  0  0  0
   52.7365   10.2568   22.5682 C   0  0  0  0  0  0  0  0  0  0  0  0
   53.6593   10.9238   23.6273 C   0  0  0  0  0  0  0  0  0  0  0  0
   51.9249   10.3633   20.2643 C   0  0  0  0  0  0  0  0  0  0  0  0
   50.8818   11.3623   19.7075 C   0  0  0  0  0  0  0  0  0  0  0  0
   49.7816   10.5575   18.5192 S   0  0  0  0  0  0  0  0  0  0  0  0
  1  3  1  0  0  0  0
  1  9  1  0  0  0  0
  2 12  1  0  0  0  0
  3  5  1  0  0  0  0
  4 12  2  0  0  0  0
  5  7  1  0  0  0  0
  6 12  2  0  0  0  0
  7  8  1  0  0  0  0
  7 10  1  0  0  0  0
  8  9  1  0  0  0  0
 10 11  1  0  0  0  0
 11 12  1  0  0  0  0
M  END
>  <CHROM.1>
-114.13787944,-178.26059963,-136.94521193,51.62003740,10.93448386,20.36816774
-0.62084888,-0.37784984,-1.25698207

>  <Name>
ligand

>  <RI>
0

>  <Rbt.Current_Directory>
/home/itssahil/PROJECTS/Mol_Feturizer/New_Systems/rnas/2HO6

>  <Rbt.Executable>
rbdock ($Id: //depot/dev/client3/rdock/2013.1/src/exe/rbdock.cxx#4 $)

>  <Rbt.Library>
libRbt.so (2013.1, Build901 2013/11/27)

>  <Rbt.Parameter_File>
/export/apps/rDock/src/rDock_2013.1_src/data/scripts/dock_solv.prm

>  <Rbt.Receptor>
prm/blind_docking_80.prm

>  <SCORE>
-15.0902

>  <SCORE.INTER>
-15.074

>  <SCORE.INTER.CONST>
1

>  <SCORE.INTER.POLAR>
0

>  <SCORE.INTER.ROT>
3

>  <SCORE.INTER.SOLV>
8.92335

>  <SCORE.INTER.VDW>
-18.6238

>  <SCORE.INTER.norm>
-1.25617

>  <SCORE.INTRA>
-0.0162514

>  <SCORE.INTRA.DIHEDRAL>
2.24266

>  <SCORE.INTRA.DIHEDRAL.0>
1.88407

>  <SCORE.INTRA.POLAR>
0

>  <SCORE.INTRA.POLAR.0>
0

>  <SCORE.INTRA.REPUL>
0

>  <SCORE.INTRA.REPUL.0>
0

>  <SCORE.INTRA.SOLV>
0.0702101

>  <SCORE.INTRA.SOLV.lig_0>
-10.2714

>  <SCORE.INTRA.VDW>
-1.17269

>  <SCORE.INTRA.VDW.0>
0.416923

>  <SCORE.INTRA.norm>
-0.00135429

>  <SCORE.RESTR>
0

>  <SCORE.RESTR.CAVITY>
0

>  <SCORE.RESTR.norm>
0

>  <SCORE.SYSTEM>
0

>  <SCORE.SYSTEM.CONST>
0

>  <SCORE.SYSTEM.DIHEDRAL>
0

>  <SCORE.SYSTEM.SOLV>
0

>  <SCORE.SYSTEM.norm>
0

>  <SCORE.heavy>
12

>  <SCORE.norm>
-1.25752

>  <RMSD>
9.656

$$$$
ligand
 OpenBabel11021811433D
libRbt.so/2013.1/901 2013/11/27
 12 12  0  0  0  0  0  0  0  0999 V2000
   50.3272   11.9835   17.3267 O   0  0  0  0  0  0  0  0  0  0  0  0
   51.0921   11.0372   24.6940 O   0  0  0  0  0  0  0  0  0  0  0  0
   49.1691   11.6110   18.1334 C   0  0  0  0  0  0  0  0  0  0  0  0
   51.4953   13.4679   24.6034 O   0  0  0  0  0  0  0  0  0  0  0  0
   49.5641   11.4099   19.6252 C   0  0  0  0  0  0  0  0  0  0  0  0
   49.8545   12.4601   24.1766 O   0  0  0  0  0  0  0  0  0  0  0  0
   51.0347   11.6815   19.7849 N   0  0  0  0  0  0  0  0  0  0  0  0
   51.8305   10.7828   18.8946 C   0  0  0  0  0  0  0  0  0  0  0  0
   51.3634   10.9622   17.4222 C   0  0  0  0  0  0  0  0  0  0  0  0
   51.4885   11.4971   21.2077 C   0  0  0  0  0  0  0  0  0  0  0  0
   50.6479   12.3600   22.1796 C   0  0  0  0  0  0  0  0  0  0  0  0
   51.2603   12.2122   23.8747 S   0  0  0  0  0  0  0  0  0  0  0  0
  1  3  1  0  0  0  0
  1  9  1  0  0  0  0
  2 12  1  0  0  0  0
  3  5  1  0  0  0  0
  4 12  2  0  0  0  0
  5  7  1  0  0  0  0
  6 12  2  0  0  0  0
  7  8  1  0  0  0  0
  7 10  1  0  0  0  0
  8  9  1  0  0  0  0
 10 11  1  0  0  0  0
 11 12  1  0  0  0  0
M  END
>  <CHROM.1>
-54.79600780,-176.57928541,-72.30794288,50.80422815,11.84632567,21.33054486
1.65083246,0.37749661,-1.74544702

>  <Name>
ligand

>  <RI>
0

>  <Rbt.Current_Directory>
/home/itssahil/PROJECTS/Mol_Feturizer/New_Systems/rnas/2HO6

>  <Rbt.Executable>
rbdock ($Id: //depot/dev/client3/rdock/2013.1/src/exe/rbdock.cxx#4 $)

>  <Rbt.Library>
libRbt.so (2013.1, Build901 2013/11/27)

>  <Rbt.Parameter_File>
/export/apps/rDock/src/rDock_2013.1_src/data/scripts/dock_solv.prm

>  <Rbt.Receptor>
prm/blind_docking_60.prm

>  <SCORE>
-7.83604

>  <SCORE.INTER>
-8.17279

>  <SCORE.INTER.CONST>
1

>  <SCORE.INTER.POLAR>
0

>  <SCORE.INTER.ROT>
3

>  <SCORE.INTER.SOLV>
9.90278

>  <SCORE.INTER.VDW>
-14.3495

>  <SCORE.INTER.norm>
-0.681066

>  <SCORE.INTRA>
0.20785

>  <SCORE.INTRA.DIHEDRAL>
0.0203051

>  <SCORE.INTRA.DIHEDRAL.0>
1.88407

>  <SCORE.INTRA.POLAR>
0

>  <SCORE.INTRA.POLAR.0>
0

>  <SCORE.INTRA.REPUL>
0

>  <SCORE.INTRA.REPUL.0>
0

>  <SCORE.INTRA.SOLV>
-0.043973

>  <SCORE.INTRA.SOLV.lig_0>
-10.2714

>  <SCORE.INTRA.VDW>
0.219684

>  <SCORE.INTRA.VDW.0>
0.416923

>  <SCORE.INTRA.norm>
0.0173209

>  <SCORE.RESTR>
0.128902

>  <SCORE.RESTR.CAVITY>
0.128902

>  <SCORE.RESTR.norm>
0.0107418

>  <SCORE.SYSTEM>
0

>  <SCORE.SYSTEM.CONST>
0

>  <SCORE.SYSTEM.DIHEDRAL>
0

>  <SCORE.SYSTEM.SOLV>
0

>  <SCORE.SYSTEM.norm>
0

>  <SCORE.heavy>
12

>  <SCORE.norm>
-0.653003

>  <RMSD>
10.036

$$$$
ligand
 OpenBabel11021811433D
libRbt.so/2013.1/901 2013/11/27
 12 12  0  0  0  0  0  0  0  0999 V2000
   50.3017   12.5060   17.4646 O   0  0  0  0  0  0  0  0  0  0  0  0
   52.0436    9.5254   24.0505 O   0  0  0  0  0  0  0  0  0  0  0  0
   49.2696   12.0268   18.3789 C   0  0  0  0  0  0  0  0  0  0  0  0
   54.2051   10.6354   23.6322 O   0  0  0  0  0  0  0  0  0  0  0  0
   49.8906   11.2133   19.5513 C   0  0  0  0  0  0  0  0  0  0  0  0
   52.4236   11.4378   23.9013 O   0  0  0  0  0  0  0  0  0  0  0  0
   51.3857   11.1841   19.3912 N   0  0  0  0  0  0  0  0  0  0  0  0
   51.7572   10.5895   18.0713 C   0  0  0  0  0  0  0  0  0  0  0  0
   51.0663   11.3862   16.9285 C   0  0  0  0  0  0  0  0  0  0  0  0
   52.0530   10.4037   20.4912 C   0  0  0  0  0  0  0  0  0  0  0  0
   52.2188   11.2643   21.7670 C   0  0  0  0  0  0  0  0  0  0  0  0
   52.8676   10.2774   23.1364 S   0  0  0  0  0  0  0  0  0  0  0  0
  1  3  1  0  0  0  0
  1  9  1  0  0  0  0
  2 12  1  0  0  0  0
  3  5  1  0  0  0  0
  4 12  2  0  0  0  0
  5  7  1  0  0  0  0
  6 12  2  0  0  0  0
  7  8  1  0  0  0  0
  7 10  1  0  0  0  0
  8  9  1  0  0  0  0
 10 11  1  0  0  0  0
 11 12  1  0  0  0  0
M  END
>  <CHROM.1>
-81.55626944,174.30383762,-87.80536445,51.76429202,10.96643572,20.87170428
1.99192894,0.33494003,-1.50684210

>  <Name>
ligand

>  <RI>
0

>  <Rbt.Current_Directory>
/home/itssahil/PROJECTS/Mol_Feturizer/New_Systems/rnas/2HO6

>  <Rbt.Executable>
rbdock ($Id: //depot/dev/client3/rdock/2013.1/src/exe/rbdock.cxx#4 $)

>  <Rbt.Library>
libRbt.so (2013.1, Build901 2013/11/27)

>  <Rbt.Parameter_File>
/export/apps/rDock/src/rDock_2013.1_src/data/scripts/dock_solv.prm

>  <Rbt.Receptor>
prm/blind_docking_80.prm

>  <SCORE>
-12.0446

>  <SCORE.INTER>
-11.5489

>  <SCORE.INTER.CONST>
1

>  <SCORE.INTER.POLAR>
0

>  <SCORE.INTER.ROT>
3

>  <SCORE.INTER.SOLV>
6.28747

>  <SCORE.INTER.VDW>
-15.3951

>  <SCORE.INTER.norm>
-0.962407

>  <SCORE.INTRA>
-0.49572

>  <SCORE.INTRA.DIHEDRAL>
0.870835

>  <SCORE.INTRA.DIHEDRAL.0>
1.88407

>  <SCORE.INTRA.POLAR>
0

>  <SCORE.INTRA.POLAR.0>
0

>  <SCORE.INTRA.REPUL>
0

>  <SCORE.INTRA.REPUL.0>
0

>  <SCORE.INTRA.SOLV>
-0.0278462

>  <SCORE.INTRA.SOLV.lig_0>
-10.2714

>  <SCORE.INTRA.VDW>
-0.917215

>  <SCORE.INTRA.VDW.0>
0.416923

>  <SCORE.INTRA.norm>
-0.04131

>  <SCORE.RESTR>
0

>  <SCORE.RESTR.CAVITY>
0

>  <SCORE.RESTR.norm>
0

>  <SCORE.SYSTEM>
0

>  <SCORE.SYSTEM.CONST>
0

>  <SCORE.SYSTEM.DIHEDRAL>
0

>  <SCORE.SYSTEM.SOLV>
0

>  <SCORE.SYSTEM.norm>
0

>  <SCORE.heavy>
12

>  <SCORE.norm>
-1.00372

>  <RMSD>
10.113

$$$$
ligand
 OpenBabel11021811433D
libRbt.so/2013.1/901 2013/11/27
 12 12  0  0  0  0  0  0  0  0999 V2000
   50.1592   12.3972   17.7175 O   0  0  0  0  0  0  0  0  0  0  0  0
   55.5796   10.6625   21.4016 O   0  0  0  0  0  0  0  0  0  0  0  0
   49.3097   11.6739   18.6587 C   0  0  0  0  0  0  0  0  0  0  0  0
   54.8367   12.4847   22.8872 O   0  0  0  0  0  0  0  0  0  0  0  0
   50.1623   10.8600   19.6749 C   0  0  0  0  0  0  0  0  0  0  0  0
   54.3732   10.5683   22.9377 O   0  0  0  0  0  0  0  0  0  0  0  0
   51.6206   11.0845   19.3835 N   0  0  0  0  0  0  0  0  0  0  0  0
   51.9387   10.6869   17.9784 C   0  0  0  0  0  0  0  0  0  0  0  0
   51.0229   11.4704   16.9957 C   0  0  0  0  0  0  0  0  0  0  0  0
   52.5064   10.3175   20.3276 C   0  0  0  0  0  0  0  0  0  0  0  0
   52.7485   11.1089   21.6356 C   0  0  0  0  0  0  0  0  0  0  0  0
   54.4995   11.5147   21.8345 S   0  0  0  0  0  0  0  0  0  0  0  0
  1  3  1  0  0  0  0
  1  9  1  0  0  0  0
  2 12  1  0  0  0  0
  3  5  1  0  0  0  0
  4 12  2  0  0  0  0
  5  7  1  0  0  0  0
  6 12  2  0  0  0  0
  7  8  1  0  0  0  0
  7 10  1  0  0  0  0
  8  9  1  0  0  0  0
 10 11  1  0  0  0  0
 11 12  1  0  0  0  0
M  END
>  <CHROM.1>
-85.31204387,-116.97486076,-34.23632274,52.64627526,11.27359092,20.32408499
2.38435812,0.14211722,-1.67493103

>  <Name>
ligand

>  <RI>
0

>  <Rbt.Current_Directory>
/home/itssahil/PROJECTS/Mol_Feturizer/New_Systems/rnas/2HO6

>  <Rbt.Executable>
rbdock ($Id: //depot/dev/client3/rdock/2013.1/src/exe/rbdock.cxx#4 $)

>  <Rbt.Library>
libRbt.so (2013.1, Build901 2013/11/27)

>  <Rbt.Parameter_File>
/export/apps/rDock/src/rDock_2013.1_src/data/scripts/dock_solv.prm

>  <Rbt.Receptor>
prm/blind_docking_100.prm

>  <SCORE>
-13.1366

>  <SCORE.INTER>
-15.2479

>  <SCORE.INTER.CONST>
1

>  <SCORE.INTER.POLAR>
0

>  <SCORE.INTER.ROT>
3

>  <SCORE.INTER.SOLV>
7.7362

>  <SCORE.INTER.VDW>
-18.344

>  <SCORE.INTER.norm>
-1.27066

>  <SCORE.INTRA>
2.11138

>  <SCORE.INTRA.DIHEDRAL>
6.31386

>  <SCORE.INTRA.DIHEDRAL.0>
1.88407

>  <SCORE.INTRA.POLAR>
0

>  <SCORE.INTRA.POLAR.0>
0

>  <SCORE.INTRA.REPUL>
0

>  <SCORE.INTRA.REPUL.0>
0

>  <SCORE.INTRA.SOLV>
0.00303069

>  <SCORE.INTRA.SOLV.lig_0>
-10.2714

>  <SCORE.INTRA.VDW>
-1.04707

>  <SCORE.INTRA.VDW.0>
0.416923

>  <SCORE.INTRA.norm>
0.175948

>  <SCORE.RESTR>
0

>  <SCORE.RESTR.CAVITY>
0

>  <SCORE.RESTR.norm>
0

>  <SCORE.SYSTEM>
0

>  <SCORE.SYSTEM.CONST>
0

>  <SCORE.SYSTEM.DIHEDRAL>
0

>  <SCORE.SYSTEM.SOLV>
0

>  <SCORE.SYSTEM.norm>
0

>  <SCORE.heavy>
12

>  <SCORE.norm>
-1.09471

>  <RMSD>
10.214

$$$$
ligand
 OpenBabel11021811433D
libRbt.so/2013.1/901 2013/11/27
 12 12  0  0  0  0  0  0  0  0999 V2000
   55.6881    9.7839   22.6722 O   0  0  0  0  0  0  0  0  0  0  0  0
   49.1191    9.7238   18.8423 O   0  0  0  0  0  0  0  0  0  0  0  0
   54.9516   10.4899   23.7161 C   0  0  0  0  0  0  0  0  0  0  0  0
   49.8674   12.0723   18.9047 O   0  0  0  0  0  0  0  0  0  0  0  0
   53.5808   11.0038   23.1878 C   0  0  0  0  0  0  0  0  0  0  0  0
   50.7148   10.5169   18.0370 O   0  0  0  0  0  0  0  0  0  0  0  0
   53.4245   10.5951   21.7489 N   0  0  0  0  0  0  0  0  0  0  0  0
   54.5509   11.1349   20.9283 C   0  0  0  0  0  0  0  0  0  0  0  0
   55.9051   10.6560   21.5241 C   0  0  0  0  0  0  0  0  0  0  0  0
   52.1188   11.0682   21.1696 C   0  0  0  0  0  0  0  0  0  0  0  0
   51.7359   10.2516   19.9117 C   0  0  0  0  0  0  0  0  0  0  0  0
   50.0758   10.6825   19.3382 S   0  0  0  0  0  0  0  0  0  0  0  0
  1  3  1  0  0  0  0
  1  9  1  0  0  0  0
  2 12  1  0  0  0  0
  3  5  1  0  0  0  0
  4 12  2  0  0  0  0
  5  7  1  0  0  0  0
  6 12  2  0  0  0  0
  7  8  1  0  0  0  0
  7 10  1  0  0  0  0
  8  9  1  0  0  0  0
 10 11  1  0  0  0  0
 11 12  1  0  0  0  0
M  END
>  <CHROM.1>
-159.77942842,173.01458895,-140.07845141,52.35314912,10.66081749,20.64349024
-0.62220680,0.06295435,-1.60716286

>  <Name>
ligand

>  <RI>
0

>  <Rbt.Current_Directory>
/home/itssahil/PROJECTS/Mol_Feturizer/New_Systems/rnas/2HO6

>  <Rbt.Executable>
rbdock ($Id: //depot/dev/client3/rdock/2013.1/src/exe/rbdock.cxx#4 $)

>  <Rbt.Library>
libRbt.so (2013.1, Build901 2013/11/27)

>  <Rbt.Parameter_File>
/export/apps/rDock/src/rDock_2013.1_src/data/scripts/dock_solv.prm

>  <Rbt.Receptor>
prm/blind_docking_100.prm

>  <SCORE>
-15.8988

>  <SCORE.INTER>
-15.5189

>  <SCORE.INTER.CONST>
1

>  <SCORE.INTER.POLAR>
0

>  <SCORE.INTER.ROT>
3

>  <SCORE.INTER.SOLV>
5.60493

>  <SCORE.INTER.VDW>
-17.8143

>  <SCORE.INTER.norm>
-1.29325

>  <SCORE.INTRA>
-0.379847

>  <SCORE.INTRA.DIHEDRAL>
0.586522

>  <SCORE.INTRA.DIHEDRAL.0>
1.88407

>  <SCORE.INTRA.POLAR>
0

>  <SCORE.INTRA.POLAR.0>
0

>  <SCORE.INTRA.REPUL>
0

>  <SCORE.INTRA.REPUL.0>
0

>  <SCORE.INTRA.SOLV>
0.0832759

>  <SCORE.INTRA.SOLV.lig_0>
-10.2714

>  <SCORE.INTRA.VDW>
-0.714747

>  <SCORE.INTRA.VDW.0>
0.416923

>  <SCORE.INTRA.norm>
-0.0316539

>  <SCORE.RESTR>
0

>  <SCORE.RESTR.CAVITY>
0

>  <SCORE.RESTR.norm>
0

>  <SCORE.SYSTEM>
0

>  <SCORE.SYSTEM.CONST>
0

>  <SCORE.SYSTEM.DIHEDRAL>
0

>  <SCORE.SYSTEM.SOLV>
0

>  <SCORE.SYSTEM.norm>
0

>  <SCORE.heavy>
12

>  <SCORE.norm>
-1.3249

>  <RMSD>
10.253

$$$$
ligand
 OpenBabel11021811433D
libRbt.so/2013.1/901 2013/11/27
 12 12  0  0  0  0  0  0  0  0999 V2000
   55.7569    9.8084   22.7172 O   0  0  0  0  0  0  0  0  0  0  0  0
   49.1890    9.8264   18.8259 O   0  0  0  0  0  0  0  0  0  0  0  0
   54.9992   10.4765   23.7709 C   0  0  0  0  0  0  0  0  0  0  0  0
   50.1002   12.1170   18.7767 O   0  0  0  0  0  0  0  0  0  0  0  0
   53.6205   10.9711   23.2449 C   0  0  0  0  0  0  0  0  0  0  0  0
   50.8607   10.4569   18.0311 O   0  0  0  0  0  0  0  0  0  0  0  0
   53.4813   10.5890   21.7970 N   0  0  0  0  0  0  0  0  0  0  0  0
   54.6002   11.1701   20.9946 C   0  0  0  0  0  0  0  0  0  0  0  0
   55.9612   10.7086   21.5886 C   0  0  0  0  0  0  0  0  0  0  0  0
   52.1688   11.0454   21.2196 C   0  0  0  0  0  0  0  0  0  0  0  0
   51.8030   10.2358   19.9521 C   0  0  0  0  0  0  0  0  0  0  0  0
   50.1960   10.7449   19.2976 S   0  0  0  0  0  0  0  0  0  0  0  0
  1  3  1  0  0  0  0
  1  9  1  0  0  0  0
  2 12  1  0  0  0  0
  3  5  1  0  0  0  0
  4 12  2  0  0  0  0
  5  7  1  0  0  0  0
  6 12  2  0  0  0  0
  7  8  1  0  0  0  0
  7 10  1  0  0  0  0
  8  9  1  0  0  0  0
 10 11  1  0  0  0  0
 11 12  1  0  0  0  0
M  END
>  <CHROM.1>
-159.12418706,177.86337298,-136.91886998,52.44207560,10.68013750,20.65566119
-0.64581542,0.02412171,-1.54553429

>  <Name>
ligand

>  <RI>
0

>  <Rbt.Current_Directory>
/home/itssahil/PROJECTS/Mol_Feturizer/New_Systems/rnas/2HO6

>  <Rbt.Executable>
rbdock ($Id: //depot/dev/client3/rdock/2013.1/src/exe/rbdock.cxx#4 $)

>  <Rbt.Library>
libRbt.so (2013.1, Build901 2013/11/27)

>  <Rbt.Parameter_File>
/export/apps/rDock/src/rDock_2013.1_src/data/scripts/dock_solv.prm

>  <Rbt.Receptor>
prm/blind_docking_80.prm

>  <SCORE>
-15.9432

>  <SCORE.INTER>
-15.4542

>  <SCORE.INTER.CONST>
1

>  <SCORE.INTER.POLAR>
0

>  <SCORE.INTER.ROT>
3

>  <SCORE.INTER.SOLV>
5.51758

>  <SCORE.INTER.VDW>
-17.742

>  <SCORE.INTER.norm>
-1.28785

>  <SCORE.INTRA>
-0.489001

>  <SCORE.INTRA.DIHEDRAL>
0.464897

>  <SCORE.INTRA.DIHEDRAL.0>
1.88407

>  <SCORE.INTRA.POLAR>
0

>  <SCORE.INTRA.POLAR.0>
0

>  <SCORE.INTRA.REPUL>
0

>  <SCORE.INTRA.REPUL.0>
0

>  <SCORE.INTRA.SOLV>
0.0757085

>  <SCORE.INTRA.SOLV.lig_0>
-10.2714

>  <SCORE.INTRA.VDW>
-0.759304

>  <SCORE.INTRA.VDW.0>
0.416923

>  <SCORE.INTRA.norm>
-0.0407501

>  <SCORE.RESTR>
0

>  <SCORE.RESTR.CAVITY>
0

>  <SCORE.RESTR.norm>
0

>  <SCORE.SYSTEM>
0

>  <SCORE.SYSTEM.CONST>
0

>  <SCORE.SYSTEM.DIHEDRAL>
0

>  <SCORE.SYSTEM.SOLV>
0

>  <SCORE.SYSTEM.norm>
0

>  <SCORE.heavy>
12

>  <SCORE.norm>
-1.3286

>  <RMSD>
10.310

$$$$
ligand
 OpenBabel11021811433D
libRbt.so/2013.1/901 2013/11/27
 12 12  0  0  0  0  0  0  0  0999 V2000
   50.2036   12.3773   17.5824 O   0  0  0  0  0  0  0  0  0  0  0  0
   54.9555   11.7036   23.2388 O   0  0  0  0  0  0  0  0  0  0  0  0
   49.2557   11.9159   18.5920 C   0  0  0  0  0  0  0  0  0  0  0  0
   55.2687    9.4643   22.2555 O   0  0  0  0  0  0  0  0  0  0  0  0
   49.9920   11.2664   19.7995 C   0  0  0  0  0  0  0  0  0  0  0  0
   55.7157   11.2307   21.5004 O   0  0  0  0  0  0  0  0  0  0  0  0
   51.4758   11.3293   19.5617 N   0  0  0  0  0  0  0  0  0  0  0  0
   51.8288   10.6379   18.2846 C   0  0  0  0  0  0  0  0  0  0  0  0
   51.0256   11.2687   17.1119 C   0  0  0  0  0  0  0  0  0  0  0  0
   52.2522   10.7090   20.6916 C   0  0  0  0  0  0  0  0  0  0  0  0
   53.7228   11.1920   20.6917 C   0  0  0  0  0  0  0  0  0  0  0  0
   54.5519   10.7484   22.2364 S   0  0  0  0  0  0  0  0  0  0  0  0
  1  3  1  0  0  0  0
  1  9  1  0  0  0  0
  2 12  1  0  0  0  0
  3  5  1  0  0  0  0
  4 12  2  0  0  0  0
  5  7  1  0  0  0  0
  6 12  2  0  0  0  0
  7  8  1  0  0  0  0
  7 10  1  0  0  0  0
  8  9  1  0  0  0  0
 10 11  1  0  0  0  0
 11 12  1  0  0  0  0
M  END
>  <CHROM.1>
-160.50033297,167.41054238,-110.55761051,52.77096130,11.11762650,20.36585577
-2.45762248,-0.27195145,1.45632321

>  <Name>
ligand

>  <RI>
0

>  <Rbt.Current_Directory>
/home/itssahil/PROJECTS/Mol_Feturizer/New_Systems/rnas/2HO6

>  <Rbt.Executable>
rbdock ($Id: //depot/dev/client3/rdock/2013.1/src/exe/rbdock.cxx#4 $)

>  <Rbt.Library>
libRbt.so (2013.1, Build901 2013/11/27)

>  <Rbt.Parameter_File>
/export/apps/rDock/src/rDock_2013.1_src/data/scripts/dock_solv.prm

>  <Rbt.Receptor>
prm/blind_docking_100.prm

>  <SCORE>
-13.7658

>  <SCORE.INTER>
-13.6308

>  <SCORE.INTER.CONST>
1

>  <SCORE.INTER.POLAR>
0

>  <SCORE.INTER.ROT>
3

>  <SCORE.INTER.SOLV>
7.84216

>  <SCORE.INTER.VDW>
-17.3012

>  <SCORE.INTER.norm>
-1.1359

>  <SCORE.INTRA>
-0.134986

>  <SCORE.INTRA.DIHEDRAL>
1.04954

>  <SCORE.INTRA.DIHEDRAL.0>
1.88407

>  <SCORE.INTRA.POLAR>
0

>  <SCORE.INTRA.POLAR.0>
0

>  <SCORE.INTRA.REPUL>
0

>  <SCORE.INTRA.REPUL.0>
0

>  <SCORE.INTRA.SOLV>
0.0155227

>  <SCORE.INTRA.SOLV.lig_0>
-10.2714

>  <SCORE.INTRA.VDW>
-0.667516

>  <SCORE.INTRA.VDW.0>
0.416923

>  <SCORE.INTRA.norm>
-0.0112488

>  <SCORE.RESTR>
0

>  <SCORE.RESTR.CAVITY>
0

>  <SCORE.RESTR.norm>
0

>  <SCORE.SYSTEM>
0

>  <SCORE.SYSTEM.CONST>
0

>  <SCORE.SYSTEM.DIHEDRAL>
0

>  <SCORE.SYSTEM.SOLV>
0

>  <SCORE.SYSTEM.norm>
0

>  <SCORE.heavy>
12

>  <SCORE.norm>
-1.14715

>  <RMSD>
10.361

$$$$
ligand
 OpenBabel11021811433D
libRbt.so/2013.1/901 2013/11/27
 12 12  0  0  0  0  0  0  0  0999 V2000
   53.7111   11.2644   20.5581 O   0  0  0  0  0  0  0  0  0  0  0  0
   49.4818   12.6741   23.1617 O   0  0  0  0  0  0  0  0  0  0  0  0
   52.9374   10.1768   21.1492 C   0  0  0  0  0  0  0  0  0  0  0  0
   49.7826   11.0795   25.0181 O   0  0  0  0  0  0  0  0  0  0  0  0
   52.6875   10.4239   22.6653 C   0  0  0  0  0  0  0  0  0  0  0  0
   49.7447   13.0510   25.0625 O   0  0  0  0  0  0  0  0  0  0  0  0
   53.3129   11.7337   23.0592 N   0  0  0  0  0  0  0  0  0  0  0  0
   54.7755   11.7263   22.7520 C   0  0  0  0  0  0  0  0  0  0  0  0
   54.9891   11.4110   21.2443 C   0  0  0  0  0  0  0  0  0  0  0  0
   53.1154   12.0331   24.5206 C   0  0  0  0  0  0  0  0  0  0  0  0
   51.8686   12.9220   24.7464 C   0  0  0  0  0  0  0  0  0  0  0  0
   50.3714   12.1057   24.1445 S   0  0  0  0  0  0  0  0  0  0  0  0
  1  3  1  0  0  0  0
  1  9  1  0  0  0  0
  2 12  1  0  0  0  0
  3  5  1  0  0  0  0
  4 12  2  0  0  0  0
  5  7  1  0  0  0  0
  6 12  2  0  0  0  0
  7  8  1  0  0  0  0
  7 10  1  0  0  0  0
  8  9  1  0  0  0  0
 10 11  1  0  0  0  0
 11 12  1  0  0  0  0
M  END
>  <CHROM.1>
-94.53735532,60.05643119,-123.13239344,51.99565920,11.76511118,23.27490234
0.65771931,-0.05632947,-2.01938585

>  <Name>
ligand

>  <RI>
0

>  <Rbt.Current_Directory>
/home/itssahil/PROJECTS/Mol_Feturizer/New_Systems/rnas/2HO6

>  <Rbt.Executable>
rbdock ($Id: //depot/dev/client3/rdock/2013.1/src/exe/rbdock.cxx#4 $)

>  <Rbt.Library>
libRbt.so (2013.1, Build901 2013/11/27)

>  <Rbt.Parameter_File>
/export/apps/rDock/src/rDock_2013.1_src/data/scripts/dock_solv.prm

>  <Rbt.Receptor>
prm/blind_docking_80.prm

>  <SCORE>
-12.5748

>  <SCORE.INTER>
-11.9024

>  <SCORE.INTER.CONST>
1

>  <SCORE.INTER.POLAR>
0

>  <SCORE.INTER.ROT>
3

>  <SCORE.INTER.SOLV>
10.1598

>  <SCORE.INTER.VDW>
-16.9215

>  <SCORE.INTER.norm>
-0.991864

>  <SCORE.INTRA>
-0.672401

>  <SCORE.INTRA.DIHEDRAL>
1.47786

>  <SCORE.INTRA.DIHEDRAL.0>
1.88407

>  <SCORE.INTRA.POLAR>
0

>  <SCORE.INTRA.POLAR.0>
0

>  <SCORE.INTRA.REPUL>
0

>  <SCORE.INTRA.REPUL.0>
0

>  <SCORE.INTRA.SOLV>
0.387614

>  <SCORE.INTRA.SOLV.lig_0>
-10.2714

>  <SCORE.INTRA.VDW>
-1.60514

>  <SCORE.INTRA.VDW.0>
0.416923

>  <SCORE.INTRA.norm>
-0.0560334

>  <SCORE.RESTR>
0

>  <SCORE.RESTR.CAVITY>
0

>  <SCORE.RESTR.norm>
0

>  <SCORE.SYSTEM>
0

>  <SCORE.SYSTEM.CONST>
0

>  <SCORE.SYSTEM.DIHEDRAL>
0

>  <SCORE.SYSTEM.SOLV>
0

>  <SCORE.SYSTEM.norm>
0

>  <SCORE.heavy>
12

>  <SCORE.norm>
-1.0479

>  <RMSD>
11.971

$$$$
ligand
 OpenBabel11021811433D
libRbt.so/2013.1/901 2013/11/27
 12 12  0  0  0  0  0  0  0  0999 V2000
   29.7932   11.3492   10.8917 O   0  0  0  0  0  0  0  0  0  0  0  0
   31.4217    3.9669    9.7210 O   0  0  0  0  0  0  0  0  0  0  0  0
   31.1863   10.9137   10.8838 C   0  0  0  0  0  0  0  0  0  0  0  0
   28.9737    4.1553    9.9469 O   0  0  0  0  0  0  0  0  0  0  0  0
   31.2924    9.3659   11.0074 C   0  0  0  0  0  0  0  0  0  0  0  0
   30.1589    4.9076    8.5615 O   0  0  0  0  0  0  0  0  0  0  0  0
   29.9080    8.7829   11.0804 N   0  0  0  0  0  0  0  0  0  0  0  0
   29.1587    9.3622   12.2366 C   0  0  0  0  0  0  0  0  0  0  0  0
   29.1303   10.9122   12.1146 C   0  0  0  0  0  0  0  0  0  0  0  0
   29.9361    7.2840   11.2095 C   0  0  0  0  0  0  0  0  0  0  0  0
   30.3051    6.6130    9.8644 C   0  0  0  0  0  0  0  0  0  0  0  0
   30.2887    4.8107   10.0116 S   0  0  0  0  0  0  0  0  0  0  0  0
  1  3  1  0  0  0  0
  1  9  1  0  0  0  0
  2 12  1  0  0  0  0
  3  5  1  0  0  0  0
  4 12  2  0  0  0  0
  5  7  1  0  0  0  0
  6 12  2  0  0  0  0
  7  8  1  0  0  0  0
  7 10  1  0  0  0  0
  8  9  1  0  0  0  0
 10 11  1  0  0  0  0
 11 12  1  0  0  0  0
M  END
>  <CHROM.1>
-74.67449025,-178.27987517,-122.45249585,30.14250091,7.36813011,10.53580742
-1.61674176,-0.52342862,-2.87900925

>  <Name>
ligand

>  <RI>
0

>  <Rbt.Current_Directory>
/home/itssahil/PROJECTS/Mol_Feturizer/New_Systems/rnas/2HO6

>  <Rbt.Executable>
rbdock ($Id: //depot/dev/client3/rdock/2013.1/src/exe/rbdock.cxx#4 $)

>  <Rbt.Library>
libRbt.so (2013.1, Build901 2013/11/27)

>  <Rbt.Parameter_File>
/export/apps/rDock/src/rDock_2013.1_src/data/scripts/dock_solv.prm

>  <Rbt.Receptor>
prm/blind_docking_40.prm

>  <SCORE>
-11.1013

>  <SCORE.INTER>
-10.5568

>  <SCORE.INTER.CONST>
1

>  <SCORE.INTER.POLAR>
0

>  <SCORE.INTER.ROT>
3

>  <SCORE.INTER.SOLV>
6.81716

>  <SCORE.INTER.VDW>
-14.9103

>  <SCORE.INTER.norm>
-0.879736

>  <SCORE.INTRA>
-0.544448

>  <SCORE.INTRA.DIHEDRAL>
0.329325

>  <SCORE.INTRA.DIHEDRAL.0>
1.88407

>  <SCORE.INTRA.POLAR>
0

>  <SCORE.INTRA.POLAR.0>
0

>  <SCORE.INTRA.REPUL>
0

>  <SCORE.INTRA.REPUL.0>
0

>  <SCORE.INTRA.SOLV>
0.0402833

>  <SCORE.INTRA.SOLV.lig_0>
-10.2714

>  <SCORE.INTRA.VDW>
-0.729253

>  <SCORE.INTRA.VDW.0>
0.416923

>  <SCORE.INTRA.norm>
-0.0453707

>  <SCORE.RESTR>
0

>  <SCORE.RESTR.CAVITY>
0

>  <SCORE.RESTR.norm>
0

>  <SCORE.SYSTEM>
0

>  <SCORE.SYSTEM.CONST>
0

>  <SCORE.SYSTEM.DIHEDRAL>
0

>  <SCORE.SYSTEM.SOLV>
0

>  <SCORE.SYSTEM.norm>
0

>  <SCORE.heavy>
12

>  <SCORE.norm>
-0.925107

>  <RMSD>
19.456

$$$$
ligand
 OpenBabel11021811433D
libRbt.so/2013.1/901 2013/11/27
 12 12  0  0  0  0  0  0  0  0999 V2000
   31.8795   10.3649   10.6156 O   0  0  0  0  0  0  0  0  0  0  0  0
   27.3215    4.7173   11.7042 O   0  0  0  0  0  0  0  0  0  0  0  0
   30.8807   10.8210   11.5774 C   0  0  0  0  0  0  0  0  0  0  0  0
   28.3741    3.7106    9.7148 O   0  0  0  0  0  0  0  0  0  0  0  0
   29.7536    9.7638   11.7619 C   0  0  0  0  0  0  0  0  0  0  0  0
   29.1959    4.2320   11.4303 O   0  0  0  0  0  0  0  0  0  0  0  0
   30.0513    8.5719   10.8943 N   0  0  0  0  0  0  0  0  0  0  0  0
   30.1684    8.9853    9.4629 C   0  0  0  0  0  0  0  0  0  0  0  0
   31.2559   10.0886    9.3269 C   0  0  0  0  0  0  0  0  0  0  0  0
   28.9932    7.5092   11.0178 C   0  0  0  0  0  0  0  0  0  0  0  0
   29.5063    6.1450   10.4968 C   0  0  0  0  0  0  0  0  0  0  0  0
   28.2085    4.8883   10.5799 S   0  0  0  0  0  0  0  0  0  0  0  0
  1  3  1  0  0  0  0
  1  9  1  0  0  0  0
  2 12  1  0  0  0  0
  3  5  1  0  0  0  0
  4 12  2  0  0  0  0
  5  7  1  0  0  0  0
  6 12  2  0  0  0  0
  7  8  1  0  0  0  0
  7 10  1  0  0  0  0
  8  9  1  0  0  0  0
 10 11  1  0  0  0  0
 11 12  1  0  0  0  0
M  END
>  <CHROM.1>
-162.14213337,-177.51520312,-43.32744017,29.48230730,7.17196295,10.70877203
-0.75900840,-0.94355482,-2.45771976

>  <Name>
ligand

>  <RI>
0

>  <Rbt.Current_Directory>
/home/itssahil/PROJECTS/Mol_Feturizer/New_Systems/rnas/2HO6

>  <Rbt.Executable>
rbdock ($Id: //depot/dev/client3/rdock/2013.1/src/exe/rbdock.cxx#4 $)

>  <Rbt.Library>
libRbt.so (2013.1, Build901 2013/11/27)

>  <Rbt.Parameter_File>
/export/apps/rDock/src/rDock_2013.1_src/data/scripts/dock_solv.prm

>  <Rbt.Receptor>
prm/blind_docking_100.prm

>  <SCORE>
-11.5682

>  <SCORE.INTER>
-11.0836

>  <SCORE.INTER.CONST>
1

>  <SCORE.INTER.POLAR>
0

>  <SCORE.INTER.ROT>
3

>  <SCORE.INTER.SOLV>
8.1626

>  <SCORE.INTER.VDW>
-15.7099

>  <SCORE.INTER.norm>
-0.923635

>  <SCORE.INTRA>
-0.484605

>  <SCORE.INTRA.DIHEDRAL>
0.299191

>  <SCORE.INTRA.DIHEDRAL.0>
1.88407

>  <SCORE.INTRA.POLAR>
0

>  <SCORE.INTRA.POLAR.0>
0

>  <SCORE.INTRA.REPUL>
0

>  <SCORE.INTRA.REPUL.0>
0

>  <SCORE.INTRA.SOLV>
-0.0592426

>  <SCORE.INTRA.SOLV.lig_0>
-10.2714

>  <SCORE.INTRA.VDW>
-0.604579

>  <SCORE.INTRA.VDW.0>
0.416923

>  <SCORE.INTRA.norm>
-0.0403838

>  <SCORE.RESTR>
0

>  <SCORE.RESTR.CAVITY>
0

>  <SCORE.RESTR.norm>
0

>  <SCORE.SYSTEM>
0

>  <SCORE.SYSTEM.CONST>
0

>  <SCORE.SYSTEM.DIHEDRAL>
0

>  <SCORE.SYSTEM.SOLV>
0

>  <SCORE.SYSTEM.norm>
0

>  <SCORE.heavy>
12

>  <SCORE.norm>
-0.964019

>  <RMSD>
19.835

$$$$
ligand
 OpenBabel11021811433D
libRbt.so/2013.1/901 2013/11/27
 12 12  0  0  0  0  0  0  0  0999 V2000
   35.4301   -2.4142    7.1882 O   0  0  0  0  0  0  0  0  0  0  0  0
   33.7965   -0.0002   12.9230 O   0  0  0  0  0  0  0  0  0  0  0  0
   34.4400   -1.8201    6.2952 C   0  0  0  0  0  0  0  0  0  0  0  0
   35.6194    0.1006   11.2657 O   0  0  0  0  0  0  0  0  0  0  0  0
   33.3033   -1.1246    7.0991 C   0  0  0  0  0  0  0  0  0  0  0  0
   34.2897    1.4776   11.7410 O   0  0  0  0  0  0  0  0  0  0  0  0
   33.5855   -1.2639    8.5698 N   0  0  0  0  0  0  0  0  0  0  0  0
   33.7006   -2.7062    8.9441 C   0  0  0  0  0  0  0  0  0  0  0  0
   34.7984   -3.3834    8.0755 C   0  0  0  0  0  0  0  0  0  0  0  0
   32.5174   -0.6180    9.4101 C   0  0  0  0  0  0  0  0  0  0  0  0
   33.0799    0.5878   10.2008 C   0  0  0  0  0  0  0  0  0  0  0  0
   34.1742    0.0382   11.5315 S   0  0  0  0  0  0  0  0  0  0  0  0
  1  3  1  0  0  0  0
  1  9  1  0  0  0  0
  2 12  1  0  0  0  0
  3  5  1  0  0  0  0
  4 12  2  0  0  0  0
  5  7  1  0  0  0  0
  6 12  2  0  0  0  0
  7  8  1  0  0  0  0
  7 10  1  0  0  0  0
  8  9  1  0  0  0  0
 10 11  1  0  0  0  0
 11 12  1  0  0  0  0
M  END
>  <CHROM.1>
-114.64117343,-71.29959503,-103.14959807,34.10115829,-0.80835736,9.68611038
-1.52633935,-0.62843142,1.05939028

>  <Name>
ligand

>  <RI>
0

>  <Rbt.Current_Directory>
/home/itssahil/PROJECTS/Mol_Feturizer/New_Systems/rnas/2HO6

>  <Rbt.Executable>
rbdock ($Id: //depot/dev/client3/rdock/2013.1/src/exe/rbdock.cxx#4 $)

>  <Rbt.Library>
libRbt.so (2013.1, Build901 2013/11/27)

>  <Rbt.Parameter_File>
/export/apps/rDock/src/rDock_2013.1_src/data/scripts/dock_solv.prm

>  <Rbt.Receptor>
prm/blind_docking_60.prm

>  <SCORE>
-11.7833

>  <SCORE.INTER>
-11.6838

>  <SCORE.INTER.CONST>
1

>  <SCORE.INTER.POLAR>
0

>  <SCORE.INTER.ROT>
3

>  <SCORE.INTER.SOLV>
5.91866

>  <SCORE.INTER.VDW>
-15.3621

>  <SCORE.INTER.norm>
-0.97365

>  <SCORE.INTRA>
-0.0995182

>  <SCORE.INTRA.DIHEDRAL>
2.82158

>  <SCORE.INTRA.DIHEDRAL.0>
1.88407

>  <SCORE.INTRA.POLAR>
0

>  <SCORE.INTRA.POLAR.0>
0

>  <SCORE.INTRA.REPUL>
0

>  <SCORE.INTRA.REPUL.0>
0

>  <SCORE.INTRA.SOLV>
0.420803

>  <SCORE.INTRA.SOLV.lig_0>
-10.2714

>  <SCORE.INTRA.VDW>
-1.72071

>  <SCORE.INTRA.VDW.0>
0.416923

>  <SCORE.INTRA.norm>
-0.00829318

>  <SCORE.RESTR>
0

>  <SCORE.RESTR.CAVITY>
0

>  <SCORE.RESTR.norm>
0

>  <SCORE.SYSTEM>
0

>  <SCORE.SYSTEM.CONST>
0

>  <SCORE.SYSTEM.DIHEDRAL>
0

>  <SCORE.SYSTEM.SOLV>
0

>  <SCORE.SYSTEM.norm>
0

>  <SCORE.heavy>
12

>  <SCORE.norm>
-0.981943

>  <RMSD>
20.536

$$$$
ligand
 OpenBabel11021811433D
libRbt.so/2013.1/901 2013/11/27
 12 12  0  0  0  0  0  0  0  0999 V2000
   36.1703   -2.4355    7.3736 O   0  0  0  0  0  0  0  0  0  0  0  0
   33.5946    0.6214   12.0651 O   0  0  0  0  0  0  0  0  0  0  0  0
   35.2898   -1.8805    6.3502 C   0  0  0  0  0  0  0  0  0  0  0  0
   35.0666    0.8741   10.1033 O   0  0  0  0  0  0  0  0  0  0  0  0
   33.8965   -1.5199    6.9425 C   0  0  0  0  0  0  0  0  0  0  0  0
   33.3105    1.6988   10.4581 O   0  0  0  0  0  0  0  0  0  0  0  0
   33.8890   -1.8416    8.4116 N   0  0  0  0  0  0  0  0  0  0  0  0
   34.2064   -3.2854    8.6308 C   0  0  0  0  0  0  0  0  0  0  0  0
   35.5723   -3.6244    7.9691 C   0  0  0  0  0  0  0  0  0  0  0  0
   32.5637   -1.5236    9.0493 C   0  0  0  0  0  0  0  0  0  0  0  0
   32.4963   -0.0419    9.4916 C   0  0  0  0  0  0  0  0  0  0  0  0
   33.8151    0.3458   10.6666 S   0  0  0  0  0  0  0  0  0  0  0  0
  1  3  1  0  0  0  0
  1  9  1  0  0  0  0
  2 12  1  0  0  0  0
  3  5  1  0  0  0  0
  4 12  2  0  0  0  0
  5  7  1  0  0  0  0
  6 12  2  0  0  0  0
  7  8  1  0  0  0  0
  7 10  1  0  0  0  0
  8  9  1  0  0  0  0
 10 11  1  0  0  0  0
 11 12  1  0  0  0  0
M  END
>  <CHROM.1>
-85.99940626,-58.73447884,-110.09051793,34.13973220,-0.87087017,9.16017657
-1.26897880,0.20135262,0.72522735

>  <Name>
ligand

>  <RI>
0

>  <Rbt.Current_Directory>
/home/itssahil/PROJECTS/Mol_Feturizer/New_Systems/rnas/2HO6

>  <Rbt.Executable>
rbdock ($Id: //depot/dev/client3/rdock/2013.1/src/exe/rbdock.cxx#4 $)

>  <Rbt.Library>
libRbt.so (2013.1, Build901 2013/11/27)

>  <Rbt.Parameter_File>
/export/apps/rDock/src/rDock_2013.1_src/data/scripts/dock_solv.prm

>  <Rbt.Receptor>
prm/blind_docking_80.prm

>  <SCORE>
-11.1597

>  <SCORE.INTER>
-10.3102

>  <SCORE.INTER.CONST>
1

>  <SCORE.INTER.POLAR>
0

>  <SCORE.INTER.ROT>
3

>  <SCORE.INTER.SOLV>
5.97367

>  <SCORE.INTER.VDW>
-14.4647

>  <SCORE.INTER.norm>
-0.85918

>  <SCORE.INTRA>
-0.84952

>  <SCORE.INTRA.DIHEDRAL>
1.00168

>  <SCORE.INTRA.DIHEDRAL.0>
1.88407

>  <SCORE.INTRA.POLAR>
0

>  <SCORE.INTRA.POLAR.0>
0

>  <SCORE.INTRA.REPUL>
0

>  <SCORE.INTRA.REPUL.0>
0

>  <SCORE.INTRA.SOLV>
0.560852

>  <SCORE.INTRA.SOLV.lig_0>
-10.2714

>  <SCORE.INTRA.VDW>
-1.63079

>  <SCORE.INTRA.VDW.0>
0.416923

>  <SCORE.INTRA.norm>
-0.0707933

>  <SCORE.RESTR>
0

>  <SCORE.RESTR.CAVITY>
0

>  <SCORE.RESTR.norm>
0

>  <SCORE.SYSTEM>
0

>  <SCORE.SYSTEM.CONST>
0

>  <SCORE.SYSTEM.DIHEDRAL>
0

>  <SCORE.SYSTEM.SOLV>
0

>  <SCORE.SYSTEM.norm>
0

>  <SCORE.heavy>
12

>  <SCORE.norm>
-0.929973

>  <RMSD>
20.572

$$$$
ligand
 OpenBabel11021811433D
libRbt.so/2013.1/901 2013/11/27
 12 12  0  0  0  0  0  0  0  0999 V2000
   29.6877    9.0907   10.2519 O   0  0  0  0  0  0  0  0  0  0  0  0
   28.1001    1.9835    7.9547 O   0  0  0  0  0  0  0  0  0  0  0  0
   30.1779    9.3625    8.9042 C   0  0  0  0  0  0  0  0  0  0  0  0
   28.8081    3.6247    6.2563 O   0  0  0  0  0  0  0  0  0  0  0  0
   30.3349    8.0474    8.0870 C   0  0  0  0  0  0  0  0  0  0  0  0
   29.8602    2.7983    7.7055 O   0  0  0  0  0  0  0  0  0  0  0  0
   29.9111    6.8845    8.9415 N   0  0  0  0  0  0  0  0  0  0  0  0
   30.7230    6.8358   10.1953 C   0  0  0  0  0  0  0  0  0  0  0  0
   30.5951    8.1888   10.9512 C   0  0  0  0  0  0  0  0  0  0  0  0
   30.0454    5.5745    8.2134 C   0  0  0  0  0  0  0  0  0  0  0  0
   29.2039    4.4674    8.8932 C   0  0  0  0  0  0  0  0  0  0  0  0
   28.5049    3.3374    7.6665 S   0  0  0  0  0  0  0  0  0  0  0  0
  1  3  1  0  0  0  0
  1  9  1  0  0  0  0
  2 12  1  0  0  0  0
  3  5  1  0  0  0  0
  4 12  2  0  0  0  0
  5  7  1  0  0  0  0
  6 12  2  0  0  0  0
  7  8  1  0  0  0  0
  7 10  1  0  0  0  0
  8  9  1  0  0  0  0
 10 11  1  0  0  0  0
 11 12  1  0  0  0  0
M  END
>  <CHROM.1>
-161.59981124,144.43959792,156.77859567,29.53287540,5.55632462,8.54989696
-0.25105355,1.31452590,2.21074899

>  <Name>
ligand

>  <RI>
0

>  <Rbt.Current_Directory>
/home/itssahil/PROJECTS/Mol_Feturizer/New_Systems/rnas/2HO6

>  <Rbt.Executable>
rbdock ($Id: //depot/dev/client3/rdock/2013.1/src/exe/rbdock.cxx#4 $)

>  <Rbt.Library>
libRbt.so (2013.1, Build901 2013/11/27)

>  <Rbt.Parameter_File>
/export/apps/rDock/src/rDock_2013.1_src/data/scripts/dock_solv.prm

>  <Rbt.Receptor>
prm/blind_docking_80.prm

>  <SCORE>
-8.57393

>  <SCORE.INTER>
-10.6045

>  <SCORE.INTER.CONST>
1

>  <SCORE.INTER.POLAR>
0

>  <SCORE.INTER.ROT>
3

>  <SCORE.INTER.SOLV>
5.79811

>  <SCORE.INTER.VDW>
-14.6024

>  <SCORE.INTER.norm>
-0.883708

>  <SCORE.INTRA>
2.03057

>  <SCORE.INTRA.DIHEDRAL>
3.98436

>  <SCORE.INTRA.DIHEDRAL.0>
1.88407

>  <SCORE.INTRA.POLAR>
0

>  <SCORE.INTRA.POLAR.0>
0

>  <SCORE.INTRA.REPUL>
0

>  <SCORE.INTRA.REPUL.0>
0

>  <SCORE.INTRA.SOLV>
0.23986

>  <SCORE.INTRA.SOLV.lig_0>
-10.2714

>  <SCORE.INTRA.VDW>
-0.081535

>  <SCORE.INTRA.VDW.0>
0.416923

>  <SCORE.INTRA.norm>
0.169215

>  <SCORE.RESTR>
0

>  <SCORE.RESTR.CAVITY>
0

>  <SCORE.RESTR.norm>
0

>  <SCORE.SYSTEM>
0

>  <SCORE.SYSTEM.CONST>
0

>  <SCORE.SYSTEM.DIHEDRAL>
0

>  <SCORE.SYSTEM.SOLV>
0

>  <SCORE.SYSTEM.norm>
0

>  <SCORE.heavy>
12

>  <SCORE.norm>
-0.714494

>  <RMSD>
20.601

$$$$
ligand
 OpenBabel11021811433D
libRbt.so/2013.1/901 2013/11/27
 12 12  0  0  0  0  0  0  0  0999 V2000
   30.1687    1.2811    6.9632 O   0  0  0  0  0  0  0  0  0  0  0  0
   30.5650    7.4674   11.5245 O   0  0  0  0  0  0  0  0  0  0  0  0
   31.3658    1.7648    6.2822 C   0  0  0  0  0  0  0  0  0  0  0  0
   30.5285    8.0892    9.1389 O   0  0  0  0  0  0  0  0  0  0  0  0
   31.7204    3.2129    6.7287 C   0  0  0  0  0  0  0  0  0  0  0  0
   29.2035    7.0643   10.1800 O   0  0  0  0  0  0  0  0  0  0  0  0
   30.7178    3.6708    7.7520 N   0  0  0  0  0  0  0  0  0  0  0  0
   29.3341    3.6074    7.1909 C   0  0  0  0  0  0  0  0  0  0  0  0
   29.0392    2.1633    6.6949 C   0  0  0  0  0  0  0  0  0  0  0  0
   30.9971    5.0722    8.2236 C   0  0  0  0  0  0  0  0  0  0  0  0
   30.3500    5.3376    9.6044 C   0  0  0  0  0  0  0  0  0  0  0  0
   30.6619    7.0324   10.1528 S   0  0  0  0  0  0  0  0  0  0  0  0
  1  3  1  0  0  0  0
  1  9  1  0  0  0  0
  2 12  1  0  0  0  0
  3  5  1  0  0  0  0
  4 12  2  0  0  0  0
  5  7  1  0  0  0  0
  6 12  2  0  0  0  0
  7  8  1  0  0  0  0
  7 10  1  0  0  0  0
  8  9  1  0  0  0  0
 10 11  1  0  0  0  0
 11 12  1  0  0  0  0
M  END
>  <CHROM.1>
-158.16243539,-178.93469918,-160.09354596,30.40207037,4.92251081,8.57924413
1.56080684,-0.26569078,-2.53708713

>  <Name>
ligand

>  <RI>
0

>  <Rbt.Current_Directory>
/home/itssahil/PROJECTS/Mol_Feturizer/New_Systems/rnas/2HO6

>  <Rbt.Executable>
rbdock ($Id: //depot/dev/client3/rdock/2013.1/src/exe/rbdock.cxx#4 $)

>  <Rbt.Library>
libRbt.so (2013.1, Build901 2013/11/27)

>  <Rbt.Parameter_File>
/export/apps/rDock/src/rDock_2013.1_src/data/scripts/dock_solv.prm

>  <Rbt.Receptor>
prm/blind_docking_60.prm

>  <SCORE>
-9.28538

>  <SCORE.INTER>
-8.82789

>  <SCORE.INTER.CONST>
1

>  <SCORE.INTER.POLAR>
0

>  <SCORE.INTER.ROT>
3

>  <SCORE.INTER.SOLV>
4.67966

>  <SCORE.INTER.VDW>
-13.0452

>  <SCORE.INTER.norm>
-0.735658

>  <SCORE.INTRA>
-0.457486

>  <SCORE.INTRA.DIHEDRAL>
0.480758

>  <SCORE.INTRA.DIHEDRAL.0>
1.88407

>  <SCORE.INTRA.POLAR>
0

>  <SCORE.INTRA.POLAR.0>
0

>  <SCORE.INTRA.REPUL>
0

>  <SCORE.INTRA.REPUL.0>
0

>  <SCORE.INTRA.SOLV>
0.135585

>  <SCORE.INTRA.SOLV.lig_0>
-10.2714

>  <SCORE.INTRA.VDW>
-0.765658

>  <SCORE.INTRA.VDW.0>
0.416923

>  <SCORE.INTRA.norm>
-0.0381239

>  <SCORE.RESTR>
0

>  <SCORE.RESTR.CAVITY>
0

>  <SCORE.RESTR.norm>
0

>  <SCORE.SYSTEM>
0

>  <SCORE.SYSTEM.CONST>
0

>  <SCORE.SYSTEM.DIHEDRAL>
0

>  <SCORE.SYSTEM.SOLV>
0

>  <SCORE.SYSTEM.norm>
0

>  <SCORE.heavy>
12

>  <SCORE.norm>
-0.773782

>  <RMSD>
20.767

$$$$
ligand
 OpenBabel11021811433D
libRbt.so/2013.1/901 2013/11/27
 12 12  0  0  0  0  0  0  0  0999 V2000
   28.1054    3.3561    5.5273 O   0  0  0  0  0  0  0  0  0  0  0  0
   28.9664    7.0000    9.3778 O   0  0  0  0  0  0  0  0  0  0  0  0
   28.8045    2.2304    6.1393 C   0  0  0  0  0  0  0  0  0  0  0  0
   28.4386    5.3748   11.1553 O   0  0  0  0  0  0  0  0  0  0  0  0
   29.9217    2.7205    7.1057 C   0  0  0  0  0  0  0  0  0  0  0  0
   30.1349    6.3110   10.7863 O   0  0  0  0  0  0  0  0  0  0  0  0
   29.9278    4.2243    7.1271 N   0  0  0  0  0  0  0  0  0  0  0  0
   30.1369    4.7643    5.7493 C   0  0  0  0  0  0  0  0  0  0  0  0
   29.0430    4.2016    4.7981 C   0  0  0  0  0  0  0  0  0  0  0  0
   30.9937    4.7684    8.0393 C   0  0  0  0  0  0  0  0  0  0  0  0
   30.5843    4.6273    9.5253 C   0  0  0  0  0  0  0  0  0  0  0  0
   29.1596    5.6729    9.9086 S   0  0  0  0  0  0  0  0  0  0  0  0
  1  3  1  0  0  0  0
  1  9  1  0  0  0  0
  2 12  1  0  0  0  0
  3  5  1  0  0  0  0
  4 12  2  0  0  0  0
  5  7  1  0  0  0  0
  6 12  2  0  0  0  0
  7  8  1  0  0  0  0
  7 10  1  0  0  0  0
  8  9  1  0  0  0  0
 10 11  1  0  0  0  0
 11 12  1  0  0  0  0
M  END
>  <CHROM.1>
-75.70291569,-66.25571041,-38.80540002,29.46007421,4.74037041,8.17160954
1.66597075,-1.14701625,-1.97918620

>  <Name>
ligand

>  <RI>
0

>  <Rbt.Current_Directory>
/home/itssahil/PROJECTS/Mol_Feturizer/New_Systems/rnas/2HO6

>  <Rbt.Executable>
rbdock ($Id: //depot/dev/client3/rdock/2013.1/src/exe/rbdock.cxx#4 $)

>  <Rbt.Library>
libRbt.so (2013.1, Build901 2013/11/27)

>  <Rbt.Parameter_File>
/export/apps/rDock/src/rDock_2013.1_src/data/scripts/dock_solv.prm

>  <Rbt.Receptor>
prm/blind_docking_60.prm

>  <SCORE>
-9.73501

>  <SCORE.INTER>
-8.81142

>  <SCORE.INTER.CONST>
1

>  <SCORE.INTER.POLAR>
0

>  <SCORE.INTER.ROT>
3

>  <SCORE.INTER.SOLV>
5.94984

>  <SCORE.INTER.VDW>
-13.4576

>  <SCORE.INTER.norm>
-0.734285

>  <SCORE.INTRA>
-0.923588

>  <SCORE.INTRA.DIHEDRAL>
0.435854

>  <SCORE.INTRA.DIHEDRAL.0>
1.88407

>  <SCORE.INTRA.POLAR>
0

>  <SCORE.INTRA.POLAR.0>
0

>  <SCORE.INTRA.REPUL>
0

>  <SCORE.INTRA.REPUL.0>
0

>  <SCORE.INTRA.SOLV>
0.17054

>  <SCORE.INTRA.SOLV.lig_0>
-10.2714

>  <SCORE.INTRA.VDW>
-1.22678

>  <SCORE.INTRA.VDW.0>
0.416923

>  <SCORE.INTRA.norm>
-0.0769656

>  <SCORE.RESTR>
0

>  <SCORE.RESTR.CAVITY>
0

>  <SCORE.RESTR.norm>
0

>  <SCORE.SYSTEM>
0

>  <SCORE.SYSTEM.CONST>
0

>  <SCORE.SYSTEM.DIHEDRAL>
0

>  <SCORE.SYSTEM.SOLV>
0

>  <SCORE.SYSTEM.norm>
0

>  <SCORE.heavy>
12

>  <SCORE.norm>
-0.811251

>  <RMSD>
21.517

$$$$
ligand
 OpenBabel11021811433D
libRbt.so/2013.1/901 2013/11/27
 12 12  0  0  0  0  0  0  0  0999 V2000
   30.3415    4.6715    7.1326 O   0  0  0  0  0  0  0  0  0  0  0  0
   25.1187    6.6266   11.7396 O   0  0  0  0  0  0  0  0  0  0  0  0
   29.4517    3.5201    7.0175 C   0  0  0  0  0  0  0  0  0  0  0  0
   26.3455    5.3460   13.4526 O   0  0  0  0  0  0  0  0  0  0  0  0
   28.5636    3.3668    8.2863 C   0  0  0  0  0  0  0  0  0  0  0  0
   26.8407    7.0386   12.5694 O   0  0  0  0  0  0  0  0  0  0  0  0
   28.8856    4.4769    9.2485 N   0  0  0  0  0  0  0  0  0  0  0  0
   30.3368    4.4533    9.6048 C   0  0  0  0  0  0  0  0  0  0  0  0
   31.1925    4.5413    8.3093 C   0  0  0  0  0  0  0  0  0  0  0  0
   28.0653    4.3851   10.5066 C   0  0  0  0  0  0  0  0  0  0  0  0
   27.7943    5.7879   11.1019 C   0  0  0  0  0  0  0  0  0  0  0  0
   26.2589    5.8025   12.0572 S   0  0  0  0  0  0  0  0  0  0  0  0
  1  3  1  0  0  0  0
  1  9  1  0  0  0  0
  2 12  1  0  0  0  0
  3  5  1  0  0  0  0
  4 12  2  0  0  0  0
  5  7  1  0  0  0  0
  6 12  2  0  0  0  0
  7  8  1  0  0  0  0
  7 10  1  0  0  0  0
  8  9  1  0  0  0  0
 10 11  1  0  0  0  0
 11 12  1  0  0  0  0
M  END
>  <CHROM.1>
-149.15350203,152.83998418,-118.62800966,28.03493980,5.11317896,10.31491173
0.90418649,-0.06819477,-2.04144714

>  <Name>
ligand

>  <RI>
0

>  <Rbt.Current_Directory>
/home/itssahil/PROJECTS/Mol_Feturizer/New_Systems/rnas/2HO6

>  <Rbt.Executable>
rbdock ($Id: //depot/dev/client3/rdock/2013.1/src/exe/rbdock.cxx#4 $)

>  <Rbt.Library>
libRbt.so (2013.1, Build901 2013/11/27)

>  <Rbt.Parameter_File>
/export/apps/rDock/src/rDock_2013.1_src/data/scripts/dock_solv.prm

>  <Rbt.Receptor>
prm/blind_docking_80.prm

>  <SCORE>
-12.3739

>  <SCORE.INTER>
-13.182

>  <SCORE.INTER.CONST>
1

>  <SCORE.INTER.POLAR>
0

>  <SCORE.INTER.ROT>
3

>  <SCORE.INTER.SOLV>
10.3479

>  <SCORE.INTER.VDW>
-17.8373

>  <SCORE.INTER.norm>
-1.0985

>  <SCORE.INTRA>
0.808072

>  <SCORE.INTRA.DIHEDRAL>
3.45981

>  <SCORE.INTRA.DIHEDRAL.0>
1.88407

>  <SCORE.INTRA.POLAR>
0

>  <SCORE.INTRA.POLAR.0>
0

>  <SCORE.INTRA.REPUL>
0

>  <SCORE.INTRA.REPUL.0>
0

>  <SCORE.INTRA.SOLV>
0.0391497

>  <SCORE.INTRA.SOLV.lig_0>
-10.2714

>  <SCORE.INTRA.VDW>
-0.941406

>  <SCORE.INTRA.VDW.0>
0.416923

>  <SCORE.INTRA.norm>
0.0673394

>  <SCORE.RESTR>
0

>  <SCORE.RESTR.CAVITY>
0

>  <SCORE.RESTR.norm>
0

>  <SCORE.SYSTEM>
0

>  <SCORE.SYSTEM.CONST>
0

>  <SCORE.SYSTEM.DIHEDRAL>
0

>  <SCORE.SYSTEM.SOLV>
0

>  <SCORE.SYSTEM.norm>
0

>  <SCORE.heavy>
12

>  <SCORE.norm>
-1.03116

>  <RMSD>
22.022

$$$$
ligand
 OpenBabel11021811433D
libRbt.so/2013.1/901 2013/11/27
 12 12  0  0  0  0  0  0  0  0999 V2000
   29.7428    6.1428    8.9810 O   0  0  0  0  0  0  0  0  0  0  0  0
   26.5582    4.1649    4.4018 O   0  0  0  0  0  0  0  0  0  0  0  0
   30.9154    5.4554    8.4488 C   0  0  0  0  0  0  0  0  0  0  0  0
   28.7566    5.2813    4.3966 O   0  0  0  0  0  0  0  0  0  0  0  0
   30.5160    4.1285    7.7404 C   0  0  0  0  0  0  0  0  0  0  0  0
   28.2506    3.5218    3.6628 O   0  0  0  0  0  0  0  0  0  0  0  0
   29.0222    3.9667    7.8063 N   0  0  0  0  0  0  0  0  0  0  0  0
   28.5592    3.9753    9.2273 C   0  0  0  0  0  0  0  0  0  0  0  0
   29.0327    5.2839    9.9212 C   0  0  0  0  0  0  0  0  0  0  0  0
   28.5654    2.6950    7.1444 C   0  0  0  0  0  0  0  0  0  0  0  0
   28.7583    2.7619    5.6101 C   0  0  0  0  0  0  0  0  0  0  0  0
   27.9074    4.1960    4.9104 S   0  0  0  0  0  0  0  0  0  0  0  0
  1  3  1  0  0  0  0
  1  9  1  0  0  0  0
  2 12  1  0  0  0  0
  3  5  1  0  0  0  0
  4 12  2  0  0  0  0
  5  7  1  0  0  0  0
  6 12  2  0  0  0  0
  7  8  1  0  0  0  0
  7 10  1  0  0  0  0
  8  9  1  0  0  0  0
 10 11  1  0  0  0  0
 11 12  1  0  0  0  0
M  END
>  <CHROM.1>
-69.21911924,-55.95376659,-92.30398509,28.76900774,4.30786925,6.61300216
-0.81961506,-1.01185495,-1.12459899

>  <Name>
ligand

>  <RI>
0

>  <Rbt.Current_Directory>
/home/itssahil/PROJECTS/Mol_Feturizer/New_Systems/rnas/2HO6

>  <Rbt.Executable>
rbdock ($Id: //depot/dev/client3/rdock/2013.1/src/exe/rbdock.cxx#4 $)

>  <Rbt.Library>
libRbt.so (2013.1, Build901 2013/11/27)

>  <Rbt.Parameter_File>
/export/apps/rDock/src/rDock_2013.1_src/data/scripts/dock_solv.prm

>  <Rbt.Receptor>
prm/blind_docking_40.prm

>  <SCORE>
-13.1315

>  <SCORE.INTER>
-12.3218

>  <SCORE.INTER.CONST>
1

>  <SCORE.INTER.POLAR>
0

>  <SCORE.INTER.ROT>
3

>  <SCORE.INTER.SOLV>
5.35777

>  <SCORE.INTER.VDW>
-15.6005

>  <SCORE.INTER.norm>
-1.02682

>  <SCORE.INTRA>
-0.809623

>  <SCORE.INTRA.DIHEDRAL>
0.231819

>  <SCORE.INTRA.DIHEDRAL.0>
1.88407

>  <SCORE.INTRA.POLAR>
0

>  <SCORE.INTRA.POLAR.0>
0

>  <SCORE.INTRA.REPUL>
0

>  <SCORE.INTRA.REPUL.0>
0

>  <SCORE.INTRA.SOLV>
0.467048

>  <SCORE.INTRA.SOLV.lig_0>
-10.2714

>  <SCORE.INTRA.VDW>
-1.15906

>  <SCORE.INTRA.VDW.0>
0.416923

>  <SCORE.INTRA.norm>
-0.0674686

>  <SCORE.RESTR>
0

>  <SCORE.RESTR.CAVITY>
0

>  <SCORE.RESTR.norm>
0

>  <SCORE.SYSTEM>
0

>  <SCORE.SYSTEM.CONST>
0

>  <SCORE.SYSTEM.DIHEDRAL>
0

>  <SCORE.SYSTEM.SOLV>
0

>  <SCORE.SYSTEM.norm>
0

>  <SCORE.heavy>
12

>  <SCORE.norm>
-1.09429

>  <RMSD>
22.314

$$$$
ligand
 OpenBabel11021811433D
libRbt.so/2013.1/901 2013/11/27
 12 12  0  0  0  0  0  0  0  0999 V2000
   33.7544   26.6538   28.2299 O   0  0  0  0  0  0  0  0  0  0  0  0
   29.2689   25.4339   22.3276 O   0  0  0  0  0  0  0  0  0  0  0  0
   34.1556   25.3559   27.6958 C   0  0  0  0  0  0  0  0  0  0  0  0
   30.0325   27.4030   23.5998 O   0  0  0  0  0  0  0  0  0  0  0  0
   33.0138   24.7176   26.8524 C   0  0  0  0  0  0  0  0  0  0  0  0
   31.0996   26.0329   22.6648 O   0  0  0  0  0  0  0  0  0  0  0  0
   31.8369   25.6537   26.8308 N   0  0  0  0  0  0  0  0  0  0  0  0
   31.3762   25.9441   28.2226 C   0  0  0  0  0  0  0  0  0  0  0  0
   32.5590   26.5176   29.0534 C   0  0  0  0  0  0  0  0  0  0  0  0
   30.6886   25.0936   26.0359 C   0  0  0  0  0  0  0  0  0  0  0  0
   31.0519   24.9732   24.5361 C   0  0  0  0  0  0  0  0  0  0  0  0
   29.9162   25.9395   23.5131 S   0  0  0  0  0  0  0  0  0  0  0  0
  1  3  1  0  0  0  0
  1  9  1  0  0  0  0
  2 12  1  0  0  0  0
  3  5  1  0  0  0  0
  4 12  2  0  0  0  0
  5  7  1  0  0  0  0
  6 12  2  0  0  0  0
  7  8  1  0  0  0  0
  7 10  1  0  0  0  0
  8  9  1  0  0  0  0
 10 11  1  0  0  0  0
 11 12  1  0  0  0  0
M  END
>  <CHROM.1>
-65.90271996,-121.09091111,-131.98813696,31.38860334,25.84515313,25.52006038
-0.94212369,0.50105895,-1.89621777

>  <Name>
ligand

>  <RI>
0

>  <Rbt.Current_Directory>
/home/itssahil/PROJECTS/Mol_Feturizer/New_Systems/rnas/2HO6

>  <Rbt.Executable>
rbdock ($Id: //depot/dev/client3/rdock/2013.1/src/exe/rbdock.cxx#4 $)

>  <Rbt.Library>
libRbt.so (2013.1, Build901 2013/11/27)

>  <Rbt.Parameter_File>
/export/apps/rDock/src/rDock_2013.1_src/data/scripts/dock_solv.prm

>  <Rbt.Receptor>
prm/blind_docking_100.prm

>  <SCORE>
-13.6786

>  <SCORE.INTER>
-15.9534

>  <SCORE.INTER.CONST>
1

>  <SCORE.INTER.POLAR>
0

>  <SCORE.INTER.ROT>
3

>  <SCORE.INTER.SOLV>
7.90454

>  <SCORE.INTER.VDW>
-18.8705

>  <SCORE.INTER.norm>
-1.32945

>  <SCORE.INTRA>
2.27336

>  <SCORE.INTRA.DIHEDRAL>
5.48665

>  <SCORE.INTRA.DIHEDRAL.0>
1.88407

>  <SCORE.INTRA.POLAR>
0

>  <SCORE.INTRA.POLAR.0>
0

>  <SCORE.INTRA.REPUL>
0

>  <SCORE.INTRA.REPUL.0>
0

>  <SCORE.INTRA.SOLV>
0.182846

>  <SCORE.INTRA.SOLV.lig_0>
-10.2714

>  <SCORE.INTRA.VDW>
-0.561385

>  <SCORE.INTRA.VDW.0>
0.416923

>  <SCORE.INTRA.norm>
0.189447

>  <SCORE.RESTR>
0.00145908

>  <SCORE.RESTR.CAVITY>
0.00145908

>  <SCORE.RESTR.norm>
0.00012159

>  <SCORE.SYSTEM>
0

>  <SCORE.SYSTEM.CONST>
0

>  <SCORE.SYSTEM.DIHEDRAL>
0

>  <SCORE.SYSTEM.SOLV>
0

>  <SCORE.SYSTEM.norm>
0

>  <SCORE.heavy>
12

>  <SCORE.norm>
-1.13988

>  <RMSD>
25.607

$$$$
ligand
 OpenBabel11021811433D
libRbt.so/2013.1/901 2013/11/27
 12 12  0  0  0  0  0  0  0  0999 V2000
   30.0608   27.2827   23.9040 O   0  0  0  0  0  0  0  0  0  0  0  0
   35.2020   26.1924   26.2326 O   0  0  0  0  0  0  0  0  0  0  0  0
   29.0433   27.1304   24.9395 C   0  0  0  0  0  0  0  0  0  0  0  0
   33.6889   26.6465   28.1256 O   0  0  0  0  0  0  0  0  0  0  0  0
   29.5214   26.1611   26.0593 C   0  0  0  0  0  0  0  0  0  0  0  0
   34.6877   25.0010   27.6955 O   0  0  0  0  0  0  0  0  0  0  0  0
   30.9110   25.6849   25.7367 N   0  0  0  0  0  0  0  0  0  0  0  0
   30.9354   25.0139   24.4015 C   0  0  0  0  0  0  0  0  0  0  0  0
   30.3895   25.9881   23.3193 C   0  0  0  0  0  0  0  0  0  0  0  0
   31.4346   24.7338   26.7784 C   0  0  0  0  0  0  0  0  0  0  0  0
   32.9412   24.4474   26.5684 C   0  0  0  0  0  0  0  0  0  0  0  0
   33.9317   25.9313   26.8637 S   0  0  0  0  0  0  0  0  0  0  0  0
  1  3  1  0  0  0  0
  1  9  1  0  0  0  0
  2 12  1  0  0  0  0
  3  5  1  0  0  0  0
  4 12  2  0  0  0  0
  5  7  1  0  0  0  0
  6 12  2  0  0  0  0
  7  8  1  0  0  0  0
  7 10  1  0  0  0  0
  8  9  1  0  0  0  0
 10 11  1  0  0  0  0
 11 12  1  0  0  0  0
M  END
>  <CHROM.1>
-170.09359350,66.64291110,-151.88067645,32.14628615,25.87603053,26.00074492
-2.58561481,0.03715228,1.88083925

>  <Name>
ligand

>  <RI>
0

>  <Rbt.Current_Directory>
/home/itssahil/PROJECTS/Mol_Feturizer/New_Systems/rnas/2HO6

>  <Rbt.Executable>
rbdock ($Id: //depot/dev/client3/rdock/2013.1/src/exe/rbdock.cxx#4 $)

>  <Rbt.Library>
libRbt.so (2013.1, Build901 2013/11/27)

>  <Rbt.Parameter_File>
/export/apps/rDock/src/rDock_2013.1_src/data/scripts/dock_solv.prm

>  <Rbt.Receptor>
prm/blind_docking_60.prm

>  <SCORE>
-20.7554

>  <SCORE.INTER>
-20.3302

>  <SCORE.INTER.CONST>
1

>  <SCORE.INTER.POLAR>
0

>  <SCORE.INTER.ROT>
3

>  <SCORE.INTER.SOLV>
8.15173

>  <SCORE.INTER.VDW>
-21.8707

>  <SCORE.INTER.norm>
-1.69418

>  <SCORE.INTRA>
-0.425245

>  <SCORE.INTRA.DIHEDRAL>
0.129074

>  <SCORE.INTRA.DIHEDRAL.0>
1.88407

>  <SCORE.INTRA.POLAR>
0

>  <SCORE.INTRA.POLAR.0>
0

>  <SCORE.INTRA.REPUL>
0

>  <SCORE.INTRA.REPUL.0>
0

>  <SCORE.INTRA.SOLV>
0.438223

>  <SCORE.INTRA.SOLV.lig_0>
-10.2714

>  <SCORE.INTRA.VDW>
-0.708894

>  <SCORE.INTRA.VDW.0>
0.416923

>  <SCORE.INTRA.norm>
-0.0354371

>  <SCORE.RESTR>
0

>  <SCORE.RESTR.CAVITY>
0

>  <SCORE.RESTR.norm>
0

>  <SCORE.SYSTEM>
0

>  <SCORE.SYSTEM.CONST>
0

>  <SCORE.SYSTEM.DIHEDRAL>
0

>  <SCORE.SYSTEM.SOLV>
0

>  <SCORE.SYSTEM.norm>
0

>  <SCORE.heavy>
12

>  <SCORE.norm>
-1.72962

>  <RMSD>
25.670

$$$$
ligand
 OpenBabel11021811433D
libRbt.so/2013.1/901 2013/11/27
 12 12  0  0  0  0  0  0  0  0999 V2000
   30.1326   26.9584   23.6001 O   0  0  0  0  0  0  0  0  0  0  0  0
   33.6036   23.9334   26.0521 O   0  0  0  0  0  0  0  0  0  0  0  0
   28.8936   26.9580   24.3719 C   0  0  0  0  0  0  0  0  0  0  0  0
   34.7598   26.0708   26.4689 O   0  0  0  0  0  0  0  0  0  0  0  0
   29.1234   26.3937   25.8040 C   0  0  0  0  0  0  0  0  0  0  0  0
   34.1447   24.7140   27.7614 O   0  0  0  0  0  0  0  0  0  0  0  0
   30.5748   26.0328   25.9627 N   0  0  0  0  0  0  0  0  0  0  0  0
   30.9813   25.0383   24.9239 C   0  0  0  0  0  0  0  0  0  0  0  0
   30.6761   25.6085   23.5097 C   0  0  0  0  0  0  0  0  0  0  0  0
   30.8676   25.4709   27.3276 C   0  0  0  0  0  0  0  0  0  0  0  0
   32.3036   25.8262   27.7831 C   0  0  0  0  0  0  0  0  0  0  0  0
   33.5249   25.2783   26.5671 S   0  0  0  0  0  0  0  0  0  0  0  0
  1  3  1  0  0  0  0
  1  9  1  0  0  0  0
  2 12  1  0  0  0  0
  3  5  1  0  0  0  0
  4 12  2  0  0  0  0
  5  7  1  0  0  0  0
  6 12  2  0  0  0  0
  7  8  1  0  0  0  0
  7 10  1  0  0  0  0
  8  9  1  0  0  0  0
 10 11  1  0  0  0  0
 11 12  1  0  0  0  0
M  END
>  <CHROM.1>
-148.34876737,-55.31037606,-52.63396678,31.87009140,25.64096214,25.91658856
-2.61986902,-0.28435464,1.61272163

>  <Name>
ligand

>  <RI>
0

>  <Rbt.Current_Directory>
/home/itssahil/PROJECTS/Mol_Feturizer/New_Systems/rnas/2HO6

>  <Rbt.Executable>
rbdock ($Id: //depot/dev/client3/rdock/2013.1/src/exe/rbdock.cxx#4 $)

>  <Rbt.Library>
libRbt.so (2013.1, Build901 2013/11/27)

>  <Rbt.Parameter_File>
/export/apps/rDock/src/rDock_2013.1_src/data/scripts/dock_solv.prm

>  <Rbt.Receptor>
prm/blind_docking_60.prm

>  <SCORE>
-13.777

>  <SCORE.INTER>
-13.3294

>  <SCORE.INTER.CONST>
1

>  <SCORE.INTER.POLAR>
0

>  <SCORE.INTER.ROT>
3

>  <SCORE.INTER.SOLV>
7.87176

>  <SCORE.INTER.VDW>
-17.1102

>  <SCORE.INTER.norm>
-1.11078

>  <SCORE.INTRA>
-0.447593

>  <SCORE.INTRA.DIHEDRAL>
1.18026

>  <SCORE.INTRA.DIHEDRAL.0>
1.88407

>  <SCORE.INTRA.POLAR>
0

>  <SCORE.INTRA.POLAR.0>
0

>  <SCORE.INTRA.REPUL>
0

>  <SCORE.INTRA.REPUL.0>
0

>  <SCORE.INTRA.SOLV>
0.181417

>  <SCORE.INTRA.SOLV.lig_0>
-10.2714

>  <SCORE.INTRA.VDW>
-1.12843

>  <SCORE.INTRA.VDW.0>
0.416923

>  <SCORE.INTRA.norm>
-0.0372994

>  <SCORE.RESTR>
0

>  <SCORE.RESTR.CAVITY>
0

>  <SCORE.RESTR.norm>
0

>  <SCORE.SYSTEM>
0

>  <SCORE.SYSTEM.CONST>
0

>  <SCORE.SYSTEM.DIHEDRAL>
0

>  <SCORE.SYSTEM.SOLV>
0

>  <SCORE.SYSTEM.norm>
0

>  <SCORE.heavy>
12

>  <SCORE.norm>
-1.14808

>  <RMSD>
25.694

$$$$
ligand
 OpenBabel11021811433D
libRbt.so/2013.1/901 2013/11/27
 12 12  0  0  0  0  0  0  0  0999 V2000
   30.1267   27.4953   24.1231 O   0  0  0  0  0  0  0  0  0  0  0  0
   35.2212   26.1741   26.5685 O   0  0  0  0  0  0  0  0  0  0  0  0
   29.2036   27.3742   25.2474 C   0  0  0  0  0  0  0  0  0  0  0  0
   33.4699   26.4656   28.2794 O   0  0  0  0  0  0  0  0  0  0  0  0
   29.6667   26.2673   26.2385 C   0  0  0  0  0  0  0  0  0  0  0  0
   34.5551   24.8714   27.8659 O   0  0  0  0  0  0  0  0  0  0  0  0
   30.9503   25.6648   25.7373 N   0  0  0  0  0  0  0  0  0  0  0  0
   30.7633   25.1085   24.3628 C   0  0  0  0  0  0  0  0  0  0  0  0
   30.2374   26.2248   23.4165 C   0  0  0  0  0  0  0  0  0  0  0  0
   31.4531   24.5772   26.6475 C   0  0  0  0  0  0  0  0  0  0  0  0
   32.9794   24.3749   26.4882 C   0  0  0  0  0  0  0  0  0  0  0  0
   33.8880   25.8482   27.0117 S   0  0  0  0  0  0  0  0  0  0  0  0
  1  3  1  0  0  0  0
  1  9  1  0  0  0  0
  2 12  1  0  0  0  0
  3  5  1  0  0  0  0
  4 12  2  0  0  0  0
  5  7  1  0  0  0  0
  6 12  2  0  0  0  0
  7  8  1  0  0  0  0
  7 10  1  0  0  0  0
  8  9  1  0  0  0  0
 10 11  1  0  0  0  0
 11 12  1  0  0  0  0
M  END
>  <CHROM.1>
-156.51274427,64.41209236,-157.12504142,32.12269825,25.88396512,26.12182060
-2.91486685,0.54793070,3.05998631

>  <Name>
ligand

>  <RI>
0

>  <Rbt.Current_Directory>
/home/itssahil/PROJECTS/Mol_Feturizer/New_Systems/rnas/2HO6

>  <Rbt.Executable>
rbdock ($Id: //depot/dev/client3/rdock/2013.1/src/exe/rbdock.cxx#4 $)

>  <Rbt.Library>
libRbt.so (2013.1, Build901 2013/11/27)

>  <Rbt.Parameter_File>
/export/apps/rDock/src/rDock_2013.1_src/data/scripts/dock_solv.prm

>  <Rbt.Receptor>
prm/blind_docking_60.prm

>  <SCORE>
-19.5776

>  <SCORE.INTER>
-18.9153

>  <SCORE.INTER.CONST>
1

>  <SCORE.INTER.POLAR>
0

>  <SCORE.INTER.ROT>
3

>  <SCORE.INTER.SOLV>
7.92596

>  <SCORE.INTER.VDW>
-20.8522

>  <SCORE.INTER.norm>
-1.57628

>  <SCORE.INTRA>
-0.662304

>  <SCORE.INTRA.DIHEDRAL>
0.639915

>  <SCORE.INTRA.DIHEDRAL.0>
1.88407

>  <SCORE.INTRA.POLAR>
0

>  <SCORE.INTRA.POLAR.0>
0

>  <SCORE.INTRA.REPUL>
0

>  <SCORE.INTRA.REPUL.0>
0

>  <SCORE.INTRA.SOLV>
0.526443

>  <SCORE.INTRA.SOLV.lig_0>
-10.2714

>  <SCORE.INTRA.VDW>
-1.24548

>  <SCORE.INTRA.VDW.0>
0.416923

>  <SCORE.INTRA.norm>
-0.055192

>  <SCORE.RESTR>
0

>  <SCORE.RESTR.CAVITY>
0

>  <SCORE.RESTR.norm>
0

>  <SCORE.SYSTEM>
0

>  <SCORE.SYSTEM.CONST>
0

>  <SCORE.SYSTEM.DIHEDRAL>
0

>  <SCORE.SYSTEM.SOLV>
0

>  <SCORE.SYSTEM.norm>
0

>  <SCORE.heavy>
12

>  <SCORE.norm>
-1.63147

>  <RMSD>
25.745

$$$$
ligand
 OpenBabel11021811433D
libRbt.so/2013.1/901 2013/11/27
 12 12  0  0  0  0  0  0  0  0999 V2000
   29.9834   27.2723   23.6500 O   0  0  0  0  0  0  0  0  0  0  0  0
   35.0052   24.9668   27.7896 O   0  0  0  0  0  0  0  0  0  0  0  0
   28.9175   27.0675   24.6261 C   0  0  0  0  0  0  0  0  0  0  0  0
   34.2222   26.4620   25.9922 O   0  0  0  0  0  0  0  0  0  0  0  0
   29.3628   26.0840   25.7470 C   0  0  0  0  0  0  0  0  0  0  0  0
   33.9282   26.5922   27.9381 O   0  0  0  0  0  0  0  0  0  0  0  0
   30.7802   25.6530   25.4879 N   0  0  0  0  0  0  0  0  0  0  0  0
   30.8933   25.0159   24.1407 C   0  0  0  0  0  0  0  0  0  0  0  0
   30.3782   26.0016   23.0538 C   0  0  0  0  0  0  0  0  0  0  0  0
   31.2745   24.6907   26.5337 C   0  0  0  0  0  0  0  0  0  0  0  0
   32.1716   25.4056   27.5730 C   0  0  0  0  0  0  0  0  0  0  0  0
   33.8916   25.4608   27.0176 S   0  0  0  0  0  0  0  0  0  0  0  0
  1  3  1  0  0  0  0
  1  9  1  0  0  0  0
  2 12  1  0  0  0  0
  3  5  1  0  0  0  0
  4 12  2  0  0  0  0
  5  7  1  0  0  0  0
  6 12  2  0  0  0  0
  7  8  1  0  0  0  0
  7 10  1  0  0  0  0
  8  9  1  0  0  0  0
 10 11  1  0  0  0  0
 11 12  1  0  0  0  0
M  END
>  <CHROM.1>
-100.87634670,-86.67813745,-125.36804467,31.99748653,25.86724279,25.93148930
-2.50470044,0.05929067,1.88453523

>  <Name>
ligand

>  <RI>
0

>  <Rbt.Current_Directory>
/home/itssahil/PROJECTS/Mol_Feturizer/New_Systems/rnas/2HO6

>  <Rbt.Executable>
rbdock ($Id: //depot/dev/client3/rdock/2013.1/src/exe/rbdock.cxx#4 $)

>  <Rbt.Library>
libRbt.so (2013.1, Build901 2013/11/27)

>  <Rbt.Parameter_File>
/export/apps/rDock/src/rDock_2013.1_src/data/scripts/dock_solv.prm

>  <Rbt.Receptor>
prm/blind_docking_80.prm

>  <SCORE>
-16.5989

>  <SCORE.INTER>
-17.315

>  <SCORE.INTER.CONST>
1

>  <SCORE.INTER.POLAR>
0

>  <SCORE.INTER.ROT>
3

>  <SCORE.INTER.SOLV>
8.34663

>  <SCORE.INTER.VDW>
-19.9256

>  <SCORE.INTER.norm>
-1.44292

>  <SCORE.INTRA>
0.716137

>  <SCORE.INTRA.DIHEDRAL>
4.10397

>  <SCORE.INTRA.DIHEDRAL.0>
1.88407

>  <SCORE.INTRA.POLAR>
0

>  <SCORE.INTRA.POLAR.0>
0

>  <SCORE.INTRA.REPUL>
0

>  <SCORE.INTRA.REPUL.0>
0

>  <SCORE.INTRA.SOLV>
0.481601

>  <SCORE.INTRA.SOLV.lig_0>
-10.2714

>  <SCORE.INTRA.VDW>
-1.57665

>  <SCORE.INTRA.VDW.0>
0.416923

>  <SCORE.INTRA.norm>
0.0596781

>  <SCORE.RESTR>
0

>  <SCORE.RESTR.CAVITY>
0

>  <SCORE.RESTR.norm>
0

>  <SCORE.SYSTEM>
0

>  <SCORE.SYSTEM.CONST>
0

>  <SCORE.SYSTEM.DIHEDRAL>
0

>  <SCORE.SYSTEM.SOLV>
0

>  <SCORE.SYSTEM.norm>
0

>  <SCORE.heavy>
12

>  <SCORE.norm>
-1.38324

>  <RMSD>
25.748

$$$$
ligand
 OpenBabel11021811433D
libRbt.so/2013.1/901 2013/11/27
 12 12  0  0  0  0  0  0  0  0999 V2000
   29.5790   27.7810   24.5402 O   0  0  0  0  0  0  0  0  0  0  0  0
   34.7965   25.8842   25.9545 O   0  0  0  0  0  0  0  0  0  0  0  0
   28.9014   27.0830   25.6285 C   0  0  0  0  0  0  0  0  0  0  0  0
   33.8751   26.6805   28.0983 O   0  0  0  0  0  0  0  0  0  0  0  0
   29.6802   25.8019   26.0461 C   0  0  0  0  0  0  0  0  0  0  0  0
   34.4408   24.8626   27.5835 O   0  0  0  0  0  0  0  0  0  0  0  0
   30.9186   25.6826   25.2012 N   0  0  0  0  0  0  0  0  0  0  0  0
   30.5586   25.6414   23.7513 C   0  0  0  0  0  0  0  0  0  0  0  0
   29.7256   26.9026   23.3857 C   0  0  0  0  0  0  0  0  0  0  0  0
   31.7187   24.4562   25.5477 C   0  0  0  0  0  0  0  0  0  0  0  0
   32.4088   24.6086   26.9247 C   0  0  0  0  0  0  0  0  0  0  0  0
   33.6849   25.8889   26.8735 S   0  0  0  0  0  0  0  0  0  0  0  0
  1  3  1  0  0  0  0
  1  9  1  0  0  0  0
  2 12  1  0  0  0  0
  3  5  1  0  0  0  0
  4 12  2  0  0  0  0
  5  7  1  0  0  0  0
  6 12  2  0  0  0  0
  7  8  1  0  0  0  0
  7 10  1  0  0  0  0
  8  9  1  0  0  0  0
 10 11  1  0  0  0  0
 11 12  1  0  0  0  0
M  END
>  <CHROM.1>
-71.43191195,-67.12323709,-56.71012786,31.93613819,25.94953011,25.92528441
2.88293875,0.50666166,-2.25315563

>  <Name>
ligand

>  <RI>
0

>  <Rbt.Current_Directory>
/home/itssahil/PROJECTS/Mol_Feturizer/New_Systems/rnas/2HO6

>  <Rbt.Executable>
rbdock ($Id: //depot/dev/client3/rdock/2013.1/src/exe/rbdock.cxx#4 $)

>  <Rbt.Library>
libRbt.so (2013.1, Build901 2013/11/27)

>  <Rbt.Parameter_File>
/export/apps/rDock/src/rDock_2013.1_src/data/scripts/dock_solv.prm

>  <Rbt.Receptor>
prm/blind_docking_100.prm

>  <SCORE>
-19.2995

>  <SCORE.INTER>
-18.4391

>  <SCORE.INTER.CONST>
1

>  <SCORE.INTER.POLAR>
0

>  <SCORE.INTER.ROT>
3

>  <SCORE.INTER.SOLV>
8.07938

>  <SCORE.INTER.VDW>
-20.5858

>  <SCORE.INTER.norm>
-1.53659

>  <SCORE.INTRA>
-0.860398

>  <SCORE.INTRA.DIHEDRAL>
0.336756

>  <SCORE.INTRA.DIHEDRAL.0>
1.88407

>  <SCORE.INTRA.POLAR>
0

>  <SCORE.INTRA.POLAR.0>
0

>  <SCORE.INTRA.REPUL>
0

>  <SCORE.INTRA.REPUL.0>
0

>  <SCORE.INTRA.SOLV>
0.16561

>  <SCORE.INTRA.SOLV.lig_0>
-10.2714

>  <SCORE.INTRA.VDW>
-1.11158

>  <SCORE.INTRA.VDW.0>
0.416923

>  <SCORE.INTRA.norm>
-0.0716999

>  <SCORE.RESTR>
0

>  <SCORE.RESTR.CAVITY>
0

>  <SCORE.RESTR.norm>
0

>  <SCORE.SYSTEM>
0

>  <SCORE.SYSTEM.CONST>
0

>  <SCORE.SYSTEM.DIHEDRAL>
0

>  <SCORE.SYSTEM.SOLV>
0

>  <SCORE.SYSTEM.norm>
0

>  <SCORE.heavy>
12

>  <SCORE.norm>
-1.60829

>  <RMSD>
25.797

$$$$
ligand
 OpenBabel11021811433D
libRbt.so/2013.1/901 2013/11/27
 12 12  0  0  0  0  0  0  0  0999 V2000
   29.9903   27.7108   24.3156 O   0  0  0  0  0  0  0  0  0  0  0  0
   35.2579   26.1326   26.6225 O   0  0  0  0  0  0  0  0  0  0  0  0
   29.0938   27.5198   25.4516 C   0  0  0  0  0  0  0  0  0  0  0  0
   33.4649   26.4708   28.2808 O   0  0  0  0  0  0  0  0  0  0  0  0
   29.5935   26.3714   26.3754 C   0  0  0  0  0  0  0  0  0  0  0  0
   34.4720   24.8303   27.8515 O   0  0  0  0  0  0  0  0  0  0  0  0
   30.8739   25.8137   25.8172 N   0  0  0  0  0  0  0  0  0  0  0  0
   30.6642   25.3245   24.4206 C   0  0  0  0  0  0  0  0  0  0  0  0
   30.1026   26.4792   23.5434 C   0  0  0  0  0  0  0  0  0  0  0  0
   31.4112   24.6892   26.6603 C   0  0  0  0  0  0  0  0  0  0  0  0
   32.9219   24.4699   26.4042 C   0  0  0  0  0  0  0  0  0  0  0  0
   33.8930   25.8707   27.0082 S   0  0  0  0  0  0  0  0  0  0  0  0
  1  3  1  0  0  0  0
  1  9  1  0  0  0  0
  2 12  1  0  0  0  0
  3  5  1  0  0  0  0
  4 12  2  0  0  0  0
  5  7  1  0  0  0  0
  6 12  2  0  0  0  0
  7  8  1  0  0  0  0
  7 10  1  0  0  0  0
  8  9  1  0  0  0  0
 10 11  1  0  0  0  0
 11 12  1  0  0  0  0
M  END
>  <CHROM.1>
-159.43720465,67.71943090,-163.37365619,32.06527563,25.97674534,26.17908039
2.74771407,0.41367990,-1.91721995

>  <Name>
ligand

>  <RI>
0

>  <Rbt.Current_Directory>
/home/itssahil/PROJECTS/Mol_Feturizer/New_Systems/rnas/2HO6

>  <Rbt.Executable>
rbdock ($Id: //depot/dev/client3/rdock/2013.1/src/exe/rbdock.cxx#4 $)

>  <Rbt.Library>
libRbt.so (2013.1, Build901 2013/11/27)

>  <Rbt.Parameter_File>
/export/apps/rDock/src/rDock_2013.1_src/data/scripts/dock_solv.prm

>  <Rbt.Receptor>
prm/blind_docking_80.prm

>  <SCORE>
-19.2083

>  <SCORE.INTER>
-18.6911

>  <SCORE.INTER.CONST>
1

>  <SCORE.INTER.POLAR>
0

>  <SCORE.INTER.ROT>
3

>  <SCORE.INTER.SOLV>
7.7383

>  <SCORE.INTER.VDW>
-20.6402

>  <SCORE.INTER.norm>
-1.55759

>  <SCORE.INTRA>
-0.517164

>  <SCORE.INTRA.DIHEDRAL>
0.63504

>  <SCORE.INTRA.DIHEDRAL.0>
1.88407

>  <SCORE.INTRA.POLAR>
0

>  <SCORE.INTRA.POLAR.0>
0

>  <SCORE.INTRA.REPUL>
0

>  <SCORE.INTRA.REPUL.0>
0

>  <SCORE.INTRA.SOLV>
0.543436

>  <SCORE.INTRA.SOLV.lig_0>
-10.2714

>  <SCORE.INTRA.VDW>
-1.1064

>  <SCORE.INTRA.VDW.0>
0.416923

>  <SCORE.INTRA.norm>
-0.043097

>  <SCORE.RESTR>
0

>  <SCORE.RESTR.CAVITY>
0

>  <SCORE.RESTR.norm>
0

>  <SCORE.SYSTEM>
0

>  <SCORE.SYSTEM.CONST>
0

>  <SCORE.SYSTEM.DIHEDRAL>
0

>  <SCORE.SYSTEM.SOLV>
0

>  <SCORE.SYSTEM.norm>
0

>  <SCORE.heavy>
12

>  <SCORE.norm>
-1.60069

>  <RMSD>
25.876

$$$$
ligand
 OpenBabel11021811433D
libRbt.so/2013.1/901 2013/11/27
 12 12  0  0  0  0  0  0  0  0999 V2000
   29.6535   28.0004   24.8023 O   0  0  0  0  0  0  0  0  0  0  0  0
   34.6959   25.8787   26.0268 O   0  0  0  0  0  0  0  0  0  0  0  0
   28.9812   27.3162   25.9026 C   0  0  0  0  0  0  0  0  0  0  0  0
   33.6981   26.5971   28.1640 O   0  0  0  0  0  0  0  0  0  0  0  0
   29.6723   25.9601   26.2275 C   0  0  0  0  0  0  0  0  0  0  0  0
   34.3319   24.8095   27.6231 O   0  0  0  0  0  0  0  0  0  0  0  0
   30.8478   25.7750   25.3078 N   0  0  0  0  0  0  0  0  0  0  0  0
   30.4058   25.8222   23.8809 C   0  0  0  0  0  0  0  0  0  0  0  0
   29.6620   27.1608   23.6104 C   0  0  0  0  0  0  0  0  0  0  0  0
   31.5607   24.4745   25.5626 C   0  0  0  0  0  0  0  0  0  0  0  0
   32.3255   24.5096   26.9078 C   0  0  0  0  0  0  0  0  0  0  0  0
   33.5625   25.8287   26.9174 S   0  0  0  0  0  0  0  0  0  0  0  0
  1  3  1  0  0  0  0
  1  9  1  0  0  0  0
  2 12  1  0  0  0  0
  3  5  1  0  0  0  0
  4 12  2  0  0  0  0
  5  7  1  0  0  0  0
  6 12  2  0  0  0  0
  7  8  1  0  0  0  0
  7 10  1  0  0  0  0
  8  9  1  0  0  0  0
 10 11  1  0  0  0  0
 11 12  1  0  0  0  0
M  END
>  <CHROM.1>
-70.90300649,-59.97776325,-63.22201219,31.85726587,26.00675434,26.03478706
3.03447331,0.56344355,-2.43552860

>  <Name>
ligand

>  <RI>
0

>  <Rbt.Current_Directory>
/home/itssahil/PROJECTS/Mol_Feturizer/New_Systems/rnas/2HO6

>  <Rbt.Executable>
rbdock ($Id: //depot/dev/client3/rdock/2013.1/src/exe/rbdock.cxx#4 $)

>  <Rbt.Library>
libRbt.so (2013.1, Build901 2013/11/27)

>  <Rbt.Parameter_File>
/export/apps/rDock/src/rDock_2013.1_src/data/scripts/dock_solv.prm

>  <Rbt.Receptor>
prm/blind_docking_60.prm

>  <SCORE>
-19.375

>  <SCORE.INTER>
-18.4251

>  <SCORE.INTER.CONST>
1

>  <SCORE.INTER.POLAR>
0

>  <SCORE.INTER.ROT>
3

>  <SCORE.INTER.SOLV>
7.99566

>  <SCORE.INTER.VDW>
-20.5486

>  <SCORE.INTER.norm>
-1.53542

>  <SCORE.INTRA>
-0.949962

>  <SCORE.INTRA.DIHEDRAL>
0.151892

>  <SCORE.INTRA.DIHEDRAL.0>
1.88407

>  <SCORE.INTRA.POLAR>
0

>  <SCORE.INTRA.POLAR.0>
0

>  <SCORE.INTRA.REPUL>
0

>  <SCORE.INTRA.REPUL.0>
0

>  <SCORE.INTRA.SOLV>
0.238208

>  <SCORE.INTRA.SOLV.lig_0>
-10.2714

>  <SCORE.INTRA.VDW>
-1.14501

>  <SCORE.INTRA.VDW.0>
0.416923

>  <SCORE.INTRA.norm>
-0.0791635

>  <SCORE.RESTR>
0

>  <SCORE.RESTR.CAVITY>
0

>  <SCORE.RESTR.norm>
0

>  <SCORE.SYSTEM>
0

>  <SCORE.SYSTEM.CONST>
0

>  <SCORE.SYSTEM.DIHEDRAL>
0

>  <SCORE.SYSTEM.SOLV>
0

>  <SCORE.SYSTEM.norm>
0

>  <SCORE.heavy>
12

>  <SCORE.norm>
-1.61459

>  <RMSD>
25.930

$$$$
ligand
 OpenBabel11021811433D
libRbt.so/2013.1/901 2013/11/27
 12 12  0  0  0  0  0  0  0  0999 V2000
   33.8316   26.6666   27.9588 O   0  0  0  0  0  0  0  0  0  0  0  0
   29.8134   28.0341   23.5833 O   0  0  0  0  0  0  0  0  0  0  0  0
   34.2488   25.4018   27.3615 C   0  0  0  0  0  0  0  0  0  0  0  0
   30.3069   25.7079   22.9321 O   0  0  0  0  0  0  0  0  0  0  0  0
   33.0610   24.7022   26.6391 C   0  0  0  0  0  0  0  0  0  0  0  0
   28.6749   26.4531   23.7513 O   0  0  0  0  0  0  0  0  0  0  0  0
   31.8342   25.5632   26.7640 N   0  0  0  0  0  0  0  0  0  0  0  0
   31.5150   25.8102   28.2029 C   0  0  0  0  0  0  0  0  0  0  0  0
   32.7461   26.4478   28.9073 C   0  0  0  0  0  0  0  0  0  0  0  0
   30.6406   24.9407   26.0918 C   0  0  0  0  0  0  0  0  0  0  0  0
   29.6329   26.0202   25.6280 C   0  0  0  0  0  0  0  0  0  0  0  0
   30.0920   26.6849   24.0101 S   0  0  0  0  0  0  0  0  0  0  0  0
  1  3  1  0  0  0  0
  1  9  1  0  0  0  0
  2 12  1  0  0  0  0
  3  5  1  0  0  0  0
  4 12  2  0  0  0  0
  5  7  1  0  0  0  0
  6 12  2  0  0  0  0
  7  8  1  0  0  0  0
  7 10  1  0  0  0  0
  8  9  1  0  0  0  0
 10 11  1  0  0  0  0
 11 12  1  0  0  0  0
M  END
>  <CHROM.1>
-152.96765305,84.48338956,-149.41944215,31.21923658,26.12395745,25.74424320
-0.82250577,0.35747218,-1.69369061

>  <Name>
ligand

>  <RI>
0

>  <Rbt.Current_Directory>
/home/itssahil/PROJECTS/Mol_Feturizer/New_Systems/rnas/2HO6

>  <Rbt.Executable>
rbdock ($Id: //depot/dev/client3/rdock/2013.1/src/exe/rbdock.cxx#4 $)

>  <Rbt.Library>
libRbt.so (2013.1, Build901 2013/11/27)

>  <Rbt.Parameter_File>
/export/apps/rDock/src/rDock_2013.1_src/data/scripts/dock_solv.prm

>  <Rbt.Receptor>
prm/blind_docking_60.prm

>  <SCORE>
-15.7318

>  <SCORE.INTER>
-16.1603

>  <SCORE.INTER.CONST>
1

>  <SCORE.INTER.POLAR>
0

>  <SCORE.INTER.ROT>
3

>  <SCORE.INTER.SOLV>
8.35508

>  <SCORE.INTER.VDW>
-19.1586

>  <SCORE.INTER.norm>
-1.34669

>  <SCORE.INTRA>
0.413406

>  <SCORE.INTRA.DIHEDRAL>
2.75223

>  <SCORE.INTRA.DIHEDRAL.0>
1.88407

>  <SCORE.INTRA.POLAR>
0

>  <SCORE.INTRA.POLAR.0>
0

>  <SCORE.INTRA.REPUL>
0

>  <SCORE.INTRA.REPUL.0>
0

>  <SCORE.INTRA.SOLV>
0.294866

>  <SCORE.INTRA.SOLV.lig_0>
-10.2714

>  <SCORE.INTRA.VDW>
-1.11014

>  <SCORE.INTRA.VDW.0>
0.416923

>  <SCORE.INTRA.norm>
0.0344505

>  <SCORE.RESTR>
0.0151335

>  <SCORE.RESTR.CAVITY>
0.0151335

>  <SCORE.RESTR.norm>
0.00126113

>  <SCORE.SYSTEM>
0

>  <SCORE.SYSTEM.CONST>
0

>  <SCORE.SYSTEM.DIHEDRAL>
0

>  <SCORE.SYSTEM.SOLV>
0

>  <SCORE.SYSTEM.norm>
0

>  <SCORE.heavy>
12

>  <SCORE.norm>
-1.31098

>  <RMSD>
25.936

$$$$
ligand
 OpenBabel11021811433D
libRbt.so/2013.1/901 2013/11/27
 12 12  0  0  0  0  0  0  0  0999 V2000
   33.6922   26.5889   28.0581 O   0  0  0  0  0  0  0  0  0  0  0  0
   28.2605   26.7620   24.8707 O   0  0  0  0  0  0  0  0  0  0  0  0
   34.2302   25.3282   27.5561 C   0  0  0  0  0  0  0  0  0  0  0  0
   29.8537   28.0886   23.5361 O   0  0  0  0  0  0  0  0  0  0  0  0
   33.2092   24.6122   26.6250 C   0  0  0  0  0  0  0  0  0  0  0  0
   29.1137   26.2967   23.1738 O   0  0  0  0  0  0  0  0  0  0  0  0
   31.9706   25.4578   26.5117 N   0  0  0  0  0  0  0  0  0  0  0  0
   31.3818   25.7036   27.8632 C   0  0  0  0  0  0  0  0  0  0  0  0
   32.4495   26.3582   28.7850 C   0  0  0  0  0  0  0  0  0  0  0  0
   30.9334   24.8189   25.6285 C   0  0  0  0  0  0  0  0  0  0  0  0
   30.8087   25.5676   24.2795 C   0  0  0  0  0  0  0  0  0  0  0  0
   29.6130   26.9194   24.3951 S   0  0  0  0  0  0  0  0  0  0  0  0
  1  3  1  0  0  0  0
  1  9  1  0  0  0  0
  2 12  1  0  0  0  0
  3  5  1  0  0  0  0
  4 12  2  0  0  0  0
  5  7  1  0  0  0  0
  6 12  2  0  0  0  0
  7  8  1  0  0  0  0
  7 10  1  0  0  0  0
  8  9  1  0  0  0  0
 10 11  1  0  0  0  0
 11 12  1  0  0  0  0
M  END
>  <CHROM.1>
-108.12037041,-88.08500010,-52.99794882,31.09381237,26.15962178,25.75483209
0.46938237,-0.67440747,0.97923436

>  <Name>
ligand

>  <RI>
0

>  <Rbt.Current_Directory>
/home/itssahil/PROJECTS/Mol_Feturizer/New_Systems/rnas/2HO6

>  <Rbt.Executable>
rbdock ($Id: //depot/dev/client3/rdock/2013.1/src/exe/rbdock.cxx#4 $)

>  <Rbt.Library>
libRbt.so (2013.1, Build901 2013/11/27)

>  <Rbt.Parameter_File>
/export/apps/rDock/src/rDock_2013.1_src/data/scripts/dock_solv.prm

>  <Rbt.Receptor>
prm/blind_docking_80.prm

>  <SCORE>
-16.0588

>  <SCORE.INTER>
-16.9126

>  <SCORE.INTER.CONST>
1

>  <SCORE.INTER.POLAR>
0

>  <SCORE.INTER.ROT>
3

>  <SCORE.INTER.SOLV>
7.96713

>  <SCORE.INTER.VDW>
-19.5308

>  <SCORE.INTER.norm>
-1.40939

>  <SCORE.INTRA>
0.85291

>  <SCORE.INTRA.DIHEDRAL>
4.577

>  <SCORE.INTRA.DIHEDRAL.0>
1.88407

>  <SCORE.INTRA.POLAR>
0

>  <SCORE.INTRA.POLAR.0>
0

>  <SCORE.INTRA.REPUL>
0

>  <SCORE.INTRA.REPUL.0>
0

>  <SCORE.INTRA.SOLV>
0.065188

>  <SCORE.INTRA.SOLV.lig_0>
-10.2714

>  <SCORE.INTRA.VDW>
-1.46818

>  <SCORE.INTRA.VDW.0>
0.416923

>  <SCORE.INTRA.norm>
0.0710758

>  <SCORE.RESTR>
0.000889429

>  <SCORE.RESTR.CAVITY>
0.000889429

>  <SCORE.RESTR.norm>
7.41191e-05

>  <SCORE.SYSTEM>
0

>  <SCORE.SYSTEM.CONST>
0

>  <SCORE.SYSTEM.DIHEDRAL>
0

>  <SCORE.SYSTEM.SOLV>
0

>  <SCORE.SYSTEM.norm>
0

>  <SCORE.heavy>
12

>  <SCORE.norm>
-1.33824

>  <RMSD>
25.953

$$$$
ligand
 OpenBabel11021811433D
libRbt.so/2013.1/901 2013/11/27
 12 12  0  0  0  0  0  0  0  0999 V2000
   33.8674   26.3299   28.2552 O   0  0  0  0  0  0  0  0  0  0  0  0
   29.2760   25.9060   22.3434 O   0  0  0  0  0  0  0  0  0  0  0  0
   34.1669   25.0546   27.6114 C   0  0  0  0  0  0  0  0  0  0  0  0
   27.7805   26.9408   24.0083 O   0  0  0  0  0  0  0  0  0  0  0  0
   33.0608   24.6684   26.5869 C   0  0  0  0  0  0  0  0  0  0  0  0
   29.4309   27.6571   23.2000 O   0  0  0  0  0  0  0  0  0  0  0  0
   32.0164   25.7502   26.5605 N   0  0  0  0  0  0  0  0  0  0  0  0
   31.4374   25.9493   27.9239 C   0  0  0  0  0  0  0  0  0  0  0  0
   32.5776   26.2675   28.9323 C   0  0  0  0  0  0  0  0  0  0  0  0
   30.9077   25.4367   25.5927 C   0  0  0  0  0  0  0  0  0  0  0  0
   30.4379   26.7098   24.8480 C   0  0  0  0  0  0  0  0  0  0  0  0
   29.0858   26.3334   23.7077 S   0  0  0  0  0  0  0  0  0  0  0  0
  1  3  1  0  0  0  0
  1  9  1  0  0  0  0
  2 12  1  0  0  0  0
  3  5  1  0  0  0  0
  4 12  2  0  0  0  0
  5  7  1  0  0  0  0
  6 12  2  0  0  0  0
  7  8  1  0  0  0  0
  7 10  1  0  0  0  0
  8  9  1  0  0  0  0
 10 11  1  0  0  0  0
 11 12  1  0  0  0  0
M  END
>  <CHROM.1>
-141.38817687,-178.99056634,-87.80436226,30.93285572,26.13226981,25.54873843
0.68066565,-0.51117734,1.23295961

>  <Name>
ligand

>  <RI>
0

>  <Rbt.Current_Directory>
/home/itssahil/PROJECTS/Mol_Feturizer/New_Systems/rnas/2HO6

>  <Rbt.Executable>
rbdock ($Id: //depot/dev/client3/rdock/2013.1/src/exe/rbdock.cxx#4 $)

>  <Rbt.Library>
libRbt.so (2013.1, Build901 2013/11/27)

>  <Rbt.Parameter_File>
/export/apps/rDock/src/rDock_2013.1_src/data/scripts/dock_solv.prm

>  <Rbt.Receptor>
prm/blind_docking_60.prm

>  <SCORE>
-11.9479

>  <SCORE.INTER>
-11.7319

>  <SCORE.INTER.CONST>
1

>  <SCORE.INTER.POLAR>
0

>  <SCORE.INTER.ROT>
3

>  <SCORE.INTER.SOLV>
7.47017

>  <SCORE.INTER.VDW>
-15.9113

>  <SCORE.INTER.norm>
-0.977655

>  <SCORE.INTRA>
-0.239762

>  <SCORE.INTRA.DIHEDRAL>
1.63955

>  <SCORE.INTRA.DIHEDRAL.0>
1.88407

>  <SCORE.INTRA.POLAR>
0

>  <SCORE.INTRA.POLAR.0>
0

>  <SCORE.INTRA.REPUL>
0

>  <SCORE.INTRA.REPUL.0>
0

>  <SCORE.INTRA.SOLV>
-0.0312309

>  <SCORE.INTRA.SOLV.lig_0>
-10.2714

>  <SCORE.INTRA.VDW>
-1.04392

>  <SCORE.INTRA.VDW.0>
0.416923

>  <SCORE.INTRA.norm>
-0.0199802

>  <SCORE.RESTR>
0.0237649

>  <SCORE.RESTR.CAVITY>
0.0237649

>  <SCORE.RESTR.norm>
0.0019804

>  <SCORE.SYSTEM>
0

>  <SCORE.SYSTEM.CONST>
0

>  <SCORE.SYSTEM.DIHEDRAL>
0

>  <SCORE.SYSTEM.SOLV>
0

>  <SCORE.SYSTEM.norm>
0

>  <SCORE.heavy>
12

>  <SCORE.norm>
-0.995655

>  <RMSD>
25.983

$$$$
ligand
 OpenBabel11021811433D
libRbt.so/2013.1/901 2013/11/27
 12 12  0  0  0  0  0  0  0  0999 V2000
   33.5119   26.6571   28.1945 O   0  0  0  0  0  0  0  0  0  0  0  0
   27.7691   26.7663   24.8396 O   0  0  0  0  0  0  0  0  0  0  0  0
   34.2092   25.4772   27.6923 C   0  0  0  0  0  0  0  0  0  0  0  0
   29.4431   27.5596   26.4668 O   0  0  0  0  0  0  0  0  0  0  0  0
   33.3631   24.7406   26.6136 C   0  0  0  0  0  0  0  0  0  0  0  0
   29.4265   27.7482   24.5035 O   0  0  0  0  0  0  0  0  0  0  0  0
   32.0759   25.4895   26.4031 N   0  0  0  0  0  0  0  0  0  0  0  0
   31.3226   25.6030   27.6889 C   0  0  0  0  0  0  0  0  0  0  0  0
   32.2213   26.2828   28.7605 C   0  0  0  0  0  0  0  0  0  0  0  0
   31.2018   24.8253   25.3741 C   0  0  0  0  0  0  0  0  0  0  0  0
   30.4803   25.8729   24.4921 C   0  0  0  0  0  0  0  0  0  0  0  0
   29.0989   26.6293   25.3809 S   0  0  0  0  0  0  0  0  0  0  0  0
  1  3  1  0  0  0  0
  1  9  1  0  0  0  0
  2 12  1  0  0  0  0
  3  5  1  0  0  0  0
  4 12  2  0  0  0  0
  5  7  1  0  0  0  0
  6 12  2  0  0  0  0
  7  8  1  0  0  0  0
  7 10  1  0  0  0  0
  8  9  1  0  0  0  0
 10 11  1  0  0  0  0
 11 12  1  0  0  0  0
M  END
>  <CHROM.1>
-141.90502443,-76.24370013,-130.94620516,30.93765309,26.22582181,26.26100407
0.30610680,-0.51546220,0.99638119

>  <Name>
ligand

>  <RI>
0

>  <Rbt.Current_Directory>
/home/itssahil/PROJECTS/Mol_Feturizer/New_Systems/rnas/2HO6

>  <Rbt.Executable>
rbdock ($Id: //depot/dev/client3/rdock/2013.1/src/exe/rbdock.cxx#4 $)

>  <Rbt.Library>
libRbt.so (2013.1, Build901 2013/11/27)

>  <Rbt.Parameter_File>
/export/apps/rDock/src/rDock_2013.1_src/data/scripts/dock_solv.prm

>  <Rbt.Receptor>
prm/blind_docking_80.prm

>  <SCORE>
-15.0626

>  <SCORE.INTER>
-15.1571

>  <SCORE.INTER.CONST>
1

>  <SCORE.INTER.POLAR>
0

>  <SCORE.INTER.ROT>
3

>  <SCORE.INTER.SOLV>
6.67029

>  <SCORE.INTER.VDW>
-17.9282

>  <SCORE.INTER.norm>
-1.26309

>  <SCORE.INTRA>
0.0938948

>  <SCORE.INTRA.DIHEDRAL>
2.44604

>  <SCORE.INTRA.DIHEDRAL.0>
1.88407

>  <SCORE.INTRA.POLAR>
0

>  <SCORE.INTRA.POLAR.0>
0

>  <SCORE.INTRA.REPUL>
0

>  <SCORE.INTRA.REPUL.0>
0

>  <SCORE.INTRA.SOLV>
0.886265

>  <SCORE.INTRA.SOLV.lig_0>
-10.2714

>  <SCORE.INTRA.VDW>
-1.57226

>  <SCORE.INTRA.VDW.0>
0.416923

>  <SCORE.INTRA.norm>
0.00782456

>  <SCORE.RESTR>
0.000567827

>  <SCORE.RESTR.CAVITY>
0.000567827

>  <SCORE.RESTR.norm>
4.73189e-05

>  <SCORE.SYSTEM>
0

>  <SCORE.SYSTEM.CONST>
0

>  <SCORE.SYSTEM.DIHEDRAL>
0

>  <SCORE.SYSTEM.SOLV>
0

>  <SCORE.SYSTEM.norm>
0

>  <SCORE.heavy>
12

>  <SCORE.norm>
-1.25522

>  <RMSD>
26.265

$$$$
ligand
 OpenBabel11021811433D
libRbt.so/2013.1/901 2013/11/27
 12 12  0  0  0  0  0  0  0  0999 V2000
   33.1440   26.0627   27.6162 O   0  0  0  0  0  0  0  0  0  0  0  0
   31.2077   25.9300   23.7322 O   0  0  0  0  0  0  0  0  0  0  0  0
   32.7587   24.8026   26.9883 C   0  0  0  0  0  0  0  0  0  0  0  0
   29.0276   26.0996   22.5931 O   0  0  0  0  0  0  0  0  0  0  0  0
   31.2596   24.8177   26.5704 C   0  0  0  0  0  0  0  0  0  0  0  0
   30.0983   27.5158   23.4523 O   0  0  0  0  0  0  0  0  0  0  0  0
   30.6628   26.1505   26.9302 N   0  0  0  0  0  0  0  0  0  0  0  0
   30.8130   26.4108   28.3941 C   0  0  0  0  0  0  0  0  0  0  0  0
   32.3150   26.3221   28.7872 C   0  0  0  0  0  0  0  0  0  0  0  0
   29.2067   26.2321   26.5596 C   0  0  0  0  0  0  0  0  0  0  0  0
   29.0084   27.0110   25.2368 C   0  0  0  0  0  0  0  0  0  0  0  0
   29.7869   26.1474   23.8517 S   0  0  0  0  0  0  0  0  0  0  0  0
  1  3  1  0  0  0  0
  1  9  1  0  0  0  0
  2 12  1  0  0  0  0
  3  5  1  0  0  0  0
  4 12  2  0  0  0  0
  5  7  1  0  0  0  0
  6 12  2  0  0  0  0
  7  8  1  0  0  0  0
  7 10  1  0  0  0  0
  8  9  1  0  0  0  0
 10 11  1  0  0  0  0
 11 12  1  0  0  0  0
M  END
>  <CHROM.1>
-100.48296016,63.82957131,-64.56527233,30.68628829,26.13850108,25.64032950
-1.02613202,0.37495426,-1.65508997

>  <Name>
ligand

>  <RI>
0

>  <Rbt.Current_Directory>
/home/itssahil/PROJECTS/Mol_Feturizer/New_Systems/rnas/2HO6

>  <Rbt.Executable>
rbdock ($Id: //depot/dev/client3/rdock/2013.1/src/exe/rbdock.cxx#4 $)

>  <Rbt.Library>
libRbt.so (2013.1, Build901 2013/11/27)

>  <Rbt.Parameter_File>
/export/apps/rDock/src/rDock_2013.1_src/data/scripts/dock_solv.prm

>  <Rbt.Receptor>
prm/blind_docking_60.prm

>  <SCORE>
-12.5709

>  <SCORE.INTER>
-11.7825

>  <SCORE.INTER.CONST>
1

>  <SCORE.INTER.POLAR>
0

>  <SCORE.INTER.ROT>
3

>  <SCORE.INTER.SOLV>
6.9917

>  <SCORE.INTER.VDW>
-15.7856

>  <SCORE.INTER.norm>
-0.981877

>  <SCORE.INTRA>
-0.788363

>  <SCORE.INTRA.DIHEDRAL>
1.86604

>  <SCORE.INTRA.DIHEDRAL.0>
1.88407

>  <SCORE.INTRA.POLAR>
0

>  <SCORE.INTRA.POLAR.0>
0

>  <SCORE.INTRA.REPUL>
0

>  <SCORE.INTRA.REPUL.0>
0

>  <SCORE.INTRA.SOLV>
0.165135

>  <SCORE.INTRA.SOLV.lig_0>
-10.2714

>  <SCORE.INTRA.VDW>
-1.80395

>  <SCORE.INTRA.VDW.0>
0.416923

>  <SCORE.INTRA.norm>
-0.0656969

>  <SCORE.RESTR>
0

>  <SCORE.RESTR.CAVITY>
0

>  <SCORE.RESTR.norm>
0

>  <SCORE.SYSTEM>
0

>  <SCORE.SYSTEM.CONST>
0

>  <SCORE.SYSTEM.DIHEDRAL>
0

>  <SCORE.SYSTEM.SOLV>
0

>  <SCORE.SYSTEM.norm>
0

>  <SCORE.heavy>
12

>  <SCORE.norm>
-1.04757

>  <RMSD>
26.366

$$$$
ligand
 OpenBabel11021811433D
libRbt.so/2013.1/901 2013/11/27
 12 12  0  0  0  0  0  0  0  0999 V2000
   33.6945   26.6702   28.1247 O   0  0  0  0  0  0  0  0  0  0  0  0
   27.7355   26.1301   26.0825 O   0  0  0  0  0  0  0  0  0  0  0  0
   34.3057   25.4446   27.6198 C   0  0  0  0  0  0  0  0  0  0  0  0
   29.1922   28.1183   26.0176 O   0  0  0  0  0  0  0  0  0  0  0  0
   33.3488   24.6994   26.6445 C   0  0  0  0  0  0  0  0  0  0  0  0
   28.4966   27.0338   24.5243 O   0  0  0  0  0  0  0  0  0  0  0  0
   32.0767   25.4895   26.5050 N   0  0  0  0  0  0  0  0  0  0  0  0
   31.4347   25.6840   27.8405 C   0  0  0  0  0  0  0  0  0  0  0  0
   32.4414   26.3701   28.8070 C   0  0  0  0  0  0  0  0  0  0  0  0
   31.0986   24.8197   25.5782 C   0  0  0  0  0  0  0  0  0  0  0  0
   30.2833   25.8626   24.7761 C   0  0  0  0  0  0  0  0  0  0  0  0
   29.0488   26.6675   25.8242 S   0  0  0  0  0  0  0  0  0  0  0  0
  1  3  1  0  0  0  0
  1  9  1  0  0  0  0
  2 12  1  0  0  0  0
  3  5  1  0  0  0  0
  4 12  2  0  0  0  0
  5  7  1  0  0  0  0
  6 12  2  0  0  0  0
  7  8  1  0  0  0  0
  7 10  1  0  0  0  0
  8  9  1  0  0  0  0
 10 11  1  0  0  0  0
 11 12  1  0  0  0  0
M  END
>  <CHROM.1>
-145.47614579,-73.90555952,-85.16910254,30.85268161,26.17364821,26.44941590
0.19917125,-0.44585356,0.88367693

>  <Name>
ligand

>  <RI>
0

>  <Rbt.Current_Directory>
/home/itssahil/PROJECTS/Mol_Feturizer/New_Systems/rnas/2HO6

>  <Rbt.Executable>
rbdock ($Id: //depot/dev/client3/rdock/2013.1/src/exe/rbdock.cxx#4 $)

>  <Rbt.Library>
libRbt.so (2013.1, Build901 2013/11/27)

>  <Rbt.Parameter_File>
/export/apps/rDock/src/rDock_2013.1_src/data/scripts/dock_solv.prm

>  <Rbt.Receptor>
prm/blind_docking_60.prm

>  <SCORE>
-15.8915

>  <SCORE.INTER>
-15.575

>  <SCORE.INTER.CONST>
1

>  <SCORE.INTER.POLAR>
0

>  <SCORE.INTER.ROT>
3

>  <SCORE.INTER.SOLV>
6.79588

>  <SCORE.INTER.VDW>
-18.2487

>  <SCORE.INTER.norm>
-1.29792

>  <SCORE.INTRA>
-0.316412

>  <SCORE.INTRA.DIHEDRAL>
2.08558

>  <SCORE.INTRA.DIHEDRAL.0>
1.88407

>  <SCORE.INTRA.POLAR>
0

>  <SCORE.INTRA.POLAR.0>
0

>  <SCORE.INTRA.REPUL>
0

>  <SCORE.INTRA.REPUL.0>
0

>  <SCORE.INTRA.SOLV>
0.31577

>  <SCORE.INTRA.SOLV.lig_0>
-10.2714

>  <SCORE.INTRA.VDW>
-1.51708

>  <SCORE.INTRA.VDW.0>
0.416923

>  <SCORE.INTRA.norm>
-0.0263676

>  <SCORE.RESTR>
0

>  <SCORE.RESTR.CAVITY>
0

>  <SCORE.RESTR.norm>
0

>  <SCORE.SYSTEM>
0

>  <SCORE.SYSTEM.CONST>
0

>  <SCORE.SYSTEM.DIHEDRAL>
0

>  <SCORE.SYSTEM.SOLV>
0

>  <SCORE.SYSTEM.norm>
0

>  <SCORE.heavy>
12

>  <SCORE.norm>
-1.32429

>  <RMSD>
26.367

$$$$
ligand
 OpenBabel11021811433D
libRbt.so/2013.1/901 2013/11/27
 12 12  0  0  0  0  0  0  0  0999 V2000
   39.7268   19.3078   36.7352 O   0  0  0  0  0  0  0  0  0  0  0  0
   38.5677   23.2168   33.4910 O   0  0  0  0  0  0  0  0  0  0  0  0
   39.6709   19.0164   35.3060 C   0  0  0  0  0  0  0  0  0  0  0  0
   36.4680   24.4892   33.2643 O   0  0  0  0  0  0  0  0  0  0  0  0
   38.4067   19.6464   34.6527 C   0  0  0  0  0  0  0  0  0  0  0  0
   37.6333   24.2783   34.8415 O   0  0  0  0  0  0  0  0  0  0  0  0
   37.6278   20.3876   35.7043 N   0  0  0  0  0  0  0  0  0  0  0  0
   37.2515   19.4671   36.8199 C   0  0  0  0  0  0  0  0  0  0  0  0
   38.5322   18.8061   37.4039 C   0  0  0  0  0  0  0  0  0  0  0  0
   36.3829   21.0178   35.1411 C   0  0  0  0  0  0  0  0  0  0  0  0
   36.4203   22.5584   35.2865 C   0  0  0  0  0  0  0  0  0  0  0  0
   37.1713   23.3299   33.8336 S   0  0  0  0  0  0  0  0  0  0  0  0
  1  3  1  0  0  0  0
  1  9  1  0  0  0  0
  2 12  1  0  0  0  0
  3  5  1  0  0  0  0
  4 12  2  0  0  0  0
  5  7  1  0  0  0  0
  6 12  2  0  0  0  0
  7  8  1  0  0  0  0
  7 10  1  0  0  0  0
  8  9  1  0  0  0  0
 10 11  1  0  0  0  0
 11 12  1  0  0  0  0
M  END
>  <CHROM.1>
-118.19896017,90.39019602,-68.94738704,37.77253055,21.54479131,35.05380446
-1.25456353,0.38840463,-0.62092250

>  <Name>
ligand

>  <RI>
0

>  <Rbt.Current_Directory>
/home/itssahil/PROJECTS/Mol_Feturizer/New_Systems/rnas/2HO6

>  <Rbt.Executable>
rbdock ($Id: //depot/dev/client3/rdock/2013.1/src/exe/rbdock.cxx#4 $)

>  <Rbt.Library>
libRbt.so (2013.1, Build901 2013/11/27)

>  <Rbt.Parameter_File>
/export/apps/rDock/src/rDock_2013.1_src/data/scripts/dock_solv.prm

>  <Rbt.Receptor>
prm/blind_docking_100.prm

>  <SCORE>
-13.6855

>  <SCORE.INTER>
-14.6859

>  <SCORE.INTER.CONST>
1

>  <SCORE.INTER.POLAR>
0

>  <SCORE.INTER.ROT>
3

>  <SCORE.INTER.SOLV>
7.34857

>  <SCORE.INTER.VDW>
-17.8401

>  <SCORE.INTER.norm>
-1.22383

>  <SCORE.INTRA>
1.00045

>  <SCORE.INTRA.DIHEDRAL>
5.14916

>  <SCORE.INTRA.DIHEDRAL.0>
1.88407

>  <SCORE.INTRA.POLAR>
0

>  <SCORE.INTRA.POLAR.0>
0

>  <SCORE.INTRA.REPUL>
0

>  <SCORE.INTRA.REPUL.0>
0

>  <SCORE.INTRA.SOLV>
0.110239

>  <SCORE.INTRA.SOLV.lig_0>
-10.2714

>  <SCORE.INTRA.VDW>
-1.62925

>  <SCORE.INTRA.VDW.0>
0.416923

>  <SCORE.INTRA.norm>
0.0833705

>  <SCORE.RESTR>
0

>  <SCORE.RESTR.CAVITY>
0

>  <SCORE.RESTR.norm>
0

>  <SCORE.SYSTEM>
0

>  <SCORE.SYSTEM.CONST>
0

>  <SCORE.SYSTEM.DIHEDRAL>
0

>  <SCORE.SYSTEM.SOLV>
0

>  <SCORE.SYSTEM.norm>
0

>  <SCORE.heavy>
12

>  <SCORE.norm>
-1.14046

>  <RMSD>
27.160

$$$$
ligand
 OpenBabel11021811433D
libRbt.so/2013.1/901 2013/11/27
 12 12  0  0  0  0  0  0  0  0999 V2000
   10.7252    3.4934   -1.5382 O   0  0  0  0  0  0  0  0  0  0  0  0
   12.6375    1.4739    2.0951 O   0  0  0  0  0  0  0  0  0  0  0  0
    9.6590    2.9358   -0.7118 C   0  0  0  0  0  0  0  0  0  0  0  0
   11.2780   -0.4741    2.7556 O   0  0  0  0  0  0  0  0  0  0  0  0
    9.8837    1.4178   -0.4529 C   0  0  0  0  0  0  0  0  0  0  0  0
   13.1764   -0.4014    2.2256 O   0  0  0  0  0  0  0  0  0  0  0  0
   11.1571    0.9875   -1.1278 N   0  0  0  0  0  0  0  0  0  0  0  0
   11.0942    1.2772   -2.5926 C   0  0  0  0  0  0  0  0  0  0  0  0
   10.8027    2.7888   -2.8123 C   0  0  0  0  0  0  0  0  0  0  0  0
   11.4331   -0.4776   -0.9241 C   0  0  0  0  0  0  0  0  0  0  0  0
   12.4456   -0.7021    0.2249 C   0  0  0  0  0  0  0  0  0  0  0  0
   11.9864    0.2520    1.6908 S   0  0  0  0  0  0  0  0  0  0  0  0
  1  3  1  0  0  0  0
  1  9  1  0  0  0  0
  2 12  1  0  0  0  0
  3  5  1  0  0  0  0
  4 12  2  0  0  0  0
  5  7  1  0  0  0  0
  6 12  2  0  0  0  0
  7  8  1  0  0  0  0
  7 10  1  0  0  0  0
  8  9  1  0  0  0  0
 10 11  1  0  0  0  0
 11 12  1  0  0  0  0
M  END
>  <CHROM.1>
-98.45923900,48.15265559,-103.41971011,11.43935731,0.97273833,0.12902729
2.53821374,1.13598260,-1.92105319

>  <Name>
ligand

>  <RI>
0

>  <Rbt.Current_Directory>
/home/itssahil/PROJECTS/Mol_Feturizer/New_Systems/rnas/2HO6

>  <Rbt.Executable>
rbdock ($Id: //depot/dev/client3/rdock/2013.1/src/exe/rbdock.cxx#4 $)

>  <Rbt.Library>
libRbt.so (2013.1, Build901 2013/11/27)

>  <Rbt.Parameter_File>
/export/apps/rDock/src/rDock_2013.1_src/data/scripts/dock_solv.prm

>  <Rbt.Receptor>
prm/blind_docking_40.prm

>  <SCORE>
-16.5021

>  <SCORE.INTER>
-16.0646

>  <SCORE.INTER.CONST>
1

>  <SCORE.INTER.POLAR>
0

>  <SCORE.INTER.ROT>
3

>  <SCORE.INTER.SOLV>
7.2707

>  <SCORE.INTER.VDW>
-18.7333

>  <SCORE.INTER.norm>
-1.33872

>  <SCORE.INTRA>
-0.43745

>  <SCORE.INTRA.DIHEDRAL>
2.28063

>  <SCORE.INTRA.DIHEDRAL.0>
1.88407

>  <SCORE.INTRA.POLAR>
0

>  <SCORE.INTRA.POLAR.0>
0

>  <SCORE.INTRA.REPUL>
0

>  <SCORE.INTRA.REPUL.0>
0

>  <SCORE.INTRA.SOLV>
0.348158

>  <SCORE.INTRA.SOLV.lig_0>
-10.2714

>  <SCORE.INTRA.VDW>
-1.75184

>  <SCORE.INTRA.VDW.0>
0.416923

>  <SCORE.INTRA.norm>
-0.0364542

>  <SCORE.RESTR>
0

>  <SCORE.RESTR.CAVITY>
0

>  <SCORE.RESTR.norm>
0

>  <SCORE.SYSTEM>
0

>  <SCORE.SYSTEM.CONST>
0

>  <SCORE.SYSTEM.DIHEDRAL>
0

>  <SCORE.SYSTEM.SOLV>
0

>  <SCORE.SYSTEM.norm>
0

>  <SCORE.heavy>
12

>  <SCORE.norm>
-1.37517

>  <RMSD>
41.051

$$$$
ligand
 OpenBabel11021811433D
libRbt.so/2013.1/901 2013/11/27
 12 12  0  0  0  0  0  0  0  0999 V2000
   12.8304   -3.0626    1.1913 O   0  0  0  0  0  0  0  0  0  0  0  0
    9.0225    3.1030    0.1803 O   0  0  0  0  0  0  0  0  0  0  0  0
   11.7198   -3.0519    2.1385 C   0  0  0  0  0  0  0  0  0  0  0  0
   10.3635    3.4381   -1.8614 O   0  0  0  0  0  0  0  0  0  0  0  0
   10.9453   -1.7032    2.0816 C   0  0  0  0  0  0  0  0  0  0  0  0
    9.1663    1.9439   -1.3880 O   0  0  0  0  0  0  0  0  0  0  0  0
   11.5757   -0.8181    1.0418 N   0  0  0  0  0  0  0  0  0  0  0  0
   13.0197   -0.5934    1.3545 C   0  0  0  0  0  0  0  0  0  0  0  0
   13.7468   -1.9632    1.4692 C   0  0  0  0  0  0  0  0  0  0  0  0
   10.8786    0.5114    0.9388 C   0  0  0  0  0  0  0  0  0  0  0  0
   10.9166    1.0526   -0.5109 C   0  0  0  0  0  0  0  0  0  0  0  0
   10.1532    2.6888   -0.6135 S   0  0  0  0  0  0  0  0  0  0  0  0
  1  3  1  0  0  0  0
  1  9  1  0  0  0  0
  2 12  1  0  0  0  0
  3  5  1  0  0  0  0
  4 12  2  0  0  0  0
  5  7  1  0  0  0  0
  6 12  2  0  0  0  0
  7  8  1  0  0  0  0
  7 10  1  0  0  0  0
  8  9  1  0  0  0  0
 10 11  1  0  0  0  0
 11 12  1  0  0  0  0
M  END
>  <CHROM.1>
-147.38889383,-177.07477721,-34.79241342,11.06361168,0.41641073,0.35878307
-1.10974684,0.28207793,-0.60100760

>  <Name>
ligand

>  <RI>
0

>  <Rbt.Current_Directory>
/home/itssahil/PROJECTS/Mol_Feturizer/New_Systems/rnas/2HO6

>  <Rbt.Executable>
rbdock ($Id: //depot/dev/client3/rdock/2013.1/src/exe/rbdock.cxx#4 $)

>  <Rbt.Library>
libRbt.so (2013.1, Build901 2013/11/27)

>  <Rbt.Parameter_File>
/export/apps/rDock/src/rDock_2013.1_src/data/scripts/dock_solv.prm

>  <Rbt.Receptor>
prm/blind_docking_80.prm

>  <SCORE>
-12.6708

>  <SCORE.INTER>
-12.2616

>  <SCORE.INTER.CONST>
1

>  <SCORE.INTER.POLAR>
0

>  <SCORE.INTER.ROT>
3

>  <SCORE.INTER.SOLV>
4.74245

>  <SCORE.INTER.VDW>
-15.3552

>  <SCORE.INTER.norm>
-1.0218

>  <SCORE.INTRA>
-0.40916

>  <SCORE.INTRA.DIHEDRAL>
1.15632

>  <SCORE.INTRA.DIHEDRAL.0>
1.88407

>  <SCORE.INTRA.POLAR>
0

>  <SCORE.INTRA.POLAR.0>
0

>  <SCORE.INTRA.REPUL>
0

>  <SCORE.INTRA.REPUL.0>
0

>  <SCORE.INTRA.SOLV>
-0.059819

>  <SCORE.INTRA.SOLV.lig_0>
-10.2714

>  <SCORE.INTRA.VDW>
-0.957411

>  <SCORE.INTRA.VDW.0>
0.416923

>  <SCORE.INTRA.norm>
-0.0340966

>  <SCORE.RESTR>
1.12091e-05

>  <SCORE.RESTR.CAVITY>
1.12091e-05

>  <SCORE.RESTR.norm>
9.34096e-07

>  <SCORE.SYSTEM>
0

>  <SCORE.SYSTEM.CONST>
0

>  <SCORE.SYSTEM.DIHEDRAL>
0

>  <SCORE.SYSTEM.SOLV>
0

>  <SCORE.SYSTEM.norm>
0

>  <SCORE.heavy>
12

>  <SCORE.norm>
-1.0559

>  <RMSD>
41.337

$$$$
ligand
 OpenBabel11021811433D
libRbt.so/2013.1/901 2013/11/27
 12 12  0  0  0  0  0  0  0  0999 V2000
   11.4828    0.2766    2.9833 O   0  0  0  0  0  0  0  0  0  0  0  0
   11.4582    3.5807   -2.5231 O   0  0  0  0  0  0  0  0  0  0  0  0
   12.3611    0.0933    1.8320 C   0  0  0  0  0  0  0  0  0  0  0  0
   11.7744    1.1531   -2.2302 O   0  0  0  0  0  0  0  0  0  0  0  0
   11.5781    0.2525    0.4964 C   0  0  0  0  0  0  0  0  0  0  0  0
   10.2536    2.1247   -3.0259 O   0  0  0  0  0  0  0  0  0  0  0  0
   10.1403    0.5680    0.8045 N   0  0  0  0  0  0  0  0  0  0  0  0
    9.5406   -0.5072    1.6517 C   0  0  0  0  0  0  0  0  0  0  0  0
   10.3863   -0.6836    2.9448 C   0  0  0  0  0  0  0  0  0  0  0  0
    9.3200    0.7278   -0.4468 C   0  0  0  0  0  0  0  0  0  0  0  0
    9.4574    2.1559   -1.0278 C   0  0  0  0  0  0  0  0  0  0  0  0
   11.0599    2.3767   -1.8362 S   0  0  0  0  0  0  0  0  0  0  0  0
  1  3  1  0  0  0  0
  1  9  1  0  0  0  0
  2 12  1  0  0  0  0
  3  5  1  0  0  0  0
  4 12  2  0  0  0  0
  5  7  1  0  0  0  0
  6 12  2  0  0  0  0
  7  8  1  0  0  0  0
  7 10  1  0  0  0  0
  8  9  1  0  0  0  0
 10 11  1  0  0  0  0
 11 12  1  0  0  0  0
M  END
>  <CHROM.1>
-83.14898201,74.79220159,177.15502616,10.78529887,1.16826479,-0.24651902
-1.58009009,-0.17013288,-1.05277076

>  <Name>
ligand

>  <RI>
0

>  <Rbt.Current_Directory>
/home/itssahil/PROJECTS/Mol_Feturizer/New_Systems/rnas/2HO6

>  <Rbt.Executable>
rbdock ($Id: //depot/dev/client3/rdock/2013.1/src/exe/rbdock.cxx#4 $)

>  <Rbt.Library>
libRbt.so (2013.1, Build901 2013/11/27)

>  <Rbt.Parameter_File>
/export/apps/rDock/src/rDock_2013.1_src/data/scripts/dock_solv.prm

>  <Rbt.Receptor>
prm/blind_docking_80.prm

>  <SCORE>
-12.2688

>  <SCORE.INTER>
-12.6074

>  <SCORE.INTER.CONST>
1

>  <SCORE.INTER.POLAR>
0

>  <SCORE.INTER.ROT>
3

>  <SCORE.INTER.SOLV>
7.83768

>  <SCORE.INTER.VDW>
-16.6175

>  <SCORE.INTER.norm>
-1.05062

>  <SCORE.INTRA>
0.338613

>  <SCORE.INTRA.DIHEDRAL>
1.55527

>  <SCORE.INTRA.DIHEDRAL.0>
1.88407

>  <SCORE.INTRA.POLAR>
0

>  <SCORE.INTRA.POLAR.0>
0

>  <SCORE.INTRA.REPUL>
0

>  <SCORE.INTRA.REPUL.0>
0

>  <SCORE.INTRA.SOLV>
0.899867

>  <SCORE.INTRA.SOLV.lig_0>
-10.2714

>  <SCORE.INTRA.VDW>
-0.888955

>  <SCORE.INTRA.VDW.0>
0.416923

>  <SCORE.INTRA.norm>
0.0282177

>  <SCORE.RESTR>
0

>  <SCORE.RESTR.CAVITY>
0

>  <SCORE.RESTR.norm>
0

>  <SCORE.SYSTEM>
0

>  <SCORE.SYSTEM.CONST>
0

>  <SCORE.SYSTEM.DIHEDRAL>
0

>  <SCORE.SYSTEM.SOLV>
0

>  <SCORE.SYSTEM.norm>
0

>  <SCORE.heavy>
12

>  <SCORE.norm>
-1.0224

>  <RMSD>
41.659

$$$$
ligand
 OpenBabel11021811433D
libRbt.so/2013.1/901 2013/11/27
 12 12  0  0  0  0  0  0  0  0999 V2000
   12.7585   -1.9621    0.9895 O   0  0  0  0  0  0  0  0  0  0  0  0
    9.2385    2.7633   -0.9165 O   0  0  0  0  0  0  0  0  0  0  0  0
   11.9951   -2.7695    1.9360 C   0  0  0  0  0  0  0  0  0  0  0  0
   10.7143    0.8004   -1.1372 O   0  0  0  0  0  0  0  0  0  0  0  0
   10.6507   -2.0792    2.3078 C   0  0  0  0  0  0  0  0  0  0  0  0
    8.7788    0.9498   -1.4857 O   0  0  0  0  0  0  0  0  0  0  0  0
   10.5397   -0.7822    1.5546 N   0  0  0  0  0  0  0  0  0  0  0  0
   11.7013    0.1041    1.8687 C   0  0  0  0  0  0  0  0  0  0  0  0
   13.0273   -0.6422    1.5476 C   0  0  0  0  0  0  0  0  0  0  0  0
    9.2616   -0.0551    1.8738 C   0  0  0  0  0  0  0  0  0  0  0  0
    8.5446    0.4099    0.5833 C   0  0  0  0  0  0  0  0  0  0  0  0
    9.6216    1.4672   -0.4130 S   0  0  0  0  0  0  0  0  0  0  0  0
  1  3  1  0  0  0  0
  1  9  1  0  0  0  0
  2 12  1  0  0  0  0
  3  5  1  0  0  0  0
  4 12  2  0  0  0  0
  5  7  1  0  0  0  0
  6 12  2  0  0  0  0
  7  8  1  0  0  0  0
  7 10  1  0  0  0  0
  8  9  1  0  0  0  0
 10 11  1  0  0  0  0
 11 12  1  0  0  0  0
M  END
>  <CHROM.1>
-131.74236379,-57.29147338,-128.65524313,10.47336560,0.03252600,0.56453897
-0.97881831,0.22373206,-0.79922389

>  <Name>
ligand

>  <RI>
0

>  <Rbt.Current_Directory>
/home/itssahil/PROJECTS/Mol_Feturizer/New_Systems/rnas/2HO6

>  <Rbt.Executable>
rbdock ($Id: //depot/dev/client3/rdock/2013.1/src/exe/rbdock.cxx#4 $)

>  <Rbt.Library>
libRbt.so (2013.1, Build901 2013/11/27)

>  <Rbt.Parameter_File>
/export/apps/rDock/src/rDock_2013.1_src/data/scripts/dock_solv.prm

>  <Rbt.Receptor>
prm/blind_docking_80.prm

>  <SCORE>
-15.1411

>  <SCORE.INTER>
-14.679

>  <SCORE.INTER.CONST>
1

>  <SCORE.INTER.POLAR>
-1.34164

>  <SCORE.INTER.ROT>
3

>  <SCORE.INTER.SOLV>
6.87062

>  <SCORE.INTER.VDW>
-13.2041

>  <SCORE.INTER.norm>
-1.22325

>  <SCORE.INTRA>
-0.462082

>  <SCORE.INTRA.DIHEDRAL>
2.05422

>  <SCORE.INTRA.DIHEDRAL.0>
1.88407

>  <SCORE.INTRA.POLAR>
0

>  <SCORE.INTRA.POLAR.0>
0

>  <SCORE.INTRA.REPUL>
0

>  <SCORE.INTRA.REPUL.0>
0

>  <SCORE.INTRA.SOLV>
0.969798

>  <SCORE.INTRA.SOLV.lig_0>
-10.2714

>  <SCORE.INTRA.VDW>
-1.97409

>  <SCORE.INTRA.VDW.0>
0.416923

>  <SCORE.INTRA.norm>
-0.0385069

>  <SCORE.RESTR>
0

>  <SCORE.RESTR.CAVITY>
0

>  <SCORE.RESTR.norm>
0

>  <SCORE.SYSTEM>
0

>  <SCORE.SYSTEM.CONST>
0

>  <SCORE.SYSTEM.DIHEDRAL>
0

>  <SCORE.SYSTEM.SOLV>
0

>  <SCORE.SYSTEM.norm>
0

>  <SCORE.heavy>
12

>  <SCORE.norm>
-1.26176

>  <RMSD>
41.872

$$$$
ligand
 OpenBabel11021811433D
libRbt.so/2013.1/901 2013/11/27
 12 12  0  0  0  0  0  0  0  0999 V2000
   10.6482   -1.6738    0.8165 O   0  0  0  0  0  0  0  0  0  0  0  0
   11.1351    1.7381   -4.2353 O   0  0  0  0  0  0  0  0  0  0  0  0
    9.3355   -1.1449    1.1739 C   0  0  0  0  0  0  0  0  0  0  0  0
   12.0621    0.6151   -2.2456 O   0  0  0  0  0  0  0  0  0  0  0  0
    9.2182    0.3633    0.8081 C   0  0  0  0  0  0  0  0  0  0  0  0
   10.1961    0.6858   -2.8807 O   0  0  0  0  0  0  0  0  0  0  0  0
   10.5044    0.8164    0.1737 N   0  0  0  0  0  0  0  0  0  0  0  0
   11.6541    0.5775    1.0983 C   0  0  0  0  0  0  0  0  0  0  0  0
   11.7000   -0.9255    1.4944 C   0  0  0  0  0  0  0  0  0  0  0  0
   10.4636    2.2735   -0.1995 C   0  0  0  0  0  0  0  0  0  0  0  0
   10.0404    2.4615   -1.6764 C   0  0  0  0  0  0  0  0  0  0  0  0
   11.2395    1.7023   -2.7972 S   0  0  0  0  0  0  0  0  0  0  0  0
  1  3  1  0  0  0  0
  1  9  1  0  0  0  0
  2 12  1  0  0  0  0
  3  5  1  0  0  0  0
  4 12  2  0  0  0  0
  5  7  1  0  0  0  0
  6 12  2  0  0  0  0
  7  8  1  0  0  0  0
  7 10  1  0  0  0  0
  8  9  1  0  0  0  0
 10 11  1  0  0  0  0
 11 12  1  0  0  0  0
M  END
>  <CHROM.1>
-94.66096274,-62.58114438,-178.54866508,10.74806896,0.71271619,-0.95821660
-1.76477924,0.94869822,-0.92141616

>  <Name>
ligand

>  <RI>
0

>  <Rbt.Current_Directory>
/home/itssahil/PROJECTS/Mol_Feturizer/New_Systems/rnas/2HO6

>  <Rbt.Executable>
rbdock ($Id: //depot/dev/client3/rdock/2013.1/src/exe/rbdock.cxx#4 $)

>  <Rbt.Library>
libRbt.so (2013.1, Build901 2013/11/27)

>  <Rbt.Parameter_File>
/export/apps/rDock/src/rDock_2013.1_src/data/scripts/dock_solv.prm

>  <Rbt.Receptor>
prm/blind_docking_100.prm

>  <SCORE>
-14.2395

>  <SCORE.INTER>
-13.7172

>  <SCORE.INTER.CONST>
1

>  <SCORE.INTER.POLAR>
0

>  <SCORE.INTER.ROT>
3

>  <SCORE.INTER.SOLV>
4.01111

>  <SCORE.INTER.VDW>
-16.0818

>  <SCORE.INTER.norm>
-1.1431

>  <SCORE.INTRA>
-0.522347

>  <SCORE.INTRA.DIHEDRAL>
1.48729

>  <SCORE.INTRA.DIHEDRAL.0>
1.88407

>  <SCORE.INTRA.POLAR>
0

>  <SCORE.INTRA.POLAR.0>
0

>  <SCORE.INTRA.REPUL>
0

>  <SCORE.INTRA.REPUL.0>
0

>  <SCORE.INTRA.SOLV>
1.40971

>  <SCORE.INTRA.SOLV.lig_0>
-10.2714

>  <SCORE.INTRA.VDW>
-1.97085

>  <SCORE.INTRA.VDW.0>
0.416923

>  <SCORE.INTRA.norm>
-0.0435289

>  <SCORE.RESTR>
0

>  <SCORE.RESTR.CAVITY>
0

>  <SCORE.RESTR.norm>
0

>  <SCORE.SYSTEM>
0

>  <SCORE.SYSTEM.CONST>
0

>  <SCORE.SYSTEM.DIHEDRAL>
0

>  <SCORE.SYSTEM.SOLV>
0

>  <SCORE.SYSTEM.norm>
0

>  <SCORE.heavy>
12

>  <SCORE.norm>
-1.18663

>  <RMSD>
42.015

$$$$
ligand
 OpenBabel11021811433D
libRbt.so/2013.1/901 2013/11/27
 12 12  0  0  0  0  0  0  0  0999 V2000
   10.0733   -1.7499    2.4902 O   0  0  0  0  0  0  0  0  0  0  0  0
    9.0158    1.3004    0.2623 O   0  0  0  0  0  0  0  0  0  0  0  0
   10.7451   -0.5021    2.8400 C   0  0  0  0  0  0  0  0  0  0  0  0
    9.4423    2.8568   -1.6018 O   0  0  0  0  0  0  0  0  0  0  0  0
   11.4574    0.1189    1.6034 C   0  0  0  0  0  0  0  0  0  0  0  0
    8.7853    0.9979   -1.6558 O   0  0  0  0  0  0  0  0  0  0  0  0
   11.2179   -0.7593    0.4062 N   0  0  0  0  0  0  0  0  0  0  0  0
   11.7122   -2.1450    0.6688 C   0  0  0  0  0  0  0  0  0  0  0  0
   11.0293   -2.7077    1.9476 C   0  0  0  0  0  0  0  0  0  0  0  0
   11.8880   -0.2203   -0.8286 C   0  0  0  0  0  0  0  0  0  0  0  0
   10.8633    0.4544   -1.7724 C   0  0  0  0  0  0  0  0  0  0  0  0
    9.8361    1.6410   -0.8740 S   0  0  0  0  0  0  0  0  0  0  0  0
  1  3  1  0  0  0  0
  1  9  1  0  0  0  0
  2 12  1  0  0  0  0
  3  5  1  0  0  0  0
  4 12  2  0  0  0  0
  5  7  1  0  0  0  0
  6 12  2  0  0  0  0
  7  8  1  0  0  0  0
  7 10  1  0  0  0  0
  8  9  1  0  0  0  0
 10 11  1  0  0  0  0
 11 12  1  0  0  0  0
M  END
>  <CHROM.1>
-103.46242223,50.32873386,-58.18270816,10.39548300,0.13538652,0.16543332
1.12716500,-0.81162344,2.06223943

>  <Name>
ligand

>  <RI>
0

>  <Rbt.Current_Directory>
/home/itssahil/PROJECTS/Mol_Feturizer/New_Systems/rnas/2HO6

>  <Rbt.Executable>
rbdock ($Id: //depot/dev/client3/rdock/2013.1/src/exe/rbdock.cxx#4 $)

>  <Rbt.Library>
libRbt.so (2013.1, Build901 2013/11/27)

>  <Rbt.Parameter_File>
/export/apps/rDock/src/rDock_2013.1_src/data/scripts/dock_solv.prm

>  <Rbt.Receptor>
prm/blind_docking_100.prm

>  <SCORE>
-13.0677

>  <SCORE.INTER>
-12.329

>  <SCORE.INTER.CONST>
1

>  <SCORE.INTER.POLAR>
-1.33803

>  <SCORE.INTER.ROT>
3

>  <SCORE.INTER.SOLV>
7.05245

>  <SCORE.INTER.VDW>
-11.71

>  <SCORE.INTER.norm>
-1.02742

>  <SCORE.INTRA>
-0.738718

>  <SCORE.INTRA.DIHEDRAL>
2.27572

>  <SCORE.INTRA.DIHEDRAL.0>
1.88407

>  <SCORE.INTRA.POLAR>
0

>  <SCORE.INTRA.POLAR.0>
0

>  <SCORE.INTRA.REPUL>
0

>  <SCORE.INTRA.REPUL.0>
0

>  <SCORE.INTRA.SOLV>
0.200667

>  <SCORE.INTRA.SOLV.lig_0>
-10.2714

>  <SCORE.INTRA.VDW>
-1.97691

>  <SCORE.INTRA.VDW.0>
0.416923

>  <SCORE.INTRA.norm>
-0.0615599

>  <SCORE.RESTR>
0

>  <SCORE.RESTR.CAVITY>
0

>  <SCORE.RESTR.norm>
0

>  <SCORE.SYSTEM>
0

>  <SCORE.SYSTEM.CONST>
0

>  <SCORE.SYSTEM.DIHEDRAL>
0

>  <SCORE.SYSTEM.SOLV>
0

>  <SCORE.SYSTEM.norm>
0

>  <SCORE.heavy>
12

>  <SCORE.norm>
-1.08898

>  <RMSD>
42.047

$$$$
ligand
 OpenBabel11021811433D
libRbt.so/2013.1/901 2013/11/27
 12 12  0  0  0  0  0  0  0  0999 V2000
    9.0502    0.7709   -1.7736 O   0  0  0  0  0  0  0  0  0  0  0  0
    9.6159   -1.2775    4.2781 O   0  0  0  0  0  0  0  0  0  0  0  0
   10.2007    0.0065   -2.2456 C   0  0  0  0  0  0  0  0  0  0  0  0
    8.8272    0.0710    2.3705 O   0  0  0  0  0  0  0  0  0  0  0  0
   11.2733   -0.1431   -1.1279 C   0  0  0  0  0  0  0  0  0  0  0  0
    9.5774   -1.7530    2.3817 O   0  0  0  0  0  0  0  0  0  0  0  0
   10.7823    0.5398    0.1188 N   0  0  0  0  0  0  0  0  0  0  0  0
   10.4923    1.9800   -0.1554 C   0  0  0  0  0  0  0  0  0  0  0  0
    9.4685    2.0922   -1.3206 C   0  0  0  0  0  0  0  0  0  0  0  0
   11.7780    0.4405    1.2426 C   0  0  0  0  0  0  0  0  0  0  0  0
   11.4815   -0.7801    2.1470 C   0  0  0  0  0  0  0  0  0  0  0  0
    9.9578   -0.5352    3.0896 S   0  0  0  0  0  0  0  0  0  0  0  0
  1  3  1  0  0  0  0
  1  9  1  0  0  0  0
  2 12  1  0  0  0  0
  3  5  1  0  0  0  0
  4 12  2  0  0  0  0
  5  7  1  0  0  0  0
  6 12  2  0  0  0  0
  7  8  1  0  0  0  0
  7 10  1  0  0  0  0
  8  9  1  0  0  0  0
 10 11  1  0  0  0  0
 11 12  1  0  0  0  0
M  END
>  <CHROM.1>
-93.56850672,-69.33327230,-161.08452239,10.14715906,0.02998888,1.01092403
1.52900992,0.23157656,-1.18118833

>  <Name>
ligand

>  <RI>
0

>  <Rbt.Current_Directory>
/home/itssahil/PROJECTS/Mol_Feturizer/New_Systems/rnas/2HO6

>  <Rbt.Executable>
rbdock ($Id: //depot/dev/client3/rdock/2013.1/src/exe/rbdock.cxx#4 $)

>  <Rbt.Library>
libRbt.so (2013.1, Build901 2013/11/27)

>  <Rbt.Parameter_File>
/export/apps/rDock/src/rDock_2013.1_src/data/scripts/dock_solv.prm

>  <Rbt.Receptor>
prm/blind_docking_100.prm

>  <SCORE>
-15.3594

>  <SCORE.INTER>
-14.8633

>  <SCORE.INTER.CONST>
1

>  <SCORE.INTER.POLAR>
-1.34077

>  <SCORE.INTER.ROT>
3

>  <SCORE.INTER.SOLV>
10.1923

>  <SCORE.INTER.VDW>
-14.4371

>  <SCORE.INTER.norm>
-1.23861

>  <SCORE.INTRA>
-0.496083

>  <SCORE.INTRA.DIHEDRAL>
1.67006

>  <SCORE.INTRA.DIHEDRAL.0>
1.88407

>  <SCORE.INTRA.POLAR>
0

>  <SCORE.INTRA.POLAR.0>
0

>  <SCORE.INTRA.REPUL>
0

>  <SCORE.INTRA.REPUL.0>
0

>  <SCORE.INTRA.SOLV>
1.07686

>  <SCORE.INTRA.SOLV.lig_0>
-10.2714

>  <SCORE.INTRA.VDW>
-1.86954

>  <SCORE.INTRA.VDW.0>
0.416923

>  <SCORE.INTRA.norm>
-0.0413402

>  <SCORE.RESTR>
0

>  <SCORE.RESTR.CAVITY>
0

>  <SCORE.RESTR.norm>
0

>  <SCORE.SYSTEM>
0

>  <SCORE.SYSTEM.CONST>
0

>  <SCORE.SYSTEM.DIHEDRAL>
0

>  <SCORE.SYSTEM.SOLV>
0

>  <SCORE.SYSTEM.norm>
0

>  <SCORE.heavy>
12

>  <SCORE.norm>
-1.27995

>  <RMSD>
42.072

$$$$
ligand
 OpenBabel11021811433D
libRbt.so/2013.1/901 2013/11/27
 12 12  0  0  0  0  0  0  0  0999 V2000
   12.5028   -3.6388    1.4183 O   0  0  0  0  0  0  0  0  0  0  0  0
    8.6587    1.1054   -1.7060 O   0  0  0  0  0  0  0  0  0  0  0  0
   11.5793   -3.7794    0.2966 C   0  0  0  0  0  0  0  0  0  0  0  0
    9.9090    3.1260   -1.0478 O   0  0  0  0  0  0  0  0  0  0  0  0
   10.7107   -2.5002    0.1196 C   0  0  0  0  0  0  0  0  0  0  0  0
   10.5582    1.4985   -1.9534 O   0  0  0  0  0  0  0  0  0  0  0  0
   11.1058   -1.4900    1.1614 N   0  0  0  0  0  0  0  0  0  0  0  0
   10.9417   -2.0631    2.5319 C   0  0  0  0  0  0  0  0  0  0  0  0
   11.7699   -3.3739    2.6506 C   0  0  0  0  0  0  0  0  0  0  0  0
   10.2967   -0.2260    1.0531 C   0  0  0  0  0  0  0  0  0  0  0  0
   10.9229    0.7538    0.0315 C   0  0  0  0  0  0  0  0  0  0  0  0
    9.6440    1.6953   -0.8334 S   0  0  0  0  0  0  0  0  0  0  0  0
  1  3  1  0  0  0  0
  1  9  1  0  0  0  0
  2 12  1  0  0  0  0
  3  5  1  0  0  0  0
  4 12  2  0  0  0  0
  5  7  1  0  0  0  0
  6 12  2  0  0  0  0
  7  8  1  0  0  0  0
  7 10  1  0  0  0  0
  8  9  1  0  0  0  0
 10 11  1  0  0  0  0
 11 12  1  0  0  0  0
M  END
>  <CHROM.1>
-85.97654510,146.09694166,-64.17798032,10.60443721,-0.46340495,0.15790420
0.03095730,1.24868197,-2.10571823

>  <Name>
ligand

>  <RI>
0

>  <Rbt.Current_Directory>
/home/itssahil/PROJECTS/Mol_Feturizer/New_Systems/rnas/2HO6

>  <Rbt.Executable>
rbdock ($Id: //depot/dev/client3/rdock/2013.1/src/exe/rbdock.cxx#4 $)

>  <Rbt.Library>
libRbt.so (2013.1, Build901 2013/11/27)

>  <Rbt.Parameter_File>
/export/apps/rDock/src/rDock_2013.1_src/data/scripts/dock_solv.prm

>  <Rbt.Receptor>
prm/blind_docking_60.prm

>  <SCORE>
-10.7317

>  <SCORE.INTER>
-11.7185

>  <SCORE.INTER.CONST>
1

>  <SCORE.INTER.POLAR>
-1.34164

>  <SCORE.INTER.ROT>
3

>  <SCORE.INTER.SOLV>
5.32687

>  <SCORE.INTER.VDW>
-10.7158

>  <SCORE.INTER.norm>
-0.976543

>  <SCORE.INTRA>
0.986825

>  <SCORE.INTRA.DIHEDRAL>
4.2663

>  <SCORE.INTRA.DIHEDRAL.0>
1.88407

>  <SCORE.INTRA.POLAR>
0

>  <SCORE.INTRA.POLAR.0>
0

>  <SCORE.INTRA.REPUL>
0

>  <SCORE.INTRA.REPUL.0>
0

>  <SCORE.INTRA.SOLV>
-0.0263809

>  <SCORE.INTRA.SOLV.lig_0>
-10.2714

>  <SCORE.INTRA.VDW>
-1.13313

>  <SCORE.INTRA.VDW.0>
0.416923

>  <SCORE.INTRA.norm>
0.0822354

>  <SCORE.RESTR>
0

>  <SCORE.RESTR.CAVITY>
0

>  <SCORE.RESTR.norm>
0

>  <SCORE.SYSTEM>
0

>  <SCORE.SYSTEM.CONST>
0

>  <SCORE.SYSTEM.DIHEDRAL>
0

>  <SCORE.SYSTEM.SOLV>
0

>  <SCORE.SYSTEM.norm>
0

>  <SCORE.heavy>
12

>  <SCORE.norm>
-0.894308

>  <RMSD>
42.106

$$$$
ligand
 OpenBabel11021811433D
libRbt.so/2013.1/901 2013/11/27
 12 12  0  0  0  0  0  0  0  0999 V2000
   11.6189   -1.6456    1.8273 O   0  0  0  0  0  0  0  0  0  0  0  0
   10.7070   -0.0630   -3.8377 O   0  0  0  0  0  0  0  0  0  0  0  0
   10.2960   -1.4265    2.4040 C   0  0  0  0  0  0  0  0  0  0  0  0
    9.6542   -1.0529   -1.8400 O   0  0  0  0  0  0  0  0  0  0  0  0
    9.5619   -0.2506    1.6965 C   0  0  0  0  0  0  0  0  0  0  0  0
    9.1155    0.5382   -2.8735 O   0  0  0  0  0  0  0  0  0  0  0  0
   10.4448    0.2963    0.6088 N   0  0  0  0  0  0  0  0  0  0  0  0
   11.7528    0.7454    1.1755 C   0  0  0  0  0  0  0  0  0  0  0  0
   12.4258   -0.4357    1.9308 C   0  0  0  0  0  0  0  0  0  0  0  0
    9.7977    1.4462   -0.1146 C   0  0  0  0  0  0  0  0  0  0  0  0
   10.3968    1.6253   -1.5305 C   0  0  0  0  0  0  0  0  0  0  0  0
   10.4191    0.0563   -2.4294 S   0  0  0  0  0  0  0  0  0  0  0  0
  1  3  1  0  0  0  0
  1  9  1  0  0  0  0
  2 12  1  0  0  0  0
  3  5  1  0  0  0  0
  4 12  2  0  0  0  0
  5  7  1  0  0  0  0
  6 12  2  0  0  0  0
  7  8  1  0  0  0  0
  7 10  1  0  0  0  0
  8  9  1  0  0  0  0
 10 11  1  0  0  0  0
 11 12  1  0  0  0  0
M  END
>  <CHROM.1>
-156.95508708,50.00443539,169.24271723,10.49705816,-0.02942239,-0.50934290
-0.64322512,1.29920747,-2.28991466

>  <Name>
ligand

>  <RI>
0

>  <Rbt.Current_Directory>
/home/itssahil/PROJECTS/Mol_Feturizer/New_Systems/rnas/2HO6

>  <Rbt.Executable>
rbdock ($Id: //depot/dev/client3/rdock/2013.1/src/exe/rbdock.cxx#4 $)

>  <Rbt.Library>
libRbt.so (2013.1, Build901 2013/11/27)

>  <Rbt.Parameter_File>
/export/apps/rDock/src/rDock_2013.1_src/data/scripts/dock_solv.prm

>  <Rbt.Receptor>
prm/blind_docking_40.prm

>  <SCORE>
-16.3487

>  <SCORE.INTER>
-16.086

>  <SCORE.INTER.CONST>
1

>  <SCORE.INTER.POLAR>
-2.22671

>  <SCORE.INTER.ROT>
3

>  <SCORE.INTER.SOLV>
9.2312

>  <SCORE.INTER.VDW>
-11.9787

>  <SCORE.INTER.norm>
-1.3405

>  <SCORE.INTRA>
-0.262714

>  <SCORE.INTRA.DIHEDRAL>
1.01156

>  <SCORE.INTRA.DIHEDRAL.0>
1.88407

>  <SCORE.INTRA.POLAR>
0

>  <SCORE.INTRA.POLAR.0>
0

>  <SCORE.INTRA.REPUL>
0

>  <SCORE.INTRA.REPUL.0>
0

>  <SCORE.INTRA.SOLV>
1.11359

>  <SCORE.INTRA.SOLV.lig_0>
-10.2714

>  <SCORE.INTRA.VDW>
-1.32529

>  <SCORE.INTRA.VDW.0>
0.416923

>  <SCORE.INTRA.norm>
-0.0218929

>  <SCORE.RESTR>
0

>  <SCORE.RESTR.CAVITY>
0

>  <SCORE.RESTR.norm>
0

>  <SCORE.SYSTEM>
0

>  <SCORE.SYSTEM.CONST>
0

>  <SCORE.SYSTEM.DIHEDRAL>
0

>  <SCORE.SYSTEM.SOLV>
0

>  <SCORE.SYSTEM.norm>
0

>  <SCORE.heavy>
12

>  <SCORE.norm>
-1.36239

>  <RMSD>
42.165

$$$$
ligand
 OpenBabel11021811433D
libRbt.so/2013.1/901 2013/11/27
 12 12  0  0  0  0  0  0  0  0999 V2000
   10.3057   -2.0737    1.1932 O   0  0  0  0  0  0  0  0  0  0  0  0
   10.8777    2.1857   -4.0364 O   0  0  0  0  0  0  0  0  0  0  0  0
    8.9835   -1.4554    1.2062 C   0  0  0  0  0  0  0  0  0  0  0  0
   12.0933    0.7101   -2.4794 O   0  0  0  0  0  0  0  0  0  0  0  0
    9.0579    0.0404    0.7830 C   0  0  0  0  0  0  0  0  0  0  0  0
   10.1781    0.7177   -2.9505 O   0  0  0  0  0  0  0  0  0  0  0  0
   10.4862    0.3916    0.4688 N   0  0  0  0  0  0  0  0  0  0  0  0
   11.3606    0.1257    1.6513 C   0  0  0  0  0  0  0  0  0  0  0  0
   11.2100   -1.3596    2.0866 C   0  0  0  0  0  0  0  0  0  0  0  0
   10.6330    1.8317    0.0583 C   0  0  0  0  0  0  0  0  0  0  0  0
    9.9625    2.0945   -1.3119 C   0  0  0  0  0  0  0  0  0  0  0  0
   11.1198    1.7960   -2.6690 S   0  0  0  0  0  0  0  0  0  0  0  0
  1  3  1  0  0  0  0
  1  9  1  0  0  0  0
  2 12  1  0  0  0  0
  3  5  1  0  0  0  0
  4 12  2  0  0  0  0
  5  7  1  0  0  0  0
  6 12  2  0  0  0  0
  7  8  1  0  0  0  0
  7 10  1  0  0  0  0
  8  9  1  0  0  0  0
 10 11  1  0  0  0  0
 11 12  1  0  0  0  0
M  END
>  <CHROM.1>
-68.16006148,-88.63872752,-168.07660226,10.59168536,0.54377046,-0.76520134
1.72638379,0.52046703,2.04366150

>  <Name>
ligand

>  <RI>
0

>  <Rbt.Current_Directory>
/home/itssahil/PROJECTS/Mol_Feturizer/New_Systems/rnas/2HO6

>  <Rbt.Executable>
rbdock ($Id: //depot/dev/client3/rdock/2013.1/src/exe/rbdock.cxx#4 $)

>  <Rbt.Library>
libRbt.so (2013.1, Build901 2013/11/27)

>  <Rbt.Parameter_File>
/export/apps/rDock/src/rDock_2013.1_src/data/scripts/dock_solv.prm

>  <Rbt.Receptor>
prm/blind_docking_60.prm

>  <SCORE>
-11.028

>  <SCORE.INTER>
-11.7604

>  <SCORE.INTER.CONST>
1

>  <SCORE.INTER.POLAR>
0

>  <SCORE.INTER.ROT>
3

>  <SCORE.INTER.SOLV>
4.5434

>  <SCORE.INTER.VDW>
-14.9548

>  <SCORE.INTER.norm>
-0.980037

>  <SCORE.INTRA>
0.732481

>  <SCORE.INTRA.DIHEDRAL>
2.5703

>  <SCORE.INTRA.DIHEDRAL.0>
1.88407

>  <SCORE.INTRA.POLAR>
0

>  <SCORE.INTRA.POLAR.0>
0

>  <SCORE.INTRA.REPUL>
0

>  <SCORE.INTRA.REPUL.0>
0

>  <SCORE.INTRA.SOLV>
0.841567

>  <SCORE.INTRA.SOLV.lig_0>
-10.2714

>  <SCORE.INTRA.VDW>
-0.973451

>  <SCORE.INTRA.VDW.0>
0.416923

>  <SCORE.INTRA.norm>
0.0610401

>  <SCORE.RESTR>
0

>  <SCORE.RESTR.CAVITY>
0

>  <SCORE.RESTR.norm>
0

>  <SCORE.SYSTEM>
0

>  <SCORE.SYSTEM.CONST>
0

>  <SCORE.SYSTEM.DIHEDRAL>
0

>  <SCORE.SYSTEM.SOLV>
0

>  <SCORE.SYSTEM.norm>
0

>  <SCORE.heavy>
12

>  <SCORE.norm>
-0.918997

>  <RMSD>
42.181

$$$$
ligand
 OpenBabel11021811433D
libRbt.so/2013.1/901 2013/11/27
 12 12  0  0  0  0  0  0  0  0999 V2000
   10.7623   -1.7135    1.4324 O   0  0  0  0  0  0  0  0  0  0  0  0
   10.6666    0.7224   -4.1667 O   0  0  0  0  0  0  0  0  0  0  0  0
    9.4555   -1.1371    1.7336 C   0  0  0  0  0  0  0  0  0  0  0  0
   11.0252   -0.5850   -2.1073 O   0  0  0  0  0  0  0  0  0  0  0  0
    9.3073    0.2792    1.1057 C   0  0  0  0  0  0  0  0  0  0  0  0
    9.3520    0.1701   -2.8285 O   0  0  0  0  0  0  0  0  0  0  0  0
   10.5661    0.6182    0.3557 N   0  0  0  0  0  0  0  0  0  0  0  0
   11.7485    0.5581    1.2677 C   0  0  0  0  0  0  0  0  0  0  0  0
   11.8264   -0.8481    1.9271 C   0  0  0  0  0  0  0  0  0  0  0  0
   10.4946    1.9835   -0.2730 C   0  0  0  0  0  0  0  0  0  0  0  0
    9.8548    1.9187   -1.6809 C   0  0  0  0  0  0  0  0  0  0  0  0
   10.7034    0.7103   -2.7250 S   0  0  0  0  0  0  0  0  0  0  0  0
  1  3  1  0  0  0  0
  1  9  1  0  0  0  0
  2 12  1  0  0  0  0
  3  5  1  0  0  0  0
  4 12  2  0  0  0  0
  5  7  1  0  0  0  0
  6 12  2  0  0  0  0
  7  8  1  0  0  0  0
  7 10  1  0  0  0  0
  8  9  1  0  0  0  0
 10 11  1  0  0  0  0
 11 12  1  0  0  0  0
M  END
>  <CHROM.1>
-87.56368306,-53.52812315,-158.26584728,10.49977679,0.24492761,-0.76131207
-1.21819858,1.39733364,-1.63875967

>  <Name>
ligand

>  <RI>
0

>  <Rbt.Current_Directory>
/home/itssahil/PROJECTS/Mol_Feturizer/New_Systems/rnas/2HO6

>  <Rbt.Executable>
rbdock ($Id: //depot/dev/client3/rdock/2013.1/src/exe/rbdock.cxx#4 $)

>  <Rbt.Library>
libRbt.so (2013.1, Build901 2013/11/27)

>  <Rbt.Parameter_File>
/export/apps/rDock/src/rDock_2013.1_src/data/scripts/dock_solv.prm

>  <Rbt.Receptor>
prm/blind_docking_100.prm

>  <SCORE>
-16.3892

>  <SCORE.INTER>
-15.6864

>  <SCORE.INTER.CONST>
1

>  <SCORE.INTER.POLAR>
-1.34164

>  <SCORE.INTER.ROT>
3

>  <SCORE.INTER.SOLV>
5.7009

>  <SCORE.INTER.VDW>
-13.4857

>  <SCORE.INTER.norm>
-1.3072

>  <SCORE.INTRA>
-0.702838

>  <SCORE.INTRA.DIHEDRAL>
1.12746

>  <SCORE.INTRA.DIHEDRAL.0>
1.88407

>  <SCORE.INTRA.POLAR>
0

>  <SCORE.INTRA.POLAR.0>
0

>  <SCORE.INTRA.REPUL>
0

>  <SCORE.INTRA.REPUL.0>
0

>  <SCORE.INTRA.SOLV>
1.38307

>  <SCORE.INTRA.SOLV.lig_0>
-10.2714

>  <SCORE.INTRA.VDW>
-1.9581

>  <SCORE.INTRA.VDW.0>
0.416923

>  <SCORE.INTRA.norm>
-0.0585698

>  <SCORE.RESTR>
0

>  <SCORE.RESTR.CAVITY>
0

>  <SCORE.RESTR.norm>
0

>  <SCORE.SYSTEM>
0

>  <SCORE.SYSTEM.CONST>
0

>  <SCORE.SYSTEM.DIHEDRAL>
0

>  <SCORE.SYSTEM.SOLV>
0

>  <SCORE.SYSTEM.norm>
0

>  <SCORE.heavy>
12

>  <SCORE.norm>
-1.36577

>  <RMSD>
42.222

$$$$
ligand
 OpenBabel11021811433D
libRbt.so/2013.1/901 2013/11/27
 12 12  0  0  0  0  0  0  0  0999 V2000
   10.5189   -1.6041    1.1557 O   0  0  0  0  0  0  0  0  0  0  0  0
    9.5621   -0.2210   -2.5780 O   0  0  0  0  0  0  0  0  0  0  0  0
    9.2206   -1.0902    1.5814 C   0  0  0  0  0  0  0  0  0  0  0  0
   11.1481    0.8518   -4.1312 O   0  0  0  0  0  0  0  0  0  0  0  0
    8.9610    0.3309    1.0025 C   0  0  0  0  0  0  0  0  0  0  0  0
   11.4235    0.2878   -2.2615 O   0  0  0  0  0  0  0  0  0  0  0  0
   10.1354    0.7385    0.1559 N   0  0  0  0  0  0  0  0  0  0  0  0
   11.3937    0.7104    0.9617 C   0  0  0  0  0  0  0  0  0  0  0  0
   11.5856   -0.7043    1.5782 C   0  0  0  0  0  0  0  0  0  0  0  0
    9.9542    2.1120   -0.4315 C   0  0  0  0  0  0  0  0  0  0  0  0
   10.7474    2.2653   -1.7518 C   0  0  0  0  0  0  0  0  0  0  0  0
   10.3123    0.9605   -2.9260 S   0  0  0  0  0  0  0  0  0  0  0  0
  1  3  1  0  0  0  0
  1  9  1  0  0  0  0
  2 12  1  0  0  0  0
  3  5  1  0  0  0  0
  4 12  2  0  0  0  0
  5  7  1  0  0  0  0
  6 12  2  0  0  0  0
  7  8  1  0  0  0  0
  7 10  1  0  0  0  0
  8  9  1  0  0  0  0
 10 11  1  0  0  0  0
 11 12  1  0  0  0  0
M  END
>  <CHROM.1>
-153.21484353,54.44136317,-12.73869228,10.41432855,0.41706767,-0.90314362
-2.58775655,1.47791094,-0.23074519

>  <Name>
ligand

>  <RI>
0

>  <Rbt.Current_Directory>
/home/itssahil/PROJECTS/Mol_Feturizer/New_Systems/rnas/2HO6

>  <Rbt.Executable>
rbdock ($Id: //depot/dev/client3/rdock/2013.1/src/exe/rbdock.cxx#4 $)

>  <Rbt.Library>
libRbt.so (2013.1, Build901 2013/11/27)

>  <Rbt.Parameter_File>
/export/apps/rDock/src/rDock_2013.1_src/data/scripts/dock_solv.prm

>  <Rbt.Receptor>
prm/blind_docking_100.prm

>  <SCORE>
-17.1597

>  <SCORE.INTER>
-16.2433

>  <SCORE.INTER.CONST>
1

>  <SCORE.INTER.POLAR>
-1.34164

>  <SCORE.INTER.ROT>
3

>  <SCORE.INTER.SOLV>
7.05475

>  <SCORE.INTER.VDW>
-14.3083

>  <SCORE.INTER.norm>
-1.35361

>  <SCORE.INTRA>
-0.916304

>  <SCORE.INTRA.DIHEDRAL>
0.918732

>  <SCORE.INTRA.DIHEDRAL.0>
1.88407

>  <SCORE.INTRA.POLAR>
0

>  <SCORE.INTRA.POLAR.0>
0

>  <SCORE.INTRA.REPUL>
0

>  <SCORE.INTRA.REPUL.0>
0

>  <SCORE.INTRA.SOLV>
0.745859

>  <SCORE.INTRA.SOLV.lig_0>
-10.2714

>  <SCORE.INTRA.VDW>
-1.7486

>  <SCORE.INTRA.VDW.0>
0.416923

>  <SCORE.INTRA.norm>
-0.0763587

>  <SCORE.RESTR>
0

>  <SCORE.RESTR.CAVITY>
0

>  <SCORE.RESTR.norm>
0

>  <SCORE.SYSTEM>
0

>  <SCORE.SYSTEM.CONST>
0

>  <SCORE.SYSTEM.DIHEDRAL>
0

>  <SCORE.SYSTEM.SOLV>
0

>  <SCORE.SYSTEM.norm>
0

>  <SCORE.heavy>
12

>  <SCORE.norm>
-1.42997

>  <RMSD>
42.291

$$$$
ligand
 OpenBabel11021811433D
libRbt.so/2013.1/901 2013/11/27
 12 12  0  0  0  0  0  0  0  0999 V2000
   10.5154   -1.8164    1.2933 O   0  0  0  0  0  0  0  0  0  0  0  0
   10.5711    0.7972   -4.1608 O   0  0  0  0  0  0  0  0  0  0  0  0
    9.2207   -1.2058    1.5791 C   0  0  0  0  0  0  0  0  0  0  0  0
   11.0951   -0.4609   -2.1060 O   0  0  0  0  0  0  0  0  0  0  0  0
    9.1489    0.2461    1.0233 C   0  0  0  0  0  0  0  0  0  0  0  0
    9.3567    0.2214   -2.7404 O   0  0  0  0  0  0  0  0  0  0  0  0
   10.4463    0.5743    0.3371 N   0  0  0  0  0  0  0  0  0  0  0  0
   11.5911    0.4202    1.2855 C   0  0  0  0  0  0  0  0  0  0  0  0
   11.5919   -1.0205    1.8708 C   0  0  0  0  0  0  0  0  0  0  0  0
   10.4492    1.9722   -0.2195 C   0  0  0  0  0  0  0  0  0  0  0  0
    9.8601    2.0063   -1.6504 C   0  0  0  0  0  0  0  0  0  0  0  0
   10.6911    0.8113   -2.7235 S   0  0  0  0  0  0  0  0  0  0  0  0
  1  3  1  0  0  0  0
  1  9  1  0  0  0  0
  2 12  1  0  0  0  0
  3  5  1  0  0  0  0
  4 12  2  0  0  0  0
  5  7  1  0  0  0  0
  6 12  2  0  0  0  0
  7  8  1  0  0  0  0
  7 10  1  0  0  0  0
  8  9  1  0  0  0  0
 10 11  1  0  0  0  0
 11 12  1  0  0  0  0
M  END
>  <CHROM.1>
-87.56367464,-53.01461723,-166.36470635,10.40743702,0.24630223,-0.77985111
-1.44849505,1.42347160,-1.36336323

>  <Name>
ligand

>  <RI>
0

>  <Rbt.Current_Directory>
/home/itssahil/PROJECTS/Mol_Feturizer/New_Systems/rnas/2HO6

>  <Rbt.Executable>
rbdock ($Id: //depot/dev/client3/rdock/2013.1/src/exe/rbdock.cxx#4 $)

>  <Rbt.Library>
libRbt.so (2013.1, Build901 2013/11/27)

>  <Rbt.Parameter_File>
/export/apps/rDock/src/rDock_2013.1_src/data/scripts/dock_solv.prm

>  <Rbt.Receptor>
prm/blind_docking_20.prm

>  <SCORE>
-16.3895

>  <SCORE.INTER>
-15.7749

>  <SCORE.INTER.CONST>
1

>  <SCORE.INTER.POLAR>
-1.33946

>  <SCORE.INTER.ROT>
3

>  <SCORE.INTER.SOLV>
5.57418

>  <SCORE.INTER.VDW>
-13.5098

>  <SCORE.INTER.norm>
-1.31458

>  <SCORE.INTRA>
-0.614592

>  <SCORE.INTRA.DIHEDRAL>
1.1667

>  <SCORE.INTRA.DIHEDRAL.0>
1.88407

>  <SCORE.INTRA.POLAR>
0

>  <SCORE.INTRA.POLAR.0>
0

>  <SCORE.INTRA.REPUL>
0

>  <SCORE.INTRA.REPUL.0>
0

>  <SCORE.INTRA.SOLV>
1.48987

>  <SCORE.INTRA.SOLV.lig_0>
-10.2714

>  <SCORE.INTRA.VDW>
-1.94288

>  <SCORE.INTRA.VDW.0>
0.416923

>  <SCORE.INTRA.norm>
-0.051216

>  <SCORE.RESTR>
0

>  <SCORE.RESTR.CAVITY>
0

>  <SCORE.RESTR.norm>
0

>  <SCORE.SYSTEM>
0

>  <SCORE.SYSTEM.CONST>
0

>  <SCORE.SYSTEM.DIHEDRAL>
0

>  <SCORE.SYSTEM.SOLV>
0

>  <SCORE.SYSTEM.norm>
0

>  <SCORE.heavy>
12

>  <SCORE.norm>
-1.36579

>  <RMSD>
42.329

$$$$
ligand
 OpenBabel11021811433D
libRbt.so/2013.1/901 2013/11/27
 12 12  0  0  0  0  0  0  0  0999 V2000
   10.9520   -2.6871   -2.4150 O   0  0  0  0  0  0  0  0  0  0  0  0
    8.6284    0.9113   -1.1367 O   0  0  0  0  0  0  0  0  0  0  0  0
   11.5508   -2.1407   -1.2011 C   0  0  0  0  0  0  0  0  0  0  0  0
   10.2547    2.2935    0.0977 O   0  0  0  0  0  0  0  0  0  0  0  0
   11.9332   -0.6436   -1.3874 C   0  0  0  0  0  0  0  0  0  0  0  0
    9.0835    2.7936   -1.4084 O   0  0  0  0  0  0  0  0  0  0  0  0
   11.5475   -0.2070   -2.7739 N   0  0  0  0  0  0  0  0  0  0  0  0
   12.2221   -1.0630   -3.7966 C   0  0  0  0  0  0  0  0  0  0  0  0
   11.8710   -2.5559   -3.5393 C   0  0  0  0  0  0  0  0  0  0  0  0
   11.8974    1.2346   -3.0263 C   0  0  0  0  0  0  0  0  0  0  0  0
   10.7202    2.1693   -2.6569 C   0  0  0  0  0  0  0  0  0  0  0  0
    9.8920    1.6066   -1.1510 S   0  0  0  0  0  0  0  0  0  0  0  0
  1  3  1  0  0  0  0
  1  9  1  0  0  0  0
  2 12  1  0  0  0  0
  3  5  1  0  0  0  0
  4 12  2  0  0  0  0
  5  7  1  0  0  0  0
  6 12  2  0  0  0  0
  7  8  1  0  0  0  0
  7 10  1  0  0  0  0
  8  9  1  0  0  0  0
 10 11  1  0  0  0  0
 11 12  1  0  0  0  0
M  END
>  <CHROM.1>
-91.01767316,39.21411624,-103.19856359,10.74093553,0.30644670,-1.91774154
0.81942838,-0.89817285,2.90510484

>  <Name>
ligand

>  <RI>
0

>  <Rbt.Current_Directory>
/home/itssahil/PROJECTS/Mol_Feturizer/New_Systems/rnas/2HO6

>  <Rbt.Executable>
rbdock ($Id: //depot/dev/client3/rdock/2013.1/src/exe/rbdock.cxx#4 $)

>  <Rbt.Library>
libRbt.so (2013.1, Build901 2013/11/27)

>  <Rbt.Parameter_File>
/export/apps/rDock/src/rDock_2013.1_src/data/scripts/dock_solv.prm

>  <Rbt.Receptor>
prm/blind_docking_20.prm

>  <SCORE>
-13.4729

>  <SCORE.INTER>
-13.725

>  <SCORE.INTER.CONST>
1

>  <SCORE.INTER.POLAR>
-1.3375

>  <SCORE.INTER.ROT>
3

>  <SCORE.INTER.SOLV>
8.4673

>  <SCORE.INTER.VDW>
-13.1141

>  <SCORE.INTER.norm>
-1.14375

>  <SCORE.INTRA>
0.252062

>  <SCORE.INTRA.DIHEDRAL>
2.8056

>  <SCORE.INTRA.DIHEDRAL.0>
1.88407

>  <SCORE.INTRA.POLAR>
0

>  <SCORE.INTRA.POLAR.0>
0

>  <SCORE.INTRA.REPUL>
0

>  <SCORE.INTRA.REPUL.0>
0

>  <SCORE.INTRA.SOLV>
0.447865

>  <SCORE.INTRA.SOLV.lig_0>
-10.2714

>  <SCORE.INTRA.VDW>
-1.37467

>  <SCORE.INTRA.VDW.0>
0.416923

>  <SCORE.INTRA.norm>
0.0210052

>  <SCORE.RESTR>
0

>  <SCORE.RESTR.CAVITY>
0

>  <SCORE.RESTR.norm>
0

>  <SCORE.SYSTEM>
0

>  <SCORE.SYSTEM.CONST>
0

>  <SCORE.SYSTEM.DIHEDRAL>
0

>  <SCORE.SYSTEM.SOLV>
0

>  <SCORE.SYSTEM.norm>
0

>  <SCORE.heavy>
12

>  <SCORE.norm>
-1.12274

>  <RMSD>
42.342

$$$$
ligand
 OpenBabel11021811433D
libRbt.so/2013.1/901 2013/11/27
 12 12  0  0  0  0  0  0  0  0999 V2000
   10.7209   -0.1786    1.9840 O   0  0  0  0  0  0  0  0  0  0  0  0
    9.5840   -0.1852   -2.3657 O   0  0  0  0  0  0  0  0  0  0  0  0
   12.1018    0.1567    1.6499 C   0  0  0  0  0  0  0  0  0  0  0  0
   10.4726   -1.2189   -4.4203 O   0  0  0  0  0  0  0  0  0  0  0  0
   12.6272   -0.7251    0.4800 C   0  0  0  0  0  0  0  0  0  0  0  0
    9.1418   -1.9229   -3.1461 O   0  0  0  0  0  0  0  0  0  0  0  0
   11.5312   -1.6534    0.0339 N   0  0  0  0  0  0  0  0  0  0  0  0
   11.0676   -2.4993    1.1755 C   0  0  0  0  0  0  0  0  0  0  0  0
   10.6132   -1.5860    2.3492 C   0  0  0  0  0  0  0  0  0  0  0  0
   11.9748   -2.5445   -1.0945 C   0  0  0  0  0  0  0  0  0  0  0  0
   10.8336   -2.7632   -2.1170 C   0  0  0  0  0  0  0  0  0  0  0  0
   10.4040   -1.2173   -2.9512 S   0  0  0  0  0  0  0  0  0  0  0  0
  1  3  1  0  0  0  0
  1  9  1  0  0  0  0
  2 12  1  0  0  0  0
  3  5  1  0  0  0  0
  4 12  2  0  0  0  0
  5  7  1  0  0  0  0
  6 12  2  0  0  0  0
  7  8  1  0  0  0  0
  7 10  1  0  0  0  0
  8  9  1  0  0  0  0
 10 11  1  0  0  0  0
 11 12  1  0  0  0  0
M  END
>  <CHROM.1>
-142.42019450,65.53846885,-78.74016032,10.83619147,-1.32834652,-0.96299826
0.97142160,-1.10864641,0.93031601

>  <Name>
ligand

>  <RI>
0

>  <Rbt.Current_Directory>
/home/itssahil/PROJECTS/Mol_Feturizer/New_Systems/rnas/2HO6

>  <Rbt.Executable>
rbdock ($Id: //depot/dev/client3/rdock/2013.1/src/exe/rbdock.cxx#4 $)

>  <Rbt.Library>
libRbt.so (2013.1, Build901 2013/11/27)

>  <Rbt.Parameter_File>
/export/apps/rDock/src/rDock_2013.1_src/data/scripts/dock_solv.prm

>  <Rbt.Receptor>
prm/blind_docking_80.prm

>  <SCORE>
-12.8598

>  <SCORE.INTER>
-12.1382

>  <SCORE.INTER.CONST>
1

>  <SCORE.INTER.POLAR>
-2.2248

>  <SCORE.INTER.ROT>
3

>  <SCORE.INTER.SOLV>
9.00079

>  <SCORE.INTER.VDW>
-9.27638

>  <SCORE.INTER.norm>
-1.01151

>  <SCORE.INTRA>
-0.721654

>  <SCORE.INTRA.DIHEDRAL>
1.67179

>  <SCORE.INTRA.DIHEDRAL.0>
1.88407

>  <SCORE.INTRA.POLAR>
0

>  <SCORE.INTRA.POLAR.0>
0

>  <SCORE.INTRA.REPUL>
0

>  <SCORE.INTRA.REPUL.0>
0

>  <SCORE.INTRA.SOLV>
0.226612

>  <SCORE.INTRA.SOLV.lig_0>
-10.2714

>  <SCORE.INTRA.VDW>
-1.67086

>  <SCORE.INTRA.VDW.0>
0.416923

>  <SCORE.INTRA.norm>
-0.0601379

>  <SCORE.RESTR>
0

>  <SCORE.RESTR.CAVITY>
0

>  <SCORE.RESTR.norm>
0

>  <SCORE.SYSTEM>
0

>  <SCORE.SYSTEM.CONST>
0

>  <SCORE.SYSTEM.DIHEDRAL>
0

>  <SCORE.SYSTEM.SOLV>
0

>  <SCORE.SYSTEM.norm>
0

>  <SCORE.heavy>
12

>  <SCORE.norm>
-1.07165

>  <RMSD>
42.353

$$$$
ligand
 OpenBabel11021811433D
libRbt.so/2013.1/901 2013/11/27
 12 12  0  0  0  0  0  0  0  0999 V2000
   10.8953   -2.6747   -2.4649 O   0  0  0  0  0  0  0  0  0  0  0  0
    8.6490    0.9196   -1.1824 O   0  0  0  0  0  0  0  0  0  0  0  0
   11.4174   -2.1283   -1.2160 C   0  0  0  0  0  0  0  0  0  0  0  0
   10.2431    2.3062    0.0887 O   0  0  0  0  0  0  0  0  0  0  0  0
   11.8287   -0.6367   -1.3833 C   0  0  0  0  0  0  0  0  0  0  0  0
    9.1019    2.8042   -1.4410 O   0  0  0  0  0  0  0  0  0  0  0  0
   11.5424   -0.2035   -2.7948 N   0  0  0  0  0  0  0  0  0  0  0  0
   12.2743   -1.0728   -3.7655 C   0  0  0  0  0  0  0  0  0  0  0  0
   11.8894   -2.5602   -3.5253 C   0  0  0  0  0  0  0  0  0  0  0  0
   11.9252    1.2326   -3.0299 C   0  0  0  0  0  0  0  0  0  0  0  0
   10.7673    2.1891   -2.6557 C   0  0  0  0  0  0  0  0  0  0  0  0
    9.9097    1.6201   -1.1687 S   0  0  0  0  0  0  0  0  0  0  0  0
  1  3  1  0  0  0  0
  1  9  1  0  0  0  0
  2 12  1  0  0  0  0
  3  5  1  0  0  0  0
  4 12  2  0  0  0  0
  5  7  1  0  0  0  0
  6 12  2  0  0  0  0
  7  8  1  0  0  0  0
  7 10  1  0  0  0  0
  8  9  1  0  0  0  0
 10 11  1  0  0  0  0
 11 12  1  0  0  0  0
M  END
>  <CHROM.1>
-87.25256324,38.67242669,-101.22070737,10.73440887,0.31417458,-1.93118032
0.86402462,-0.87611226,2.95416703

>  <Name>
ligand

>  <RI>
0

>  <Rbt.Current_Directory>
/home/itssahil/PROJECTS/Mol_Feturizer/New_Systems/rnas/2HO6

>  <Rbt.Executable>
rbdock ($Id: //depot/dev/client3/rdock/2013.1/src/exe/rbdock.cxx#4 $)

>  <Rbt.Library>
libRbt.so (2013.1, Build901 2013/11/27)

>  <Rbt.Parameter_File>
/export/apps/rDock/src/rDock_2013.1_src/data/scripts/dock_solv.prm

>  <Rbt.Receptor>
prm/blind_docking_80.prm

>  <SCORE>
-13.5469

>  <SCORE.INTER>
-14.0546

>  <SCORE.INTER.CONST>
1

>  <SCORE.INTER.POLAR>
-1.34041

>  <SCORE.INTER.ROT>
3

>  <SCORE.INTER.SOLV>
8.45747

>  <SCORE.INTER.VDW>
-13.3209

>  <SCORE.INTER.norm>
-1.17122

>  <SCORE.INTRA>
0.507784

>  <SCORE.INTRA.DIHEDRAL>
2.64317

>  <SCORE.INTRA.DIHEDRAL.0>
1.88407

>  <SCORE.INTRA.POLAR>
0

>  <SCORE.INTRA.POLAR.0>
0

>  <SCORE.INTRA.REPUL>
0

>  <SCORE.INTRA.REPUL.0>
0

>  <SCORE.INTRA.SOLV>
0.442336

>  <SCORE.INTRA.SOLV.lig_0>
-10.2714

>  <SCORE.INTRA.VDW>
-1.03497

>  <SCORE.INTRA.VDW.0>
0.416923

>  <SCORE.INTRA.norm>
0.0423153

>  <SCORE.RESTR>
0

>  <SCORE.RESTR.CAVITY>
0

>  <SCORE.RESTR.norm>
0

>  <SCORE.SYSTEM>
0

>  <SCORE.SYSTEM.CONST>
0

>  <SCORE.SYSTEM.DIHEDRAL>
0

>  <SCORE.SYSTEM.SOLV>
0

>  <SCORE.SYSTEM.norm>
0

>  <SCORE.heavy>
12

>  <SCORE.norm>
-1.12891

>  <RMSD>
42.353

$$$$
ligand
 OpenBabel11021811433D
libRbt.so/2013.1/901 2013/11/27
 12 12  0  0  0  0  0  0  0  0999 V2000
   10.5781   -1.2937    1.5894 O   0  0  0  0  0  0  0  0  0  0  0  0
   11.5930   -0.8447   -3.7504 O   0  0  0  0  0  0  0  0  0  0  0  0
    9.2398   -0.7216    1.6999 C   0  0  0  0  0  0  0  0  0  0  0  0
    9.2355   -0.2245   -3.3806 O   0  0  0  0  0  0  0  0  0  0  0  0
    9.0589    0.4783    0.7255 C   0  0  0  0  0  0  0  0  0  0  0  0
   10.6728    0.8056   -4.2540 O   0  0  0  0  0  0  0  0  0  0  0  0
   10.3296    0.6731   -0.0551 N   0  0  0  0  0  0  0  0  0  0  0  0
   11.4799    0.9040    0.8706 C   0  0  0  0  0  0  0  0  0  0  0  0
   11.5890   -0.2814    1.8711 C   0  0  0  0  0  0  0  0  0  0  0  0
   10.2273    1.8271   -1.0153 C   0  0  0  0  0  0  0  0  0  0  0  0
   11.0747    1.5751   -2.2858 C   0  0  0  0  0  0  0  0  0  0  0  0
   10.6513   -0.0107   -3.0449 S   0  0  0  0  0  0  0  0  0  0  0  0
  1  3  1  0  0  0  0
  1  9  1  0  0  0  0
  2 12  1  0  0  0  0
  3  5  1  0  0  0  0
  4 12  2  0  0  0  0
  5  7  1  0  0  0  0
  6 12  2  0  0  0  0
  7  8  1  0  0  0  0
  7 10  1  0  0  0  0
  8  9  1  0  0  0  0
 10 11  1  0  0  0  0
 11 12  1  0  0  0  0
M  END
>  <CHROM.1>
-147.87562865,53.40616299,-147.47738316,10.49535898,0.19159445,-1.17874295
1.90390209,1.41751068,1.32216009

>  <Name>
ligand

>  <RI>
0

>  <Rbt.Current_Directory>
/home/itssahil/PROJECTS/Mol_Feturizer/New_Systems/rnas/2HO6

>  <Rbt.Executable>
rbdock ($Id: //depot/dev/client3/rdock/2013.1/src/exe/rbdock.cxx#4 $)

>  <Rbt.Library>
libRbt.so (2013.1, Build901 2013/11/27)

>  <Rbt.Parameter_File>
/export/apps/rDock/src/rDock_2013.1_src/data/scripts/dock_solv.prm

>  <Rbt.Receptor>
prm/blind_docking_20.prm

>  <SCORE>
-15.1423

>  <SCORE.INTER>
-14.5057

>  <SCORE.INTER.CONST>
1

>  <SCORE.INTER.POLAR>
-1.34114

>  <SCORE.INTER.ROT>
3

>  <SCORE.INTER.SOLV>
7.72725

>  <SCORE.INTER.VDW>
-13.3757

>  <SCORE.INTER.norm>
-1.2088

>  <SCORE.INTRA>
-0.636693

>  <SCORE.INTRA.DIHEDRAL>
1.26041

>  <SCORE.INTRA.DIHEDRAL.0>
1.88407

>  <SCORE.INTRA.POLAR>
0

>  <SCORE.INTRA.POLAR.0>
0

>  <SCORE.INTRA.REPUL>
0

>  <SCORE.INTRA.REPUL.0>
0

>  <SCORE.INTRA.SOLV>
0.579492

>  <SCORE.INTRA.SOLV.lig_0>
-10.2714

>  <SCORE.INTRA.VDW>
-1.55664

>  <SCORE.INTRA.VDW.0>
0.416923

>  <SCORE.INTRA.norm>
-0.0530577

>  <SCORE.RESTR>
0

>  <SCORE.RESTR.CAVITY>
0

>  <SCORE.RESTR.norm>
0

>  <SCORE.SYSTEM>
0

>  <SCORE.SYSTEM.CONST>
0

>  <SCORE.SYSTEM.DIHEDRAL>
0

>  <SCORE.SYSTEM.SOLV>
0

>  <SCORE.SYSTEM.norm>
0

>  <SCORE.heavy>
12

>  <SCORE.norm>
-1.26186

>  <RMSD>
42.361

$$$$
ligand
 OpenBabel11021811433D
libRbt.so/2013.1/901 2013/11/27
 12 12  0  0  0  0  0  0  0  0999 V2000
   10.3797   -1.8777   -2.7080 O   0  0  0  0  0  0  0  0  0  0  0  0
   10.7787    1.3262    0.1684 O   0  0  0  0  0  0  0  0  0  0  0  0
   11.7757   -1.7764   -2.2938 C   0  0  0  0  0  0  0  0  0  0  0  0
    9.0762    3.1089    0.2198 O   0  0  0  0  0  0  0  0  0  0  0  0
   12.2688   -0.3008   -2.3345 C   0  0  0  0  0  0  0  0  0  0  0  0
    9.2639    1.6009   -1.0374 O   0  0  0  0  0  0  0  0  0  0  0  0
   11.1358    0.5836   -2.7774 N   0  0  0  0  0  0  0  0  0  0  0  0
   10.6293    0.1513   -4.1153 C   0  0  0  0  0  0  0  0  0  0  0  0
   10.2085   -1.3446   -4.0542 C   0  0  0  0  0  0  0  0  0  0  0  0
   11.5464    2.0295   -2.8470 C   0  0  0  0  0  0  0  0  0  0  0  0
   10.4853    2.9451   -2.1901 C   0  0  0  0  0  0  0  0  0  0  0  0
   10.2410    2.5123   -0.4513 S   0  0  0  0  0  0  0  0  0  0  0  0
  1  3  1  0  0  0  0
  1  9  1  0  0  0  0
  2 12  1  0  0  0  0
  3  5  1  0  0  0  0
  4 12  2  0  0  0  0
  5  7  1  0  0  0  0
  6 12  2  0  0  0  0
  7  8  1  0  0  0  0
  7 10  1  0  0  0  0
  8  9  1  0  0  0  0
 10 11  1  0  0  0  0
 11 12  1  0  0  0  0
M  END
>  <CHROM.1>
-134.32315049,59.53095092,-10.44207574,10.57970494,0.92238965,-1.83935489
0.39625725,-1.31840312,2.62161869

>  <Name>
ligand

>  <RI>
0

>  <Rbt.Current_Directory>
/home/itssahil/PROJECTS/Mol_Feturizer/New_Systems/rnas/2HO6

>  <Rbt.Executable>
rbdock ($Id: //depot/dev/client3/rdock/2013.1/src/exe/rbdock.cxx#4 $)

>  <Rbt.Library>
libRbt.so (2013.1, Build901 2013/11/27)

>  <Rbt.Parameter_File>
/export/apps/rDock/src/rDock_2013.1_src/data/scripts/dock_solv.prm

>  <Rbt.Receptor>
prm/blind_docking_40.prm

>  <SCORE>
-15.0379

>  <SCORE.INTER>
-14.4528

>  <SCORE.INTER.CONST>
1

>  <SCORE.INTER.POLAR>
0

>  <SCORE.INTER.ROT>
3

>  <SCORE.INTER.SOLV>
8.93965

>  <SCORE.INTER.VDW>
-18.2151

>  <SCORE.INTER.norm>
-1.2044

>  <SCORE.INTRA>
-0.58509

>  <SCORE.INTRA.DIHEDRAL>
1.91048

>  <SCORE.INTRA.DIHEDRAL.0>
1.88407

>  <SCORE.INTRA.POLAR>
0

>  <SCORE.INTRA.POLAR.0>
0

>  <SCORE.INTRA.REPUL>
0

>  <SCORE.INTRA.REPUL.0>
0

>  <SCORE.INTRA.SOLV>
0.694902

>  <SCORE.INTRA.SOLV.lig_0>
-10.2714

>  <SCORE.INTRA.VDW>
-1.88778

>  <SCORE.INTRA.VDW.0>
0.416923

>  <SCORE.INTRA.norm>
-0.0487575

>  <SCORE.RESTR>
0

>  <SCORE.RESTR.CAVITY>
0

>  <SCORE.RESTR.norm>
0

>  <SCORE.SYSTEM>
0

>  <SCORE.SYSTEM.CONST>
0

>  <SCORE.SYSTEM.DIHEDRAL>
0

>  <SCORE.SYSTEM.SOLV>
0

>  <SCORE.SYSTEM.norm>
0

>  <SCORE.heavy>
12

>  <SCORE.norm>
-1.25316

>  <RMSD>
42.379

$$$$
ligand
 OpenBabel11021811433D
libRbt.so/2013.1/901 2013/11/27
 12 12  0  0  0  0  0  0  0  0999 V2000
   10.3527   -1.9486   -2.6331 O   0  0  0  0  0  0  0  0  0  0  0  0
   10.8609    1.3972    0.2170 O   0  0  0  0  0  0  0  0  0  0  0  0
   11.7710   -1.8612   -2.2995 C   0  0  0  0  0  0  0  0  0  0  0  0
    9.0910    3.1136    0.1934 O   0  0  0  0  0  0  0  0  0  0  0  0
   12.2760   -0.3908   -2.3712 C   0  0  0  0  0  0  0  0  0  0  0  0
    9.3285    1.5521   -0.9878 O   0  0  0  0  0  0  0  0  0  0  0  0
   11.1288    0.5047   -2.7504 N   0  0  0  0  0  0  0  0  0  0  0  0
   10.5422    0.0758   -4.0564 C   0  0  0  0  0  0  0  0  0  0  0  0
   10.1103   -1.4155   -3.9683 C   0  0  0  0  0  0  0  0  0  0  0  0
   11.5496    1.9462   -2.8462 C   0  0  0  0  0  0  0  0  0  0  0  0
   10.4890    2.8820   -2.2174 C   0  0  0  0  0  0  0  0  0  0  0  0
   10.2734    2.5289   -0.4570 S   0  0  0  0  0  0  0  0  0  0  0  0
  1  3  1  0  0  0  0
  1  9  1  0  0  0  0
  2 12  1  0  0  0  0
  3  5  1  0  0  0  0
  4 12  2  0  0  0  0
  5  7  1  0  0  0  0
  6 12  2  0  0  0  0
  7  8  1  0  0  0  0
  7 10  1  0  0  0  0
  8  9  1  0  0  0  0
 10 11  1  0  0  0  0
 11 12  1  0  0  0  0
M  END
>  <CHROM.1>
-138.24516725,61.71808347,-8.70888296,10.58293198,0.88203577,-1.82078568
0.34180699,-1.34242754,2.54488602

>  <Name>
ligand

>  <RI>
0

>  <Rbt.Current_Directory>
/home/itssahil/PROJECTS/Mol_Feturizer/New_Systems/rnas/2HO6

>  <Rbt.Executable>
rbdock ($Id: //depot/dev/client3/rdock/2013.1/src/exe/rbdock.cxx#4 $)

>  <Rbt.Library>
libRbt.so (2013.1, Build901 2013/11/27)

>  <Rbt.Parameter_File>
/export/apps/rDock/src/rDock_2013.1_src/data/scripts/dock_solv.prm

>  <Rbt.Receptor>
prm/blind_docking_80.prm

>  <SCORE>
-15.0147

>  <SCORE.INTER>
-14.4643

>  <SCORE.INTER.CONST>
1

>  <SCORE.INTER.POLAR>
0

>  <SCORE.INTER.ROT>
3

>  <SCORE.INTER.SOLV>
9.01372

>  <SCORE.INTER.VDW>
-18.2475

>  <SCORE.INTER.norm>
-1.20536

>  <SCORE.INTRA>
-0.551322

>  <SCORE.INTRA.DIHEDRAL>
1.73208

>  <SCORE.INTRA.DIHEDRAL.0>
1.88407

>  <SCORE.INTRA.POLAR>
0

>  <SCORE.INTRA.POLAR.0>
0

>  <SCORE.INTRA.REPUL>
0

>  <SCORE.INTRA.REPUL.0>
0

>  <SCORE.INTRA.SOLV>
0.729135

>  <SCORE.INTRA.SOLV.lig_0>
-10.2714

>  <SCORE.INTRA.VDW>
-1.78193

>  <SCORE.INTRA.VDW.0>
0.416923

>  <SCORE.INTRA.norm>
-0.0459435

>  <SCORE.RESTR>
0.000945607

>  <SCORE.RESTR.CAVITY>
0.000945607

>  <SCORE.RESTR.norm>
7.88006e-05

>  <SCORE.SYSTEM>
0

>  <SCORE.SYSTEM.CONST>
0

>  <SCORE.SYSTEM.DIHEDRAL>
0

>  <SCORE.SYSTEM.SOLV>
0

>  <SCORE.SYSTEM.norm>
0

>  <SCORE.heavy>
12

>  <SCORE.norm>
-1.25123

>  <RMSD>
42.391

$$$$
ligand
 OpenBabel11021811433D
libRbt.so/2013.1/901 2013/11/27
 12 12  0  0  0  0  0  0  0  0999 V2000
   10.3171   -1.8718   -2.6857 O   0  0  0  0  0  0  0  0  0  0  0  0
   10.7840    1.3340    0.1716 O   0  0  0  0  0  0  0  0  0  0  0  0
   11.7152   -1.7888   -2.2744 C   0  0  0  0  0  0  0  0  0  0  0  0
    9.0717    3.1075    0.2113 O   0  0  0  0  0  0  0  0  0  0  0  0
   12.2298   -0.3209   -2.3242 C   0  0  0  0  0  0  0  0  0  0  0  0
    9.2761    1.6005   -1.0445 O   0  0  0  0  0  0  0  0  0  0  0  0
   11.1093    0.5777   -2.7702 N   0  0  0  0  0  0  0  0  0  0  0  0
   10.5941    0.1454   -4.1048 C   0  0  0  0  0  0  0  0  0  0  0  0
   10.1514   -1.3437   -4.0346 C   0  0  0  0  0  0  0  0  0  0  0  0
   11.5411    2.0170   -2.8485 C   0  0  0  0  0  0  0  0  0  0  0  0
   10.4980    2.9511   -2.1889 C   0  0  0  0  0  0  0  0  0  0  0  0
   10.2441    2.5172   -0.4518 S   0  0  0  0  0  0  0  0  0  0  0  0
  1  3  1  0  0  0  0
  1  9  1  0  0  0  0
  2 12  1  0  0  0  0
  3  5  1  0  0  0  0
  4 12  2  0  0  0  0
  5  7  1  0  0  0  0
  6 12  2  0  0  0  0
  7  8  1  0  0  0  0
  7 10  1  0  0  0  0
  8  9  1  0  0  0  0
 10 11  1  0  0  0  0
 11 12  1  0  0  0  0
M  END
>  <CHROM.1>
-134.04823520,58.87690079,-8.93763387,10.56091123,0.92057272,-1.83381799
0.45778373,-1.32501583,2.67889747

>  <Name>
ligand

>  <RI>
0

>  <Rbt.Current_Directory>
/home/itssahil/PROJECTS/Mol_Feturizer/New_Systems/rnas/2HO6

>  <Rbt.Executable>
rbdock ($Id: //depot/dev/client3/rdock/2013.1/src/exe/rbdock.cxx#4 $)

>  <Rbt.Library>
libRbt.so (2013.1, Build901 2013/11/27)

>  <Rbt.Parameter_File>
/export/apps/rDock/src/rDock_2013.1_src/data/scripts/dock_solv.prm

>  <Rbt.Receptor>
prm/blind_docking_100.prm

>  <SCORE>
-15.0548

>  <SCORE.INTER>
-14.5428

>  <SCORE.INTER.CONST>
1

>  <SCORE.INTER.POLAR>
0

>  <SCORE.INTER.ROT>
3

>  <SCORE.INTER.SOLV>
9.19974

>  <SCORE.INTER.VDW>
-18.3618

>  <SCORE.INTER.norm>
-1.2119

>  <SCORE.INTRA>
-0.51203

>  <SCORE.INTRA.DIHEDRAL>
1.93254

>  <SCORE.INTRA.DIHEDRAL.0>
1.88407

>  <SCORE.INTRA.POLAR>
0

>  <SCORE.INTRA.POLAR.0>
0

>  <SCORE.INTRA.REPUL>
0

>  <SCORE.INTRA.REPUL.0>
0

>  <SCORE.INTRA.SOLV>
0.723997

>  <SCORE.INTRA.SOLV.lig_0>
-10.2714

>  <SCORE.INTRA.VDW>
-1.8403

>  <SCORE.INTRA.VDW.0>
0.416923

>  <SCORE.INTRA.norm>
-0.0426691

>  <SCORE.RESTR>
0

>  <SCORE.RESTR.CAVITY>
0

>  <SCORE.RESTR.norm>
0

>  <SCORE.SYSTEM>
0

>  <SCORE.SYSTEM.CONST>
0

>  <SCORE.SYSTEM.DIHEDRAL>
0

>  <SCORE.SYSTEM.SOLV>
0

>  <SCORE.SYSTEM.norm>
0

>  <SCORE.heavy>
12

>  <SCORE.norm>
-1.25457

>  <RMSD>
42.398

$$$$
ligand
 OpenBabel11021811433D
libRbt.so/2013.1/901 2013/11/27
 12 12  0  0  0  0  0  0  0  0999 V2000
   10.2737   -1.8655   -2.7261 O   0  0  0  0  0  0  0  0  0  0  0  0
   10.8107    1.3534    0.1809 O   0  0  0  0  0  0  0  0  0  0  0  0
   11.6774   -1.8149   -2.3289 C   0  0  0  0  0  0  0  0  0  0  0  0
    9.0835    3.1129    0.1913 O   0  0  0  0  0  0  0  0  0  0  0  0
   12.2191   -0.3563   -2.3628 C   0  0  0  0  0  0  0  0  0  0  0  0
    9.3115    1.5978   -1.0507 O   0  0  0  0  0  0  0  0  0  0  0  0
   11.1110    0.5697   -2.7832 N   0  0  0  0  0  0  0  0  0  0  0  0
   10.5736    0.1671   -4.1183 C   0  0  0  0  0  0  0  0  0  0  0  0
   10.1036   -1.3143   -4.0652 C   0  0  0  0  0  0  0  0  0  0  0  0
   11.5690    2.0016   -2.8451 C   0  0  0  0  0  0  0  0  0  0  0  0
   10.5325    2.9496   -2.1949 C   0  0  0  0  0  0  0  0  0  0  0  0
   10.2667    2.5272   -0.4567 S   0  0  0  0  0  0  0  0  0  0  0  0
  1  3  1  0  0  0  0
  1  9  1  0  0  0  0
  2 12  1  0  0  0  0
  3  5  1  0  0  0  0
  4 12  2  0  0  0  0
  5  7  1  0  0  0  0
  6 12  2  0  0  0  0
  7  8  1  0  0  0  0
  7 10  1  0  0  0  0
  8  9  1  0  0  0  0
 10 11  1  0  0  0  0
 11 12  1  0  0  0  0
M  END
>  <CHROM.1>
-135.60819282,59.89183041,-7.84473970,10.56332768,0.92201550,-1.85036721
0.50898292,-1.33327158,2.73419122

>  <Name>
ligand

>  <RI>
0

>  <Rbt.Current_Directory>
/home/itssahil/PROJECTS/Mol_Feturizer/New_Systems/rnas/2HO6

>  <Rbt.Executable>
rbdock ($Id: //depot/dev/client3/rdock/2013.1/src/exe/rbdock.cxx#4 $)

>  <Rbt.Library>
libRbt.so (2013.1, Build901 2013/11/27)

>  <Rbt.Parameter_File>
/export/apps/rDock/src/rDock_2013.1_src/data/scripts/dock_solv.prm

>  <Rbt.Receptor>
prm/blind_docking_40.prm

>  <SCORE>
-15.063

>  <SCORE.INTER>
-14.5847

>  <SCORE.INTER.CONST>
1

>  <SCORE.INTER.POLAR>
0

>  <SCORE.INTER.ROT>
3

>  <SCORE.INTER.SOLV>
9.3482

>  <SCORE.INTER.VDW>
-18.4392

>  <SCORE.INTER.norm>
-1.21539

>  <SCORE.INTRA>
-0.479545

>  <SCORE.INTRA.DIHEDRAL>
1.85896

>  <SCORE.INTRA.DIHEDRAL.0>
1.88407

>  <SCORE.INTRA.POLAR>
0

>  <SCORE.INTRA.POLAR.0>
0

>  <SCORE.INTRA.REPUL>
0

>  <SCORE.INTRA.REPUL.0>
0

>  <SCORE.INTRA.SOLV>
0.744529

>  <SCORE.INTRA.SOLV.lig_0>
-10.2714

>  <SCORE.INTRA.VDW>
-1.78129

>  <SCORE.INTRA.VDW.0>
0.416923

>  <SCORE.INTRA.norm>
-0.0399621

>  <SCORE.RESTR>
0.00126984

>  <SCORE.RESTR.CAVITY>
0.00126984

>  <SCORE.RESTR.norm>
0.00010582

>  <SCORE.SYSTEM>
0

>  <SCORE.SYSTEM.CONST>
0

>  <SCORE.SYSTEM.DIHEDRAL>
0

>  <SCORE.SYSTEM.SOLV>
0

>  <SCORE.SYSTEM.norm>
0

>  <SCORE.heavy>
12

>  <SCORE.norm>
-1.25525

>  <RMSD>
42.406

$$$$
ligand
 OpenBabel11021811433D
libRbt.so/2013.1/901 2013/11/27
 12 12  0  0  0  0  0  0  0  0999 V2000
   10.5485   -1.8204    1.5229 O   0  0  0  0  0  0  0  0  0  0  0  0
   10.9222   -0.0774   -3.6906 O   0  0  0  0  0  0  0  0  0  0  0  0
    9.3121   -1.1533    1.9193 C   0  0  0  0  0  0  0  0  0  0  0  0
    9.6545   -0.9968   -1.7862 O   0  0  0  0  0  0  0  0  0  0  0  0
    9.2094    0.2639    1.2845 C   0  0  0  0  0  0  0  0  0  0  0  0
    9.1197    0.3842   -3.0890 O   0  0  0  0  0  0  0  0  0  0  0  0
   10.4234    0.5093    0.4313 N   0  0  0  0  0  0  0  0  0  0  0  0
   11.6689    0.3769    1.2467 C   0  0  0  0  0  0  0  0  0  0  0  0
   11.7049   -1.0252    1.9182 C   0  0  0  0  0  0  0  0  0  0  0  0
   10.3935    1.8704   -0.2095 C   0  0  0  0  0  0  0  0  0  0  0  0
    9.9904    1.7781   -1.7011 C   0  0  0  0  0  0  0  0  0  0  0  0
   10.3703    0.1442   -2.3767 S   0  0  0  0  0  0  0  0  0  0  0  0
  1  3  1  0  0  0  0
  1  9  1  0  0  0  0
  2 12  1  0  0  0  0
  3  5  1  0  0  0  0
  4 12  2  0  0  0  0
  5  7  1  0  0  0  0
  6 12  2  0  0  0  0
  7  8  1  0  0  0  0
  7 10  1  0  0  0  0
  8  9  1  0  0  0  0
 10 11  1  0  0  0  0
 11 12  1  0  0  0  0
M  END
>  <CHROM.1>
-102.80685565,-24.42678466,-139.30401773,10.27642845,0.00617492,-0.61941802
0.61049737,1.45836037,2.75161838

>  <Name>
ligand

>  <RI>
0

>  <Rbt.Current_Directory>
/home/itssahil/PROJECTS/Mol_Feturizer/New_Systems/rnas/2HO6

>  <Rbt.Executable>
rbdock ($Id: //depot/dev/client3/rdock/2013.1/src/exe/rbdock.cxx#4 $)

>  <Rbt.Library>
libRbt.so (2013.1, Build901 2013/11/27)

>  <Rbt.Parameter_File>
/export/apps/rDock/src/rDock_2013.1_src/data/scripts/dock_solv.prm

>  <Rbt.Receptor>
prm/blind_docking_40.prm

>  <SCORE>
-13.9642

>  <SCORE.INTER>
-15.3726

>  <SCORE.INTER.CONST>
1

>  <SCORE.INTER.POLAR>
-2.11777

>  <SCORE.INTER.ROT>
3

>  <SCORE.INTER.SOLV>
9.50084

>  <SCORE.INTER.VDW>
-11.9561

>  <SCORE.INTER.norm>
-1.28105

>  <SCORE.INTRA>
1.40839

>  <SCORE.INTRA.DIHEDRAL>
5.42073

>  <SCORE.INTRA.DIHEDRAL.0>
1.88407

>  <SCORE.INTRA.POLAR>
0

>  <SCORE.INTRA.POLAR.0>
0

>  <SCORE.INTRA.REPUL>
0

>  <SCORE.INTRA.REPUL.0>
0

>  <SCORE.INTRA.SOLV>
1.38903

>  <SCORE.INTRA.SOLV.lig_0>
-10.2714

>  <SCORE.INTRA.VDW>
-1.99649

>  <SCORE.INTRA.VDW.0>
0.416923

>  <SCORE.INTRA.norm>
0.117365

>  <SCORE.RESTR>
0

>  <SCORE.RESTR.CAVITY>
0

>  <SCORE.RESTR.norm>
0

>  <SCORE.SYSTEM>
0

>  <SCORE.SYSTEM.CONST>
0

>  <SCORE.SYSTEM.DIHEDRAL>
0

>  <SCORE.SYSTEM.SOLV>
0

>  <SCORE.SYSTEM.norm>
0

>  <SCORE.heavy>
12

>  <SCORE.norm>
-1.16369

>  <RMSD>
42.417

$$$$
ligand
 OpenBabel11021811433D
libRbt.so/2013.1/901 2013/11/27
 12 12  0  0  0  0  0  0  0  0999 V2000
    8.8913   -0.9599    2.8269 O   0  0  0  0  0  0  0  0  0  0  0  0
    8.9692    1.7606   -0.0309 O   0  0  0  0  0  0  0  0  0  0  0  0
   10.1719   -0.6460    3.4533 C   0  0  0  0  0  0  0  0  0  0  0  0
    9.7903    2.6103   -2.1949 O   0  0  0  0  0  0  0  0  0  0  0  0
   11.2695   -0.3747    2.3839 C   0  0  0  0  0  0  0  0  0  0  0  0
    8.9771    0.8646   -1.7690 O   0  0  0  0  0  0  0  0  0  0  0  0
   10.6629   -0.5035    1.0137 N   0  0  0  0  0  0  0  0  0  0  0  0
   10.0644   -1.8611    0.8340 C   0  0  0  0  0  0  0  0  0  0  0  0
    9.0218   -2.1232    1.9576 C   0  0  0  0  0  0  0  0  0  0  0  0
   11.6747   -0.2606   -0.0733 C   0  0  0  0  0  0  0  0  0  0  0  0
   10.9920    0.2217   -1.3760 C   0  0  0  0  0  0  0  0  0  0  0  0
    9.9658    1.6790   -1.0703 S   0  0  0  0  0  0  0  0  0  0  0  0
  1  3  1  0  0  0  0
  1  9  1  0  0  0  0
  2 12  1  0  0  0  0
  3  5  1  0  0  0  0
  4 12  2  0  0  0  0
  5  7  1  0  0  0  0
  6 12  2  0  0  0  0
  7  8  1  0  0  0  0
  7 10  1  0  0  0  0
  8  9  1  0  0  0  0
 10 11  1  0  0  0  0
 11 12  1  0  0  0  0
M  END
>  <CHROM.1>
-154.85746944,54.64150464,-51.16419261,9.99506652,0.22878831,0.31872517,1.54675166
-0.47284048,2.19207945

>  <Name>
ligand

>  <RI>
0

>  <Rbt.Current_Directory>
/home/itssahil/PROJECTS/Mol_Feturizer/New_Systems/rnas/2HO6

>  <Rbt.Executable>
rbdock ($Id: //depot/dev/client3/rdock/2013.1/src/exe/rbdock.cxx#4 $)

>  <Rbt.Library>
libRbt.so (2013.1, Build901 2013/11/27)

>  <Rbt.Parameter_File>
/export/apps/rDock/src/rDock_2013.1_src/data/scripts/dock_solv.prm

>  <Rbt.Receptor>
prm/blind_docking_80.prm

>  <SCORE>
-13.5055

>  <SCORE.INTER>
-12.2818

>  <SCORE.INTER.CONST>
1

>  <SCORE.INTER.POLAR>
-1.29539

>  <SCORE.INTER.ROT>
3

>  <SCORE.INTER.SOLV>
8.24988

>  <SCORE.INTER.VDW>
-12.2199

>  <SCORE.INTER.norm>
-1.02349

>  <SCORE.INTRA>
-1.22367

>  <SCORE.INTRA.DIHEDRAL>
0.799268

>  <SCORE.INTRA.DIHEDRAL.0>
1.88407

>  <SCORE.INTRA.POLAR>
0

>  <SCORE.INTRA.POLAR.0>
0

>  <SCORE.INTRA.REPUL>
0

>  <SCORE.INTRA.REPUL.0>
0

>  <SCORE.INTRA.SOLV>
0.321509

>  <SCORE.INTRA.SOLV.lig_0>
-10.2714

>  <SCORE.INTRA.VDW>
-1.78406

>  <SCORE.INTRA.VDW.0>
0.416923

>  <SCORE.INTRA.norm>
-0.101973

>  <SCORE.RESTR>
0

>  <SCORE.RESTR.CAVITY>
0

>  <SCORE.RESTR.norm>
0

>  <SCORE.SYSTEM>
0

>  <SCORE.SYSTEM.CONST>
0

>  <SCORE.SYSTEM.DIHEDRAL>
0

>  <SCORE.SYSTEM.SOLV>
0

>  <SCORE.SYSTEM.norm>
0

>  <SCORE.heavy>
12

>  <SCORE.norm>
-1.12546

>  <RMSD>
42.419

$$$$
ligand
 OpenBabel11021811433D
libRbt.so/2013.1/901 2013/11/27
 12 12  0  0  0  0  0  0  0  0999 V2000
   10.8322   -2.3016   -1.7126 O   0  0  0  0  0  0  0  0  0  0  0  0
    9.0428    2.9627   -0.0206 O   0  0  0  0  0  0  0  0  0  0  0  0
   12.1463   -1.7511   -1.3954 C   0  0  0  0  0  0  0  0  0  0  0  0
    8.7480    0.9517   -1.4163 O   0  0  0  0  0  0  0  0  0  0  0  0
   12.3056   -0.3118   -1.9657 C   0  0  0  0  0  0  0  0  0  0  0  0
   10.3183    1.5217   -0.3679 O   0  0  0  0  0  0  0  0  0  0  0  0
   11.0334    0.0837   -2.6636 N   0  0  0  0  0  0  0  0  0  0  0  0
   10.7106   -0.8901   -3.7504 C   0  0  0  0  0  0  0  0  0  0  0  0
   10.6249   -2.3244   -3.1557 C   0  0  0  0  0  0  0  0  0  0  0  0
   11.1206    1.4674   -3.2484 C   0  0  0  0  0  0  0  0  0  0  0  0
   10.9197    2.5490   -2.1596 C   0  0  0  0  0  0  0  0  0  0  0  0
    9.3975    2.2576   -1.2277 S   0  0  0  0  0  0  0  0  0  0  0  0
  1  3  1  0  0  0  0
  1  9  1  0  0  0  0
  2 12  1  0  0  0  0
  3  5  1  0  0  0  0
  4 12  2  0  0  0  0
  5  7  1  0  0  0  0
  6 12  2  0  0  0  0
  7  8  1  0  0  0  0
  7 10  1  0  0  0  0
  8  9  1  0  0  0  0
 10 11  1  0  0  0  0
 11 12  1  0  0  0  0
M  END
>  <CHROM.1>
-78.81221800,-52.71292232,169.82453558,10.45316938,0.54583177,-1.81653431
0.81624610,-0.98709170,2.84661164

>  <Name>
ligand

>  <RI>
0

>  <Rbt.Current_Directory>
/home/itssahil/PROJECTS/Mol_Feturizer/New_Systems/rnas/2HO6

>  <Rbt.Executable>
rbdock ($Id: //depot/dev/client3/rdock/2013.1/src/exe/rbdock.cxx#4 $)

>  <Rbt.Library>
libRbt.so (2013.1, Build901 2013/11/27)

>  <Rbt.Parameter_File>
/export/apps/rDock/src/rDock_2013.1_src/data/scripts/dock_solv.prm

>  <Rbt.Receptor>
prm/blind_docking_20.prm

>  <SCORE>
-18.0518

>  <SCORE.INTER>
-17.6951

>  <SCORE.INTER.CONST>
1

>  <SCORE.INTER.POLAR>
-1.33466

>  <SCORE.INTER.ROT>
3

>  <SCORE.INTER.SOLV>
7.21482

>  <SCORE.INTER.VDW>
-15.3528

>  <SCORE.INTER.norm>
-1.4746

>  <SCORE.INTRA>
-0.356648

>  <SCORE.INTRA.DIHEDRAL>
0.745546

>  <SCORE.INTRA.DIHEDRAL.0>
1.88407

>  <SCORE.INTRA.POLAR>
0

>  <SCORE.INTRA.POLAR.0>
0

>  <SCORE.INTRA.REPUL>
0

>  <SCORE.INTRA.REPUL.0>
0

>  <SCORE.INTRA.SOLV>
1.7797

>  <SCORE.INTRA.SOLV.lig_0>
-10.2714

>  <SCORE.INTRA.VDW>
-1.61927

>  <SCORE.INTRA.VDW.0>
0.416923

>  <SCORE.INTRA.norm>
-0.0297207

>  <SCORE.RESTR>
0

>  <SCORE.RESTR.CAVITY>
0

>  <SCORE.RESTR.norm>
0

>  <SCORE.SYSTEM>
0

>  <SCORE.SYSTEM.CONST>
0

>  <SCORE.SYSTEM.DIHEDRAL>
0

>  <SCORE.SYSTEM.SOLV>
0

>  <SCORE.SYSTEM.norm>
0

>  <SCORE.heavy>
12

>  <SCORE.norm>
-1.50432

>  <RMSD>
42.496

$$$$
ligand
 OpenBabel11021811433D
libRbt.so/2013.1/901 2013/11/27
 12 12  0  0  0  0  0  0  0  0999 V2000
   10.8512   -2.2781   -1.6990 O   0  0  0  0  0  0  0  0  0  0  0  0
    9.0393    2.9665   -0.0119 O   0  0  0  0  0  0  0  0  0  0  0  0
   12.1583   -1.7061   -1.3908 C   0  0  0  0  0  0  0  0  0  0  0  0
    8.7437    0.9478   -1.3964 O   0  0  0  0  0  0  0  0  0  0  0  0
   12.2951   -0.2696   -1.9735 C   0  0  0  0  0  0  0  0  0  0  0  0
   10.3260    1.5404   -0.3789 O   0  0  0  0  0  0  0  0  0  0  0  0
   11.0152    0.1018   -2.6704 N   0  0  0  0  0  0  0  0  0  0  0  0
   10.7029   -0.8855   -3.7480 C   0  0  0  0  0  0  0  0  0  0  0  0
   10.6397   -2.3159   -3.1411 C   0  0  0  0  0  0  0  0  0  0  0  0
   11.0807    1.4817   -3.2670 C   0  0  0  0  0  0  0  0  0  0  0  0
   10.8811    2.5697   -2.1844 C   0  0  0  0  0  0  0  0  0  0  0  0
    9.3802    2.2623   -1.2235 S   0  0  0  0  0  0  0  0  0  0  0  0
  1  3  1  0  0  0  0
  1  9  1  0  0  0  0
  2 12  1  0  0  0  0
  3  5  1  0  0  0  0
  4 12  2  0  0  0  0
  5  7  1  0  0  0  0
  6 12  2  0  0  0  0
  7  8  1  0  0  0  0
  7 10  1  0  0  0  0
  8  9  1  0  0  0  0
 10 11  1  0  0  0  0
 11 12  1  0  0  0  0
M  END
>  <CHROM.1>
-78.27678054,-52.25909488,169.41201724,10.44550291,0.56114971,-1.81591006
0.77583550,-1.00721047,2.80125529

>  <Name>
ligand

>  <RI>
0

>  <Rbt.Current_Directory>
/home/itssahil/PROJECTS/Mol_Feturizer/New_Systems/rnas/2HO6

>  <Rbt.Executable>
rbdock ($Id: //depot/dev/client3/rdock/2013.1/src/exe/rbdock.cxx#4 $)

>  <Rbt.Library>
libRbt.so (2013.1, Build901 2013/11/27)

>  <Rbt.Parameter_File>
/export/apps/rDock/src/rDock_2013.1_src/data/scripts/dock_solv.prm

>  <Rbt.Receptor>
prm/blind_docking_60.prm

>  <SCORE>
-18.0389

>  <SCORE.INTER>
-17.7269

>  <SCORE.INTER.CONST>
1

>  <SCORE.INTER.POLAR>
-1.33294

>  <SCORE.INTER.ROT>
3

>  <SCORE.INTER.SOLV>
7.24977

>  <SCORE.INTER.VDW>
-15.3914

>  <SCORE.INTER.norm>
-1.47724

>  <SCORE.INTRA>
-0.312019

>  <SCORE.INTRA.DIHEDRAL>
0.743301

>  <SCORE.INTRA.DIHEDRAL.0>
1.88407

>  <SCORE.INTRA.POLAR>
0

>  <SCORE.INTRA.POLAR.0>
0

>  <SCORE.INTRA.REPUL>
0

>  <SCORE.INTRA.REPUL.0>
0

>  <SCORE.INTRA.SOLV>
1.79715

>  <SCORE.INTRA.SOLV.lig_0>
-10.2714

>  <SCORE.INTRA.VDW>
-1.58224

>  <SCORE.INTRA.VDW.0>
0.416923

>  <SCORE.INTRA.norm>
-0.0260016

>  <SCORE.RESTR>
0

>  <SCORE.RESTR.CAVITY>
0

>  <SCORE.RESTR.norm>
0

>  <SCORE.SYSTEM>
0

>  <SCORE.SYSTEM.CONST>
0

>  <SCORE.SYSTEM.DIHEDRAL>
0

>  <SCORE.SYSTEM.SOLV>
0

>  <SCORE.SYSTEM.norm>
0

>  <SCORE.heavy>
12

>  <SCORE.norm>
-1.50325

>  <RMSD>
42.497

$$$$
ligand
 OpenBabel11021811433D
libRbt.so/2013.1/901 2013/11/27
 12 12  0  0  0  0  0  0  0  0999 V2000
   12.4204    0.1853    0.8883 O   0  0  0  0  0  0  0  0  0  0  0  0
    7.2868   -3.1823    1.0295 O   0  0  0  0  0  0  0  0  0  0  0  0
   13.5399   -0.7089    0.6091 C   0  0  0  0  0  0  0  0  0  0  0  0
    8.2809   -1.1599    0.0290 O   0  0  0  0  0  0  0  0  0  0  0  0
   13.0470   -2.1607    0.3421 C   0  0  0  0  0  0  0  0  0  0  0  0
    7.6472   -2.8052   -0.8551 O   0  0  0  0  0  0  0  0  0  0  0  0
   11.5464   -2.1954    0.4374 N   0  0  0  0  0  0  0  0  0  0  0  0
   11.0981   -1.7163    1.7801 C   0  0  0  0  0  0  0  0  0  0  0  0
   11.6637   -0.2912    2.0399 C   0  0  0  0  0  0  0  0  0  0  0  0
   11.0003   -3.5767    0.1968 C   0  0  0  0  0  0  0  0  0  0  0  0
    9.6548   -3.5217   -0.5663 C   0  0  0  0  0  0  0  0  0  0  0  0
    8.4185   -2.5854    0.3638 S   0  0  0  0  0  0  0  0  0  0  0  0
  1  3  1  0  0  0  0
  1  9  1  0  0  0  0
  2 12  1  0  0  0  0
  3  5  1  0  0  0  0
  4 12  2  0  0  0  0
  5  7  1  0  0  0  0
  6 12  2  0  0  0  0
  7  8  1  0  0  0  0
  7 10  1  0  0  0  0
  8  9  1  0  0  0  0
 10 11  1  0  0  0  0
 11 12  1  0  0  0  0
M  END
>  <CHROM.1>
-144.06097512,-59.67440155,-107.98545608,10.21337907,-2.02345504,0.49940399
0.41182720,0.00850120,0.45054055

>  <Name>
ligand

>  <RI>
0

>  <Rbt.Current_Directory>
/home/itssahil/PROJECTS/Mol_Feturizer/New_Systems/rnas/2HO6

>  <Rbt.Executable>
rbdock ($Id: //depot/dev/client3/rdock/2013.1/src/exe/rbdock.cxx#4 $)

>  <Rbt.Library>
libRbt.so (2013.1, Build901 2013/11/27)

>  <Rbt.Parameter_File>
/export/apps/rDock/src/rDock_2013.1_src/data/scripts/dock_solv.prm

>  <Rbt.Receptor>
prm/blind_docking_100.prm

>  <SCORE>
-15.4775

>  <SCORE.INTER>
-14.9975

>  <SCORE.INTER.CONST>
1

>  <SCORE.INTER.POLAR>
-2.20938

>  <SCORE.INTER.ROT>
3

>  <SCORE.INTER.SOLV>
9.0538

>  <SCORE.INTER.VDW>
-11.2517

>  <SCORE.INTER.norm>
-1.24979

>  <SCORE.INTRA>
-0.479935

>  <SCORE.INTRA.DIHEDRAL>
1.46075

>  <SCORE.INTRA.DIHEDRAL.0>
1.88407

>  <SCORE.INTRA.POLAR>
0

>  <SCORE.INTRA.POLAR.0>
0

>  <SCORE.INTRA.REPUL>
0

>  <SCORE.INTRA.REPUL.0>
0

>  <SCORE.INTRA.SOLV>
0.684626

>  <SCORE.INTRA.SOLV.lig_0>
-10.2714

>  <SCORE.INTRA.VDW>
-1.55262

>  <SCORE.INTRA.VDW.0>
0.416923

>  <SCORE.INTRA.norm>
-0.0399946

>  <SCORE.RESTR>
0

>  <SCORE.RESTR.CAVITY>
0

>  <SCORE.RESTR.norm>
0

>  <SCORE.SYSTEM>
0

>  <SCORE.SYSTEM.CONST>
0

>  <SCORE.SYSTEM.DIHEDRAL>
0

>  <SCORE.SYSTEM.SOLV>
0

>  <SCORE.SYSTEM.norm>
0

>  <SCORE.heavy>
12

>  <SCORE.norm>
-1.28979

>  <RMSD>
42.500

$$$$
ligand
 OpenBabel11021811433D
libRbt.so/2013.1/901 2013/11/27
 12 12  0  0  0  0  0  0  0  0999 V2000
   10.7424   -1.3345    1.8597 O   0  0  0  0  0  0  0  0  0  0  0  0
   10.6233   -0.8019   -4.1474 O   0  0  0  0  0  0  0  0  0  0  0  0
    9.4008   -0.8176    2.1118 C   0  0  0  0  0  0  0  0  0  0  0  0
    9.6301   -1.2747   -1.9407 O   0  0  0  0  0  0  0  0  0  0  0  0
    9.0244    0.2927    1.0882 C   0  0  0  0  0  0  0  0  0  0  0  0
    9.1782    0.1459   -3.2322 O   0  0  0  0  0  0  0  0  0  0  0  0
   10.1666    0.4839    0.1287 N   0  0  0  0  0  0  0  0  0  0  0  0
   11.4154    0.8393    0.8689 C   0  0  0  0  0  0  0  0  0  0  0  0
   11.7234   -0.2579    1.9270 C   0  0  0  0  0  0  0  0  0  0  0  0
    9.8725    1.5533   -0.8883 C   0  0  0  0  0  0  0  0  0  0  0  0
   10.6609    1.3121   -2.1983 C   0  0  0  0  0  0  0  0  0  0  0  0
   10.4564   -0.3895   -2.7754 S   0  0  0  0  0  0  0  0  0  0  0  0
  1  3  1  0  0  0  0
  1  9  1  0  0  0  0
  2 12  1  0  0  0  0
  3  5  1  0  0  0  0
  4 12  2  0  0  0  0
  5  7  1  0  0  0  0
  6 12  2  0  0  0  0
  7  8  1  0  0  0  0
  7 10  1  0  0  0  0
  8  9  1  0  0  0  0
 10 11  1  0  0  0  0
 11 12  1  0  0  0  0
M  END
>  <CHROM.1>
-153.19539374,49.87147471,156.17913641,10.25313737,-0.08735666,-0.85332989
1.10945279,1.42859907,2.04093849

>  <Name>
ligand

>  <RI>
0

>  <Rbt.Current_Directory>
/home/itssahil/PROJECTS/Mol_Feturizer/New_Systems/rnas/2HO6

>  <Rbt.Executable>
rbdock ($Id: //depot/dev/client3/rdock/2013.1/src/exe/rbdock.cxx#4 $)

>  <Rbt.Library>
libRbt.so (2013.1, Build901 2013/11/27)

>  <Rbt.Parameter_File>
/export/apps/rDock/src/rDock_2013.1_src/data/scripts/dock_solv.prm

>  <Rbt.Receptor>
prm/blind_docking_60.prm

>  <SCORE>
-16.2373

>  <SCORE.INTER>
-16.4631

>  <SCORE.INTER.CONST>
1

>  <SCORE.INTER.POLAR>
-2.2282

>  <SCORE.INTER.ROT>
3

>  <SCORE.INTER.SOLV>
9.29509

>  <SCORE.INTER.VDW>
-12.2464

>  <SCORE.INTER.norm>
-1.37192

>  <SCORE.INTRA>
0.225816

>  <SCORE.INTRA.DIHEDRAL>
1.28201

>  <SCORE.INTRA.DIHEDRAL.0>
1.88407

>  <SCORE.INTRA.POLAR>
0

>  <SCORE.INTRA.POLAR.0>
0

>  <SCORE.INTRA.REPUL>
0

>  <SCORE.INTRA.REPUL.0>
0

>  <SCORE.INTRA.SOLV>
1.34753

>  <SCORE.INTRA.SOLV.lig_0>
-10.2714

>  <SCORE.INTRA.VDW>
-1.08895

>  <SCORE.INTRA.VDW.0>
0.416923

>  <SCORE.INTRA.norm>
0.018818

>  <SCORE.RESTR>
0

>  <SCORE.RESTR.CAVITY>
0

>  <SCORE.RESTR.norm>
0

>  <SCORE.SYSTEM>
0

>  <SCORE.SYSTEM.CONST>
0

>  <SCORE.SYSTEM.DIHEDRAL>
0

>  <SCORE.SYSTEM.SOLV>
0

>  <SCORE.SYSTEM.norm>
0

>  <SCORE.heavy>
12

>  <SCORE.norm>
-1.3531

>  <RMSD>
42.522

$$$$
ligand
 OpenBabel11021811433D
libRbt.so/2013.1/901 2013/11/27
 12 12  0  0  0  0  0  0  0  0999 V2000
   11.1105   -1.9854    2.3380 O   0  0  0  0  0  0  0  0  0  0  0  0
   11.5835    1.1532   -2.2023 O   0  0  0  0  0  0  0  0  0  0  0  0
   10.4746   -2.4652    1.1148 C   0  0  0  0  0  0  0  0  0  0  0  0
    9.2293    0.5158   -2.5642 O   0  0  0  0  0  0  0  0  0  0  0  0
    9.5930   -1.3579    0.4677 C   0  0  0  0  0  0  0  0  0  0  0  0
   10.0060    2.3062   -2.2794 O   0  0  0  0  0  0  0  0  0  0  0  0
    9.6809   -0.1098    1.3023 N   0  0  0  0  0  0  0  0  0  0  0  0
    9.2462   -0.3888    2.7047 C   0  0  0  0  0  0  0  0  0  0  0  0
   10.1036   -1.5438    3.2955 C   0  0  0  0  0  0  0  0  0  0  0  0
    8.8424    1.0042    0.7364 C   0  0  0  0  0  0  0  0  0  0  0  0
    9.6795    1.9206   -0.1885 C   0  0  0  0  0  0  0  0  0  0  0  0
   10.2606    1.0179   -1.6438 S   0  0  0  0  0  0  0  0  0  0  0  0
  1  3  1  0  0  0  0
  1  9  1  0  0  0  0
  2 12  1  0  0  0  0
  3  5  1  0  0  0  0
  4 12  2  0  0  0  0
  5  7  1  0  0  0  0
  6 12  2  0  0  0  0
  7  8  1  0  0  0  0
  7 10  1  0  0  0  0
  8  9  1  0  0  0  0
 10 11  1  0  0  0  0
 11 12  1  0  0  0  0
M  END
>  <CHROM.1>
-93.73458681,64.40758845,-138.80040420,10.03011870,0.11956574,0.02194483
-1.58508400,0.97649187,-0.96781321

>  <Name>
ligand

>  <RI>
0

>  <Rbt.Current_Directory>
/home/itssahil/PROJECTS/Mol_Feturizer/New_Systems/rnas/2HO6

>  <Rbt.Executable>
rbdock ($Id: //depot/dev/client3/rdock/2013.1/src/exe/rbdock.cxx#4 $)

>  <Rbt.Library>
libRbt.so (2013.1, Build901 2013/11/27)

>  <Rbt.Parameter_File>
/export/apps/rDock/src/rDock_2013.1_src/data/scripts/dock_solv.prm

>  <Rbt.Receptor>
prm/blind_docking_20.prm

>  <SCORE>
-13.4055

>  <SCORE.INTER>
-12.7587

>  <SCORE.INTER.CONST>
1

>  <SCORE.INTER.POLAR>
-1.34164

>  <SCORE.INTER.ROT>
3

>  <SCORE.INTER.SOLV>
8.55076

>  <SCORE.INTER.VDW>
-12.4839

>  <SCORE.INTER.norm>
-1.06322

>  <SCORE.INTRA>
-0.646774

>  <SCORE.INTRA.DIHEDRAL>
1.44689

>  <SCORE.INTRA.DIHEDRAL.0>
1.88407

>  <SCORE.INTRA.POLAR>
0

>  <SCORE.INTRA.POLAR.0>
0

>  <SCORE.INTRA.REPUL>
0

>  <SCORE.INTRA.REPUL.0>
0

>  <SCORE.INTRA.SOLV>
0.483734

>  <SCORE.INTRA.SOLV.lig_0>
-10.2714

>  <SCORE.INTRA.VDW>
-1.61209

>  <SCORE.INTRA.VDW.0>
0.416923

>  <SCORE.INTRA.norm>
-0.0538979

>  <SCORE.RESTR>
0

>  <SCORE.RESTR.CAVITY>
0

>  <SCORE.RESTR.norm>
0

>  <SCORE.SYSTEM>
0

>  <SCORE.SYSTEM.CONST>
0

>  <SCORE.SYSTEM.DIHEDRAL>
0

>  <SCORE.SYSTEM.SOLV>
0

>  <SCORE.SYSTEM.norm>
0

>  <SCORE.heavy>
12

>  <SCORE.norm>
-1.11712

>  <RMSD>
42.563

$$$$
ligand
 OpenBabel11021811433D
libRbt.so/2013.1/901 2013/11/27
 12 12  0  0  0  0  0  0  0  0999 V2000
   11.1885    2.5818   -2.3098 O   0  0  0  0  0  0  0  0  0  0  0  0
    9.0582   -1.9358   -0.9674 O   0  0  0  0  0  0  0  0  0  0  0  0
   10.1388    3.0853   -1.4292 C   0  0  0  0  0  0  0  0  0  0  0  0
    8.1629   -2.6747    1.2078 O   0  0  0  0  0  0  0  0  0  0  0  0
   10.0013    2.2015   -0.1556 C   0  0  0  0  0  0  0  0  0  0  0  0
    7.7966   -1.0141    0.2085 O   0  0  0  0  0  0  0  0  0  0  0  0
   11.0174    1.0942   -0.2140 N   0  0  0  0  0  0  0  0  0  0  0  0
   10.8305    0.2801   -1.4533 C   0  0  0  0  0  0  0  0  0  0  0  0
   10.9078    1.2055   -2.7007 C   0  0  0  0  0  0  0  0  0  0  0  0
   10.9349    0.1925    0.9878 C   0  0  0  0  0  0  0  0  0  0  0  0
    9.4697   -0.2038    1.2909 C   0  0  0  0  0  0  0  0  0  0  0  0
    9.0306   -1.7502    0.4626 S   0  0  0  0  0  0  0  0  0  0  0  0
  1  3  1  0  0  0  0
  1  9  1  0  0  0  0
  2 12  1  0  0  0  0
  3  5  1  0  0  0  0
  4 12  2  0  0  0  0
  5  7  1  0  0  0  0
  6 12  2  0  0  0  0
  7  8  1  0  0  0  0
  7 10  1  0  0  0  0
  8  9  1  0  0  0  0
 10 11  1  0  0  0  0
 11 12  1  0  0  0  0
M  END
>  <CHROM.1>
46.66627171,91.97315625,-60.55051166,9.76570803,0.02765283,-0.34226011,0.15847334
-1.12353038,-1.90057421

>  <Name>
ligand

>  <RI>
0

>  <Rbt.Current_Directory>
/home/itssahil/PROJECTS/Mol_Feturizer/New_Systems/rnas/2HO6

>  <Rbt.Executable>
rbdock ($Id: //depot/dev/client3/rdock/2013.1/src/exe/rbdock.cxx#4 $)

>  <Rbt.Library>
libRbt.so (2013.1, Build901 2013/11/27)

>  <Rbt.Parameter_File>
/export/apps/rDock/src/rDock_2013.1_src/data/scripts/dock_solv.prm

>  <Rbt.Receptor>
prm/blind_docking_40.prm

>  <SCORE>
-17.2397

>  <SCORE.INTER>
-20.0055

>  <SCORE.INTER.CONST>
1

>  <SCORE.INTER.POLAR>
-2.23916

>  <SCORE.INTER.ROT>
3

>  <SCORE.INTER.SOLV>
12.1693

>  <SCORE.INTER.VDW>
-15.5296

>  <SCORE.INTER.norm>
-1.66712

>  <SCORE.INTRA>
2.76575

>  <SCORE.INTRA.DIHEDRAL>
3.28437

>  <SCORE.INTRA.DIHEDRAL.0>
1.88407

>  <SCORE.INTRA.POLAR>
0

>  <SCORE.INTRA.POLAR.0>
0

>  <SCORE.INTRA.REPUL>
0

>  <SCORE.INTRA.REPUL.0>
0

>  <SCORE.INTRA.SOLV>
0.196737

>  <SCORE.INTRA.SOLV.lig_0>
-10.2714

>  <SCORE.INTRA.VDW>
1.0252

>  <SCORE.INTRA.VDW.0>
0.416923

>  <SCORE.INTRA.norm>
0.230479

>  <SCORE.RESTR>
0

>  <SCORE.RESTR.CAVITY>
0

>  <SCORE.RESTR.norm>
0

>  <SCORE.SYSTEM>
0

>  <SCORE.SYSTEM.CONST>
0

>  <SCORE.SYSTEM.DIHEDRAL>
0

>  <SCORE.SYSTEM.SOLV>
0

>  <SCORE.SYSTEM.norm>
0

>  <SCORE.heavy>
12

>  <SCORE.norm>
-1.43665

>  <RMSD>
42.591

$$$$
ligand
 OpenBabel11021811433D
libRbt.so/2013.1/901 2013/11/27
 12 12  0  0  0  0  0  0  0  0999 V2000
   11.0042   -2.3387   -1.8676 O   0  0  0  0  0  0  0  0  0  0  0  0
    9.0775    2.9863   -0.0384 O   0  0  0  0  0  0  0  0  0  0  0  0
   12.3796   -1.9397   -2.1500 C   0  0  0  0  0  0  0  0  0  0  0  0
    8.7238    0.9635   -1.4032 O   0  0  0  0  0  0  0  0  0  0  0  0
   12.4397   -0.4922   -2.7186 C   0  0  0  0  0  0  0  0  0  0  0  0
   10.3217    1.5191   -0.3892 O   0  0  0  0  0  0  0  0  0  0  0  0
   11.0451    0.0667   -2.7877 N   0  0  0  0  0  0  0  0  0  0  0  0
   10.1754   -0.8053   -3.6343 C   0  0  0  0  0  0  0  0  0  0  0  0
   10.1923   -2.2565   -3.0759 C   0  0  0  0  0  0  0  0  0  0  0  0
   11.0281    1.4670   -3.3384 C   0  0  0  0  0  0  0  0  0  0  0  0
   10.9094    2.5133   -2.2040 C   0  0  0  0  0  0  0  0  0  0  0  0
    9.3989    2.2602   -1.2424 S   0  0  0  0  0  0  0  0  0  0  0  0
  1  3  1  0  0  0  0
  1  9  1  0  0  0  0
  2 12  1  0  0  0  0
  3  5  1  0  0  0  0
  4 12  2  0  0  0  0
  5  7  1  0  0  0  0
  6 12  2  0  0  0  0
  7  8  1  0  0  0  0
  7 10  1  0  0  0  0
  8  9  1  0  0  0  0
 10 11  1  0  0  0  0
 11 12  1  0  0  0  0
M  END
>  <CHROM.1>
-100.23505059,-59.21736538,173.34220468,10.41877304,0.52644358,-1.94725623
1.06407122,-0.66962875,-3.06396564

>  <Name>
ligand

>  <RI>
0

>  <Rbt.Current_Directory>
/home/itssahil/PROJECTS/Mol_Feturizer/New_Systems/rnas/2HO6

>  <Rbt.Executable>
rbdock ($Id: //depot/dev/client3/rdock/2013.1/src/exe/rbdock.cxx#4 $)

>  <Rbt.Library>
libRbt.so (2013.1, Build901 2013/11/27)

>  <Rbt.Parameter_File>
/export/apps/rDock/src/rDock_2013.1_src/data/scripts/dock_solv.prm

>  <Rbt.Receptor>
prm/blind_docking_80.prm

>  <SCORE>
-17.9842

>  <SCORE.INTER>
-17.735

>  <SCORE.INTER.CONST>
1

>  <SCORE.INTER.POLAR>
-1.34164

>  <SCORE.INTER.ROT>
3

>  <SCORE.INTER.SOLV>
9.77281

>  <SCORE.INTER.VDW>
-16.2088

>  <SCORE.INTER.norm>
-1.47792

>  <SCORE.INTRA>
-0.249163

>  <SCORE.INTRA.DIHEDRAL>
1.80851

>  <SCORE.INTRA.DIHEDRAL.0>
1.88407

>  <SCORE.INTRA.POLAR>
0

>  <SCORE.INTRA.POLAR.0>
0

>  <SCORE.INTRA.REPUL>
0

>  <SCORE.INTRA.REPUL.0>
0

>  <SCORE.INTRA.SOLV>
1.57476

>  <SCORE.INTRA.SOLV.lig_0>
-10.2714

>  <SCORE.INTRA.VDW>
-1.9408

>  <SCORE.INTRA.VDW.0>
0.416923

>  <SCORE.INTRA.norm>
-0.0207635

>  <SCORE.RESTR>
0

>  <SCORE.RESTR.CAVITY>
0

>  <SCORE.RESTR.norm>
0

>  <SCORE.SYSTEM>
0

>  <SCORE.SYSTEM.CONST>
0

>  <SCORE.SYSTEM.DIHEDRAL>
0

>  <SCORE.SYSTEM.SOLV>
0

>  <SCORE.SYSTEM.norm>
0

>  <SCORE.heavy>
12

>  <SCORE.norm>
-1.49868

>  <RMSD>
42.591

$$$$
ligand
 OpenBabel11021811433D
libRbt.so/2013.1/901 2013/11/27
 12 12  0  0  0  0  0  0  0  0999 V2000
   10.1345   -2.2925   -3.3074 O   0  0  0  0  0  0  0  0  0  0  0  0
    9.9708    3.1422   -1.3409 O   0  0  0  0  0  0  0  0  0  0  0  0
   10.6838   -3.2101   -2.3139 C   0  0  0  0  0  0  0  0  0  0  0  0
    8.7372    1.0256   -1.6199 O   0  0  0  0  0  0  0  0  0  0  0  0
   11.3292   -2.4351   -1.1286 C   0  0  0  0  0  0  0  0  0  0  0  0
    9.0143    2.1010    0.0101 O   0  0  0  0  0  0  0  0  0  0  0  0
   11.1719   -0.9580   -1.3638 N   0  0  0  0  0  0  0  0  0  0  0  0
   11.7985   -0.5674   -2.6632 C   0  0  0  0  0  0  0  0  0  0  0  0
   11.1768   -1.4081   -3.8144 C   0  0  0  0  0  0  0  0  0  0  0  0
   11.7832   -0.1447   -0.2552 C   0  0  0  0  0  0  0  0  0  0  0  0
   10.7860    0.9112    0.2800 C   0  0  0  0  0  0  0  0  0  0  0  0
    9.9116    1.7254   -1.0774 S   0  0  0  0  0  0  0  0  0  0  0  0
  1  3  1  0  0  0  0
  1  9  1  0  0  0  0
  2 12  1  0  0  0  0
  3  5  1  0  0  0  0
  4 12  2  0  0  0  0
  5  7  1  0  0  0  0
  6 12  2  0  0  0  0
  7  8  1  0  0  0  0
  7 10  1  0  0  0  0
  8  9  1  0  0  0  0
 10 11  1  0  0  0  0
 11 12  1  0  0  0  0
M  END
>  <CHROM.1>
-129.34032748,-43.02881336,-119.38430133,10.43915674,0.04826151,-1.50634558
1.08142508,0.96719387,-2.32692357

>  <Name>
ligand

>  <RI>
0

>  <Rbt.Current_Directory>
/home/itssahil/PROJECTS/Mol_Feturizer/New_Systems/rnas/2HO6

>  <Rbt.Executable>
rbdock ($Id: //depot/dev/client3/rdock/2013.1/src/exe/rbdock.cxx#4 $)

>  <Rbt.Library>
libRbt.so (2013.1, Build901 2013/11/27)

>  <Rbt.Parameter_File>
/export/apps/rDock/src/rDock_2013.1_src/data/scripts/dock_solv.prm

>  <Rbt.Receptor>
prm/blind_docking_20.prm

>  <SCORE>
-14.0418

>  <SCORE.INTER>
-14.0677

>  <SCORE.INTER.CONST>
1

>  <SCORE.INTER.POLAR>
-1.34164

>  <SCORE.INTER.ROT>
3

>  <SCORE.INTER.SOLV>
6.62555

>  <SCORE.INTER.VDW>
-12.7148

>  <SCORE.INTER.norm>
-1.17231

>  <SCORE.INTRA>
0.0258428

>  <SCORE.INTRA.DIHEDRAL>
3.16983

>  <SCORE.INTRA.DIHEDRAL.0>
1.88407

>  <SCORE.INTRA.POLAR>
0

>  <SCORE.INTRA.POLAR.0>
0

>  <SCORE.INTRA.REPUL>
0

>  <SCORE.INTRA.REPUL.0>
0

>  <SCORE.INTRA.SOLV>
0.887292

>  <SCORE.INTRA.SOLV.lig_0>
-10.2714

>  <SCORE.INTRA.VDW>
-2.00272

>  <SCORE.INTRA.VDW.0>
0.416923

>  <SCORE.INTRA.norm>
0.00215357

>  <SCORE.RESTR>
0

>  <SCORE.RESTR.CAVITY>
0

>  <SCORE.RESTR.norm>
0

>  <SCORE.SYSTEM>
0

>  <SCORE.SYSTEM.CONST>
0

>  <SCORE.SYSTEM.DIHEDRAL>
0

>  <SCORE.SYSTEM.SOLV>
0

>  <SCORE.SYSTEM.norm>
0

>  <SCORE.heavy>
12

>  <SCORE.norm>
-1.17015

>  <RMSD>
42.595

$$$$
ligand
 OpenBabel11021811433D
libRbt.so/2013.1/901 2013/11/27
 12 12  0  0  0  0  0  0  0  0999 V2000
   10.7120   -2.2018   -1.9014 O   0  0  0  0  0  0  0  0  0  0  0  0
    9.0103    2.9071    0.0793 O   0  0  0  0  0  0  0  0  0  0  0  0
   12.1018   -1.7692   -1.7910 C   0  0  0  0  0  0  0  0  0  0  0  0
    8.7277    0.9649   -1.4131 O   0  0  0  0  0  0  0  0  0  0  0  0
   12.2794   -0.3110   -2.3049 C   0  0  0  0  0  0  0  0  0  0  0  0
   10.3127    1.5228   -0.3803 O   0  0  0  0  0  0  0  0  0  0  0  0
   10.9438    0.2198   -2.7479 N   0  0  0  0  0  0  0  0  0  0  0  0
   10.3614   -0.6551   -3.8104 C   0  0  0  0  0  0  0  0  0  0  0  0
   10.2606   -2.1152   -3.2851 C   0  0  0  0  0  0  0  0  0  0  0  0
   11.0435    1.6289   -3.2664 C   0  0  0  0  0  0  0  0  0  0  0  0
   10.8333    2.6595   -2.1308 C   0  0  0  0  0  0  0  0  0  0  0  0
    9.3477    2.2769   -1.1733 S   0  0  0  0  0  0  0  0  0  0  0  0
  1  3  1  0  0  0  0
  1  9  1  0  0  0  0
  2 12  1  0  0  0  0
  3  5  1  0  0  0  0
  4 12  2  0  0  0  0
  5  7  1  0  0  0  0
  6 12  2  0  0  0  0
  7  8  1  0  0  0  0
  7 10  1  0  0  0  0
  8  9  1  0  0  0  0
 10 11  1  0  0  0  0
 11 12  1  0  0  0  0
M  END
>  <CHROM.1>
-90.30567772,-49.51216877,168.86920822,10.35533840,0.61411341,-1.88768040
0.98309011,-0.87093764,3.09984172

>  <Name>
ligand

>  <RI>
0

>  <Rbt.Current_Directory>
/home/itssahil/PROJECTS/Mol_Feturizer/New_Systems/rnas/2HO6

>  <Rbt.Executable>
rbdock ($Id: //depot/dev/client3/rdock/2013.1/src/exe/rbdock.cxx#4 $)

>  <Rbt.Library>
libRbt.so (2013.1, Build901 2013/11/27)

>  <Rbt.Parameter_File>
/export/apps/rDock/src/rDock_2013.1_src/data/scripts/dock_solv.prm

>  <Rbt.Receptor>
prm/blind_docking_80.prm

>  <SCORE>
-17.8687

>  <SCORE.INTER>
-17.8448

>  <SCORE.INTER.CONST>
1

>  <SCORE.INTER.POLAR>
-1.34044

>  <SCORE.INTER.ROT>
3

>  <SCORE.INTER.SOLV>
9.10035

>  <SCORE.INTER.VDW>
-16.0618

>  <SCORE.INTER.norm>
-1.48707

>  <SCORE.INTRA>
-0.0238749

>  <SCORE.INTRA.DIHEDRAL>
1.64934

>  <SCORE.INTRA.DIHEDRAL.0>
1.88407

>  <SCORE.INTRA.POLAR>
0

>  <SCORE.INTRA.POLAR.0>
0

>  <SCORE.INTRA.REPUL>
0

>  <SCORE.INTRA.REPUL.0>
0

>  <SCORE.INTRA.SOLV>
1.85109

>  <SCORE.INTRA.SOLV.lig_0>
-10.2714

>  <SCORE.INTRA.VDW>
-1.77409

>  <SCORE.INTRA.VDW.0>
0.416923

>  <SCORE.INTRA.norm>
-0.00198958

>  <SCORE.RESTR>
0

>  <SCORE.RESTR.CAVITY>
0

>  <SCORE.RESTR.norm>
0

>  <SCORE.SYSTEM>
0

>  <SCORE.SYSTEM.CONST>
0

>  <SCORE.SYSTEM.DIHEDRAL>
0

>  <SCORE.SYSTEM.SOLV>
0

>  <SCORE.SYSTEM.norm>
0

>  <SCORE.heavy>
12

>  <SCORE.norm>
-1.48906

>  <RMSD>
42.596

$$$$
ligand
 OpenBabel11021811433D
libRbt.so/2013.1/901 2013/11/27
 12 12  0  0  0  0  0  0  0  0999 V2000
   10.8098   -2.2180   -2.0095 O   0  0  0  0  0  0  0  0  0  0  0  0
    9.0252    2.9030    0.0607 O   0  0  0  0  0  0  0  0  0  0  0  0
   12.2128   -1.8198   -2.0702 C   0  0  0  0  0  0  0  0  0  0  0  0
    8.7435    0.9673   -1.4402 O   0  0  0  0  0  0  0  0  0  0  0  0
   12.3595   -0.3502   -2.5610 C   0  0  0  0  0  0  0  0  0  0  0  0
   10.3212    1.5091   -0.3880 O   0  0  0  0  0  0  0  0  0  0  0  0
   10.9917    0.2237   -2.8092 N   0  0  0  0  0  0  0  0  0  0  0  0
   10.2530   -0.6040   -3.8107 C   0  0  0  0  0  0  0  0  0  0  0  0
   10.1839   -2.0776   -3.3188 C   0  0  0  0  0  0  0  0  0  0  0  0
   11.0593    1.6460   -3.2956 C   0  0  0  0  0  0  0  0  0  0  0  0
   10.8711    2.6461   -2.1293 C   0  0  0  0  0  0  0  0  0  0  0  0
    9.3715    2.2733   -1.1898 S   0  0  0  0  0  0  0  0  0  0  0  0
  1  3  1  0  0  0  0
  1  9  1  0  0  0  0
  2 12  1  0  0  0  0
  3  5  1  0  0  0  0
  4 12  2  0  0  0  0
  5  7  1  0  0  0  0
  6 12  2  0  0  0  0
  7  8  1  0  0  0  0
  7 10  1  0  0  0  0
  8  9  1  0  0  0  0
 10 11  1  0  0  0  0
 11 12  1  0  0  0  0
M  END
>  <CHROM.1>
-96.49479823,-52.47625516,170.83743425,10.37831414,0.61139368,-1.95123194
1.04837463,-0.75087553,-3.06437344

>  <Name>
ligand

>  <RI>
0

>  <Rbt.Current_Directory>
/home/itssahil/PROJECTS/Mol_Feturizer/New_Systems/rnas/2HO6

>  <Rbt.Executable>
rbdock ($Id: //depot/dev/client3/rdock/2013.1/src/exe/rbdock.cxx#4 $)

>  <Rbt.Library>
libRbt.so (2013.1, Build901 2013/11/27)

>  <Rbt.Parameter_File>
/export/apps/rDock/src/rDock_2013.1_src/data/scripts/dock_solv.prm

>  <Rbt.Receptor>
prm/blind_docking_20.prm

>  <SCORE>
-17.9606

>  <SCORE.INTER>
-17.8528

>  <SCORE.INTER.CONST>
1

>  <SCORE.INTER.POLAR>
-1.32748

>  <SCORE.INTER.ROT>
3

>  <SCORE.INTER.SOLV>
9.61734

>  <SCORE.INTER.VDW>
-16.2827

>  <SCORE.INTER.norm>
-1.48773

>  <SCORE.INTRA>
-0.107842

>  <SCORE.INTRA.DIHEDRAL>
1.82237

>  <SCORE.INTRA.DIHEDRAL.0>
1.88407

>  <SCORE.INTRA.POLAR>
0

>  <SCORE.INTRA.POLAR.0>
0

>  <SCORE.INTRA.REPUL>
0

>  <SCORE.INTRA.REPUL.0>
0

>  <SCORE.INTRA.SOLV>
1.75787

>  <SCORE.INTRA.SOLV.lig_0>
-10.2714

>  <SCORE.INTRA.VDW>
-1.89796

>  <SCORE.INTRA.VDW.0>
0.416923

>  <SCORE.INTRA.norm>
-0.00898682

>  <SCORE.RESTR>
0

>  <SCORE.RESTR.CAVITY>
0

>  <SCORE.RESTR.norm>
0

>  <SCORE.SYSTEM>
0

>  <SCORE.SYSTEM.CONST>
0

>  <SCORE.SYSTEM.DIHEDRAL>
0

>  <SCORE.SYSTEM.SOLV>
0

>  <SCORE.SYSTEM.norm>
0

>  <SCORE.heavy>
12

>  <SCORE.norm>
-1.49672

>  <RMSD>
42.600

$$$$
ligand
 OpenBabel11021811433D
libRbt.so/2013.1/901 2013/11/27
 12 12  0  0  0  0  0  0  0  0999 V2000
   11.7983   -2.9389   -2.0939 O   0  0  0  0  0  0  0  0  0  0  0  0
    8.7379    0.9719   -1.4533 O   0  0  0  0  0  0  0  0  0  0  0  0
   12.7244   -2.7381   -3.2042 C   0  0  0  0  0  0  0  0  0  0  0  0
   10.3745    2.1230   -0.0126 O   0  0  0  0  0  0  0  0  0  0  0  0
   12.5090   -1.3489   -3.8720 C   0  0  0  0  0  0  0  0  0  0  0  0
    9.5176    2.7515   -1.6741 O   0  0  0  0  0  0  0  0  0  0  0  0
   11.4096   -0.6212   -3.1483 N   0  0  0  0  0  0  0  0  0  0  0  0
   10.1504   -1.4259   -3.1686 C   0  0  0  0  0  0  0  0  0  0  0  0
   10.4195   -2.8293   -2.5551 C   0  0  0  0  0  0  0  0  0  0  0  0
   11.1420    0.7322   -3.7490 C   0  0  0  0  0  0  0  0  0  0  0  0
   11.1926    1.8427   -2.6719 C   0  0  0  0  0  0  0  0  0  0  0  0
   10.0849    1.4621   -1.2941 S   0  0  0  0  0  0  0  0  0  0  0  0
  1  3  1  0  0  0  0
  1  9  1  0  0  0  0
  2 12  1  0  0  0  0
  3  5  1  0  0  0  0
  4 12  2  0  0  0  0
  5  7  1  0  0  0  0
  6 12  2  0  0  0  0
  7  8  1  0  0  0  0
  7 10  1  0  0  0  0
  8  9  1  0  0  0  0
 10 11  1  0  0  0  0
 11 12  1  0  0  0  0
M  END
>  <CHROM.1>
-127.21315636,-53.75486124,-44.45282584,10.73867582,0.01954218,-2.25990628
0.97808174,-0.83380131,3.06715457

>  <Name>
ligand

>  <RI>
0

>  <Rbt.Current_Directory>
/home/itssahil/PROJECTS/Mol_Feturizer/New_Systems/rnas/2HO6

>  <Rbt.Executable>
rbdock ($Id: //depot/dev/client3/rdock/2013.1/src/exe/rbdock.cxx#4 $)

>  <Rbt.Library>
libRbt.so (2013.1, Build901 2013/11/27)

>  <Rbt.Parameter_File>
/export/apps/rDock/src/rDock_2013.1_src/data/scripts/dock_solv.prm

>  <Rbt.Receptor>
prm/blind_docking_100.prm

>  <SCORE>
-15.8499

>  <SCORE.INTER>
-15.1707

>  <SCORE.INTER.CONST>
1

>  <SCORE.INTER.POLAR>
-1.34137

>  <SCORE.INTER.ROT>
3

>  <SCORE.INTER.SOLV>
9.85675

>  <SCORE.INTER.VDW>
-14.5282

>  <SCORE.INTER.norm>
-1.26423

>  <SCORE.INTRA>
-0.679213

>  <SCORE.INTRA.DIHEDRAL>
2.27911

>  <SCORE.INTRA.DIHEDRAL.0>
1.88407

>  <SCORE.INTRA.POLAR>
0

>  <SCORE.INTRA.POLAR.0>
0

>  <SCORE.INTRA.REPUL>
0

>  <SCORE.INTRA.REPUL.0>
0

>  <SCORE.INTRA.SOLV>
0.127375

>  <SCORE.INTRA.SOLV.lig_0>
-10.2714

>  <SCORE.INTRA.VDW>
-1.88246

>  <SCORE.INTRA.VDW.0>
0.416923

>  <SCORE.INTRA.norm>
-0.0566011

>  <SCORE.RESTR>
0

>  <SCORE.RESTR.CAVITY>
0

>  <SCORE.RESTR.norm>
0

>  <SCORE.SYSTEM>
0

>  <SCORE.SYSTEM.CONST>
0

>  <SCORE.SYSTEM.DIHEDRAL>
0

>  <SCORE.SYSTEM.SOLV>
0

>  <SCORE.SYSTEM.norm>
0

>  <SCORE.heavy>
12

>  <SCORE.norm>
-1.32083

>  <RMSD>
42.610

$$$$
ligand
 OpenBabel11021811433D
libRbt.so/2013.1/901 2013/11/27
 12 12  0  0  0  0  0  0  0  0999 V2000
   10.8816   -2.2847   -1.9641 O   0  0  0  0  0  0  0  0  0  0  0  0
    9.0511    2.9633   -0.0451 O   0  0  0  0  0  0  0  0  0  0  0  0
   12.2750   -1.9288   -2.2140 C   0  0  0  0  0  0  0  0  0  0  0  0
    8.7487    0.9646   -1.4567 O   0  0  0  0  0  0  0  0  0  0  0  0
   12.3960   -0.4728   -2.7502 C   0  0  0  0  0  0  0  0  0  0  0  0
   10.3266    1.5283   -0.4162 O   0  0  0  0  0  0  0  0  0  0  0  0
   11.0234    0.1365   -2.8316 N   0  0  0  0  0  0  0  0  0  0  0  0
   10.1391   -0.6864   -3.7116 C   0  0  0  0  0  0  0  0  0  0  0  0
   10.0950   -2.1486   -3.1842 C   0  0  0  0  0  0  0  0  0  0  0  0
   11.0655    1.5476   -3.3523 C   0  0  0  0  0  0  0  0  0  0  0  0
   10.9109    2.5732   -2.2033 C   0  0  0  0  0  0  0  0  0  0  0  0
    9.3971    2.2701   -1.2616 S   0  0  0  0  0  0  0  0  0  0  0  0
  1  3  1  0  0  0  0
  1  9  1  0  0  0  0
  2 12  1  0  0  0  0
  3  5  1  0  0  0  0
  4 12  2  0  0  0  0
  5  7  1  0  0  0  0
  6 12  2  0  0  0  0
  7  8  1  0  0  0  0
  7 10  1  0  0  0  0
  8  9  1  0  0  0  0
 10 11  1  0  0  0  0
 11 12  1  0  0  0  0
M  END
>  <CHROM.1>
-102.31488527,-55.67107750,172.89583063,10.38955045,0.56523388,-1.98997749
1.08400572,-0.67261813,-3.03393695

>  <Name>
ligand

>  <RI>
0

>  <Rbt.Current_Directory>
/home/itssahil/PROJECTS/Mol_Feturizer/New_Systems/rnas/2HO6

>  <Rbt.Executable>
rbdock ($Id: //depot/dev/client3/rdock/2013.1/src/exe/rbdock.cxx#4 $)

>  <Rbt.Library>
libRbt.so (2013.1, Build901 2013/11/27)

>  <Rbt.Parameter_File>
/export/apps/rDock/src/rDock_2013.1_src/data/scripts/dock_solv.prm

>  <Rbt.Receptor>
prm/blind_docking_100.prm

>  <SCORE>
-17.9252

>  <SCORE.INTER>
-17.8303

>  <SCORE.INTER.CONST>
1

>  <SCORE.INTER.POLAR>
-1.34065

>  <SCORE.INTER.ROT>
3

>  <SCORE.INTER.SOLV>
10.1469

>  <SCORE.INTER.VDW>
-16.4003

>  <SCORE.INTER.norm>
-1.48586

>  <SCORE.INTRA>
-0.094897

>  <SCORE.INTRA.DIHEDRAL>
1.98167

>  <SCORE.INTRA.DIHEDRAL.0>
1.88407

>  <SCORE.INTRA.POLAR>
0

>  <SCORE.INTRA.POLAR.0>
0

>  <SCORE.INTRA.REPUL>
0

>  <SCORE.INTRA.REPUL.0>
0

>  <SCORE.INTRA.SOLV>
1.6651

>  <SCORE.INTRA.SOLV.lig_0>
-10.2714

>  <SCORE.INTRA.VDW>
-1.91828

>  <SCORE.INTRA.VDW.0>
0.416923

>  <SCORE.INTRA.norm>
-0.00790809

>  <SCORE.RESTR>
0

>  <SCORE.RESTR.CAVITY>
0

>  <SCORE.RESTR.norm>
0

>  <SCORE.SYSTEM>
0

>  <SCORE.SYSTEM.CONST>
0

>  <SCORE.SYSTEM.DIHEDRAL>
0

>  <SCORE.SYSTEM.SOLV>
0

>  <SCORE.SYSTEM.norm>
0

>  <SCORE.heavy>
12

>  <SCORE.norm>
-1.49377

>  <RMSD>
42.622

$$$$
ligand
 OpenBabel11021811433D
libRbt.so/2013.1/901 2013/11/27
 12 12  0  0  0  0  0  0  0  0999 V2000
   10.8414   -2.2804   -1.9057 O   0  0  0  0  0  0  0  0  0  0  0  0
    9.1103    2.9197    0.0260 O   0  0  0  0  0  0  0  0  0  0  0  0
   12.2386   -1.9229   -2.1311 C   0  0  0  0  0  0  0  0  0  0  0  0
    8.7310    0.9757   -1.4425 O   0  0  0  0  0  0  0  0  0  0  0  0
   12.3661   -0.4734   -2.6832 C   0  0  0  0  0  0  0  0  0  0  0  0
   10.3494    1.4782   -0.4333 O   0  0  0  0  0  0  0  0  0  0  0  0
   10.9936    0.1300   -2.8008 N   0  0  0  0  0  0  0  0  0  0  0  0
   10.1304   -0.7069   -3.6885 C   0  0  0  0  0  0  0  0  0  0  0  0
   10.0800   -2.1625   -3.1436 C   0  0  0  0  0  0  0  0  0  0  0  0
   11.0419    1.5346   -3.3384 C   0  0  0  0  0  0  0  0  0  0  0  0
   10.8961    2.5746   -2.2014 C   0  0  0  0  0  0  0  0  0  0  0  0
    9.4071    2.2633   -1.2236 S   0  0  0  0  0  0  0  0  0  0  0  0
  1  3  1  0  0  0  0
  1  9  1  0  0  0  0
  2 12  1  0  0  0  0
  3  5  1  0  0  0  0
  4 12  2  0  0  0  0
  5  7  1  0  0  0  0
  6 12  2  0  0  0  0
  7  8  1  0  0  0  0
  7 10  1  0  0  0  0
  8  9  1  0  0  0  0
 10 11  1  0  0  0  0
 11 12  1  0  0  0  0
M  END
>  <CHROM.1>
-100.87732935,-54.09449962,169.53292832,10.38175289,0.55423890,-1.95448482
1.08203011,-0.70937622,-3.05324441

>  <Name>
ligand

>  <RI>
0

>  <Rbt.Current_Directory>
/home/itssahil/PROJECTS/Mol_Feturizer/New_Systems/rnas/2HO6

>  <Rbt.Executable>
rbdock ($Id: //depot/dev/client3/rdock/2013.1/src/exe/rbdock.cxx#4 $)

>  <Rbt.Library>
libRbt.so (2013.1, Build901 2013/11/27)

>  <Rbt.Parameter_File>
/export/apps/rDock/src/rDock_2013.1_src/data/scripts/dock_solv.prm

>  <Rbt.Receptor>
prm/blind_docking_80.prm

>  <SCORE>
-17.9596

>  <SCORE.INTER>
-17.9367

>  <SCORE.INTER.CONST>
1

>  <SCORE.INTER.POLAR>
-1.33475

>  <SCORE.INTER.ROT>
3

>  <SCORE.INTER.SOLV>
10.1272

>  <SCORE.INTER.VDW>
-16.4843

>  <SCORE.INTER.norm>
-1.49472

>  <SCORE.INTRA>
-0.0228757

>  <SCORE.INTRA.DIHEDRAL>
1.98438

>  <SCORE.INTRA.DIHEDRAL.0>
1.88407

>  <SCORE.INTRA.POLAR>
0

>  <SCORE.INTRA.POLAR.0>
0

>  <SCORE.INTRA.REPUL>
0

>  <SCORE.INTRA.REPUL.0>
0

>  <SCORE.INTRA.SOLV>
1.74051

>  <SCORE.INTRA.SOLV.lig_0>
-10.2714

>  <SCORE.INTRA.VDW>
-1.88532

>  <SCORE.INTRA.VDW.0>
0.416923

>  <SCORE.INTRA.norm>
-0.00190631

>  <SCORE.RESTR>
0

>  <SCORE.RESTR.CAVITY>
0

>  <SCORE.RESTR.norm>
0

>  <SCORE.SYSTEM>
0

>  <SCORE.SYSTEM.CONST>
0

>  <SCORE.SYSTEM.DIHEDRAL>
0

>  <SCORE.SYSTEM.SOLV>
0

>  <SCORE.SYSTEM.norm>
0

>  <SCORE.heavy>
12

>  <SCORE.norm>
-1.49663

>  <RMSD>
42.623

$$$$
ligand
 OpenBabel11021811433D
libRbt.so/2013.1/901 2013/11/27
 12 12  0  0  0  0  0  0  0  0999 V2000
    9.1974   -0.3795    0.7359 O   0  0  0  0  0  0  0  0  0  0  0  0
    9.2726   -0.3420   -3.3691 O   0  0  0  0  0  0  0  0  0  0  0  0
    8.6843    0.9743    0.9220 C   0  0  0  0  0  0  0  0  0  0  0  0
   11.2007   -0.9196   -4.7932 O   0  0  0  0  0  0  0  0  0  0  0  0
    9.2999    1.9567   -0.1163 C   0  0  0  0  0  0  0  0  0  0  0  0
   11.0958   -0.7966   -2.8275 O   0  0  0  0  0  0  0  0  0  0  0  0
   10.2344    1.1971   -1.0172 N   0  0  0  0  0  0  0  0  0  0  0  0
   11.3028    0.5277   -0.2148 C   0  0  0  0  0  0  0  0  0  0  0  0
   10.6505   -0.3937    0.8546 C   0  0  0  0  0  0  0  0  0  0  0  0
   10.8737    2.0911   -2.0450 C   0  0  0  0  0  0  0  0  0  0  0  0
   11.6423    1.2653   -3.1048 C   0  0  0  0  0  0  0  0  0  0  0  0
   10.5598    0.0479   -3.8898 S   0  0  0  0  0  0  0  0  0  0  0  0
  1  3  1  0  0  0  0
  1  9  1  0  0  0  0
  2 12  1  0  0  0  0
  3  5  1  0  0  0  0
  4 12  2  0  0  0  0
  5  7  1  0  0  0  0
  6 12  2  0  0  0  0
  7  8  1  0  0  0  0
  7 10  1  0  0  0  0
  8  9  1  0  0  0  0
 10 11  1  0  0  0  0
 11 12  1  0  0  0  0
M  END
>  <CHROM.1>
-170.53128046,55.90667675,-15.01283728,10.34965098,0.35715420,-1.82762704
2.36384055,1.21340527,0.62884869

>  <Name>
ligand

>  <RI>
0

>  <Rbt.Current_Directory>
/home/itssahil/PROJECTS/Mol_Feturizer/New_Systems/rnas/2HO6

>  <Rbt.Executable>
rbdock ($Id: //depot/dev/client3/rdock/2013.1/src/exe/rbdock.cxx#4 $)

>  <Rbt.Library>
libRbt.so (2013.1, Build901 2013/11/27)

>  <Rbt.Parameter_File>
/export/apps/rDock/src/rDock_2013.1_src/data/scripts/dock_solv.prm

>  <Rbt.Receptor>
prm/blind_docking_20.prm

>  <SCORE>
-16.5416

>  <SCORE.INTER>
-16.0617

>  <SCORE.INTER.CONST>
1

>  <SCORE.INTER.POLAR>
-1.34164

>  <SCORE.INTER.ROT>
3

>  <SCORE.INTER.SOLV>
7.07552

>  <SCORE.INTER.VDW>
-14.1942

>  <SCORE.INTER.norm>
-1.33848

>  <SCORE.INTRA>
-0.479844

>  <SCORE.INTRA.DIHEDRAL>
0.0484473

>  <SCORE.INTRA.DIHEDRAL.0>
1.88407

>  <SCORE.INTRA.POLAR>
0

>  <SCORE.INTRA.POLAR.0>
0

>  <SCORE.INTRA.REPUL>
0

>  <SCORE.INTRA.REPUL.0>
0

>  <SCORE.INTRA.SOLV>
0.780998

>  <SCORE.INTRA.SOLV.lig_0>
-10.2714

>  <SCORE.INTRA.VDW>
-0.894567

>  <SCORE.INTRA.VDW.0>
0.416923

>  <SCORE.INTRA.norm>
-0.039987

>  <SCORE.RESTR>
0

>  <SCORE.RESTR.CAVITY>
0

>  <SCORE.RESTR.norm>
0

>  <SCORE.SYSTEM>
0

>  <SCORE.SYSTEM.CONST>
0

>  <SCORE.SYSTEM.DIHEDRAL>
0

>  <SCORE.SYSTEM.SOLV>
0

>  <SCORE.SYSTEM.norm>
0

>  <SCORE.heavy>
12

>  <SCORE.norm>
-1.37847

>  <RMSD>
42.625

$$$$
ligand
 OpenBabel11021811433D
libRbt.so/2013.1/901 2013/11/27
 12 12  0  0  0  0  0  0  0  0999 V2000
   10.8387   -2.2757   -1.8919 O   0  0  0  0  0  0  0  0  0  0  0  0
    9.0595    2.9621   -0.0181 O   0  0  0  0  0  0  0  0  0  0  0  0
   12.2365   -1.9195   -2.1153 C   0  0  0  0  0  0  0  0  0  0  0  0
    8.7282    0.9752   -1.4400 O   0  0  0  0  0  0  0  0  0  0  0  0
   12.3659   -0.4718   -2.6717 C   0  0  0  0  0  0  0  0  0  0  0  0
   10.3226    1.5234   -0.4165 O   0  0  0  0  0  0  0  0  0  0  0  0
   10.9939    0.1319   -2.7942 N   0  0  0  0  0  0  0  0  0  0  0  0
   10.1323   -0.7075   -3.6812 C   0  0  0  0  0  0  0  0  0  0  0  0
   10.0801   -2.1613   -3.1317 C   0  0  0  0  0  0  0  0  0  0  0  0
   11.0441    1.5347   -3.3362 C   0  0  0  0  0  0  0  0  0  0  0  0
   10.8884    2.5783   -2.2038 C   0  0  0  0  0  0  0  0  0  0  0  0
    9.3858    2.2760   -1.2441 S   0  0  0  0  0  0  0  0  0  0  0  0
  1  3  1  0  0  0  0
  1  9  1  0  0  0  0
  2 12  1  0  0  0  0
  3  5  1  0  0  0  0
  4 12  2  0  0  0  0
  5  7  1  0  0  0  0
  6 12  2  0  0  0  0
  7  8  1  0  0  0  0
  7 10  1  0  0  0  0
  8  9  1  0  0  0  0
 10 11  1  0  0  0  0
 11 12  1  0  0  0  0
M  END
>  <CHROM.1>
-101.19071342,-54.55245096,171.21677051,10.37099513,0.56472120,-1.95496307
1.08196915,-0.69362185,-3.05531696

>  <Name>
ligand

>  <RI>
0

>  <Rbt.Current_Directory>
/home/itssahil/PROJECTS/Mol_Feturizer/New_Systems/rnas/2HO6

>  <Rbt.Executable>
rbdock ($Id: //depot/dev/client3/rdock/2013.1/src/exe/rbdock.cxx#4 $)

>  <Rbt.Library>
libRbt.so (2013.1, Build901 2013/11/27)

>  <Rbt.Parameter_File>
/export/apps/rDock/src/rDock_2013.1_src/data/scripts/dock_solv.prm

>  <Rbt.Receptor>
prm/blind_docking_100.prm

>  <SCORE>
-18.014

>  <SCORE.INTER>
-17.935

>  <SCORE.INTER.CONST>
1

>  <SCORE.INTER.POLAR>
-1.33998

>  <SCORE.INTER.ROT>
3

>  <SCORE.INTER.SOLV>
10.1687

>  <SCORE.INTER.VDW>
-16.4796

>  <SCORE.INTER.norm>
-1.49458

>  <SCORE.INTRA>
-0.0790252

>  <SCORE.INTRA.DIHEDRAL>
1.97437

>  <SCORE.INTRA.DIHEDRAL.0>
1.88407

>  <SCORE.INTRA.POLAR>
0

>  <SCORE.INTRA.POLAR.0>
0

>  <SCORE.INTRA.REPUL>
0

>  <SCORE.INTRA.REPUL.0>
0

>  <SCORE.INTRA.SOLV>
1.70869

>  <SCORE.INTRA.SOLV.lig_0>
-10.2714

>  <SCORE.INTRA.VDW>
-1.92056

>  <SCORE.INTRA.VDW.0>
0.416923

>  <SCORE.INTRA.norm>
-0.00658543

>  <SCORE.RESTR>
0

>  <SCORE.RESTR.CAVITY>
0

>  <SCORE.RESTR.norm>
0

>  <SCORE.SYSTEM>
0

>  <SCORE.SYSTEM.CONST>
0

>  <SCORE.SYSTEM.DIHEDRAL>
0

>  <SCORE.SYSTEM.SOLV>
0

>  <SCORE.SYSTEM.norm>
0

>  <SCORE.heavy>
12

>  <SCORE.norm>
-1.50117

>  <RMSD>
42.627

$$$$
ligand
 OpenBabel11021811433D
libRbt.so/2013.1/901 2013/11/27
 12 12  0  0  0  0  0  0  0  0999 V2000
   11.4950    0.4751    1.9428 O   0  0  0  0  0  0  0  0  0  0  0  0
    7.2179   -3.3427    0.8635 O   0  0  0  0  0  0  0  0  0  0  0  0
   12.8108   -0.0980    1.6766 C   0  0  0  0  0  0  0  0  0  0  0  0
    8.1352   -1.1904    0.0854 O   0  0  0  0  0  0  0  0  0  0  0  0
   12.6908   -1.5431    1.1113 C   0  0  0  0  0  0  0  0  0  0  0  0
    7.7691   -2.8335   -0.9423 O   0  0  0  0  0  0  0  0  0  0  0  0
   11.2359   -1.9055    0.9941 N   0  0  0  0  0  0  0  0  0  0  0  0
   10.5619   -1.7930    2.3233 C   0  0  0  0  0  0  0  0  0  0  0  0
   10.7591   -0.3571    2.8870 C   0  0  0  0  0  0  0  0  0  0  0  0
   11.0457   -3.2989    0.4589 C   0  0  0  0  0  0  0  0  0  0  0  0
    9.7841   -3.3886   -0.4333 C   0  0  0  0  0  0  0  0  0  0  0  0
    8.3622   -2.6148    0.3727 S   0  0  0  0  0  0  0  0  0  0  0  0
  1  3  1  0  0  0  0
  1  9  1  0  0  0  0
  2 12  1  0  0  0  0
  3  5  1  0  0  0  0
  4 12  2  0  0  0  0
  5  7  1  0  0  0  0
  6 12  2  0  0  0  0
  7  8  1  0  0  0  0
  7 10  1  0  0  0  0
  8  9  1  0  0  0  0
 10 11  1  0  0  0  0
 11 12  1  0  0  0  0
M  END
>  <CHROM.1>
-145.44999612,-47.72364831,-111.12895525,9.92801377,-1.89347734,0.87325841
0.63370032,-0.04822714,0.61387981

>  <Name>
ligand

>  <RI>
0

>  <Rbt.Current_Directory>
/home/itssahil/PROJECTS/Mol_Feturizer/New_Systems/rnas/2HO6

>  <Rbt.Executable>
rbdock ($Id: //depot/dev/client3/rdock/2013.1/src/exe/rbdock.cxx#4 $)

>  <Rbt.Library>
libRbt.so (2013.1, Build901 2013/11/27)

>  <Rbt.Parameter_File>
/export/apps/rDock/src/rDock_2013.1_src/data/scripts/dock_solv.prm

>  <Rbt.Receptor>
prm/blind_docking_20.prm

>  <SCORE>
-16.2084

>  <SCORE.INTER>
-16.1139

>  <SCORE.INTER.CONST>
1

>  <SCORE.INTER.POLAR>
-2.22318

>  <SCORE.INTER.ROT>
3

>  <SCORE.INTER.SOLV>
9.83182

>  <SCORE.INTER.VDW>
-12.2093

>  <SCORE.INTER.norm>
-1.34282

>  <SCORE.INTRA>
-0.0944985

>  <SCORE.INTRA.DIHEDRAL>
1.9169

>  <SCORE.INTRA.DIHEDRAL.0>
1.88407

>  <SCORE.INTRA.POLAR>
0

>  <SCORE.INTRA.POLAR.0>
0

>  <SCORE.INTRA.REPUL>
0

>  <SCORE.INTRA.REPUL.0>
0

>  <SCORE.INTRA.SOLV>
0.784157

>  <SCORE.INTRA.SOLV.lig_0>
-10.2714

>  <SCORE.INTRA.VDW>
-1.44503

>  <SCORE.INTRA.VDW.0>
0.416923

>  <SCORE.INTRA.norm>
-0.00787488

>  <SCORE.RESTR>
0

>  <SCORE.RESTR.CAVITY>
0

>  <SCORE.RESTR.norm>
0

>  <SCORE.SYSTEM>
0

>  <SCORE.SYSTEM.CONST>
0

>  <SCORE.SYSTEM.DIHEDRAL>
0

>  <SCORE.SYSTEM.SOLV>
0

>  <SCORE.SYSTEM.norm>
0

>  <SCORE.heavy>
12

>  <SCORE.norm>
-1.3507

>  <RMSD>
42.630

$$$$
ligand
 OpenBabel11021811433D
libRbt.so/2013.1/901 2013/11/27
 12 12  0  0  0  0  0  0  0  0999 V2000
   11.0772   -2.8789   -3.1933 O   0  0  0  0  0  0  0  0  0  0  0  0
    9.1710    2.9076   -1.3683 O   0  0  0  0  0  0  0  0  0  0  0  0
   10.3854   -3.4340   -2.0341 C   0  0  0  0  0  0  0  0  0  0  0  0
   10.2401    1.1143   -2.6800 O   0  0  0  0  0  0  0  0  0  0  0  0
   10.4832   -2.4781   -0.8099 C   0  0  0  0  0  0  0  0  0  0  0  0
    8.6889    1.0149   -1.4659 O   0  0  0  0  0  0  0  0  0  0  0  0
   11.2561   -1.2502   -1.2059 N   0  0  0  0  0  0  0  0  0  0  0  0
   12.6150   -1.6267   -1.7010 C   0  0  0  0  0  0  0  0  0  0  0  0
   12.4795   -2.6327   -2.8792 C   0  0  0  0  0  0  0  0  0  0  0  0
   11.3963   -0.2820   -0.0626 C   0  0  0  0  0  0  0  0  0  0  0  0
   10.1411    0.6139    0.0696 C   0  0  0  0  0  0  0  0  0  0  0  0
    9.9694    1.7064   -1.3612 S   0  0  0  0  0  0  0  0  0  0  0  0
  1  3  1  0  0  0  0
  1  9  1  0  0  0  0
  2 12  1  0  0  0  0
  3  5  1  0  0  0  0
  4 12  2  0  0  0  0
  5  7  1  0  0  0  0
  6 12  2  0  0  0  0
  7  8  1  0  0  0  0
  7 10  1  0  0  0  0
  8  9  1  0  0  0  0
 10 11  1  0  0  0  0
 11 12  1  0  0  0  0
M  END
>  <CHROM.1>
-83.25291814,-66.19512316,-160.60279248,10.55942183,-0.34132564,-1.56461003
0.56437610,1.10445651,-1.99739483

>  <Name>
ligand

>  <RI>
0

>  <Rbt.Current_Directory>
/home/itssahil/PROJECTS/Mol_Feturizer/New_Systems/rnas/2HO6

>  <Rbt.Executable>
rbdock ($Id: //depot/dev/client3/rdock/2013.1/src/exe/rbdock.cxx#4 $)

>  <Rbt.Library>
libRbt.so (2013.1, Build901 2013/11/27)

>  <Rbt.Parameter_File>
/export/apps/rDock/src/rDock_2013.1_src/data/scripts/dock_solv.prm

>  <Rbt.Receptor>
prm/blind_docking_40.prm

>  <SCORE>
-13.0452

>  <SCORE.INTER>
-12.2776

>  <SCORE.INTER.CONST>
1

>  <SCORE.INTER.POLAR>
-1.34164

>  <SCORE.INTER.ROT>
3

>  <SCORE.INTER.SOLV>
4.9034

>  <SCORE.INTER.VDW>
-10.9474

>  <SCORE.INTER.norm>
-1.02313

>  <SCORE.INTRA>
-0.767645

>  <SCORE.INTRA.DIHEDRAL>
0.851477

>  <SCORE.INTRA.DIHEDRAL.0>
1.88407

>  <SCORE.INTRA.POLAR>
0

>  <SCORE.INTRA.POLAR.0>
0

>  <SCORE.INTRA.REPUL>
0

>  <SCORE.INTRA.REPUL.0>
0

>  <SCORE.INTRA.SOLV>
1.13063

>  <SCORE.INTRA.SOLV.lig_0>
-10.2714

>  <SCORE.INTRA.VDW>
-1.7587

>  <SCORE.INTRA.VDW.0>
0.416923

>  <SCORE.INTRA.norm>
-0.0639704

>  <SCORE.RESTR>
0

>  <SCORE.RESTR.CAVITY>
0

>  <SCORE.RESTR.norm>
0

>  <SCORE.SYSTEM>
0

>  <SCORE.SYSTEM.CONST>
0

>  <SCORE.SYSTEM.DIHEDRAL>
0

>  <SCORE.SYSTEM.SOLV>
0

>  <SCORE.SYSTEM.norm>
0

>  <SCORE.heavy>
12

>  <SCORE.norm>
-1.0871

>  <RMSD>
42.634

$$$$
ligand
 OpenBabel11021811433D
libRbt.so/2013.1/901 2013/11/27
 12 12  0  0  0  0  0  0  0  0999 V2000
   11.8210   -4.6329   -1.1633 O   0  0  0  0  0  0  0  0  0  0  0  0
   10.5966    2.6767   -2.6181 O   0  0  0  0  0  0  0  0  0  0  0  0
   12.7098   -4.7234   -2.3176 C   0  0  0  0  0  0  0  0  0  0  0  0
    9.0907    0.7568   -2.2641 O   0  0  0  0  0  0  0  0  0  0  0  0
   12.7941   -3.3639   -3.0704 C   0  0  0  0  0  0  0  0  0  0  0  0
   10.4563    1.5088   -1.0559 O   0  0  0  0  0  0  0  0  0  0  0  0
   11.9363   -2.3543   -2.3586 N   0  0  0  0  0  0  0  0  0  0  0  0
   10.5234   -2.8349   -2.2782 C   0  0  0  0  0  0  0  0  0  0  0  0
   10.4851   -4.2242   -1.5806 C   0  0  0  0  0  0  0  0  0  0  0  0
   11.9650   -1.0131   -3.0402 C   0  0  0  0  0  0  0  0  0  0  0  0
   11.8067    0.1381   -2.0177 C   0  0  0  0  0  0  0  0  0  0  0  0
   10.4587    1.2466   -2.4913 S   0  0  0  0  0  0  0  0  0  0  0  0
  1  3  1  0  0  0  0
  1  9  1  0  0  0  0
  2 12  1  0  0  0  0
  3  5  1  0  0  0  0
  4 12  2  0  0  0  0
  5  7  1  0  0  0  0
  6 12  2  0  0  0  0
  7  8  1  0  0  0  0
  7 10  1  0  0  0  0
  8  9  1  0  0  0  0
 10 11  1  0  0  0  0
 11 12  1  0  0  0  0
M  END
>  <CHROM.1>
-148.21992315,-126.77434706,-127.28654849,11.11989615,-1.09556721,-2.19937170
1.28127307,-0.42857698,2.98711529

>  <Name>
ligand

>  <RI>
0

>  <Rbt.Current_Directory>
/home/itssahil/PROJECTS/Mol_Feturizer/New_Systems/rnas/2HO6

>  <Rbt.Executable>
rbdock ($Id: //depot/dev/client3/rdock/2013.1/src/exe/rbdock.cxx#4 $)

>  <Rbt.Library>
libRbt.so (2013.1, Build901 2013/11/27)

>  <Rbt.Parameter_File>
/export/apps/rDock/src/rDock_2013.1_src/data/scripts/dock_solv.prm

>  <Rbt.Receptor>
prm/blind_docking_40.prm

>  <SCORE>
-11.0254

>  <SCORE.INTER>
-13.1607

>  <SCORE.INTER.CONST>
1

>  <SCORE.INTER.POLAR>
-1.3399

>  <SCORE.INTER.ROT>
3

>  <SCORE.INTER.SOLV>
5.22778

>  <SCORE.INTER.VDW>
-11.6501

>  <SCORE.INTER.norm>
-1.09673

>  <SCORE.INTRA>
2.13342

>  <SCORE.INTRA.DIHEDRAL>
6.48165

>  <SCORE.INTRA.DIHEDRAL.0>
1.88407

>  <SCORE.INTRA.POLAR>
0

>  <SCORE.INTRA.POLAR.0>
0

>  <SCORE.INTRA.REPUL>
0

>  <SCORE.INTRA.REPUL.0>
0

>  <SCORE.INTRA.SOLV>
0.233176

>  <SCORE.INTRA.SOLV.lig_0>
-10.2714

>  <SCORE.INTRA.VDW>
-1.22399

>  <SCORE.INTRA.VDW.0>
0.416923

>  <SCORE.INTRA.norm>
0.177785

>  <SCORE.RESTR>
0.00189683

>  <SCORE.RESTR.CAVITY>
0.00189683

>  <SCORE.RESTR.norm>
0.000158069

>  <SCORE.SYSTEM>
0

>  <SCORE.SYSTEM.CONST>
0

>  <SCORE.SYSTEM.DIHEDRAL>
0

>  <SCORE.SYSTEM.SOLV>
0

>  <SCORE.SYSTEM.norm>
0

>  <SCORE.heavy>
12

>  <SCORE.norm>
-0.918783

>  <RMSD>
42.645

$$$$
ligand
 OpenBabel11021811433D
libRbt.so/2013.1/901 2013/11/27
 12 12  0  0  0  0  0  0  0  0999 V2000
   11.7431   -2.9562   -2.1995 O   0  0  0  0  0  0  0  0  0  0  0  0
    8.7365    0.9786   -1.4623 O   0  0  0  0  0  0  0  0  0  0  0  0
   12.6331   -2.7529   -3.3385 C   0  0  0  0  0  0  0  0  0  0  0  0
   10.3302    2.1491    0.0105 O   0  0  0  0  0  0  0  0  0  0  0  0
   12.4349   -1.3408   -3.9620 C   0  0  0  0  0  0  0  0  0  0  0  0
    9.5140    2.7599   -1.6779 O   0  0  0  0  0  0  0  0  0  0  0  0
   11.3853   -0.6010   -3.1791 N   0  0  0  0  0  0  0  0  0  0  0  0
   10.1027   -1.3681   -3.1724 C   0  0  0  0  0  0  0  0  0  0  0  0
   10.3522   -2.7945   -2.6055 C   0  0  0  0  0  0  0  0  0  0  0  0
   11.1363    0.7751   -3.7346 C   0  0  0  0  0  0  0  0  0  0  0  0
   11.2183    1.8503   -2.6242 C   0  0  0  0  0  0  0  0  0  0  0  0
   10.0768    1.4762   -1.2724 S   0  0  0  0  0  0  0  0  0  0  0  0
  1  3  1  0  0  0  0
  1  9  1  0  0  0  0
  2 12  1  0  0  0  0
  3  5  1  0  0  0  0
  4 12  2  0  0  0  0
  5  7  1  0  0  0  0
  6 12  2  0  0  0  0
  7  8  1  0  0  0  0
  7 10  1  0  0  0  0
  8  9  1  0  0  0  0
 10 11  1  0  0  0  0
 11 12  1  0  0  0  0
M  END
>  <CHROM.1>
-128.90561560,-55.67653678,-40.94239698,10.70817107,0.03514390,-2.28203944
1.00176232,-0.83244874,3.10913126

>  <Name>
ligand

>  <RI>
0

>  <Rbt.Current_Directory>
/home/itssahil/PROJECTS/Mol_Feturizer/New_Systems/rnas/2HO6

>  <Rbt.Executable>
rbdock ($Id: //depot/dev/client3/rdock/2013.1/src/exe/rbdock.cxx#4 $)

>  <Rbt.Library>
libRbt.so (2013.1, Build901 2013/11/27)

>  <Rbt.Parameter_File>
/export/apps/rDock/src/rDock_2013.1_src/data/scripts/dock_solv.prm

>  <Rbt.Receptor>
prm/blind_docking_60.prm

>  <SCORE>
-15.8534

>  <SCORE.INTER>
-15.1327

>  <SCORE.INTER.CONST>
1

>  <SCORE.INTER.POLAR>
-1.33493

>  <SCORE.INTER.ROT>
3

>  <SCORE.INTER.SOLV>
10.2768

>  <SCORE.INTER.VDW>
-14.6643

>  <SCORE.INTER.norm>
-1.26106

>  <SCORE.INTRA>
-0.720737

>  <SCORE.INTRA.DIHEDRAL>
2.14725

>  <SCORE.INTRA.DIHEDRAL.0>
1.88407

>  <SCORE.INTRA.POLAR>
0

>  <SCORE.INTRA.POLAR.0>
0

>  <SCORE.INTRA.REPUL>
0

>  <SCORE.INTRA.REPUL.0>
0

>  <SCORE.INTRA.SOLV>
0.122321

>  <SCORE.INTRA.SOLV.lig_0>
-10.2714

>  <SCORE.INTRA.VDW>
-1.85552

>  <SCORE.INTRA.VDW.0>
0.416923

>  <SCORE.INTRA.norm>
-0.0600614

>  <SCORE.RESTR>
0

>  <SCORE.RESTR.CAVITY>
0

>  <SCORE.RESTR.norm>
0

>  <SCORE.SYSTEM>
0

>  <SCORE.SYSTEM.CONST>
0

>  <SCORE.SYSTEM.DIHEDRAL>
0

>  <SCORE.SYSTEM.SOLV>
0

>  <SCORE.SYSTEM.norm>
0

>  <SCORE.heavy>
12

>  <SCORE.norm>
-1.32112

>  <RMSD>
42.645

$$$$
ligand
 OpenBabel11021811433D
libRbt.so/2013.1/901 2013/11/27
 12 12  0  0  0  0  0  0  0  0999 V2000
    9.4262   -1.7245   -2.6876 O   0  0  0  0  0  0  0  0  0  0  0  0
   10.7099    1.4195    0.1152 O   0  0  0  0  0  0  0  0  0  0  0  0
   10.6918   -1.8860   -1.9784 C   0  0  0  0  0  0  0  0  0  0  0  0
    9.3408    3.4674    0.0110 O   0  0  0  0  0  0  0  0  0  0  0  0
   11.5455   -0.5866   -2.0485 C   0  0  0  0  0  0  0  0  0  0  0  0
    9.3011    1.8809   -1.1601 O   0  0  0  0  0  0  0  0  0  0  0  0
   10.7877    0.4579   -2.8209 N   0  0  0  0  0  0  0  0  0  0  0  0
   10.4603   -0.0420   -4.1907 C   0  0  0  0  0  0  0  0  0  0  0  0
    9.6657   -1.3743   -4.0825 C   0  0  0  0  0  0  0  0  0  0  0  0
   11.5615    1.7434   -2.9348 C   0  0  0  0  0  0  0  0  0  0  0  0
   10.7697    2.9288   -2.3317 C   0  0  0  0  0  0  0  0  0  0  0  0
   10.4037    2.6433   -0.5839 S   0  0  0  0  0  0  0  0  0  0  0  0
  1  3  1  0  0  0  0
  1  9  1  0  0  0  0
  2 12  1  0  0  0  0
  3  5  1  0  0  0  0
  4 12  2  0  0  0  0
  5  7  1  0  0  0  0
  6 12  2  0  0  0  0
  7  8  1  0  0  0  0
  7 10  1  0  0  0  0
  8  9  1  0  0  0  0
 10 11  1  0  0  0  0
 11 12  1  0  0  0  0
M  END
>  <CHROM.1>
-121.70646545,59.46962257,-5.05775782,10.36180658,0.94135568,-1.87502837
1.45536040,-1.29951230,-2.67063038

>  <Name>
ligand

>  <RI>
0

>  <Rbt.Current_Directory>
/home/itssahil/PROJECTS/Mol_Feturizer/New_Systems/rnas/2HO6

>  <Rbt.Executable>
rbdock ($Id: //depot/dev/client3/rdock/2013.1/src/exe/rbdock.cxx#4 $)

>  <Rbt.Library>
libRbt.so (2013.1, Build901 2013/11/27)

>  <Rbt.Parameter_File>
/export/apps/rDock/src/rDock_2013.1_src/data/scripts/dock_solv.prm

>  <Rbt.Receptor>
prm/blind_docking_80.prm

>  <SCORE>
-19.7669

>  <SCORE.INTER>
-19.7073

>  <SCORE.INTER.CONST>
1

>  <SCORE.INTER.POLAR>
-1.3413

>  <SCORE.INTER.ROT>
3

>  <SCORE.INTER.SOLV>
13.0453

>  <SCORE.INTER.VDW>
-18.6156

>  <SCORE.INTER.norm>
-1.64228

>  <SCORE.INTRA>
-0.115439

>  <SCORE.INTRA.DIHEDRAL>
2.29473

>  <SCORE.INTRA.DIHEDRAL.0>
1.88407

>  <SCORE.INTRA.POLAR>
0

>  <SCORE.INTRA.POLAR.0>
0

>  <SCORE.INTRA.REPUL>
0

>  <SCORE.INTRA.REPUL.0>
0

>  <SCORE.INTRA.SOLV>
0.761946

>  <SCORE.INTRA.SOLV.lig_0>
-10.2714

>  <SCORE.INTRA.VDW>
-1.64378

>  <SCORE.INTRA.VDW.0>
0.416923

>  <SCORE.INTRA.norm>
-0.00961991

>  <SCORE.RESTR>
0.0557959

>  <SCORE.RESTR.CAVITY>
0.0557959

>  <SCORE.RESTR.norm>
0.00464966

>  <SCORE.SYSTEM>
0

>  <SCORE.SYSTEM.CONST>
0

>  <SCORE.SYSTEM.DIHEDRAL>
0

>  <SCORE.SYSTEM.SOLV>
0

>  <SCORE.SYSTEM.norm>
0

>  <SCORE.heavy>
12

>  <SCORE.norm>
-1.64725

>  <RMSD>
42.645

$$$$
ligand
 OpenBabel11021811433D
libRbt.so/2013.1/901 2013/11/27
 12 12  0  0  0  0  0  0  0  0999 V2000
    9.4238   -1.7162   -2.7069 O   0  0  0  0  0  0  0  0  0  0  0  0
   10.6496    1.4092    0.1003 O   0  0  0  0  0  0  0  0  0  0  0  0
   10.6875   -1.8854   -1.9961 C   0  0  0  0  0  0  0  0  0  0  0  0
    9.3389    3.4951   -0.0009 O   0  0  0  0  0  0  0  0  0  0  0  0
   11.5449   -0.5880   -2.0570 C   0  0  0  0  0  0  0  0  0  0  0  0
    9.2658    1.9188   -1.1840 O   0  0  0  0  0  0  0  0  0  0  0  0
   10.7917    0.4631   -2.8249 N   0  0  0  0  0  0  0  0  0  0  0  0
   10.4656   -0.0280   -4.1983 C   0  0  0  0  0  0  0  0  0  0  0  0
    9.6672   -1.3587   -4.0993 C   0  0  0  0  0  0  0  0  0  0  0  0
   11.5693    1.7471   -2.9298 C   0  0  0  0  0  0  0  0  0  0  0  0
   10.7734    2.9338   -2.3348 C   0  0  0  0  0  0  0  0  0  0  0  0
   10.3839    2.6460   -0.5925 S   0  0  0  0  0  0  0  0  0  0  0  0
  1  3  1  0  0  0  0
  1  9  1  0  0  0  0
  2 12  1  0  0  0  0
  3  5  1  0  0  0  0
  4 12  2  0  0  0  0
  5  7  1  0  0  0  0
  6 12  2  0  0  0  0
  7  8  1  0  0  0  0
  7 10  1  0  0  0  0
  8  9  1  0  0  0  0
 10 11  1  0  0  0  0
 11 12  1  0  0  0  0
M  END
>  <CHROM.1>
-122.29435977,59.30397123,-6.51754444,10.35156042,0.95011737,-1.88601066
1.43998075,-1.28704305,-2.68610149

>  <Name>
ligand

>  <RI>
0

>  <Rbt.Current_Directory>
/home/itssahil/PROJECTS/Mol_Feturizer/New_Systems/rnas/2HO6

>  <Rbt.Executable>
rbdock ($Id: //depot/dev/client3/rdock/2013.1/src/exe/rbdock.cxx#4 $)

>  <Rbt.Library>
libRbt.so (2013.1, Build901 2013/11/27)

>  <Rbt.Parameter_File>
/export/apps/rDock/src/rDock_2013.1_src/data/scripts/dock_solv.prm

>  <Rbt.Receptor>
prm/blind_docking_80.prm

>  <SCORE>
-19.836

>  <SCORE.INTER>
-19.6628

>  <SCORE.INTER.CONST>
1

>  <SCORE.INTER.POLAR>
-1.34164

>  <SCORE.INTER.ROT>
3

>  <SCORE.INTER.SOLV>
13.1435

>  <SCORE.INTER.VDW>
-18.6175

>  <SCORE.INTER.norm>
-1.63856

>  <SCORE.INTRA>
-0.23341

>  <SCORE.INTRA.DIHEDRAL>
2.28348

>  <SCORE.INTRA.DIHEDRAL.0>
1.88407

>  <SCORE.INTRA.POLAR>
0

>  <SCORE.INTRA.POLAR.0>
0

>  <SCORE.INTRA.REPUL>
0

>  <SCORE.INTRA.REPUL.0>
0

>  <SCORE.INTRA.SOLV>
0.737228

>  <SCORE.INTRA.SOLV.lig_0>
-10.2714

>  <SCORE.INTRA.VDW>
-1.74376

>  <SCORE.INTRA.VDW.0>
0.416923

>  <SCORE.INTRA.norm>
-0.0194508

>  <SCORE.RESTR>
0.06015

>  <SCORE.RESTR.CAVITY>
0.06015

>  <SCORE.RESTR.norm>
0.0050125

>  <SCORE.SYSTEM>
0

>  <SCORE.SYSTEM.CONST>
0

>  <SCORE.SYSTEM.DIHEDRAL>
0

>  <SCORE.SYSTEM.SOLV>
0

>  <SCORE.SYSTEM.norm>
0

>  <SCORE.heavy>
12

>  <SCORE.norm>
-1.653

>  <RMSD>
42.653

$$$$
ligand
 OpenBabel11021811433D
libRbt.so/2013.1/901 2013/11/27
 12 12  0  0  0  0  0  0  0  0999 V2000
    9.6708    3.0178   -1.7194 O   0  0  0  0  0  0  0  0  0  0  0  0
   10.1847   -4.5814   -2.0353 O   0  0  0  0  0  0  0  0  0  0  0  0
   10.8334    2.9307   -2.5978 C   0  0  0  0  0  0  0  0  0  0  0  0
   11.1431   -3.8700    0.1222 O   0  0  0  0  0  0  0  0  0  0  0  0
   11.4066    1.4842   -2.6300 C   0  0  0  0  0  0  0  0  0  0  0  0
    9.2932   -3.6929   -0.5387 O   0  0  0  0  0  0  0  0  0  0  0  0
   10.5657    0.6027   -1.7481 N   0  0  0  0  0  0  0  0  0  0  0  0
   10.5376    1.1364   -0.3524 C   0  0  0  0  0  0  0  0  0  0  0  0
   10.0232    2.6038   -0.3665 C   0  0  0  0  0  0  0  0  0  0  0  0
   11.0704   -0.8147   -1.7262 C   0  0  0  0  0  0  0  0  0  0  0  0
    9.9462   -1.8032   -1.3324 C   0  0  0  0  0  0  0  0  0  0  0  0
   10.5857   -3.4883   -1.1842 S   0  0  0  0  0  0  0  0  0  0  0  0
  1  3  1  0  0  0  0
  1  9  1  0  0  0  0
  2 12  1  0  0  0  0
  3  5  1  0  0  0  0
  4 12  2  0  0  0  0
  5  7  1  0  0  0  0
  6 12  2  0  0  0  0
  7  8  1  0  0  0  0
  7 10  1  0  0  0  0
  8  9  1  0  0  0  0
 10 11  1  0  0  0  0
 11 12  1  0  0  0  0
M  END
>  <CHROM.1>
-156.72768037,-175.66940405,-115.65243210,10.43719405,-0.88424289,-1.31550081
1.52986673,1.22181623,-0.06599901

>  <Name>
ligand

>  <RI>
0

>  <Rbt.Current_Directory>
/home/itssahil/PROJECTS/Mol_Feturizer/New_Systems/rnas/2HO6

>  <Rbt.Executable>
rbdock ($Id: //depot/dev/client3/rdock/2013.1/src/exe/rbdock.cxx#4 $)

>  <Rbt.Library>
libRbt.so (2013.1, Build901 2013/11/27)

>  <Rbt.Parameter_File>
/export/apps/rDock/src/rDock_2013.1_src/data/scripts/dock_solv.prm

>  <Rbt.Receptor>
prm/blind_docking_40.prm

>  <SCORE>
-11.1652

>  <SCORE.INTER>
-10.7309

>  <SCORE.INTER.CONST>
1

>  <SCORE.INTER.POLAR>
0

>  <SCORE.INTER.ROT>
3

>  <SCORE.INTER.SOLV>
7.0996

>  <SCORE.INTER.VDW>
-15.1205

>  <SCORE.INTER.norm>
-0.894242

>  <SCORE.INTRA>
-0.434262

>  <SCORE.INTRA.DIHEDRAL>
0.730129

>  <SCORE.INTRA.DIHEDRAL.0>
1.88407

>  <SCORE.INTRA.POLAR>
0

>  <SCORE.INTRA.POLAR.0>
0

>  <SCORE.INTRA.REPUL>
0

>  <SCORE.INTRA.REPUL.0>
0

>  <SCORE.INTRA.SOLV>
0.02701

>  <SCORE.INTRA.SOLV.lig_0>
-10.2714

>  <SCORE.INTRA.VDW>
-0.812831

>  <SCORE.INTRA.VDW.0>
0.416923

>  <SCORE.INTRA.norm>
-0.0361885

>  <SCORE.RESTR>
0

>  <SCORE.RESTR.CAVITY>
0

>  <SCORE.RESTR.norm>
0

>  <SCORE.SYSTEM>
0

>  <SCORE.SYSTEM.CONST>
0

>  <SCORE.SYSTEM.DIHEDRAL>
0

>  <SCORE.SYSTEM.SOLV>
0

>  <SCORE.SYSTEM.norm>
0

>  <SCORE.heavy>
12

>  <SCORE.norm>
-0.930431

>  <RMSD>
42.666

$$$$
ligand
 OpenBabel11021811433D
libRbt.so/2013.1/901 2013/11/27
 12 12  0  0  0  0  0  0  0  0999 V2000
   11.0778   -4.9176   -0.1394 O   0  0  0  0  0  0  0  0  0  0  0  0
    9.3281    2.5828   -0.6699 O   0  0  0  0  0  0  0  0  0  0  0  0
   12.0132   -4.1351    0.6628 C   0  0  0  0  0  0  0  0  0  0  0  0
   10.3451    1.6355   -2.7065 O   0  0  0  0  0  0  0  0  0  0  0  0
   12.0567   -2.6530    0.1897 C   0  0  0  0  0  0  0  0  0  0  0  0
    8.8114    0.9755   -1.6566 O   0  0  0  0  0  0  0  0  0  0  0  0
   11.0958   -2.4739   -0.9534 N   0  0  0  0  0  0  0  0  0  0  0  0
   11.4379   -3.4033   -2.0726 C   0  0  0  0  0  0  0  0  0  0  0  0
   11.4500   -4.8673   -1.5482 C   0  0  0  0  0  0  0  0  0  0  0  0
   11.0924   -1.0598   -1.4676 C   0  0  0  0  0  0  0  0  0  0  0  0
   10.2799   -0.1275   -0.5367 C   0  0  0  0  0  0  0  0  0  0  0  0
   10.1053    1.5208   -1.2600 S   0  0  0  0  0  0  0  0  0  0  0  0
  1  3  1  0  0  0  0
  1  9  1  0  0  0  0
  2 12  1  0  0  0  0
  3  5  1  0  0  0  0
  4 12  2  0  0  0  0
  5  7  1  0  0  0  0
  6 12  2  0  0  0  0
  7  8  1  0  0  0  0
  7 10  1  0  0  0  0
  8  9  1  0  0  0  0
 10 11  1  0  0  0  0
 11 12  1  0  0  0  0
M  END
>  <CHROM.1>
-77.65577173,-172.97104887,175.85638013,10.66194049,-1.07789039,-1.04749245
-0.20401432,-1.26832014,1.20899307

>  <Name>
ligand

>  <RI>
0

>  <Rbt.Current_Directory>
/home/itssahil/PROJECTS/Mol_Feturizer/New_Systems/rnas/2HO6

>  <Rbt.Executable>
rbdock ($Id: //depot/dev/client3/rdock/2013.1/src/exe/rbdock.cxx#4 $)

>  <Rbt.Library>
libRbt.so (2013.1, Build901 2013/11/27)

>  <Rbt.Parameter_File>
/export/apps/rDock/src/rDock_2013.1_src/data/scripts/dock_solv.prm

>  <Rbt.Receptor>
prm/blind_docking_100.prm

>  <SCORE>
-11.4511

>  <SCORE.INTER>
-11.21

>  <SCORE.INTER.CONST>
1

>  <SCORE.INTER.POLAR>
-1.34013

>  <SCORE.INTER.ROT>
3

>  <SCORE.INTER.SOLV>
5.53296

>  <SCORE.INTER.VDW>
-10.4505

>  <SCORE.INTER.norm>
-0.934163

>  <SCORE.INTRA>
-0.241173

>  <SCORE.INTRA.DIHEDRAL>
0.646761

>  <SCORE.INTRA.DIHEDRAL.0>
1.88407

>  <SCORE.INTRA.POLAR>
0

>  <SCORE.INTRA.POLAR.0>
0

>  <SCORE.INTRA.REPUL>
0

>  <SCORE.INTRA.REPUL.0>
0

>  <SCORE.INTRA.SOLV>
0.2077

>  <SCORE.INTRA.SOLV.lig_0>
-10.2714

>  <SCORE.INTRA.VDW>
-0.668404

>  <SCORE.INTRA.VDW.0>
0.416923

>  <SCORE.INTRA.norm>
-0.0200978

>  <SCORE.RESTR>
0

>  <SCORE.RESTR.CAVITY>
0

>  <SCORE.RESTR.norm>
0

>  <SCORE.SYSTEM>
0

>  <SCORE.SYSTEM.CONST>
0

>  <SCORE.SYSTEM.DIHEDRAL>
0

>  <SCORE.SYSTEM.SOLV>
0

>  <SCORE.SYSTEM.norm>
0

>  <SCORE.heavy>
12

>  <SCORE.norm>
-0.954261

>  <RMSD>
42.687

$$$$
ligand
 OpenBabel11021811433D
libRbt.so/2013.1/901 2013/11/27
 12 12  0  0  0  0  0  0  0  0999 V2000
    8.4834   -2.2496    1.2421 O   0  0  0  0  0  0  0  0  0  0  0  0
   10.5142    2.5233   -2.7304 O   0  0  0  0  0  0  0  0  0  0  0  0
    9.2519   -2.0558    2.4679 C   0  0  0  0  0  0  0  0  0  0  0  0
    8.8215    0.9962   -1.7912 O   0  0  0  0  0  0  0  0  0  0  0  0
   10.3549   -0.9750    2.2751 C   0  0  0  0  0  0  0  0  0  0  0  0
    9.2742    2.8384   -1.2516 O   0  0  0  0  0  0  0  0  0  0  0  0
   10.2795   -0.4410    0.8712 N   0  0  0  0  0  0  0  0  0  0  0  0
   10.4383   -1.5502   -0.1177 C   0  0  0  0  0  0  0  0  0  0  0  0
    9.3627   -2.6416    0.1470 C   0  0  0  0  0  0  0  0  0  0  0  0
   11.3275    0.6072    0.6121 C   0  0  0  0  0  0  0  0  0  0  0  0
   10.6929    1.9124    0.0739 C   0  0  0  0  0  0  0  0  0  0  0  0
   10.1036    1.6967   -1.6221 S   0  0  0  0  0  0  0  0  0  0  0  0
  1  3  1  0  0  0  0
  1  9  1  0  0  0  0
  2 12  1  0  0  0  0
  3  5  1  0  0  0  0
  4 12  2  0  0  0  0
  5  7  1  0  0  0  0
  6 12  2  0  0  0  0
  7  8  1  0  0  0  0
  7 10  1  0  0  0  0
  8  9  1  0  0  0  0
 10 11  1  0  0  0  0
 11 12  1  0  0  0  0
M  END
>  <CHROM.1>
-126.09669171,-71.33432905,-124.02101616,9.90094852,0.24703056,-0.18399891
1.71987640,0.90832577,2.35857953

>  <Name>
ligand

>  <RI>
0

>  <Rbt.Current_Directory>
/home/itssahil/PROJECTS/Mol_Feturizer/New_Systems/rnas/2HO6

>  <Rbt.Executable>
rbdock ($Id: //depot/dev/client3/rdock/2013.1/src/exe/rbdock.cxx#4 $)

>  <Rbt.Library>
libRbt.so (2013.1, Build901 2013/11/27)

>  <Rbt.Parameter_File>
/export/apps/rDock/src/rDock_2013.1_src/data/scripts/dock_solv.prm

>  <Rbt.Receptor>
prm/blind_docking_40.prm

>  <SCORE>
-15.1608

>  <SCORE.INTER>
-15.0085

>  <SCORE.INTER.CONST>
1

>  <SCORE.INTER.POLAR>
-1.3411

>  <SCORE.INTER.ROT>
3

>  <SCORE.INTER.SOLV>
8.13532

>  <SCORE.INTER.VDW>
-13.8471

>  <SCORE.INTER.norm>
-1.25071

>  <SCORE.INTRA>
-0.15229

>  <SCORE.INTRA.DIHEDRAL>
2.69604

>  <SCORE.INTRA.DIHEDRAL.0>
1.88407

>  <SCORE.INTRA.POLAR>
0

>  <SCORE.INTRA.POLAR.0>
0

>  <SCORE.INTRA.REPUL>
0

>  <SCORE.INTRA.REPUL.0>
0

>  <SCORE.INTRA.SOLV>
0.72461

>  <SCORE.INTRA.SOLV.lig_0>
-10.2714

>  <SCORE.INTRA.VDW>
-1.86262

>  <SCORE.INTRA.VDW.0>
0.416923

>  <SCORE.INTRA.norm>
-0.0126908

>  <SCORE.RESTR>
0

>  <SCORE.RESTR.CAVITY>
0

>  <SCORE.RESTR.norm>
0

>  <SCORE.SYSTEM>
0

>  <SCORE.SYSTEM.CONST>
0

>  <SCORE.SYSTEM.DIHEDRAL>
0

>  <SCORE.SYSTEM.SOLV>
0

>  <SCORE.SYSTEM.norm>
0

>  <SCORE.heavy>
12

>  <SCORE.norm>
-1.2634

>  <RMSD>
42.692

$$$$
ligand
 OpenBabel11021811433D
libRbt.so/2013.1/901 2013/11/27
 12 12  0  0  0  0  0  0  0  0999 V2000
   11.1414    1.0429    1.0213 O   0  0  0  0  0  0  0  0  0  0  0  0
    7.2266   -3.3163    0.9127 O   0  0  0  0  0  0  0  0  0  0  0  0
   11.0997    0.8616   -0.4265 C   0  0  0  0  0  0  0  0  0  0  0  0
    8.1366   -1.1772    0.0910 O   0  0  0  0  0  0  0  0  0  0  0  0
   11.0873   -0.6481   -0.8041 C   0  0  0  0  0  0  0  0  0  0  0  0
    7.7302   -2.8260   -0.9121 O   0  0  0  0  0  0  0  0  0  0  0  0
   11.1047   -1.4697    0.4555 N   0  0  0  0  0  0  0  0  0  0  0  0
   12.3049   -1.1340    1.2803 C   0  0  0  0  0  0  0  0  0  0  0  0
   12.3193    0.3915    1.5818 C   0  0  0  0  0  0  0  0  0  0  0  0
   11.1019   -2.9457    0.1631 C   0  0  0  0  0  0  0  0  0  0  0  0
    9.7548   -3.3914   -0.4554 C   0  0  0  0  0  0  0  0  0  0  0  0
    8.3617   -2.6008    0.3838 S   0  0  0  0  0  0  0  0  0  0  0  0
  1  3  1  0  0  0  0
  1  9  1  0  0  0  0
  2 12  1  0  0  0  0
  3  5  1  0  0  0  0
  4 12  2  0  0  0  0
  5  7  1  0  0  0  0
  6 12  2  0  0  0  0
  7  8  1  0  0  0  0
  7 10  1  0  0  0  0
  8  9  1  0  0  0  0
 10 11  1  0  0  0  0
 11 12  1  0  0  0  0
M  END
>  <CHROM.1>
-68.11558383,-41.91071863,-128.38421308,9.88810822,-1.54819552,0.28458858
0.67812852,-0.14109926,0.03113222

>  <Name>
ligand

>  <RI>
0

>  <Rbt.Current_Directory>
/home/itssahil/PROJECTS/Mol_Feturizer/New_Systems/rnas/2HO6

>  <Rbt.Executable>
rbdock ($Id: //depot/dev/client3/rdock/2013.1/src/exe/rbdock.cxx#4 $)

>  <Rbt.Library>
libRbt.so (2013.1, Build901 2013/11/27)

>  <Rbt.Parameter_File>
/export/apps/rDock/src/rDock_2013.1_src/data/scripts/dock_solv.prm

>  <Rbt.Receptor>
prm/blind_docking_40.prm

>  <SCORE>
-15.6126

>  <SCORE.INTER>
-15.3644

>  <SCORE.INTER.CONST>
1

>  <SCORE.INTER.POLAR>
-2.20537

>  <SCORE.INTER.ROT>
3

>  <SCORE.INTER.SOLV>
8.7994

>  <SCORE.INTER.VDW>
-11.4248

>  <SCORE.INTER.norm>
-1.28037

>  <SCORE.INTRA>
-0.248204

>  <SCORE.INTRA.DIHEDRAL>
1.19103

>  <SCORE.INTRA.DIHEDRAL.0>
1.88407

>  <SCORE.INTRA.POLAR>
0

>  <SCORE.INTRA.POLAR.0>
0

>  <SCORE.INTRA.REPUL>
0

>  <SCORE.INTRA.REPUL.0>
0

>  <SCORE.INTRA.SOLV>
1.18088

>  <SCORE.INTRA.SOLV.lig_0>
-10.2714

>  <SCORE.INTRA.VDW>
-1.43416

>  <SCORE.INTRA.VDW.0>
0.416923

>  <SCORE.INTRA.norm>
-0.0206837

>  <SCORE.RESTR>
0

>  <SCORE.RESTR.CAVITY>
0

>  <SCORE.RESTR.norm>
0

>  <SCORE.SYSTEM>
0

>  <SCORE.SYSTEM.CONST>
0

>  <SCORE.SYSTEM.DIHEDRAL>
0

>  <SCORE.SYSTEM.SOLV>
0

>  <SCORE.SYSTEM.norm>
0

>  <SCORE.heavy>
12

>  <SCORE.norm>
-1.30105

>  <RMSD>
42.694

$$$$
ligand
 OpenBabel11021811433D
libRbt.so/2013.1/901 2013/11/27
 12 12  0  0  0  0  0  0  0  0999 V2000
   10.3158   -3.8504   -0.6034 O   0  0  0  0  0  0  0  0  0  0  0  0
    8.9458   -0.0984   -0.5453 O   0  0  0  0  0  0  0  0  0  0  0  0
   11.4773   -3.6362    0.2544 C   0  0  0  0  0  0  0  0  0  0  0  0
    9.3076    2.3046   -0.9621 O   0  0  0  0  0  0  0  0  0  0  0  0
   12.2235   -2.3246   -0.1266 C   0  0  0  0  0  0  0  0  0  0  0  0
    9.0078    0.8467   -2.2561 O   0  0  0  0  0  0  0  0  0  0  0  0
   11.5001   -1.6610   -1.2659 N   0  0  0  0  0  0  0  0  0  0  0  0
   11.4115   -2.5859   -2.4365 C   0  0  0  0  0  0  0  0  0  0  0  0
   10.7209   -3.9100   -2.0028 C   0  0  0  0  0  0  0  0  0  0  0  0
   12.1748   -0.3856   -1.6926 C   0  0  0  0  0  0  0  0  0  0  0  0
   11.1483    0.6339   -2.2429 C   0  0  0  0  0  0  0  0  0  0  0  0
    9.8228    0.9299   -1.0488 S   0  0  0  0  0  0  0  0  0  0  0  0
  1  3  1  0  0  0  0
  1  9  1  0  0  0  0
  2 12  1  0  0  0  0
  3  5  1  0  0  0  0
  4 12  2  0  0  0  0
  5  7  1  0  0  0  0
  6 12  2  0  0  0  0
  7  8  1  0  0  0  0
  7 10  1  0  0  0  0
  8  9  1  0  0  0  0
 10 11  1  0  0  0  0
 11 12  1  0  0  0  0
M  END
>  <CHROM.1>
-149.33332492,54.35602783,-59.60872481,10.54059974,-0.91367727,-1.21973541
1.19662057,-0.38904230,2.90496623

>  <Name>
ligand

>  <RI>
0

>  <Rbt.Current_Directory>
/home/itssahil/PROJECTS/Mol_Feturizer/New_Systems/rnas/2HO6

>  <Rbt.Executable>
rbdock ($Id: //depot/dev/client3/rdock/2013.1/src/exe/rbdock.cxx#4 $)

>  <Rbt.Library>
libRbt.so (2013.1, Build901 2013/11/27)

>  <Rbt.Parameter_File>
/export/apps/rDock/src/rDock_2013.1_src/data/scripts/dock_solv.prm

>  <Rbt.Receptor>
prm/blind_docking_60.prm

>  <SCORE>
-12.9902

>  <SCORE.INTER>
-11.8741

>  <SCORE.INTER.CONST>
1

>  <SCORE.INTER.POLAR>
-2.24019

>  <SCORE.INTER.ROT>
3

>  <SCORE.INTER.SOLV>
9.26295

>  <SCORE.INTER.VDW>
-9.1364

>  <SCORE.INTER.norm>
-0.989506

>  <SCORE.INTRA>
-1.11608

>  <SCORE.INTRA.DIHEDRAL>
1.18053

>  <SCORE.INTRA.DIHEDRAL.0>
1.88407

>  <SCORE.INTRA.POLAR>
0

>  <SCORE.INTRA.POLAR.0>
0

>  <SCORE.INTRA.REPUL>
0

>  <SCORE.INTRA.REPUL.0>
0

>  <SCORE.INTRA.SOLV>
0.277621

>  <SCORE.INTRA.SOLV.lig_0>
-10.2714

>  <SCORE.INTRA.VDW>
-1.84515

>  <SCORE.INTRA.VDW.0>
0.416923

>  <SCORE.INTRA.norm>
-0.0930064

>  <SCORE.RESTR>
0

>  <SCORE.RESTR.CAVITY>
0

>  <SCORE.RESTR.norm>
0

>  <SCORE.SYSTEM>
0

>  <SCORE.SYSTEM.CONST>
0

>  <SCORE.SYSTEM.DIHEDRAL>
0

>  <SCORE.SYSTEM.SOLV>
0

>  <SCORE.SYSTEM.norm>
0

>  <SCORE.heavy>
12

>  <SCORE.norm>
-1.08251

>  <RMSD>
42.698

$$$$
ligand
 OpenBabel11021811433D
libRbt.so/2013.1/901 2013/11/27
 12 12  0  0  0  0  0  0  0  0999 V2000
    9.4550    2.2449   -0.6390 O   0  0  0  0  0  0  0  0  0  0  0  0
    9.8177   -3.6798   -2.8542 O   0  0  0  0  0  0  0  0  0  0  0  0
   10.1135    3.1462   -1.5796 C   0  0  0  0  0  0  0  0  0  0  0  0
   11.1674   -2.2166   -1.3994 O   0  0  0  0  0  0  0  0  0  0  0  0
   10.9068    2.3521   -2.6577 C   0  0  0  0  0  0  0  0  0  0  0  0
    9.4378   -1.8514   -2.2741 O   0  0  0  0  0  0  0  0  0  0  0  0
   10.7358    0.8790   -2.4077 N   0  0  0  0  0  0  0  0  0  0  0  0
   11.2017    0.5261   -1.0322 C   0  0  0  0  0  0  0  0  0  0  0  0
   10.4355    1.3853    0.0133 C   0  0  0  0  0  0  0  0  0  0  0  0
   11.4862    0.0480   -3.4130 C   0  0  0  0  0  0  0  0  0  0  0  0
   10.6230   -1.1329   -3.9192 C   0  0  0  0  0  0  0  0  0  0  0  0
   10.6522   -2.5085   -2.7456 S   0  0  0  0  0  0  0  0  0  0  0  0
  1  3  1  0  0  0  0
  1  9  1  0  0  0  0
  2 12  1  0  0  0  0
  3  5  1  0  0  0  0
  4 12  2  0  0  0  0
  5  7  1  0  0  0  0
  6 12  2  0  0  0  0
  7  8  1  0  0  0  0
  7 10  1  0  0  0  0
  8  9  1  0  0  0  0
 10 11  1  0  0  0  0
 11 12  1  0  0  0  0
M  END
>  <CHROM.1>
-135.92639647,-81.04845729,171.98117267,10.49490950,-0.34720864,-2.12633298
1.60480527,1.29237557,0.24510305

>  <Name>
ligand

>  <RI>
0

>  <Rbt.Current_Directory>
/home/itssahil/PROJECTS/Mol_Feturizer/New_Systems/rnas/2HO6

>  <Rbt.Executable>
rbdock ($Id: //depot/dev/client3/rdock/2013.1/src/exe/rbdock.cxx#4 $)

>  <Rbt.Library>
libRbt.so (2013.1, Build901 2013/11/27)

>  <Rbt.Parameter_File>
/export/apps/rDock/src/rDock_2013.1_src/data/scripts/dock_solv.prm

>  <Rbt.Receptor>
prm/blind_docking_40.prm

>  <SCORE>
-15.0717

>  <SCORE.INTER>
-16.4049

>  <SCORE.INTER.CONST>
1

>  <SCORE.INTER.POLAR>
-1.34164

>  <SCORE.INTER.ROT>
3

>  <SCORE.INTER.SOLV>
7.49046

>  <SCORE.INTER.VDW>
-14.5613

>  <SCORE.INTER.norm>
-1.36707

>  <SCORE.INTRA>
1.3332

>  <SCORE.INTRA.DIHEDRAL>
3.38884

>  <SCORE.INTRA.DIHEDRAL.0>
1.88407

>  <SCORE.INTRA.POLAR>
0

>  <SCORE.INTRA.POLAR.0>
0

>  <SCORE.INTRA.REPUL>
0

>  <SCORE.INTRA.REPUL.0>
0

>  <SCORE.INTRA.SOLV>
1.41981

>  <SCORE.INTRA.SOLV.lig_0>
-10.2714

>  <SCORE.INTRA.VDW>
-1.07112

>  <SCORE.INTRA.VDW.0>
0.416923

>  <SCORE.INTRA.norm>
0.1111

>  <SCORE.RESTR>
0

>  <SCORE.RESTR.CAVITY>
0

>  <SCORE.RESTR.norm>
0

>  <SCORE.SYSTEM>
0

>  <SCORE.SYSTEM.CONST>
0

>  <SCORE.SYSTEM.DIHEDRAL>
0

>  <SCORE.SYSTEM.SOLV>
0

>  <SCORE.SYSTEM.norm>
0

>  <SCORE.heavy>
12

>  <SCORE.norm>
-1.25597

>  <RMSD>
42.699

$$$$
ligand
 OpenBabel11021811433D
libRbt.so/2013.1/901 2013/11/27
 12 12  0  0  0  0  0  0  0  0999 V2000
    8.4489   -2.2305    1.2538 O   0  0  0  0  0  0  0  0  0  0  0  0
   10.5453    2.4951   -2.7380 O   0  0  0  0  0  0  0  0  0  0  0  0
    9.2129   -2.0389    2.4827 C   0  0  0  0  0  0  0  0  0  0  0  0
    8.8372    0.9834   -1.8017 O   0  0  0  0  0  0  0  0  0  0  0  0
   10.3244   -0.9663    2.2924 C   0  0  0  0  0  0  0  0  0  0  0  0
    9.2924    2.8285   -1.2741 O   0  0  0  0  0  0  0  0  0  0  0  0
   10.2593   -0.4354    0.8868 N   0  0  0  0  0  0  0  0  0  0  0  0
   10.4150   -1.5484   -0.0985 C   0  0  0  0  0  0  0  0  0  0  0  0
    9.3305   -2.6315    0.1639 C   0  0  0  0  0  0  0  0  0  0  0  0
   11.3158    0.6047    0.6299 C   0  0  0  0  0  0  0  0  0  0  0  0
   10.6944    1.9084    0.0732 C   0  0  0  0  0  0  0  0  0  0  0  0
   10.1205    1.6801   -1.6264 S   0  0  0  0  0  0  0  0  0  0  0  0
  1  3  1  0  0  0  0
  1  9  1  0  0  0  0
  2 12  1  0  0  0  0
  3  5  1  0  0  0  0
  4 12  2  0  0  0  0
  5  7  1  0  0  0  0
  6 12  2  0  0  0  0
  7  8  1  0  0  0  0
  7 10  1  0  0  0  0
  8  9  1  0  0  0  0
 10 11  1  0  0  0  0
 11 12  1  0  0  0  0
M  END
>  <CHROM.1>
-126.61397532,-71.25803418,-124.12687503,9.89503760,0.24433450,-0.17978606
1.73731100,0.90925400,2.33672024

>  <Name>
ligand

>  <RI>
0

>  <Rbt.Current_Directory>
/home/itssahil/PROJECTS/Mol_Feturizer/New_Systems/rnas/2HO6

>  <Rbt.Executable>
rbdock ($Id: //depot/dev/client3/rdock/2013.1/src/exe/rbdock.cxx#4 $)

>  <Rbt.Library>
libRbt.so (2013.1, Build901 2013/11/27)

>  <Rbt.Parameter_File>
/export/apps/rDock/src/rDock_2013.1_src/data/scripts/dock_solv.prm

>  <Rbt.Receptor>
prm/blind_docking_40.prm

>  <SCORE>
-15.1894

>  <SCORE.INTER>
-15.0291

>  <SCORE.INTER.CONST>
1

>  <SCORE.INTER.POLAR>
-1.34164

>  <SCORE.INTER.ROT>
3

>  <SCORE.INTER.SOLV>
8.20224

>  <SCORE.INTER.VDW>
-13.8813

>  <SCORE.INTER.norm>
-1.25242

>  <SCORE.INTRA>
-0.160339

>  <SCORE.INTRA.DIHEDRAL>
2.67685

>  <SCORE.INTRA.DIHEDRAL.0>
1.88407

>  <SCORE.INTRA.POLAR>
0

>  <SCORE.INTRA.POLAR.0>
0

>  <SCORE.INTRA.REPUL>
0

>  <SCORE.INTRA.REPUL.0>
0

>  <SCORE.INTRA.SOLV>
0.729636

>  <SCORE.INTRA.SOLV.lig_0>
-10.2714

>  <SCORE.INTRA.VDW>
-1.86358

>  <SCORE.INTRA.VDW.0>
0.416923

>  <SCORE.INTRA.norm>
-0.0133616

>  <SCORE.RESTR>
0

>  <SCORE.RESTR.CAVITY>
0

>  <SCORE.RESTR.norm>
0

>  <SCORE.SYSTEM>
0

>  <SCORE.SYSTEM.CONST>
0

>  <SCORE.SYSTEM.DIHEDRAL>
0

>  <SCORE.SYSTEM.SOLV>
0

>  <SCORE.SYSTEM.norm>
0

>  <SCORE.heavy>
12

>  <SCORE.norm>
-1.26578

>  <RMSD>
42.700

$$$$
ligand
 OpenBabel11021811433D
libRbt.so/2013.1/901 2013/11/27
 12 12  0  0  0  0  0  0  0  0999 V2000
   11.4842   -3.3169    2.5411 O   0  0  0  0  0  0  0  0  0  0  0  0
   11.0539   -1.0278   -2.2043 O   0  0  0  0  0  0  0  0  0  0  0  0
   11.8386   -2.1100    1.8007 C   0  0  0  0  0  0  0  0  0  0  0  0
    9.0528   -1.6144   -3.5200 O   0  0  0  0  0  0  0  0  0  0  0  0
   11.8673   -2.3786    0.2680 C   0  0  0  0  0  0  0  0  0  0  0  0
    9.3842   -1.8384   -1.5887 O   0  0  0  0  0  0  0  0  0  0  0  0
   11.4989   -3.8145    0.0140 N   0  0  0  0  0  0  0  0  0  0  0  0
   12.4359   -4.7285    0.7352 C   0  0  0  0  0  0  0  0  0  0  0  0
   12.4310   -4.3875    2.2524 C   0  0  0  0  0  0  0  0  0  0  0  0
   11.5145   -4.1470   -1.4535 C   0  0  0  0  0  0  0  0  0  0  0  0
   10.1750   -3.7648   -2.1284 C   0  0  0  0  0  0  0  0  0  0  0  0
   10.2253   -2.0703   -2.7582 S   0  0  0  0  0  0  0  0  0  0  0  0
  1  3  1  0  0  0  0
  1  9  1  0  0  0  0
  2 12  1  0  0  0  0
  3  5  1  0  0  0  0
  4 12  2  0  0  0  0
  5  7  1  0  0  0  0
  6 12  2  0  0  0  0
  7  8  1  0  0  0  0
  7 10  1  0  0  0  0
  8  9  1  0  0  0  0
 10 11  1  0  0  0  0
 11 12  1  0  0  0  0
M  END
>  <CHROM.1>
-84.35390367,90.19824952,-27.34611211,10.96672180,-2.81304507,-0.74087818
0.27974257,-1.13231232,0.68566240

>  <Name>
ligand

>  <RI>
0

>  <Rbt.Current_Directory>
/home/itssahil/PROJECTS/Mol_Feturizer/New_Systems/rnas/2HO6

>  <Rbt.Executable>
rbdock ($Id: //depot/dev/client3/rdock/2013.1/src/exe/rbdock.cxx#4 $)

>  <Rbt.Library>
libRbt.so (2013.1, Build901 2013/11/27)

>  <Rbt.Parameter_File>
/export/apps/rDock/src/rDock_2013.1_src/data/scripts/dock_solv.prm

>  <Rbt.Receptor>
prm/blind_docking_80.prm

>  <SCORE>
-9.74256

>  <SCORE.INTER>
-10.3156

>  <SCORE.INTER.CONST>
1

>  <SCORE.INTER.POLAR>
-2.21553

>  <SCORE.INTER.ROT>
3

>  <SCORE.INTER.SOLV>
8.60064

>  <SCORE.INTER.VDW>
-7.95883

>  <SCORE.INTER.norm>
-0.859632

>  <SCORE.INTRA>
0.573029

>  <SCORE.INTRA.DIHEDRAL>
3.56249

>  <SCORE.INTRA.DIHEDRAL.0>
1.88407

>  <SCORE.INTRA.POLAR>
0

>  <SCORE.INTRA.POLAR.0>
0

>  <SCORE.INTRA.REPUL>
0

>  <SCORE.INTRA.REPUL.0>
0

>  <SCORE.INTRA.SOLV>
0.38466

>  <SCORE.INTRA.SOLV.lig_0>
-10.2714

>  <SCORE.INTRA.VDW>
-1.40054

>  <SCORE.INTRA.VDW.0>
0.416923

>  <SCORE.INTRA.norm>
0.0477524

>  <SCORE.RESTR>
0

>  <SCORE.RESTR.CAVITY>
0

>  <SCORE.RESTR.norm>
0

>  <SCORE.SYSTEM>
0

>  <SCORE.SYSTEM.CONST>
0

>  <SCORE.SYSTEM.DIHEDRAL>
0

>  <SCORE.SYSTEM.SOLV>
0

>  <SCORE.SYSTEM.norm>
0

>  <SCORE.heavy>
12

>  <SCORE.norm>
-0.81188

>  <RMSD>
42.702

$$$$
ligand
 OpenBabel11021811433D
libRbt.so/2013.1/901 2013/11/27
 12 12  0  0  0  0  0  0  0  0999 V2000
   10.2153    2.2723   -2.7036 O   0  0  0  0  0  0  0  0  0  0  0  0
   10.3829   -2.0817   -2.8392 O   0  0  0  0  0  0  0  0  0  0  0  0
   11.4200    1.4865   -2.9525 C   0  0  0  0  0  0  0  0  0  0  0  0
   10.0466   -4.1394   -1.5231 O   0  0  0  0  0  0  0  0  0  0  0  0
   11.6131    0.3927   -1.8623 C   0  0  0  0  0  0  0  0  0  0  0  0
    8.8047   -2.6376   -1.8272 O   0  0  0  0  0  0  0  0  0  0  0  0
   10.4747    0.4694   -0.8824 N   0  0  0  0  0  0  0  0  0  0  0  0
   10.4059    1.8304   -0.2689 C   0  0  0  0  0  0  0  0  0  0  0  0
   10.2803    2.9010   -1.3897 C   0  0  0  0  0  0  0  0  0  0  0  0
   10.6024   -0.5595    0.2081 C   0  0  0  0  0  0  0  0  0  0  0  0
    9.6907   -1.7803   -0.0644 C   0  0  0  0  0  0  0  0  0  0  0  0
   10.2337   -2.6807   -1.5357 S   0  0  0  0  0  0  0  0  0  0  0  0
  1  3  1  0  0  0  0
  1  9  1  0  0  0  0
  2 12  1  0  0  0  0
  3  5  1  0  0  0  0
  4 12  2  0  0  0  0
  5  7  1  0  0  0  0
  6 12  2  0  0  0  0
  7  8  1  0  0  0  0
  7 10  1  0  0  0  0
  8  9  1  0  0  0  0
 10 11  1  0  0  0  0
 11 12  1  0  0  0  0
M  END
>  <CHROM.1>
-100.38252440,66.02200510,-56.19957558,10.31723167,-0.64277468,-1.50683058
-0.82752634,-1.35251193,-2.44433871

>  <Name>
ligand

>  <RI>
0

>  <Rbt.Current_Directory>
/home/itssahil/PROJECTS/Mol_Feturizer/New_Systems/rnas/2HO6

>  <Rbt.Executable>
rbdock ($Id: //depot/dev/client3/rdock/2013.1/src/exe/rbdock.cxx#4 $)

>  <Rbt.Library>
libRbt.so (2013.1, Build901 2013/11/27)

>  <Rbt.Parameter_File>
/export/apps/rDock/src/rDock_2013.1_src/data/scripts/dock_solv.prm

>  <Rbt.Receptor>
prm/blind_docking_20.prm

>  <SCORE>
-13.9943

>  <SCORE.INTER>
-13.3354

>  <SCORE.INTER.CONST>
1

>  <SCORE.INTER.POLAR>
-1.34164

>  <SCORE.INTER.ROT>
3

>  <SCORE.INTER.SOLV>
8.78832

>  <SCORE.INTER.VDW>
-12.9476

>  <SCORE.INTER.norm>
-1.11128

>  <SCORE.INTRA>
-0.658891

>  <SCORE.INTRA.DIHEDRAL>
1.9095

>  <SCORE.INTRA.DIHEDRAL.0>
1.88407

>  <SCORE.INTRA.POLAR>
0

>  <SCORE.INTRA.POLAR.0>
0

>  <SCORE.INTRA.REPUL>
0

>  <SCORE.INTRA.REPUL.0>
0

>  <SCORE.INTRA.SOLV>
0.186753

>  <SCORE.INTRA.SOLV.lig_0>
-10.2714

>  <SCORE.INTRA.VDW>
-1.70702

>  <SCORE.INTRA.VDW.0>
0.416923

>  <SCORE.INTRA.norm>
-0.0549076

>  <SCORE.RESTR>
0

>  <SCORE.RESTR.CAVITY>
0

>  <SCORE.RESTR.norm>
0

>  <SCORE.SYSTEM>
0

>  <SCORE.SYSTEM.CONST>
0

>  <SCORE.SYSTEM.DIHEDRAL>
0

>  <SCORE.SYSTEM.SOLV>
0

>  <SCORE.SYSTEM.norm>
0

>  <SCORE.heavy>
12

>  <SCORE.norm>
-1.16619

>  <RMSD>
42.714

$$$$
ligand
 OpenBabel11021811433D
libRbt.so/2013.1/901 2013/11/27
 12 12  0  0  0  0  0  0  0  0999 V2000
    9.9985    2.5346   -2.3237 O   0  0  0  0  0  0  0  0  0  0  0  0
   10.4041   -1.7340   -3.3855 O   0  0  0  0  0  0  0  0  0  0  0  0
   11.1982    1.9057   -2.8677 C   0  0  0  0  0  0  0  0  0  0  0  0
   10.2256   -4.0167   -2.4708 O   0  0  0  0  0  0  0  0  0  0  0  0
   11.5764    0.6273   -2.0648 C   0  0  0  0  0  0  0  0  0  0  0  0
    8.9395   -2.5256   -2.3597 O   0  0  0  0  0  0  0  0  0  0  0  0
   10.5666    0.4181   -0.9700 N   0  0  0  0  0  0  0  0  0  0  0  0
   10.5112    1.6147   -0.0763 C   0  0  0  0  0  0  0  0  0  0  0  0
   10.1972    2.8816   -0.9216 C   0  0  0  0  0  0  0  0  0  0  0  0
   10.8769   -0.8018   -0.1455 C   0  0  0  0  0  0  0  0  0  0  0  0
    9.9806   -1.9960   -0.5533 C   0  0  0  0  0  0  0  0  0  0  0  0
   10.3905   -2.5777   -2.2158 S   0  0  0  0  0  0  0  0  0  0  0  0
  1  3  1  0  0  0  0
  1  9  1  0  0  0  0
  2 12  1  0  0  0  0
  3  5  1  0  0  0  0
  4 12  2  0  0  0  0
  5  7  1  0  0  0  0
  6 12  2  0  0  0  0
  7  8  1  0  0  0  0
  7 10  1  0  0  0  0
  8  9  1  0  0  0  0
 10 11  1  0  0  0  0
 11 12  1  0  0  0  0
M  END
>  <CHROM.1>
-101.29305583,67.98884478,-54.96338673,10.38318058,-0.56272912,-1.78268149
-0.45312184,-1.46375096,-1.86994397

>  <Name>
ligand

>  <RI>
0

>  <Rbt.Current_Directory>
/home/itssahil/PROJECTS/Mol_Feturizer/New_Systems/rnas/2HO6

>  <Rbt.Executable>
rbdock ($Id: //depot/dev/client3/rdock/2013.1/src/exe/rbdock.cxx#4 $)

>  <Rbt.Library>
libRbt.so (2013.1, Build901 2013/11/27)

>  <Rbt.Parameter_File>
/export/apps/rDock/src/rDock_2013.1_src/data/scripts/dock_solv.prm

>  <Rbt.Receptor>
prm/blind_docking_80.prm

>  <SCORE>
-13.8784

>  <SCORE.INTER>
-13.2567

>  <SCORE.INTER.CONST>
1

>  <SCORE.INTER.POLAR>
-1.34164

>  <SCORE.INTER.ROT>
3

>  <SCORE.INTER.SOLV>
9.73778

>  <SCORE.INTER.VDW>
-13.2116

>  <SCORE.INTER.norm>
-1.10473

>  <SCORE.INTRA>
-0.621703

>  <SCORE.INTRA.DIHEDRAL>
2.05293

>  <SCORE.INTRA.DIHEDRAL.0>
1.88407

>  <SCORE.INTRA.POLAR>
0

>  <SCORE.INTRA.POLAR.0>
0

>  <SCORE.INTRA.REPUL>
0

>  <SCORE.INTRA.REPUL.0>
0

>  <SCORE.INTRA.SOLV>
0.18801

>  <SCORE.INTRA.SOLV.lig_0>
-10.2714

>  <SCORE.INTRA.VDW>
-1.74217

>  <SCORE.INTRA.VDW.0>
0.416923

>  <SCORE.INTRA.norm>
-0.0518086

>  <SCORE.RESTR>
0

>  <SCORE.RESTR.CAVITY>
0

>  <SCORE.RESTR.norm>
0

>  <SCORE.SYSTEM>
0

>  <SCORE.SYSTEM.CONST>
0

>  <SCORE.SYSTEM.DIHEDRAL>
0

>  <SCORE.SYSTEM.SOLV>
0

>  <SCORE.SYSTEM.norm>
0

>  <SCORE.heavy>
12

>  <SCORE.norm>
-1.15653

>  <RMSD>
42.726

$$$$
ligand
 OpenBabel11021811433D
libRbt.so/2013.1/901 2013/11/27
 12 12  0  0  0  0  0  0  0  0999 V2000
    9.8018   -2.1886   -3.3790 O   0  0  0  0  0  0  0  0  0  0  0  0
    9.7988    3.1842   -1.1305 O   0  0  0  0  0  0  0  0  0  0  0  0
   10.4189   -3.1494   -2.4696 C   0  0  0  0  0  0  0  0  0  0  0  0
    8.7753    0.9942   -1.6161 O   0  0  0  0  0  0  0  0  0  0  0  0
   11.1971   -2.4269   -1.3318 C   0  0  0  0  0  0  0  0  0  0  0  0
    8.9957    1.9100    0.1167 O   0  0  0  0  0  0  0  0  0  0  0  0
   11.0589   -0.9399   -1.5095 N   0  0  0  0  0  0  0  0  0  0  0  0
   11.5675   -0.5259   -2.8525 C   0  0  0  0  0  0  0  0  0  0  0  0
   10.8144   -1.3155   -3.9604 C   0  0  0  0  0  0  0  0  0  0  0  0
   11.7968   -0.1761   -0.4436 C   0  0  0  0  0  0  0  0  0  0  0  0
   10.8855    0.8872    0.2157 C   0  0  0  0  0  0  0  0  0  0  0  0
    9.8905    1.7487   -1.0244 S   0  0  0  0  0  0  0  0  0  0  0  0
  1  3  1  0  0  0  0
  1  9  1  0  0  0  0
  2 12  1  0  0  0  0
  3  5  1  0  0  0  0
  4 12  2  0  0  0  0
  5  7  1  0  0  0  0
  6 12  2  0  0  0  0
  7  8  1  0  0  0  0
  7 10  1  0  0  0  0
  8  9  1  0  0  0  0
 10 11  1  0  0  0  0
 11 12  1  0  0  0  0
M  END
>  <CHROM.1>
-129.31655524,-42.28265252,-129.19787461,10.32419801,0.05778433,-1.55596437
1.21761089,0.89756627,-2.40490391

>  <Name>
ligand

>  <RI>
0

>  <Rbt.Current_Directory>
/home/itssahil/PROJECTS/Mol_Feturizer/New_Systems/rnas/2HO6

>  <Rbt.Executable>
rbdock ($Id: //depot/dev/client3/rdock/2013.1/src/exe/rbdock.cxx#4 $)

>  <Rbt.Library>
libRbt.so (2013.1, Build901 2013/11/27)

>  <Rbt.Parameter_File>
/export/apps/rDock/src/rDock_2013.1_src/data/scripts/dock_solv.prm

>  <Rbt.Receptor>
prm/blind_docking_100.prm

>  <SCORE>
-14.0814

>  <SCORE.INTER>
-14.1567

>  <SCORE.INTER.CONST>
1

>  <SCORE.INTER.POLAR>
-1.34164

>  <SCORE.INTER.ROT>
3

>  <SCORE.INTER.SOLV>
7.46204

>  <SCORE.INTER.VDW>
-13.053

>  <SCORE.INTER.norm>
-1.17973

>  <SCORE.INTRA>
0.0753038

>  <SCORE.INTRA.DIHEDRAL>
3.21741

>  <SCORE.INTRA.DIHEDRAL.0>
1.88407

>  <SCORE.INTRA.POLAR>
0

>  <SCORE.INTRA.POLAR.0>
0

>  <SCORE.INTRA.REPUL>
0

>  <SCORE.INTRA.REPUL.0>
0

>  <SCORE.INTRA.SOLV>
1.0822

>  <SCORE.INTRA.SOLV.lig_0>
-10.2714

>  <SCORE.INTRA.VDW>
-2.07451

>  <SCORE.INTRA.VDW.0>
0.416923

>  <SCORE.INTRA.norm>
0.00627531

>  <SCORE.RESTR>
0

>  <SCORE.RESTR.CAVITY>
0

>  <SCORE.RESTR.norm>
0

>  <SCORE.SYSTEM>
0

>  <SCORE.SYSTEM.CONST>
0

>  <SCORE.SYSTEM.DIHEDRAL>
0

>  <SCORE.SYSTEM.SOLV>
0

>  <SCORE.SYSTEM.norm>
0

>  <SCORE.heavy>
12

>  <SCORE.norm>
-1.17345

>  <RMSD>
42.727

$$$$
ligand
 OpenBabel11021811433D
libRbt.so/2013.1/901 2013/11/27
 12 12  0  0  0  0  0  0  0  0999 V2000
   10.8740    1.5872   -3.3137 O   0  0  0  0  0  0  0  0  0  0  0  0
   10.3032   -2.0424    0.3754 O   0  0  0  0  0  0  0  0  0  0  0  0
   11.6333    0.5626   -2.6034 C   0  0  0  0  0  0  0  0  0  0  0  0
    8.1421   -2.6445    1.3983 O   0  0  0  0  0  0  0  0  0  0  0  0
   11.0838    0.3531   -1.1625 C   0  0  0  0  0  0  0  0  0  0  0  0
    8.5143   -1.9470   -0.4086 O   0  0  0  0  0  0  0  0  0  0  0  0
    9.9117    1.2702   -0.9455 N   0  0  0  0  0  0  0  0  0  0  0  0
   10.3155    2.6926   -1.1629 C   0  0  0  0  0  0  0  0  0  0  0  0
   10.9204    2.8503   -2.5868 C   0  0  0  0  0  0  0  0  0  0  0  0
    9.3336    1.1253    0.4361 C   0  0  0  0  0  0  0  0  0  0  0  0
    8.2770   -0.0048    0.4852 C   0  0  0  0  0  0  0  0  0  0  0  0
    9.0402   -1.5897    0.9046 S   0  0  0  0  0  0  0  0  0  0  0  0
  1  3  1  0  0  0  0
  1  9  1  0  0  0  0
  2 12  1  0  0  0  0
  3  5  1  0  0  0  0
  4 12  2  0  0  0  0
  5  7  1  0  0  0  0
  6 12  2  0  0  0  0
  7  8  1  0  0  0  0
  7 10  1  0  0  0  0
  8  9  1  0  0  0  0
 10 11  1  0  0  0  0
 11 12  1  0  0  0  0
M  END
>  <CHROM.1>
-87.10995746,90.35434745,-41.29029278,9.76965963,-0.03916455,-0.55562495
-0.92108731,-0.86752312,2.98315853

>  <Name>
ligand

>  <RI>
0

>  <Rbt.Current_Directory>
/home/itssahil/PROJECTS/Mol_Feturizer/New_Systems/rnas/2HO6

>  <Rbt.Executable>
rbdock ($Id: //depot/dev/client3/rdock/2013.1/src/exe/rbdock.cxx#4 $)

>  <Rbt.Library>
libRbt.so (2013.1, Build901 2013/11/27)

>  <Rbt.Parameter_File>
/export/apps/rDock/src/rDock_2013.1_src/data/scripts/dock_solv.prm

>  <Rbt.Receptor>
prm/blind_docking_40.prm

>  <SCORE>
-16.1589

>  <SCORE.INTER>
-16.628

>  <SCORE.INTER.CONST>
1

>  <SCORE.INTER.POLAR>
-1.34164

>  <SCORE.INTER.ROT>
3

>  <SCORE.INTER.SOLV>
10.9966

>  <SCORE.INTER.VDW>
-15.8787

>  <SCORE.INTER.norm>
-1.38567

>  <SCORE.INTRA>
0.469123

>  <SCORE.INTRA.DIHEDRAL>
3.757

>  <SCORE.INTRA.DIHEDRAL.0>
1.88407

>  <SCORE.INTRA.POLAR>
0

>  <SCORE.INTRA.POLAR.0>
0

>  <SCORE.INTRA.REPUL>
0

>  <SCORE.INTRA.REPUL.0>
0

>  <SCORE.INTRA.SOLV>
0.234722

>  <SCORE.INTRA.SOLV.lig_0>
-10.2714

>  <SCORE.INTRA.VDW>
-1.52674

>  <SCORE.INTRA.VDW.0>
0.416923

>  <SCORE.INTRA.norm>
0.0390936

>  <SCORE.RESTR>
0

>  <SCORE.RESTR.CAVITY>
0

>  <SCORE.RESTR.norm>
0

>  <SCORE.SYSTEM>
0

>  <SCORE.SYSTEM.CONST>
0

>  <SCORE.SYSTEM.DIHEDRAL>
0

>  <SCORE.SYSTEM.SOLV>
0

>  <SCORE.SYSTEM.norm>
0

>  <SCORE.heavy>
12

>  <SCORE.norm>
-1.34657

>  <RMSD>
42.727

$$$$
ligand
 OpenBabel11021811433D
libRbt.so/2013.1/901 2013/11/27
 12 12  0  0  0  0  0  0  0  0999 V2000
   10.0935   -3.1792   -0.6023 O   0  0  0  0  0  0  0  0  0  0  0  0
    9.7134    0.8103    0.0108 O   0  0  0  0  0  0  0  0  0  0  0  0
   11.4288   -2.9780   -0.0480 C   0  0  0  0  0  0  0  0  0  0  0  0
    9.0737    2.8649   -1.1928 O   0  0  0  0  0  0  0  0  0  0  0  0
   12.1279   -1.7487   -0.6976 C   0  0  0  0  0  0  0  0  0  0  0  0
    8.8220    0.9814   -1.7213 O   0  0  0  0  0  0  0  0  0  0  0  0
   11.1948   -1.1251   -1.6987 N   0  0  0  0  0  0  0  0  0  0  0  0
   10.7987   -2.1256   -2.7359 C   0  0  0  0  0  0  0  0  0  0  0  0
   10.1651   -3.3671   -2.0464 C   0  0  0  0  0  0  0  0  0  0  0  0
   11.8124    0.0697   -2.3736 C   0  0  0  0  0  0  0  0  0  0  0  0
   10.7556    1.1675   -2.6454 C   0  0  0  0  0  0  0  0  0  0  0  0
    9.9467    1.6840   -1.1128 S   0  0  0  0  0  0  0  0  0  0  0  0
  1  3  1  0  0  0  0
  1  9  1  0  0  0  0
  2 12  1  0  0  0  0
  3  5  1  0  0  0  0
  4 12  2  0  0  0  0
  5  7  1  0  0  0  0
  6 12  2  0  0  0  0
  7  8  1  0  0  0  0
  7 10  1  0  0  0  0
  8  9  1  0  0  0  0
 10 11  1  0  0  0  0
 11 12  1  0  0  0  0
M  END
>  <CHROM.1>
-143.98534300,57.55675620,-31.85926856,10.40003338,-0.33015745,-1.35665653
1.09843296,-0.93090252,2.73247684

>  <Name>
ligand

>  <RI>
0

>  <Rbt.Current_Directory>
/home/itssahil/PROJECTS/Mol_Feturizer/New_Systems/rnas/2HO6

>  <Rbt.Executable>
rbdock ($Id: //depot/dev/client3/rdock/2013.1/src/exe/rbdock.cxx#4 $)

>  <Rbt.Library>
libRbt.so (2013.1, Build901 2013/11/27)

>  <Rbt.Parameter_File>
/export/apps/rDock/src/rDock_2013.1_src/data/scripts/dock_solv.prm

>  <Rbt.Receptor>
prm/blind_docking_60.prm

>  <SCORE>
-13.9242

>  <SCORE.INTER>
-12.8061

>  <SCORE.INTER.CONST>
1

>  <SCORE.INTER.POLAR>
-1.34164

>  <SCORE.INTER.ROT>
3

>  <SCORE.INTER.SOLV>
6.52634

>  <SCORE.INTER.VDW>
-11.8407

>  <SCORE.INTER.norm>
-1.06717

>  <SCORE.INTRA>
-1.11811

>  <SCORE.INTRA.DIHEDRAL>
1.35727

>  <SCORE.INTRA.DIHEDRAL.0>
1.88407

>  <SCORE.INTRA.POLAR>
0

>  <SCORE.INTRA.POLAR.0>
0

>  <SCORE.INTRA.REPUL>
0

>  <SCORE.INTRA.REPUL.0>
0

>  <SCORE.INTRA.SOLV>
0.43164

>  <SCORE.INTRA.SOLV.lig_0>
-10.2714

>  <SCORE.INTRA.VDW>
-2.01256

>  <SCORE.INTRA.VDW.0>
0.416923

>  <SCORE.INTRA.norm>
-0.0931759

>  <SCORE.RESTR>
0

>  <SCORE.RESTR.CAVITY>
0

>  <SCORE.RESTR.norm>
0

>  <SCORE.SYSTEM>
0

>  <SCORE.SYSTEM.CONST>
0

>  <SCORE.SYSTEM.DIHEDRAL>
0

>  <SCORE.SYSTEM.SOLV>
0

>  <SCORE.SYSTEM.norm>
0

>  <SCORE.heavy>
12

>  <SCORE.norm>
-1.16035

>  <RMSD>
42.729

$$$$
ligand
 OpenBabel11021811433D
libRbt.so/2013.1/901 2013/11/27
 12 12  0  0  0  0  0  0  0  0999 V2000
   10.0755   -3.1765   -0.5719 O   0  0  0  0  0  0  0  0  0  0  0  0
    9.7521    0.8303    0.0367 O   0  0  0  0  0  0  0  0  0  0  0  0
   11.3992   -2.9328   -0.0070 C   0  0  0  0  0  0  0  0  0  0  0  0
    9.0771    2.8758   -1.1632 O   0  0  0  0  0  0  0  0  0  0  0  0
   12.0829   -1.7095   -0.6838 C   0  0  0  0  0  0  0  0  0  0  0  0
    8.7979    0.9883   -1.6629 O   0  0  0  0  0  0  0  0  0  0  0  0
   11.1511   -1.1341   -1.7146 N   0  0  0  0  0  0  0  0  0  0  0  0
   10.7881   -2.1721   -2.7266 C   0  0  0  0  0  0  0  0  0  0  0  0
   10.1697   -3.4052   -2.0087 C   0  0  0  0  0  0  0  0  0  0  0  0
   11.7542    0.0523   -2.4167 C   0  0  0  0  0  0  0  0  0  0  0  0
   10.6967    1.1562   -2.6598 C   0  0  0  0  0  0  0  0  0  0  0  0
    9.9474    1.6917   -1.1035 S   0  0  0  0  0  0  0  0  0  0  0  0
  1  3  1  0  0  0  0
  1  9  1  0  0  0  0
  2 12  1  0  0  0  0
  3  5  1  0  0  0  0
  4 12  2  0  0  0  0
  5  7  1  0  0  0  0
  6 12  2  0  0  0  0
  7  8  1  0  0  0  0
  7 10  1  0  0  0  0
  8  9  1  0  0  0  0
 10 11  1  0  0  0  0
 11 12  1  0  0  0  0
M  END
>  <CHROM.1>
-140.64669898,57.77206397,-31.63941682,10.38271587,-0.32828123,-1.34119154
1.05562212,-1.00095568,2.67933870

>  <Name>
ligand

>  <RI>
0

>  <Rbt.Current_Directory>
/home/itssahil/PROJECTS/Mol_Feturizer/New_Systems/rnas/2HO6

>  <Rbt.Executable>
rbdock ($Id: //depot/dev/client3/rdock/2013.1/src/exe/rbdock.cxx#4 $)

>  <Rbt.Library>
libRbt.so (2013.1, Build901 2013/11/27)

>  <Rbt.Parameter_File>
/export/apps/rDock/src/rDock_2013.1_src/data/scripts/dock_solv.prm

>  <Rbt.Receptor>
prm/blind_docking_20.prm

>  <SCORE>
-13.9357

>  <SCORE.INTER>
-12.8699

>  <SCORE.INTER.CONST>
1

>  <SCORE.INTER.POLAR>
-1.34054

>  <SCORE.INTER.ROT>
3

>  <SCORE.INTER.SOLV>
6.47591

>  <SCORE.INTER.VDW>
-11.8701

>  <SCORE.INTER.norm>
-1.07249

>  <SCORE.INTRA>
-1.06579

>  <SCORE.INTRA.DIHEDRAL>
1.55097

>  <SCORE.INTRA.DIHEDRAL.0>
1.88407

>  <SCORE.INTRA.POLAR>
0

>  <SCORE.INTRA.POLAR.0>
0

>  <SCORE.INTRA.REPUL>
0

>  <SCORE.INTRA.REPUL.0>
0

>  <SCORE.INTRA.SOLV>
0.419891

>  <SCORE.INTRA.SOLV.lig_0>
-10.2714

>  <SCORE.INTRA.VDW>
-2.05122

>  <SCORE.INTRA.VDW.0>
0.416923

>  <SCORE.INTRA.norm>
-0.0888159

>  <SCORE.RESTR>
0

>  <SCORE.RESTR.CAVITY>
0

>  <SCORE.RESTR.norm>
0

>  <SCORE.SYSTEM>
0

>  <SCORE.SYSTEM.CONST>
0

>  <SCORE.SYSTEM.DIHEDRAL>
0

>  <SCORE.SYSTEM.SOLV>
0

>  <SCORE.SYSTEM.norm>
0

>  <SCORE.heavy>
12

>  <SCORE.norm>
-1.16131

>  <RMSD>
42.743

$$$$
ligand
 OpenBabel11021811433D
libRbt.so/2013.1/901 2013/11/27
 12 12  0  0  0  0  0  0  0  0999 V2000
    9.8222   -2.1487   -3.4524 O   0  0  0  0  0  0  0  0  0  0  0  0
    9.6368    3.1805   -0.7973 O   0  0  0  0  0  0  0  0  0  0  0  0
   10.3959   -3.1093   -2.5149 C   0  0  0  0  0  0  0  0  0  0  0  0
    8.7198    1.0160   -1.5410 O   0  0  0  0  0  0  0  0  0  0  0  0
   11.1643   -2.3875   -1.3701 C   0  0  0  0  0  0  0  0  0  0  0  0
    8.8982    1.7314    0.2883 O   0  0  0  0  0  0  0  0  0  0  0  0
   11.0646   -0.9006   -1.5728 N   0  0  0  0  0  0  0  0  0  0  0  0
   11.6134   -0.5188   -2.9095 C   0  0  0  0  0  0  0  0  0  0  0  0
   10.8679   -1.3079   -4.0229 C   0  0  0  0  0  0  0  0  0  0  0  0
   11.7954   -0.1377   -0.5013 C   0  0  0  0  0  0  0  0  0  0  0  0
   10.8354    0.7965    0.2745 C   0  0  0  0  0  0  0  0  0  0  0  0
    9.7980    1.7487   -0.8601 S   0  0  0  0  0  0  0  0  0  0  0  0
  1  3  1  0  0  0  0
  1  9  1  0  0  0  0
  2 12  1  0  0  0  0
  3  5  1  0  0  0  0
  4 12  2  0  0  0  0
  5  7  1  0  0  0  0
  6 12  2  0  0  0  0
  7  8  1  0  0  0  0
  7 10  1  0  0  0  0
  8  9  1  0  0  0  0
 10 11  1  0  0  0  0
 11 12  1  0  0  0  0
M  END
>  <CHROM.1>
-120.21031245,-47.46012331,-129.24484400,10.28449183,0.05370292,-1.50626766
1.20078208,0.85058368,-2.34008170

>  <Name>
ligand

>  <RI>
0

>  <Rbt.Current_Directory>
/home/itssahil/PROJECTS/Mol_Feturizer/New_Systems/rnas/2HO6

>  <Rbt.Executable>
rbdock ($Id: //depot/dev/client3/rdock/2013.1/src/exe/rbdock.cxx#4 $)

>  <Rbt.Library>
libRbt.so (2013.1, Build901 2013/11/27)

>  <Rbt.Parameter_File>
/export/apps/rDock/src/rDock_2013.1_src/data/scripts/dock_solv.prm

>  <Rbt.Receptor>
prm/blind_docking_20.prm

>  <SCORE>
-13.994

>  <SCORE.INTER>
-13.8189

>  <SCORE.INTER.CONST>
1

>  <SCORE.INTER.POLAR>
-1.34164

>  <SCORE.INTER.ROT>
3

>  <SCORE.INTER.SOLV>
7.51164

>  <SCORE.INTER.VDW>
-12.8443

>  <SCORE.INTER.norm>
-1.15157

>  <SCORE.INTRA>
-0.175176

>  <SCORE.INTRA.DIHEDRAL>
2.8623

>  <SCORE.INTRA.DIHEDRAL.0>
1.88407

>  <SCORE.INTRA.POLAR>
0

>  <SCORE.INTRA.POLAR.0>
0

>  <SCORE.INTRA.REPUL>
0

>  <SCORE.INTRA.REPUL.0>
0

>  <SCORE.INTRA.SOLV>
1.02355

>  <SCORE.INTRA.SOLV.lig_0>
-10.2714

>  <SCORE.INTRA.VDW>
-2.1181

>  <SCORE.INTRA.VDW.0>
0.416923

>  <SCORE.INTRA.norm>
-0.014598

>  <SCORE.RESTR>
0

>  <SCORE.RESTR.CAVITY>
0

>  <SCORE.RESTR.norm>
0

>  <SCORE.SYSTEM>
0

>  <SCORE.SYSTEM.CONST>
0

>  <SCORE.SYSTEM.DIHEDRAL>
0

>  <SCORE.SYSTEM.SOLV>
0

>  <SCORE.SYSTEM.norm>
0

>  <SCORE.heavy>
12

>  <SCORE.norm>
-1.16617

>  <RMSD>
42.743

$$$$
ligand
 OpenBabel11021811433D
libRbt.so/2013.1/901 2013/11/27
 12 12  0  0  0  0  0  0  0  0999 V2000
    8.9060    1.4336    0.0959 O   0  0  0  0  0  0  0  0  0  0  0  0
   11.5340   -2.1908   -4.0122 O   0  0  0  0  0  0  0  0  0  0  0  0
    9.3166    2.8142   -0.1404 C   0  0  0  0  0  0  0  0  0  0  0  0
    9.3928   -1.3706   -3.1055 O   0  0  0  0  0  0  0  0  0  0  0  0
   10.3120    2.9085   -1.3331 C   0  0  0  0  0  0  0  0  0  0  0  0
   10.1256   -1.1898   -4.9277 O   0  0  0  0  0  0  0  0  0  0  0  0
   10.5358    1.5320   -1.8962 N   0  0  0  0  0  0  0  0  0  0  0  0
   11.0546    0.6137   -0.8374 C   0  0  0  0  0  0  0  0  0  0  0  0
   10.0686    0.5959    0.3650 C   0  0  0  0  0  0  0  0  0  0  0  0
   11.4984    1.5482   -3.0526 C   0  0  0  0  0  0  0  0  0  0  0  0
   11.0108    0.6306   -4.1998 C   0  0  0  0  0  0  0  0  0  0  0  0
   10.7382   -1.0571   -3.6102 S   0  0  0  0  0  0  0  0  0  0  0  0
  1  3  1  0  0  0  0
  1  9  1  0  0  0  0
  2 12  1  0  0  0  0
  3  5  1  0  0  0  0
  4 12  2  0  0  0  0
  5  7  1  0  0  0  0
  6 12  2  0  0  0  0
  7  8  1  0  0  0  0
  7 10  1  0  0  0  0
  8  9  1  0  0  0  0
 10 11  1  0  0  0  0
 11 12  1  0  0  0  0
M  END
>  <CHROM.1>
-137.55143937,-55.96905049,-112.64401196,10.39255543,0.32069393,-2.38129680
1.99716216,1.11595287,0.46987694

>  <Name>
ligand

>  <RI>
0

>  <Rbt.Current_Directory>
/home/itssahil/PROJECTS/Mol_Feturizer/New_Systems/rnas/2HO6

>  <Rbt.Executable>
rbdock ($Id: //depot/dev/client3/rdock/2013.1/src/exe/rbdock.cxx#4 $)

>  <Rbt.Library>
libRbt.so (2013.1, Build901 2013/11/27)

>  <Rbt.Parameter_File>
/export/apps/rDock/src/rDock_2013.1_src/data/scripts/dock_solv.prm

>  <Rbt.Receptor>
prm/blind_docking_40.prm

>  <SCORE>
-17.8399

>  <SCORE.INTER>
-17.2947

>  <SCORE.INTER.CONST>
1

>  <SCORE.INTER.POLAR>
-1.34164

>  <SCORE.INTER.ROT>
3

>  <SCORE.INTER.SOLV>
9.91729

>  <SCORE.INTER.VDW>
-15.9634

>  <SCORE.INTER.norm>
-1.44122

>  <SCORE.INTRA>
-0.54523

>  <SCORE.INTRA.DIHEDRAL>
1.87944

>  <SCORE.INTRA.DIHEDRAL.0>
1.88407

>  <SCORE.INTRA.POLAR>
0

>  <SCORE.INTRA.POLAR.0>
0

>  <SCORE.INTRA.REPUL>
0

>  <SCORE.INTRA.REPUL.0>
0

>  <SCORE.INTRA.SOLV>
0.727131

>  <SCORE.INTRA.SOLV.lig_0>
-10.2714

>  <SCORE.INTRA.VDW>
-1.84852

>  <SCORE.INTRA.VDW.0>
0.416923

>  <SCORE.INTRA.norm>
-0.0454358

>  <SCORE.RESTR>
0

>  <SCORE.RESTR.CAVITY>
0

>  <SCORE.RESTR.norm>
0

>  <SCORE.SYSTEM>
0

>  <SCORE.SYSTEM.CONST>
0

>  <SCORE.SYSTEM.DIHEDRAL>
0

>  <SCORE.SYSTEM.SOLV>
0

>  <SCORE.SYSTEM.norm>
0

>  <SCORE.heavy>
12

>  <SCORE.norm>
-1.48666

>  <RMSD>
42.744

$$$$
ligand
 OpenBabel11021811433D
libRbt.so/2013.1/901 2013/11/27
 12 12  0  0  0  0  0  0  0  0999 V2000
    9.6543   -3.1321   -2.0387 O   0  0  0  0  0  0  0  0  0  0  0  0
   10.0515    3.0994   -1.4668 O   0  0  0  0  0  0  0  0  0  0  0  0
    9.8770   -3.5235   -0.6502 C   0  0  0  0  0  0  0  0  0  0  0  0
    8.7665    1.0000   -1.6112 O   0  0  0  0  0  0  0  0  0  0  0  0
   10.6688   -2.4289    0.1225 C   0  0  0  0  0  0  0  0  0  0  0  0
    9.0535    2.1811   -0.0579 O   0  0  0  0  0  0  0  0  0  0  0  0
   10.9510   -1.2795   -0.8055 N   0  0  0  0  0  0  0  0  0  0  0  0
   11.7152   -1.7498   -2.0006 C   0  0  0  0  0  0  0  0  0  0  0  0
   10.9260   -2.8874   -2.7086 C   0  0  0  0  0  0  0  0  0  0  0  0
   11.7243   -0.1838   -0.1231 C   0  0  0  0  0  0  0  0  0  0  0  0
   10.7906    0.9693    0.3181 C   0  0  0  0  0  0  0  0  0  0  0  0
    9.9526    1.7068   -1.1046 S   0  0  0  0  0  0  0  0  0  0  0  0
  1  3  1  0  0  0  0
  1  9  1  0  0  0  0
  2 12  1  0  0  0  0
  3  5  1  0  0  0  0
  4 12  2  0  0  0  0
  5  7  1  0  0  0  0
  6 12  2  0  0  0  0
  7  8  1  0  0  0  0
  7 10  1  0  0  0  0
  8  9  1  0  0  0  0
 10 11  1  0  0  0  0
 11 12  1  0  0  0  0
M  END
>  <CHROM.1>
-99.67264963,-60.54737455,-121.60409418,10.26870320,-0.25921756,-1.03081147
1.32607911,0.88289352,-2.83634670

>  <Name>
ligand

>  <RI>
0

>  <Rbt.Current_Directory>
/home/itssahil/PROJECTS/Mol_Feturizer/New_Systems/rnas/2HO6

>  <Rbt.Executable>
rbdock ($Id: //depot/dev/client3/rdock/2013.1/src/exe/rbdock.cxx#4 $)

>  <Rbt.Library>
libRbt.so (2013.1, Build901 2013/11/27)

>  <Rbt.Parameter_File>
/export/apps/rDock/src/rDock_2013.1_src/data/scripts/dock_solv.prm

>  <Rbt.Receptor>
prm/blind_docking_20.prm

>  <SCORE>
-13.8484

>  <SCORE.INTER>
-13.232

>  <SCORE.INTER.CONST>
1

>  <SCORE.INTER.POLAR>
-1.34164

>  <SCORE.INTER.ROT>
3

>  <SCORE.INTER.SOLV>
6.23552

>  <SCORE.INTER.VDW>
-12.0277

>  <SCORE.INTER.norm>
-1.10266

>  <SCORE.INTRA>
-0.61643

>  <SCORE.INTRA.DIHEDRAL>
1.77548

>  <SCORE.INTRA.DIHEDRAL.0>
1.88407

>  <SCORE.INTRA.POLAR>
0

>  <SCORE.INTRA.POLAR.0>
0

>  <SCORE.INTRA.REPUL>
0

>  <SCORE.INTRA.REPUL.0>
0

>  <SCORE.INTRA.SOLV>
0.680799

>  <SCORE.INTRA.SOLV.lig_0>
-10.2714

>  <SCORE.INTRA.VDW>
-1.84457

>  <SCORE.INTRA.VDW.0>
0.416923

>  <SCORE.INTRA.norm>
-0.0513691

>  <SCORE.RESTR>
0

>  <SCORE.RESTR.CAVITY>
0

>  <SCORE.RESTR.norm>
0

>  <SCORE.SYSTEM>
0

>  <SCORE.SYSTEM.CONST>
0

>  <SCORE.SYSTEM.DIHEDRAL>
0

>  <SCORE.SYSTEM.SOLV>
0

>  <SCORE.SYSTEM.norm>
0

>  <SCORE.heavy>
12

>  <SCORE.norm>
-1.15403

>  <RMSD>
42.745

$$$$
ligand
 OpenBabel11021811433D
libRbt.so/2013.1/901 2013/11/27
 12 12  0  0  0  0  0  0  0  0999 V2000
   10.8770   -1.9831   -3.5206 O   0  0  0  0  0  0  0  0  0  0  0  0
    9.2469   -1.0534   -0.7633 O   0  0  0  0  0  0  0  0  0  0  0  0
   12.1206   -1.8044   -2.7775 C   0  0  0  0  0  0  0  0  0  0  0  0
    8.9749    0.0302    1.4347 O   0  0  0  0  0  0  0  0  0  0  0  0
   12.1664   -0.4117   -2.0844 C   0  0  0  0  0  0  0  0  0  0  0  0
    8.1346    0.4840   -0.2910 O   0  0  0  0  0  0  0  0  0  0  0  0
   10.8907    0.3272   -2.3817 N   0  0  0  0  0  0  0  0  0  0  0  0
   10.7026    0.4696   -3.8575 C   0  0  0  0  0  0  0  0  0  0  0  0
   10.7286   -0.9353   -4.5236 C   0  0  0  0  0  0  0  0  0  0  0  0
   10.8705    1.6909   -1.7460 C   0  0  0  0  0  0  0  0  0  0  0  0
    9.8454    1.7537   -0.5881 C   0  0  0  0  0  0  0  0  0  0  0  0
    9.4979    0.1024    0.0620 S   0  0  0  0  0  0  0  0  0  0  0  0
  1  3  1  0  0  0  0
  1  9  1  0  0  0  0
  2 12  1  0  0  0  0
  3  5  1  0  0  0  0
  4 12  2  0  0  0  0
  5  7  1  0  0  0  0
  6 12  2  0  0  0  0
  7  8  1  0  0  0  0
  7 10  1  0  0  0  0
  8  9  1  0  0  0  0
 10 11  1  0  0  0  0
 11 12  1  0  0  0  0
M  END
>  <CHROM.1>
-110.21619835,22.64089042,-45.06702168,10.21811919,-0.11219309,-1.54515289
0.33724502,-1.03845935,-3.08113675

>  <Name>
ligand

>  <RI>
0

>  <Rbt.Current_Directory>
/home/itssahil/PROJECTS/Mol_Feturizer/New_Systems/rnas/2HO6

>  <Rbt.Executable>
rbdock ($Id: //depot/dev/client3/rdock/2013.1/src/exe/rbdock.cxx#4 $)

>  <Rbt.Library>
libRbt.so (2013.1, Build901 2013/11/27)

>  <Rbt.Parameter_File>
/export/apps/rDock/src/rDock_2013.1_src/data/scripts/dock_solv.prm

>  <Rbt.Receptor>
prm/blind_docking_40.prm

>  <SCORE>
-12.9418

>  <SCORE.INTER>
-14.0555

>  <SCORE.INTER.CONST>
1

>  <SCORE.INTER.POLAR>
-2.14974

>  <SCORE.INTER.ROT>
3

>  <SCORE.INTER.SOLV>
10.508

>  <SCORE.INTER.VDW>
-11.3072

>  <SCORE.INTER.norm>
-1.17129

>  <SCORE.INTRA>
1.11372

>  <SCORE.INTRA.DIHEDRAL>
5.93142

>  <SCORE.INTRA.DIHEDRAL.0>
1.88407

>  <SCORE.INTRA.POLAR>
0

>  <SCORE.INTRA.POLAR.0>
0

>  <SCORE.INTRA.REPUL>
0

>  <SCORE.INTRA.REPUL.0>
0

>  <SCORE.INTRA.SOLV>
0.251846

>  <SCORE.INTRA.SOLV.lig_0>
-10.2714

>  <SCORE.INTRA.VDW>
-1.97791

>  <SCORE.INTRA.VDW.0>
0.416923

>  <SCORE.INTRA.norm>
0.09281

>  <SCORE.RESTR>
0

>  <SCORE.RESTR.CAVITY>
0

>  <SCORE.RESTR.norm>
0

>  <SCORE.SYSTEM>
0

>  <SCORE.SYSTEM.CONST>
0

>  <SCORE.SYSTEM.DIHEDRAL>
0

>  <SCORE.SYSTEM.SOLV>
0

>  <SCORE.SYSTEM.norm>
0

>  <SCORE.heavy>
12

>  <SCORE.norm>
-1.07848

>  <RMSD>
42.745

$$$$
ligand
 OpenBabel11021811433D
libRbt.so/2013.1/901 2013/11/27
 12 12  0  0  0  0  0  0  0  0999 V2000
   11.9003    1.9434   -2.8048 O   0  0  0  0  0  0  0  0  0  0  0  0
    9.2341   -1.8504   -1.2045 O   0  0  0  0  0  0  0  0  0  0  0  0
   11.1811    3.1699   -2.4746 C   0  0  0  0  0  0  0  0  0  0  0  0
    8.8554   -2.6950    1.0807 O   0  0  0  0  0  0  0  0  0  0  0  0
   10.0782    2.9055   -1.4088 C   0  0  0  0  0  0  0  0  0  0  0  0
    7.9694   -1.2050    0.1401 O   0  0  0  0  0  0  0  0  0  0  0  0
   10.1026    1.4510   -1.0270 N   0  0  0  0  0  0  0  0  0  0  0  0
    9.8987    0.5920   -2.2329 C   0  0  0  0  0  0  0  0  0  0  0  0
   10.9769    0.9301   -3.3012 C   0  0  0  0  0  0  0  0  0  0  0  0
    9.0519    1.1221   -0.0013 C   0  0  0  0  0  0  0  0  0  0  0  0
    9.5389    0.0140    0.9635 C   0  0  0  0  0  0  0  0  0  0  0  0
    9.3656   -1.6224    0.2135 S   0  0  0  0  0  0  0  0  0  0  0  0
  1  3  1  0  0  0  0
  1  9  1  0  0  0  0
  2 12  1  0  0  0  0
  3  5  1  0  0  0  0
  4 12  2  0  0  0  0
  5  7  1  0  0  0  0
  6 12  2  0  0  0  0
  7  8  1  0  0  0  0
  7 10  1  0  0  0  0
  8  9  1  0  0  0  0
 10 11  1  0  0  0  0
 11 12  1  0  0  0  0
M  END
>  <CHROM.1>
-146.43214410,-80.21702375,19.46257683,9.78695721,0.15398874,-0.87917417
-0.65118156,-1.05982162,-2.90050668

>  <Name>
ligand

>  <RI>
0

>  <Rbt.Current_Directory>
/home/itssahil/PROJECTS/Mol_Feturizer/New_Systems/rnas/2HO6

>  <Rbt.Executable>
rbdock ($Id: //depot/dev/client3/rdock/2013.1/src/exe/rbdock.cxx#4 $)

>  <Rbt.Library>
libRbt.so (2013.1, Build901 2013/11/27)

>  <Rbt.Parameter_File>
/export/apps/rDock/src/rDock_2013.1_src/data/scripts/dock_solv.prm

>  <Rbt.Receptor>
prm/blind_docking_20.prm

>  <SCORE>
-15.046

>  <SCORE.INTER>
-18.0209

>  <SCORE.INTER.CONST>
1

>  <SCORE.INTER.POLAR>
-2.14104

>  <SCORE.INTER.ROT>
3

>  <SCORE.INTER.SOLV>
14.839

>  <SCORE.INTER.VDW>
-15.4235

>  <SCORE.INTER.norm>
-1.50174

>  <SCORE.INTRA>
2.97487

>  <SCORE.INTRA.DIHEDRAL>
2.73666

>  <SCORE.INTRA.DIHEDRAL.0>
1.88407

>  <SCORE.INTRA.POLAR>
0

>  <SCORE.INTRA.POLAR.0>
0

>  <SCORE.INTRA.REPUL>
0

>  <SCORE.INTRA.REPUL.0>
0

>  <SCORE.INTRA.SOLV>
0.304565

>  <SCORE.INTRA.SOLV.lig_0>
-10.2714

>  <SCORE.INTRA.VDW>
1.45426

>  <SCORE.INTRA.VDW.0>
0.416923

>  <SCORE.INTRA.norm>
0.247905

>  <SCORE.RESTR>
0

>  <SCORE.RESTR.CAVITY>
0

>  <SCORE.RESTR.norm>
0

>  <SCORE.SYSTEM>
0

>  <SCORE.SYSTEM.CONST>
0

>  <SCORE.SYSTEM.DIHEDRAL>
0

>  <SCORE.SYSTEM.SOLV>
0

>  <SCORE.SYSTEM.norm>
0

>  <SCORE.heavy>
12

>  <SCORE.norm>
-1.25383

>  <RMSD>
42.764

$$$$
ligand
 OpenBabel11021811433D
libRbt.so/2013.1/901 2013/11/27
 12 12  0  0  0  0  0  0  0  0999 V2000
    9.2647    2.6373   -1.5451 O   0  0  0  0  0  0  0  0  0  0  0  0
    9.1488   -2.2877   -2.4026 O   0  0  0  0  0  0  0  0  0  0  0  0
   10.4377    2.6964   -2.4118 C   0  0  0  0  0  0  0  0  0  0  0  0
    9.0430   -3.8779   -0.5212 O   0  0  0  0  0  0  0  0  0  0  0  0
   11.3486    1.4505   -2.2111 C   0  0  0  0  0  0  0  0  0  0  0  0
    8.6850   -1.9384   -0.5353 O   0  0  0  0  0  0  0  0  0  0  0  0
   10.7244    0.5460   -1.1844 N   0  0  0  0  0  0  0  0  0  0  0  0
   10.5267    1.2777    0.1037 C   0  0  0  0  0  0  0  0  0  0  0  0
    9.6690    2.5504   -0.1470 C   0  0  0  0  0  0  0  0  0  0  0  0
   11.5601   -0.6801   -0.9341 C   0  0  0  0  0  0  0  0  0  0  0  0
   10.7817   -1.7281   -0.1026 C   0  0  0  0  0  0  0  0  0  0  0  0
    9.7267   -2.7447   -1.1626 S   0  0  0  0  0  0  0  0  0  0  0  0
  1  3  1  0  0  0  0
  1  9  1  0  0  0  0
  2 12  1  0  0  0  0
  3  5  1  0  0  0  0
  4 12  2  0  0  0  0
  5  7  1  0  0  0  0
  6 12  2  0  0  0  0
  7  8  1  0  0  0  0
  7 10  1  0  0  0  0
  8  9  1  0  0  0  0
 10 11  1  0  0  0  0
 11 12  1  0  0  0  0
M  END
>  <CHROM.1>
-168.54573159,83.84453092,-29.10789209,10.00155448,-0.46198837,-1.10141353
1.38189749,-0.58665448,-0.17651429

>  <Name>
ligand

>  <RI>
0

>  <Rbt.Current_Directory>
/home/itssahil/PROJECTS/Mol_Feturizer/New_Systems/rnas/2HO6

>  <Rbt.Executable>
rbdock ($Id: //depot/dev/client3/rdock/2013.1/src/exe/rbdock.cxx#4 $)

>  <Rbt.Library>
libRbt.so (2013.1, Build901 2013/11/27)

>  <Rbt.Parameter_File>
/export/apps/rDock/src/rDock_2013.1_src/data/scripts/dock_solv.prm

>  <Rbt.Receptor>
prm/blind_docking_60.prm

>  <SCORE>
-15.7294

>  <SCORE.INTER>
-16.0515

>  <SCORE.INTER.CONST>
1

>  <SCORE.INTER.POLAR>
-2.24071

>  <SCORE.INTER.ROT>
3

>  <SCORE.INTER.SOLV>
11.3674

>  <SCORE.INTER.VDW>
-12.6211

>  <SCORE.INTER.norm>
-1.33762

>  <SCORE.INTRA>
0.322102

>  <SCORE.INTRA.DIHEDRAL>
1.89728

>  <SCORE.INTRA.DIHEDRAL.0>
1.88407

>  <SCORE.INTRA.POLAR>
0

>  <SCORE.INTRA.POLAR.0>
0

>  <SCORE.INTRA.REPUL>
0

>  <SCORE.INTRA.REPUL.0>
0

>  <SCORE.INTRA.SOLV>
0.442696

>  <SCORE.INTRA.SOLV.lig_0>
-10.2714

>  <SCORE.INTRA.VDW>
-0.847888

>  <SCORE.INTRA.VDW.0>
0.416923

>  <SCORE.INTRA.norm>
0.0268418

>  <SCORE.RESTR>
0

>  <SCORE.RESTR.CAVITY>
0

>  <SCORE.RESTR.norm>
0

>  <SCORE.SYSTEM>
0

>  <SCORE.SYSTEM.CONST>
0

>  <SCORE.SYSTEM.DIHEDRAL>
0

>  <SCORE.SYSTEM.SOLV>
0

>  <SCORE.SYSTEM.norm>
0

>  <SCORE.heavy>
12

>  <SCORE.norm>
-1.31078

>  <RMSD>
42.773

$$$$
ligand
 OpenBabel11021811433D
libRbt.so/2013.1/901 2013/11/27
 12 12  0  0  0  0  0  0  0  0999 V2000
    9.2619   -1.7501   -3.0913 O   0  0  0  0  0  0  0  0  0  0  0  0
    8.8372    3.1662    0.1923 O   0  0  0  0  0  0  0  0  0  0  0  0
   10.4410   -2.0245   -2.2758 C   0  0  0  0  0  0  0  0  0  0  0  0
    9.9466    0.9819   -0.0861 O   0  0  0  0  0  0  0  0  0  0  0  0
   11.3016   -0.7423   -2.0821 C   0  0  0  0  0  0  0  0  0  0  0  0
   10.7479    2.7797    0.0388 O   0  0  0  0  0  0  0  0  0  0  0  0
   10.6371    0.4068   -2.7892 N   0  0  0  0  0  0  0  0  0  0  0  0
   10.4610    0.0944   -4.2401 C   0  0  0  0  0  0  0  0  0  0  0  0
    9.6549   -1.2265   -4.3941 C   0  0  0  0  0  0  0  0  0  0  0  0
   11.4231    1.6822   -2.6492 C   0  0  0  0  0  0  0  0  0  0  0  0
   10.5381    2.8279   -2.1015 C   0  0  0  0  0  0  0  0  0  0  0  0
    9.5762    2.2790   -0.6720 S   0  0  0  0  0  0  0  0  0  0  0  0
  1  3  1  0  0  0  0
  1  9  1  0  0  0  0
  2 12  1  0  0  0  0
  3  5  1  0  0  0  0
  4 12  2  0  0  0  0
  5  7  1  0  0  0  0
  6 12  2  0  0  0  0
  7  8  1  0  0  0  0
  7 10  1  0  0  0  0
  8  9  1  0  0  0  0
 10 11  1  0  0  0  0
 11 12  1  0  0  0  0
M  END
>  <CHROM.1>
-126.69339259,47.17434977,169.01834669,10.15245113,0.87617986,-1.83613110
1.40401919,-1.15284803,-2.62212505

>  <Name>
ligand

>  <RI>
0

>  <Rbt.Current_Directory>
/home/itssahil/PROJECTS/Mol_Feturizer/New_Systems/rnas/2HO6

>  <Rbt.Executable>
rbdock ($Id: //depot/dev/client3/rdock/2013.1/src/exe/rbdock.cxx#4 $)

>  <Rbt.Library>
libRbt.so (2013.1, Build901 2013/11/27)

>  <Rbt.Parameter_File>
/export/apps/rDock/src/rDock_2013.1_src/data/scripts/dock_solv.prm

>  <Rbt.Receptor>
prm/blind_docking_100.prm

>  <SCORE>
-18.4425

>  <SCORE.INTER>
-19.034

>  <SCORE.INTER.CONST>
1

>  <SCORE.INTER.POLAR>
-1.34164

>  <SCORE.INTER.ROT>
3

>  <SCORE.INTER.SOLV>
11.5863

>  <SCORE.INTER.VDW>
-17.6793

>  <SCORE.INTER.norm>
-1.58617

>  <SCORE.INTRA>
0.525329

>  <SCORE.INTRA.DIHEDRAL>
2.83721

>  <SCORE.INTRA.DIHEDRAL.0>
1.88407

>  <SCORE.INTRA.POLAR>
0

>  <SCORE.INTRA.POLAR.0>
0

>  <SCORE.INTRA.REPUL>
0

>  <SCORE.INTRA.REPUL.0>
0

>  <SCORE.INTRA.SOLV>
1.32616

>  <SCORE.INTRA.SOLV.lig_0>
-10.2714

>  <SCORE.INTRA.VDW>
-1.55636

>  <SCORE.INTRA.VDW.0>
0.416923

>  <SCORE.INTRA.norm>
0.0437774

>  <SCORE.RESTR>
0.066159

>  <SCORE.RESTR.CAVITY>
0.066159

>  <SCORE.RESTR.norm>
0.00551325

>  <SCORE.SYSTEM>
0

>  <SCORE.SYSTEM.CONST>
0

>  <SCORE.SYSTEM.DIHEDRAL>
0

>  <SCORE.SYSTEM.SOLV>
0

>  <SCORE.SYSTEM.norm>
0

>  <SCORE.heavy>
12

>  <SCORE.norm>
-1.53688

>  <RMSD>
42.780

$$$$
ligand
 OpenBabel11021811433D
libRbt.so/2013.1/901 2013/11/27
 12 12  0  0  0  0  0  0  0  0999 V2000
   10.8409    1.5968   -3.3350 O   0  0  0  0  0  0  0  0  0  0  0  0
    9.8265   -2.2584   -0.3399 O   0  0  0  0  0  0  0  0  0  0  0  0
   11.6139    0.5750   -2.6358 C   0  0  0  0  0  0  0  0  0  0  0  0
    8.4451   -2.5050    1.6874 O   0  0  0  0  0  0  0  0  0  0  0  0
   11.0860    0.3636   -1.1871 C   0  0  0  0  0  0  0  0  0  0  0  0
    7.8983   -2.0016   -0.1395 O   0  0  0  0  0  0  0  0  0  0  0  0
    9.9140    1.2766   -0.9532 N   0  0  0  0  0  0  0  0  0  0  0  0
   10.3096    2.7004   -1.1763 C   0  0  0  0  0  0  0  0  0  0  0  0
   10.8933    2.8601   -2.6088 C   0  0  0  0  0  0  0  0  0  0  0  0
    9.3564    1.1296    0.4367 C   0  0  0  0  0  0  0  0  0  0  0  0
    8.2804    0.0184    0.4936 C   0  0  0  0  0  0  0  0  0  0  0  0
    9.0398   -1.6120    0.6815 S   0  0  0  0  0  0  0  0  0  0  0  0
  1  3  1  0  0  0  0
  1  9  1  0  0  0  0
  2 12  1  0  0  0  0
  3  5  1  0  0  0  0
  4 12  2  0  0  0  0
  5  7  1  0  0  0  0
  6 12  2  0  0  0  0
  7  8  1  0  0  0  0
  7 10  1  0  0  0  0
  8  9  1  0  0  0  0
 10 11  1  0  0  0  0
 11 12  1  0  0  0  0
M  END
>  <CHROM.1>
-88.45774734,83.30368530,-68.42407889,9.70023333,-0.04750336,-0.61371769
-0.82905683,-0.92091700,3.10130835

>  <Name>
ligand

>  <RI>
0

>  <Rbt.Current_Directory>
/home/itssahil/PROJECTS/Mol_Feturizer/New_Systems/rnas/2HO6

>  <Rbt.Executable>
rbdock ($Id: //depot/dev/client3/rdock/2013.1/src/exe/rbdock.cxx#4 $)

>  <Rbt.Library>
libRbt.so (2013.1, Build901 2013/11/27)

>  <Rbt.Parameter_File>
/export/apps/rDock/src/rDock_2013.1_src/data/scripts/dock_solv.prm

>  <Rbt.Receptor>
prm/blind_docking_60.prm

>  <SCORE>
-16.5359

>  <SCORE.INTER>
-16.5131

>  <SCORE.INTER.CONST>
1

>  <SCORE.INTER.POLAR>
-1.34164

>  <SCORE.INTER.ROT>
3

>  <SCORE.INTER.SOLV>
11.5444

>  <SCORE.INTER.VDW>
-15.9847

>  <SCORE.INTER.norm>
-1.3761

>  <SCORE.INTRA>
-0.0227141

>  <SCORE.INTRA.DIHEDRAL>
2.92968

>  <SCORE.INTRA.DIHEDRAL.0>
1.88407

>  <SCORE.INTRA.POLAR>
0

>  <SCORE.INTRA.POLAR.0>
0

>  <SCORE.INTRA.REPUL>
0

>  <SCORE.INTRA.REPUL.0>
0

>  <SCORE.INTRA.SOLV>
0.10258

>  <SCORE.INTRA.SOLV.lig_0>
-10.2714

>  <SCORE.INTRA.VDW>
-1.53884

>  <SCORE.INTRA.VDW.0>
0.416923

>  <SCORE.INTRA.norm>
-0.00189284

>  <SCORE.RESTR>
0

>  <SCORE.RESTR.CAVITY>
0

>  <SCORE.RESTR.norm>
0

>  <SCORE.SYSTEM>
0

>  <SCORE.SYSTEM.CONST>
0

>  <SCORE.SYSTEM.DIHEDRAL>
0

>  <SCORE.SYSTEM.SOLV>
0

>  <SCORE.SYSTEM.norm>
0

>  <SCORE.heavy>
12

>  <SCORE.norm>
-1.37799

>  <RMSD>
42.798

$$$$
ligand
 OpenBabel11021811433D
libRbt.so/2013.1/901 2013/11/27
 12 12  0  0  0  0  0  0  0  0999 V2000
   10.8419    1.5810   -3.3365 O   0  0  0  0  0  0  0  0  0  0  0  0
    9.8073   -2.2678   -0.3541 O   0  0  0  0  0  0  0  0  0  0  0  0
   11.6121    0.5547   -2.6407 C   0  0  0  0  0  0  0  0  0  0  0  0
    8.4479   -2.5091    1.6887 O   0  0  0  0  0  0  0  0  0  0  0  0
   11.0892    0.3463   -1.1897 C   0  0  0  0  0  0  0  0  0  0  0  0
    7.8835   -1.9972   -0.1305 O   0  0  0  0  0  0  0  0  0  0  0  0
    9.9236    1.2660   -0.9507 N   0  0  0  0  0  0  0  0  0  0  0  0
   10.3265    2.6875   -1.1755 C   0  0  0  0  0  0  0  0  0  0  0  0
   10.9048    2.8439   -2.6106 C   0  0  0  0  0  0  0  0  0  0  0  0
    9.3712    1.1223    0.4415 C   0  0  0  0  0  0  0  0  0  0  0  0
    8.2879    0.0184    0.5028 C   0  0  0  0  0  0  0  0  0  0  0  0
    9.0374   -1.6180    0.6780 S   0  0  0  0  0  0  0  0  0  0  0  0
  1  3  1  0  0  0  0
  1  9  1  0  0  0  0
  2 12  1  0  0  0  0
  3  5  1  0  0  0  0
  4 12  2  0  0  0  0
  5  7  1  0  0  0  0
  6 12  2  0  0  0  0
  7  8  1  0  0  0  0
  7 10  1  0  0  0  0
  8  9  1  0  0  0  0
 10 11  1  0  0  0  0
 11 12  1  0  0  0  0
M  END
>  <CHROM.1>
-88.51748246,83.00656391,-68.65215807,9.70182457,-0.05665083,-0.61415043
-0.81679671,-0.92608256,3.11318027

>  <Name>
ligand

>  <RI>
0

>  <Rbt.Current_Directory>
/home/itssahil/PROJECTS/Mol_Feturizer/New_Systems/rnas/2HO6

>  <Rbt.Executable>
rbdock ($Id: //depot/dev/client3/rdock/2013.1/src/exe/rbdock.cxx#4 $)

>  <Rbt.Library>
libRbt.so (2013.1, Build901 2013/11/27)

>  <Rbt.Parameter_File>
/export/apps/rDock/src/rDock_2013.1_src/data/scripts/dock_solv.prm

>  <Rbt.Receptor>
prm/blind_docking_20.prm

>  <SCORE>
-16.5328

>  <SCORE.INTER>
-16.4921

>  <SCORE.INTER.CONST>
1

>  <SCORE.INTER.POLAR>
-1.34164

>  <SCORE.INTER.ROT>
3

>  <SCORE.INTER.SOLV>
11.5252

>  <SCORE.INTER.VDW>
-15.9643

>  <SCORE.INTER.norm>
-1.37434

>  <SCORE.INTRA>
-0.0407442

>  <SCORE.INTRA.DIHEDRAL>
2.89408

>  <SCORE.INTRA.DIHEDRAL.0>
1.88407

>  <SCORE.INTRA.POLAR>
0

>  <SCORE.INTRA.POLAR.0>
0

>  <SCORE.INTRA.REPUL>
0

>  <SCORE.INTRA.REPUL.0>
0

>  <SCORE.INTRA.SOLV>
0.102486

>  <SCORE.INTRA.SOLV.lig_0>
-10.2714

>  <SCORE.INTRA.VDW>
-1.53903

>  <SCORE.INTRA.VDW.0>
0.416923

>  <SCORE.INTRA.norm>
-0.00339535

>  <SCORE.RESTR>
0

>  <SCORE.RESTR.CAVITY>
0

>  <SCORE.RESTR.norm>
0

>  <SCORE.SYSTEM>
0

>  <SCORE.SYSTEM.CONST>
0

>  <SCORE.SYSTEM.DIHEDRAL>
0

>  <SCORE.SYSTEM.SOLV>
0

>  <SCORE.SYSTEM.norm>
0

>  <SCORE.heavy>
12

>  <SCORE.norm>
-1.37774

>  <RMSD>
42.799

$$$$
ligand
 OpenBabel11021811433D
libRbt.so/2013.1/901 2013/11/27
 12 12  0  0  0  0  0  0  0  0999 V2000
    9.3579    2.4144   -0.8338 O   0  0  0  0  0  0  0  0  0  0  0  0
    9.9507   -3.6635   -2.5226 O   0  0  0  0  0  0  0  0  0  0  0  0
   10.1994    3.2219   -1.7116 C   0  0  0  0  0  0  0  0  0  0  0  0
    9.4149   -1.5717   -1.3323 O   0  0  0  0  0  0  0  0  0  0  0  0
   11.1271    2.3254   -2.5821 C   0  0  0  0  0  0  0  0  0  0  0  0
    9.0018   -2.0894   -3.1901 O   0  0  0  0  0  0  0  0  0  0  0  0
   10.8568    0.8812   -2.2610 N   0  0  0  0  0  0  0  0  0  0  0  0
   11.0736    0.6213   -0.8054 C   0  0  0  0  0  0  0  0  0  0  0  0
   10.1808    1.5795    0.0331 C   0  0  0  0  0  0  0  0  0  0  0  0
   11.7286   -0.0453   -3.0646 C   0  0  0  0  0  0  0  0  0  0  0  0
   10.9028   -1.2053   -3.6716 C   0  0  0  0  0  0  0  0  0  0  0  0
   10.2003   -2.2508   -2.3739 S   0  0  0  0  0  0  0  0  0  0  0  0
  1  3  1  0  0  0  0
  1  9  1  0  0  0  0
  2 12  1  0  0  0  0
  3  5  1  0  0  0  0
  4 12  2  0  0  0  0
  5  7  1  0  0  0  0
  6 12  2  0  0  0  0
  7  8  1  0  0  0  0
  7 10  1  0  0  0  0
  8  9  1  0  0  0  0
 10 11  1  0  0  0  0
 11 12  1  0  0  0  0
M  END
>  <CHROM.1>
-133.63343835,-63.94323431,-149.40898197,10.28389281,-0.24320974,-2.05627344
1.42780638,0.95343881,0.38108807

>  <Name>
ligand

>  <RI>
0

>  <Rbt.Current_Directory>
/home/itssahil/PROJECTS/Mol_Feturizer/New_Systems/rnas/2HO6

>  <Rbt.Executable>
rbdock ($Id: //depot/dev/client3/rdock/2013.1/src/exe/rbdock.cxx#4 $)

>  <Rbt.Library>
libRbt.so (2013.1, Build901 2013/11/27)

>  <Rbt.Parameter_File>
/export/apps/rDock/src/rDock_2013.1_src/data/scripts/dock_solv.prm

>  <Rbt.Receptor>
prm/blind_docking_40.prm

>  <SCORE>
-18.6648

>  <SCORE.INTER>
-18.8404

>  <SCORE.INTER.CONST>
1

>  <SCORE.INTER.POLAR>
-2.22084

>  <SCORE.INTER.ROT>
3

>  <SCORE.INTER.SOLV>
11.6181

>  <SCORE.INTER.VDW>
-14.6302

>  <SCORE.INTER.norm>
-1.57003

>  <SCORE.INTRA>
0.175594

>  <SCORE.INTRA.DIHEDRAL>
1.95164

>  <SCORE.INTRA.DIHEDRAL.0>
1.88407

>  <SCORE.INTRA.POLAR>
0

>  <SCORE.INTRA.POLAR.0>
0

>  <SCORE.INTRA.REPUL>
0

>  <SCORE.INTRA.REPUL.0>
0

>  <SCORE.INTRA.SOLV>
1.24014

>  <SCORE.INTRA.SOLV.lig_0>
-10.2714

>  <SCORE.INTRA.VDW>
-1.42029

>  <SCORE.INTRA.VDW.0>
0.416923

>  <SCORE.INTRA.norm>
0.0146328

>  <SCORE.RESTR>
0

>  <SCORE.RESTR.CAVITY>
0

>  <SCORE.RESTR.norm>
0

>  <SCORE.SYSTEM>
0

>  <SCORE.SYSTEM.CONST>
0

>  <SCORE.SYSTEM.DIHEDRAL>
0

>  <SCORE.SYSTEM.SOLV>
0

>  <SCORE.SYSTEM.norm>
0

>  <SCORE.heavy>
12

>  <SCORE.norm>
-1.5554

>  <RMSD>
42.799

$$$$
ligand
 OpenBabel11021811433D
libRbt.so/2013.1/901 2013/11/27
 12 12  0  0  0  0  0  0  0  0999 V2000
   10.8326    1.5309   -3.3707 O   0  0  0  0  0  0  0  0  0  0  0  0
    9.8886   -2.2362   -0.3097 O   0  0  0  0  0  0  0  0  0  0  0  0
   11.6376    0.5579   -2.6385 C   0  0  0  0  0  0  0  0  0  0  0  0
    8.4593   -2.5118    1.6804 O   0  0  0  0  0  0  0  0  0  0  0  0
   11.1140    0.3755   -1.1843 C   0  0  0  0  0  0  0  0  0  0  0  0
    7.9527   -2.0060   -0.1574 O   0  0  0  0  0  0  0  0  0  0  0  0
    9.9120    1.2563   -0.9809 N   0  0  0  0  0  0  0  0  0  0  0  0
   10.2609    2.6846   -1.2489 C   0  0  0  0  0  0  0  0  0  0  0  0
   10.8419    2.8177   -2.6853 C   0  0  0  0  0  0  0  0  0  0  0  0
    9.3567    1.1354    0.4124 C   0  0  0  0  0  0  0  0  0  0  0  0
    8.2914    0.0155    0.4953 C   0  0  0  0  0  0  0  0  0  0  0  0
    9.0675   -1.6057    0.6945 S   0  0  0  0  0  0  0  0  0  0  0  0
  1  3  1  0  0  0  0
  1  9  1  0  0  0  0
  2 12  1  0  0  0  0
  3  5  1  0  0  0  0
  4 12  2  0  0  0  0
  5  7  1  0  0  0  0
  6 12  2  0  0  0  0
  7  8  1  0  0  0  0
  7 10  1  0  0  0  0
  8  9  1  0  0  0  0
 10 11  1  0  0  0  0
 11 12  1  0  0  0  0
M  END
>  <CHROM.1>
-89.90977277,82.45694230,-66.06743418,9.71208136,-0.05680441,-0.62846144
-0.85682906,-0.91223514,3.05849390

>  <Name>
ligand

>  <RI>
0

>  <Rbt.Current_Directory>
/home/itssahil/PROJECTS/Mol_Feturizer/New_Systems/rnas/2HO6

>  <Rbt.Executable>
rbdock ($Id: //depot/dev/client3/rdock/2013.1/src/exe/rbdock.cxx#4 $)

>  <Rbt.Library>
libRbt.so (2013.1, Build901 2013/11/27)

>  <Rbt.Parameter_File>
/export/apps/rDock/src/rDock_2013.1_src/data/scripts/dock_solv.prm

>  <Rbt.Receptor>
prm/blind_docking_80.prm

>  <SCORE>
-16.4548

>  <SCORE.INTER>
-16.3855

>  <SCORE.INTER.CONST>
1

>  <SCORE.INTER.POLAR>
-1.34149

>  <SCORE.INTER.ROT>
3

>  <SCORE.INTER.SOLV>
11.3867

>  <SCORE.INTER.VDW>
-15.8476

>  <SCORE.INTER.norm>
-1.36546

>  <SCORE.INTRA>
-0.0692896

>  <SCORE.INTRA.DIHEDRAL>
2.89758

>  <SCORE.INTRA.DIHEDRAL.0>
1.88407

>  <SCORE.INTRA.POLAR>
0

>  <SCORE.INTRA.POLAR.0>
0

>  <SCORE.INTRA.REPUL>
0

>  <SCORE.INTRA.REPUL.0>
0

>  <SCORE.INTRA.SOLV>
0.111988

>  <SCORE.INTRA.SOLV.lig_0>
-10.2714

>  <SCORE.INTRA.VDW>
-1.57407

>  <SCORE.INTRA.VDW.0>
0.416923

>  <SCORE.INTRA.norm>
-0.00577413

>  <SCORE.RESTR>
0

>  <SCORE.RESTR.CAVITY>
0

>  <SCORE.RESTR.norm>
0

>  <SCORE.SYSTEM>
0

>  <SCORE.SYSTEM.CONST>
0

>  <SCORE.SYSTEM.DIHEDRAL>
0

>  <SCORE.SYSTEM.SOLV>
0

>  <SCORE.SYSTEM.norm>
0

>  <SCORE.heavy>
12

>  <SCORE.norm>
-1.37123

>  <RMSD>
42.800

$$$$
ligand
 OpenBabel11021811433D
libRbt.so/2013.1/901 2013/11/27
 12 12  0  0  0  0  0  0  0  0999 V2000
    9.0051    1.5263    0.1240 O   0  0  0  0  0  0  0  0  0  0  0  0
    9.1715   -1.4537   -4.9016 O   0  0  0  0  0  0  0  0  0  0  0  0
    9.4875    2.8397   -0.2920 C   0  0  0  0  0  0  0  0  0  0  0  0
   10.4625   -1.6881   -2.8141 O   0  0  0  0  0  0  0  0  0  0  0  0
   10.5225    2.7184   -1.4480 C   0  0  0  0  0  0  0  0  0  0  0  0
    9.2429   -0.2409   -3.3693 O   0  0  0  0  0  0  0  0  0  0  0  0
   10.6984    1.2667   -1.7995 N   0  0  0  0  0  0  0  0  0  0  0  0
   11.1404    0.4901   -0.6016 C   0  0  0  0  0  0  0  0  0  0  0  0
   10.1181    0.6881    0.5534 C   0  0  0  0  0  0  0  0  0  0  0  0
   11.6958    1.0747   -2.9097 C   0  0  0  0  0  0  0  0  0  0  0  0
   10.9948    0.6654   -4.2276 C   0  0  0  0  0  0  0  0  0  0  0  0
   10.2690   -0.9854   -4.0915 S   0  0  0  0  0  0  0  0  0  0  0  0
  1  3  1  0  0  0  0
  1  9  1  0  0  0  0
  2 12  1  0  0  0  0
  3  5  1  0  0  0  0
  4 12  2  0  0  0  0
  5  7  1  0  0  0  0
  6 12  2  0  0  0  0
  7  8  1  0  0  0  0
  7 10  1  0  0  0  0
  8  9  1  0  0  0  0
 10 11  1  0  0  0  0
 11 12  1  0  0  0  0
M  END
>  <CHROM.1>
-107.93449932,-67.35411042,156.21273993,10.20622114,0.38793146,-2.35264918
1.59031020,1.05045544,0.92777516

>  <Name>
ligand

>  <RI>
0

>  <Rbt.Current_Directory>
/home/itssahil/PROJECTS/Mol_Feturizer/New_Systems/rnas/2HO6

>  <Rbt.Executable>
rbdock ($Id: //depot/dev/client3/rdock/2013.1/src/exe/rbdock.cxx#4 $)

>  <Rbt.Library>
libRbt.so (2013.1, Build901 2013/11/27)

>  <Rbt.Parameter_File>
/export/apps/rDock/src/rDock_2013.1_src/data/scripts/dock_solv.prm

>  <Rbt.Receptor>
prm/blind_docking_100.prm

>  <SCORE>
-17.6882

>  <SCORE.INTER>
-18.4137

>  <SCORE.INTER.CONST>
1

>  <SCORE.INTER.POLAR>
-1.34164

>  <SCORE.INTER.ROT>
3

>  <SCORE.INTER.SOLV>
9.57881

>  <SCORE.INTER.VDW>
-16.5966

>  <SCORE.INTER.norm>
-1.53447

>  <SCORE.INTRA>
0.725449

>  <SCORE.INTRA.DIHEDRAL>
2.39461

>  <SCORE.INTRA.DIHEDRAL.0>
1.88407

>  <SCORE.INTRA.POLAR>
0

>  <SCORE.INTRA.POLAR.0>
0

>  <SCORE.INTRA.REPUL>
0

>  <SCORE.INTRA.REPUL.0>
0

>  <SCORE.INTRA.SOLV>
1.62956

>  <SCORE.INTRA.SOLV.lig_0>
-10.2714

>  <SCORE.INTRA.VDW>
-1.28664

>  <SCORE.INTRA.VDW.0>
0.416923

>  <SCORE.INTRA.norm>
0.0604541

>  <SCORE.RESTR>
0

>  <SCORE.RESTR.CAVITY>
0

>  <SCORE.RESTR.norm>
0

>  <SCORE.SYSTEM>
0

>  <SCORE.SYSTEM.CONST>
0

>  <SCORE.SYSTEM.DIHEDRAL>
0

>  <SCORE.SYSTEM.SOLV>
0

>  <SCORE.SYSTEM.norm>
0

>  <SCORE.heavy>
12

>  <SCORE.norm>
-1.47402

>  <RMSD>
42.802

$$$$
ligand
 OpenBabel11021811433D
libRbt.so/2013.1/901 2013/11/27
 12 12  0  0  0  0  0  0  0  0999 V2000
   10.6992   -2.5177    1.2795 O   0  0  0  0  0  0  0  0  0  0  0  0
    9.3541    0.3752   -2.3437 O   0  0  0  0  0  0  0  0  0  0  0  0
    9.5109   -2.7355    0.4602 C   0  0  0  0  0  0  0  0  0  0  0  0
   10.8411    2.3306   -2.5537 O   0  0  0  0  0  0  0  0  0  0  0  0
    8.7395   -1.4047    0.2235 C   0  0  0  0  0  0  0  0  0  0  0  0
   10.9306    0.8281   -1.2791 O   0  0  0  0  0  0  0  0  0  0  0  0
    9.4737   -0.2833    0.9057 N   0  0  0  0  0  0  0  0  0  0  0  0
    9.6170   -0.5664    2.3661 C   0  0  0  0  0  0  0  0  0  0  0  0
   10.3318   -1.9333    2.5637 C   0  0  0  0  0  0  0  0  0  0  0  0
    8.7759    1.0374    0.7235 C   0  0  0  0  0  0  0  0  0  0  0  0
    9.6769    2.0478   -0.0270 C   0  0  0  0  0  0  0  0  0  0  0  0
    9.8122    1.6207   -1.7790 S   0  0  0  0  0  0  0  0  0  0  0  0
  1  3  1  0  0  0  0
  1  9  1  0  0  0  0
  2 12  1  0  0  0  0
  3  5  1  0  0  0  0
  4 12  2  0  0  0  0
  5  7  1  0  0  0  0
  6 12  2  0  0  0  0
  7  8  1  0  0  0  0
  7 10  1  0  0  0  0
  8  9  1  0  0  0  0
 10 11  1  0  0  0  0
 11 12  1  0  0  0  0
M  END
>  <CHROM.1>
-118.74588320,72.98764442,-10.83988565,9.83958641,0.07409362,-0.17603364
-1.83080184,1.39248454,-0.51944296

>  <Name>
ligand

>  <RI>
0

>  <Rbt.Current_Directory>
/home/itssahil/PROJECTS/Mol_Feturizer/New_Systems/rnas/2HO6

>  <Rbt.Executable>
rbdock ($Id: //depot/dev/client3/rdock/2013.1/src/exe/rbdock.cxx#4 $)

>  <Rbt.Library>
libRbt.so (2013.1, Build901 2013/11/27)

>  <Rbt.Parameter_File>
/export/apps/rDock/src/rDock_2013.1_src/data/scripts/dock_solv.prm

>  <Rbt.Receptor>
prm/blind_docking_100.prm

>  <SCORE>
-14.4976

>  <SCORE.INTER>
-14.4002

>  <SCORE.INTER.CONST>
1

>  <SCORE.INTER.POLAR>
-1.34164

>  <SCORE.INTER.ROT>
3

>  <SCORE.INTER.SOLV>
9.16155

>  <SCORE.INTER.VDW>
-13.7818

>  <SCORE.INTER.norm>
-1.20002

>  <SCORE.INTRA>
-0.0974411

>  <SCORE.INTRA.DIHEDRAL>
2.90011

>  <SCORE.INTRA.DIHEDRAL.0>
1.88407

>  <SCORE.INTRA.POLAR>
0

>  <SCORE.INTRA.POLAR.0>
0

>  <SCORE.INTRA.REPUL>
0

>  <SCORE.INTRA.REPUL.0>
0

>  <SCORE.INTRA.SOLV>
0.584273

>  <SCORE.INTRA.SOLV.lig_0>
-10.2714

>  <SCORE.INTRA.VDW>
-1.83963

>  <SCORE.INTRA.VDW.0>
0.416923

>  <SCORE.INTRA.norm>
-0.00812009

>  <SCORE.RESTR>
0

>  <SCORE.RESTR.CAVITY>
0

>  <SCORE.RESTR.norm>
0

>  <SCORE.SYSTEM>
0

>  <SCORE.SYSTEM.CONST>
0

>  <SCORE.SYSTEM.DIHEDRAL>
0

>  <SCORE.SYSTEM.SOLV>
0

>  <SCORE.SYSTEM.norm>
0

>  <SCORE.heavy>
12

>  <SCORE.norm>
-1.20814

>  <RMSD>
42.803

$$$$
ligand
 OpenBabel11021811433D
libRbt.so/2013.1/901 2013/11/27
 12 12  0  0  0  0  0  0  0  0999 V2000
    9.3775    2.4221   -0.8970 O   0  0  0  0  0  0  0  0  0  0  0  0
    9.8879   -3.6497   -2.6618 O   0  0  0  0  0  0  0  0  0  0  0  0
   10.2211    3.2211   -1.7806 C   0  0  0  0  0  0  0  0  0  0  0  0
    9.4384   -1.5787   -1.4015 O   0  0  0  0  0  0  0  0  0  0  0  0
   11.1562    2.3166   -2.6347 C   0  0  0  0  0  0  0  0  0  0  0  0
    9.0043   -2.0165   -3.2750 O   0  0  0  0  0  0  0  0  0  0  0  0
   10.8888    0.8757   -2.2966 N   0  0  0  0  0  0  0  0  0  0  0  0
   11.0987    0.6351   -0.8366 C   0  0  0  0  0  0  0  0  0  0  0  0
   10.1984    1.6010   -0.0152 C   0  0  0  0  0  0  0  0  0  0  0  0
   11.7679   -0.0581   -3.0837 C   0  0  0  0  0  0  0  0  0  0  0  0
   10.9399   -1.1955   -3.7293 C   0  0  0  0  0  0  0  0  0  0  0  0
   10.1953   -2.2541   -2.4663 S   0  0  0  0  0  0  0  0  0  0  0  0
  1  3  1  0  0  0  0
  1  9  1  0  0  0  0
  2 12  1  0  0  0  0
  3  5  1  0  0  0  0
  4 12  2  0  0  0  0
  5  7  1  0  0  0  0
  6 12  2  0  0  0  0
  7  8  1  0  0  0  0
  7 10  1  0  0  0  0
  8  9  1  0  0  0  0
 10 11  1  0  0  0  0
 11 12  1  0  0  0  0
M  END
>  <CHROM.1>
-131.25535355,-64.65375448,-151.62011361,10.29621225,-0.23534047,-2.12353344
1.41946655,0.93740317,0.39701976

>  <Name>
ligand

>  <RI>
0

>  <Rbt.Current_Directory>
/home/itssahil/PROJECTS/Mol_Feturizer/New_Systems/rnas/2HO6

>  <Rbt.Executable>
rbdock ($Id: //depot/dev/client3/rdock/2013.1/src/exe/rbdock.cxx#4 $)

>  <Rbt.Library>
libRbt.so (2013.1, Build901 2013/11/27)

>  <Rbt.Parameter_File>
/export/apps/rDock/src/rDock_2013.1_src/data/scripts/dock_solv.prm

>  <Rbt.Receptor>
prm/blind_docking_40.prm

>  <SCORE>
-18.9143

>  <SCORE.INTER>
-19.0427

>  <SCORE.INTER.CONST>
1

>  <SCORE.INTER.POLAR>
-2.22721

>  <SCORE.INTER.ROT>
3

>  <SCORE.INTER.SOLV>
11.6678

>  <SCORE.INTER.VDW>
-14.7604

>  <SCORE.INTER.norm>
-1.58689

>  <SCORE.INTRA>
0.12838

>  <SCORE.INTRA.DIHEDRAL>
2.07116

>  <SCORE.INTRA.DIHEDRAL.0>
1.88407

>  <SCORE.INTRA.POLAR>
0

>  <SCORE.INTRA.POLAR.0>
0

>  <SCORE.INTRA.REPUL>
0

>  <SCORE.INTRA.REPUL.0>
0

>  <SCORE.INTRA.SOLV>
1.2414

>  <SCORE.INTRA.SOLV.lig_0>
-10.2714

>  <SCORE.INTRA.VDW>
-1.5279

>  <SCORE.INTRA.VDW.0>
0.416923

>  <SCORE.INTRA.norm>
0.0106983

>  <SCORE.RESTR>
0

>  <SCORE.RESTR.CAVITY>
0

>  <SCORE.RESTR.norm>
0

>  <SCORE.SYSTEM>
0

>  <SCORE.SYSTEM.CONST>
0

>  <SCORE.SYSTEM.DIHEDRAL>
0

>  <SCORE.SYSTEM.SOLV>
0

>  <SCORE.SYSTEM.norm>
0

>  <SCORE.heavy>
12

>  <SCORE.norm>
-1.57619

>  <RMSD>
42.803

$$$$
ligand
 OpenBabel11021811433D
libRbt.so/2013.1/901 2013/11/27
 12 12  0  0  0  0  0  0  0  0999 V2000
    8.4833   -2.3312   -0.7116 O   0  0  0  0  0  0  0  0  0  0  0  0
   11.2137    3.4253   -2.4103 O   0  0  0  0  0  0  0  0  0  0  0  0
    8.2632   -2.0321    0.7000 C   0  0  0  0  0  0  0  0  0  0  0  0
    9.9854    1.2995   -2.6374 O   0  0  0  0  0  0  0  0  0  0  0  0
    9.2286   -0.9164    1.1955 C   0  0  0  0  0  0  0  0  0  0  0  0
    9.4983    2.9178   -1.6205 O   0  0  0  0  0  0  0  0  0  0  0  0
   10.0926   -0.4693    0.0486 N   0  0  0  0  0  0  0  0  0  0  0  0
   10.8546   -1.6264   -0.5120 C   0  0  0  0  0  0  0  0  0  0  0  0
    9.8628   -2.7472   -0.9346 C   0  0  0  0  0  0  0  0  0  0  0  0
   11.0596    0.6074    0.4605 C   0  0  0  0  0  0  0  0  0  0  0  0
   10.5703    2.0035    0.0050 C   0  0  0  0  0  0  0  0  0  0  0  0
   10.7630    2.2081   -1.7814 S   0  0  0  0  0  0  0  0  0  0  0  0
  1  3  1  0  0  0  0
  1  9  1  0  0  0  0
  2 12  1  0  0  0  0
  3  5  1  0  0  0  0
  4 12  2  0  0  0  0
  5  7  1  0  0  0  0
  6 12  2  0  0  0  0
  7  8  1  0  0  0  0
  7 10  1  0  0  0  0
  8  9  1  0  0  0  0
 10 11  1  0  0  0  0
 11 12  1  0  0  0  0
M  END
>  <CHROM.1>
-101.73816529,-73.24067394,-139.68149520,10.05350385,0.42794615,-0.83243390
2.59333176,1.25638325,1.75871752

>  <Name>
ligand

>  <RI>
0

>  <Rbt.Current_Directory>
/home/itssahil/PROJECTS/Mol_Feturizer/New_Systems/rnas/2HO6

>  <Rbt.Executable>
rbdock ($Id: //depot/dev/client3/rdock/2013.1/src/exe/rbdock.cxx#4 $)

>  <Rbt.Library>
libRbt.so (2013.1, Build901 2013/11/27)

>  <Rbt.Parameter_File>
/export/apps/rDock/src/rDock_2013.1_src/data/scripts/dock_solv.prm

>  <Rbt.Receptor>
prm/blind_docking_20.prm

>  <SCORE>
-16.6713

>  <SCORE.INTER>
-16.4841

>  <SCORE.INTER.CONST>
1

>  <SCORE.INTER.POLAR>
-1.34164

>  <SCORE.INTER.ROT>
3

>  <SCORE.INTER.SOLV>
8.73596

>  <SCORE.INTER.VDW>
-15.0292

>  <SCORE.INTER.norm>
-1.37367

>  <SCORE.INTRA>
-0.187212

>  <SCORE.INTRA.DIHEDRAL>
2.45202

>  <SCORE.INTRA.DIHEDRAL.0>
1.88407

>  <SCORE.INTRA.POLAR>
0

>  <SCORE.INTRA.POLAR.0>
0

>  <SCORE.INTRA.REPUL>
0

>  <SCORE.INTRA.REPUL.0>
0

>  <SCORE.INTRA.SOLV>
0.781519

>  <SCORE.INTRA.SOLV.lig_0>
-10.2714

>  <SCORE.INTRA.VDW>
-1.80398

>  <SCORE.INTRA.VDW.0>
0.416923

>  <SCORE.INTRA.norm>
-0.015601

>  <SCORE.RESTR>
0

>  <SCORE.RESTR.CAVITY>
0

>  <SCORE.RESTR.norm>
0

>  <SCORE.SYSTEM>
0

>  <SCORE.SYSTEM.CONST>
0

>  <SCORE.SYSTEM.DIHEDRAL>
0

>  <SCORE.SYSTEM.SOLV>
0

>  <SCORE.SYSTEM.norm>
0

>  <SCORE.heavy>
12

>  <SCORE.norm>
-1.38927

>  <RMSD>
42.808

$$$$
ligand
 OpenBabel11021811433D
libRbt.so/2013.1/901 2013/11/27
 12 12  0  0  0  0  0  0  0  0999 V2000
    9.5065    2.2665   -0.7010 O   0  0  0  0  0  0  0  0  0  0  0  0
    9.8937   -3.6023   -2.8774 O   0  0  0  0  0  0  0  0  0  0  0  0
   10.2175    3.1510   -1.6191 C   0  0  0  0  0  0  0  0  0  0  0  0
    9.4792   -1.5756   -1.5359 O   0  0  0  0  0  0  0  0  0  0  0  0
   11.0741    2.3382   -2.6329 C   0  0  0  0  0  0  0  0  0  0  0  0
    8.9460   -1.9713   -3.3930 O   0  0  0  0  0  0  0  0  0  0  0  0
   10.8912    0.8697   -2.3642 N   0  0  0  0  0  0  0  0  0  0  0  0
   11.2761    0.5453   -0.9570 C   0  0  0  0  0  0  0  0  0  0  0  0
   10.4485    1.4227    0.0245 C   0  0  0  0  0  0  0  0  0  0  0  0
   11.7007    0.0213   -3.3071 C   0  0  0  0  0  0  0  0  0  0  0  0
   10.8366   -1.0995   -3.9339 C   0  0  0  0  0  0  0  0  0  0  0  0
   10.1858   -2.2066   -2.6607 S   0  0  0  0  0  0  0  0  0  0  0  0
  1  3  1  0  0  0  0
  1  9  1  0  0  0  0
  2 12  1  0  0  0  0
  3  5  1  0  0  0  0
  4 12  2  0  0  0  0
  5  7  1  0  0  0  0
  6 12  2  0  0  0  0
  7  8  1  0  0  0  0
  7 10  1  0  0  0  0
  8  9  1  0  0  0  0
 10 11  1  0  0  0  0
 11 12  1  0  0  0  0
M  END
>  <CHROM.1>
-131.01445808,-61.17320823,-150.57136094,10.31685806,-0.24305597,-2.20785129
1.35894367,1.02216217,0.51875095

>  <Name>
ligand

>  <RI>
0

>  <Rbt.Current_Directory>
/home/itssahil/PROJECTS/Mol_Feturizer/New_Systems/rnas/2HO6

>  <Rbt.Executable>
rbdock ($Id: //depot/dev/client3/rdock/2013.1/src/exe/rbdock.cxx#4 $)

>  <Rbt.Library>
libRbt.so (2013.1, Build901 2013/11/27)

>  <Rbt.Parameter_File>
/export/apps/rDock/src/rDock_2013.1_src/data/scripts/dock_solv.prm

>  <Rbt.Receptor>
prm/blind_docking_20.prm

>  <SCORE>
-18.9283

>  <SCORE.INTER>
-18.9888

>  <SCORE.INTER.CONST>
1

>  <SCORE.INTER.POLAR>
-2.23058

>  <SCORE.INTER.ROT>
3

>  <SCORE.INTER.SOLV>
11.7603

>  <SCORE.INTER.VDW>
-14.744

>  <SCORE.INTER.norm>
-1.5824

>  <SCORE.INTRA>
0.0605168

>  <SCORE.INTRA.DIHEDRAL>
2.00456

>  <SCORE.INTRA.DIHEDRAL.0>
1.88407

>  <SCORE.INTRA.POLAR>
0

>  <SCORE.INTRA.POLAR.0>
0

>  <SCORE.INTRA.REPUL>
0

>  <SCORE.INTRA.REPUL.0>
0

>  <SCORE.INTRA.SOLV>
1.27806

>  <SCORE.INTRA.SOLV.lig_0>
-10.2714

>  <SCORE.INTRA.VDW>
-1.58079

>  <SCORE.INTRA.VDW.0>
0.416923

>  <SCORE.INTRA.norm>
0.00504306

>  <SCORE.RESTR>
0

>  <SCORE.RESTR.CAVITY>
0

>  <SCORE.RESTR.norm>
0

>  <SCORE.SYSTEM>
0

>  <SCORE.SYSTEM.CONST>
0

>  <SCORE.SYSTEM.DIHEDRAL>
0

>  <SCORE.SYSTEM.SOLV>
0

>  <SCORE.SYSTEM.norm>
0

>  <SCORE.heavy>
12

>  <SCORE.norm>
-1.57736

>  <RMSD>
42.809

$$$$
ligand
 OpenBabel11021811433D
libRbt.so/2013.1/901 2013/11/27
 12 12  0  0  0  0  0  0  0  0999 V2000
    9.3616    2.4099   -0.8774 O   0  0  0  0  0  0  0  0  0  0  0  0
    9.8691   -3.6547   -2.7024 O   0  0  0  0  0  0  0  0  0  0  0  0
   10.1986    3.2105   -1.7658 C   0  0  0  0  0  0  0  0  0  0  0  0
    9.4315   -1.6033   -1.4064 O   0  0  0  0  0  0  0  0  0  0  0  0
   11.1399    2.3084   -2.6157 C   0  0  0  0  0  0  0  0  0  0  0  0
    9.0006   -2.0038   -3.2890 O   0  0  0  0  0  0  0  0  0  0  0  0
   10.8835    0.8674   -2.2699 N   0  0  0  0  0  0  0  0  0  0  0  0
   11.0962    0.6362   -0.8087 C   0  0  0  0  0  0  0  0  0  0  0  0
   10.1892    1.5997    0.0082 C   0  0  0  0  0  0  0  0  0  0  0  0
   11.7690   -0.0640   -3.0526 C   0  0  0  0  0  0  0  0  0  0  0  0
   10.9443   -1.1901   -3.7217 C   0  0  0  0  0  0  0  0  0  0  0  0
   10.1868   -2.2654   -2.4807 S   0  0  0  0  0  0  0  0  0  0  0  0
  1  3  1  0  0  0  0
  1  9  1  0  0  0  0
  2 12  1  0  0  0  0
  3  5  1  0  0  0  0
  4 12  2  0  0  0  0
  5  7  1  0  0  0  0
  6 12  2  0  0  0  0
  7  8  1  0  0  0  0
  7 10  1  0  0  0  0
  8  9  1  0  0  0  0
 10 11  1  0  0  0  0
 11 12  1  0  0  0  0
M  END
>  <CHROM.1>
-129.78997389,-65.17353591,-152.10816447,10.28746879,-0.24158050,-2.11831514
1.42254495,0.93310231,0.40289227

>  <Name>
ligand

>  <RI>
0

>  <Rbt.Current_Directory>
/home/itssahil/PROJECTS/Mol_Feturizer/New_Systems/rnas/2HO6

>  <Rbt.Executable>
rbdock ($Id: //depot/dev/client3/rdock/2013.1/src/exe/rbdock.cxx#4 $)

>  <Rbt.Library>
libRbt.so (2013.1, Build901 2013/11/27)

>  <Rbt.Parameter_File>
/export/apps/rDock/src/rDock_2013.1_src/data/scripts/dock_solv.prm

>  <Rbt.Receptor>
prm/blind_docking_40.prm

>  <SCORE>
-18.9179

>  <SCORE.INTER>
-18.9819

>  <SCORE.INTER.CONST>
1

>  <SCORE.INTER.POLAR>
-2.23262

>  <SCORE.INTER.ROT>
3

>  <SCORE.INTER.SOLV>
11.641

>  <SCORE.INTER.VDW>
-14.6929

>  <SCORE.INTER.norm>
-1.58182

>  <SCORE.INTRA>
0.0640084

>  <SCORE.INTRA.DIHEDRAL>
2.1433

>  <SCORE.INTRA.DIHEDRAL.0>
1.88407

>  <SCORE.INTRA.POLAR>
0

>  <SCORE.INTRA.POLAR.0>
0

>  <SCORE.INTRA.REPUL>
0

>  <SCORE.INTRA.REPUL.0>
0

>  <SCORE.INTRA.SOLV>
1.22833

>  <SCORE.INTRA.SOLV.lig_0>
-10.2714

>  <SCORE.INTRA.VDW>
-1.62181

>  <SCORE.INTRA.VDW.0>
0.416923

>  <SCORE.INTRA.norm>
0.00533403

>  <SCORE.RESTR>
0

>  <SCORE.RESTR.CAVITY>
0

>  <SCORE.RESTR.norm>
0

>  <SCORE.SYSTEM>
0

>  <SCORE.SYSTEM.CONST>
0

>  <SCORE.SYSTEM.DIHEDRAL>
0

>  <SCORE.SYSTEM.SOLV>
0

>  <SCORE.SYSTEM.norm>
0

>  <SCORE.heavy>
12

>  <SCORE.norm>
-1.57649

>  <RMSD>
42.810

$$$$
ligand
 OpenBabel11021811433D
libRbt.so/2013.1/901 2013/11/27
 12 12  0  0  0  0  0  0  0  0999 V2000
    9.4310    2.4171   -0.9736 O   0  0  0  0  0  0  0  0  0  0  0  0
    9.8239   -3.7077   -2.6254 O   0  0  0  0  0  0  0  0  0  0  0  0
   10.3099    3.1776   -1.8568 C   0  0  0  0  0  0  0  0  0  0  0  0
    9.4220   -1.6129   -1.3886 O   0  0  0  0  0  0  0  0  0  0  0  0
   11.2339    2.2335   -2.6797 C   0  0  0  0  0  0  0  0  0  0  0  0
    8.9837   -2.0595   -3.2590 O   0  0  0  0  0  0  0  0  0  0  0  0
   10.9224    0.8065   -2.3214 N   0  0  0  0  0  0  0  0  0  0  0  0
   11.1024    0.5862   -0.8542 C   0  0  0  0  0  0  0  0  0  0  0  0
   10.2154    1.5900   -0.0644 C   0  0  0  0  0  0  0  0  0  0  0  0
   11.7884   -0.1642   -3.0777 C   0  0  0  0  0  0  0  0  0  0  0  0
   10.9409   -1.2920   -3.7145 C   0  0  0  0  0  0  0  0  0  0  0  0
   10.1655   -2.3183   -2.4434 S   0  0  0  0  0  0  0  0  0  0  0  0
  1  3  1  0  0  0  0
  1  9  1  0  0  0  0
  2 12  1  0  0  0  0
  3  5  1  0  0  0  0
  4 12  2  0  0  0  0
  5  7  1  0  0  0  0
  6 12  2  0  0  0  0
  7  8  1  0  0  0  0
  7 10  1  0  0  0  0
  8  9  1  0  0  0  0
 10 11  1  0  0  0  0
 11 12  1  0  0  0  0
M  END
>  <CHROM.1>
-131.38381356,-65.27580842,-151.93850204,10.30489491,-0.29056979,-2.13453324
1.39318731,0.91881996,0.39864942

>  <Name>
ligand

>  <RI>
0

>  <Rbt.Current_Directory>
/home/itssahil/PROJECTS/Mol_Feturizer/New_Systems/rnas/2HO6

>  <Rbt.Executable>
rbdock ($Id: //depot/dev/client3/rdock/2013.1/src/exe/rbdock.cxx#4 $)

>  <Rbt.Library>
libRbt.so (2013.1, Build901 2013/11/27)

>  <Rbt.Parameter_File>
/export/apps/rDock/src/rDock_2013.1_src/data/scripts/dock_solv.prm

>  <Rbt.Receptor>
prm/blind_docking_80.prm

>  <SCORE>
-18.7696

>  <SCORE.INTER>
-18.925

>  <SCORE.INTER.CONST>
1

>  <SCORE.INTER.POLAR>
-2.22771

>  <SCORE.INTER.ROT>
3

>  <SCORE.INTER.SOLV>
11.5242

>  <SCORE.INTER.VDW>
-14.6324

>  <SCORE.INTER.norm>
-1.57708

>  <SCORE.INTRA>
0.155376

>  <SCORE.INTRA.DIHEDRAL>
2.08919

>  <SCORE.INTRA.DIHEDRAL.0>
1.88407

>  <SCORE.INTRA.POLAR>
0

>  <SCORE.INTRA.POLAR.0>
0

>  <SCORE.INTRA.REPUL>
0

>  <SCORE.INTRA.REPUL.0>
0

>  <SCORE.INTRA.SOLV>
1.23673

>  <SCORE.INTRA.SOLV.lig_0>
-10.2714

>  <SCORE.INTRA.VDW>
-1.50758

>  <SCORE.INTRA.VDW.0>
0.416923

>  <SCORE.INTRA.norm>
0.012948

>  <SCORE.RESTR>
0

>  <SCORE.RESTR.CAVITY>
0

>  <SCORE.RESTR.norm>
0

>  <SCORE.SYSTEM>
0

>  <SCORE.SYSTEM.CONST>
0

>  <SCORE.SYSTEM.DIHEDRAL>
0

>  <SCORE.SYSTEM.SOLV>
0

>  <SCORE.SYSTEM.norm>
0

>  <SCORE.heavy>
12

>  <SCORE.norm>
-1.56413

>  <RMSD>
42.810

$$$$
ligand
 OpenBabel11021811433D
libRbt.so/2013.1/901 2013/11/27
 12 12  0  0  0  0  0  0  0  0999 V2000
   10.1229    1.7821   -2.5747 O   0  0  0  0  0  0  0  0  0  0  0  0
    8.9102   -2.5170   -1.6892 O   0  0  0  0  0  0  0  0  0  0  0  0
   11.2823    0.8953   -2.5669 C   0  0  0  0  0  0  0  0  0  0  0  0
   10.2350   -3.8495   -0.0928 O   0  0  0  0  0  0  0  0  0  0  0  0
   11.3721    0.0989   -1.2328 C   0  0  0  0  0  0  0  0  0  0  0  0
    8.3803   -3.1978    0.0657 O   0  0  0  0  0  0  0  0  0  0  0  0
   10.2114    0.4786   -0.3549 N   0  0  0  0  0  0  0  0  0  0  0  0
   10.2104    1.9513   -0.1002 C   0  0  0  0  0  0  0  0  0  0  0  0
   10.1875    2.7139   -1.4552 C   0  0  0  0  0  0  0  0  0  0  0  0
   10.2400   -0.2514    0.9605 C   0  0  0  0  0  0  0  0  0  0  0  0
    9.2591   -1.4487    0.9578 C   0  0  0  0  0  0  0  0  0  0  0  0
    9.6004   -2.5647   -0.4236 S   0  0  0  0  0  0  0  0  0  0  0  0
  1  3  1  0  0  0  0
  1  9  1  0  0  0  0
  2 12  1  0  0  0  0
  3  5  1  0  0  0  0
  4 12  2  0  0  0  0
  5  7  1  0  0  0  0
  6 12  2  0  0  0  0
  7  8  1  0  0  0  0
  7 10  1  0  0  0  0
  8  9  1  0  0  0  0
 10 11  1  0  0  0  0
 11 12  1  0  0  0  0
M  END
>  <CHROM.1>
-100.50834643,55.34753842,-95.80646160,9.93982735,-0.74397058,-0.69719507
-0.38246315,-1.31991191,-2.23684769

>  <Name>
ligand

>  <RI>
0

>  <Rbt.Current_Directory>
/home/itssahil/PROJECTS/Mol_Feturizer/New_Systems/rnas/2HO6

>  <Rbt.Executable>
rbdock ($Id: //depot/dev/client3/rdock/2013.1/src/exe/rbdock.cxx#4 $)

>  <Rbt.Library>
libRbt.so (2013.1, Build901 2013/11/27)

>  <Rbt.Parameter_File>
/export/apps/rDock/src/rDock_2013.1_src/data/scripts/dock_solv.prm

>  <Rbt.Receptor>
prm/blind_docking_20.prm

>  <SCORE>
-15.6374

>  <SCORE.INTER>
-14.9547

>  <SCORE.INTER.CONST>
1

>  <SCORE.INTER.POLAR>
-1.34046

>  <SCORE.INTER.ROT>
3

>  <SCORE.INTER.SOLV>
7.40709

>  <SCORE.INTER.VDW>
-13.5706

>  <SCORE.INTER.norm>
-1.24622

>  <SCORE.INTRA>
-0.682737

>  <SCORE.INTRA.DIHEDRAL>
1.96534

>  <SCORE.INTRA.DIHEDRAL.0>
1.88407

>  <SCORE.INTRA.POLAR>
0

>  <SCORE.INTRA.POLAR.0>
0

>  <SCORE.INTRA.REPUL>
0

>  <SCORE.INTRA.REPUL.0>
0

>  <SCORE.INTRA.SOLV>
0.23009

>  <SCORE.INTRA.SOLV.lig_0>
-10.2714

>  <SCORE.INTRA.VDW>
-1.78045

>  <SCORE.INTRA.VDW.0>
0.416923

>  <SCORE.INTRA.norm>
-0.0568947

>  <SCORE.RESTR>
0

>  <SCORE.RESTR.CAVITY>
0

>  <SCORE.RESTR.norm>
0

>  <SCORE.SYSTEM>
0

>  <SCORE.SYSTEM.CONST>
0

>  <SCORE.SYSTEM.DIHEDRAL>
0

>  <SCORE.SYSTEM.SOLV>
0

>  <SCORE.SYSTEM.norm>
0

>  <SCORE.heavy>
12

>  <SCORE.norm>
-1.30312

>  <RMSD>
42.814

$$$$
ligand
 OpenBabel11021811433D
libRbt.so/2013.1/901 2013/11/27
 12 12  0  0  0  0  0  0  0  0999 V2000
    9.5241    2.0793   -0.3916 O   0  0  0  0  0  0  0  0  0  0  0  0
   10.0890   -3.4930   -2.9078 O   0  0  0  0  0  0  0  0  0  0  0  0
   10.0645    3.1005   -1.2836 C   0  0  0  0  0  0  0  0  0  0  0  0
    9.5097   -1.5094   -1.5629 O   0  0  0  0  0  0  0  0  0  0  0  0
   10.8353    2.4575   -2.4730 C   0  0  0  0  0  0  0  0  0  0  0  0
    8.9359   -1.9885   -3.3881 O   0  0  0  0  0  0  0  0  0  0  0  0
   10.7719    0.9601   -2.3473 N   0  0  0  0  0  0  0  0  0  0  0  0
   11.3452    0.5221   -1.0385 C   0  0  0  0  0  0  0  0  0  0  0  0
   10.5954    1.2345    0.1228 C   0  0  0  0  0  0  0  0  0  0  0  0
   11.5068    0.2712   -3.4651 C   0  0  0  0  0  0  0  0  0  0  0  0
   10.6852   -0.9130   -4.0292 C   0  0  0  0  0  0  0  0  0  0  0  0
   10.2287   -2.0703   -2.7167 S   0  0  0  0  0  0  0  0  0  0  0  0
  1  3  1  0  0  0  0
  1  9  1  0  0  0  0
  2 12  1  0  0  0  0
  3  5  1  0  0  0  0
  4 12  2  0  0  0  0
  5  7  1  0  0  0  0
  6 12  2  0  0  0  0
  7  8  1  0  0  0  0
  7 10  1  0  0  0  0
  8  9  1  0  0  0  0
 10 11  1  0  0  0  0
 11 12  1  0  0  0  0
M  END
>  <CHROM.1>
-135.66816721,-54.97576445,-147.65793697,10.29693323,-0.19519464,-2.17599851
1.35381832,1.14720637,0.59418204

>  <Name>
ligand

>  <RI>
0

>  <Rbt.Current_Directory>
/home/itssahil/PROJECTS/Mol_Feturizer/New_Systems/rnas/2HO6

>  <Rbt.Executable>
rbdock ($Id: //depot/dev/client3/rdock/2013.1/src/exe/rbdock.cxx#4 $)

>  <Rbt.Library>
libRbt.so (2013.1, Build901 2013/11/27)

>  <Rbt.Parameter_File>
/export/apps/rDock/src/rDock_2013.1_src/data/scripts/dock_solv.prm

>  <Rbt.Receptor>
prm/blind_docking_60.prm

>  <SCORE>
-18.9761

>  <SCORE.INTER>
-19.1917

>  <SCORE.INTER.CONST>
1

>  <SCORE.INTER.POLAR>
-2.19972

>  <SCORE.INTER.ROT>
3

>  <SCORE.INTER.SOLV>
11.8133

>  <SCORE.INTER.VDW>
-14.9998

>  <SCORE.INTER.norm>
-1.59931

>  <SCORE.INTRA>
0.215562

>  <SCORE.INTRA.DIHEDRAL>
1.8954

>  <SCORE.INTRA.DIHEDRAL.0>
1.88407

>  <SCORE.INTRA.POLAR>
0

>  <SCORE.INTRA.POLAR.0>
0

>  <SCORE.INTRA.REPUL>
0

>  <SCORE.INTRA.REPUL.0>
0

>  <SCORE.INTRA.SOLV>
1.35

>  <SCORE.INTRA.SOLV.lig_0>
-10.2714

>  <SCORE.INTRA.VDW>
-1.40714

>  <SCORE.INTRA.VDW.0>
0.416923

>  <SCORE.INTRA.norm>
0.0179635

>  <SCORE.RESTR>
0

>  <SCORE.RESTR.CAVITY>
0

>  <SCORE.RESTR.norm>
0

>  <SCORE.SYSTEM>
0

>  <SCORE.SYSTEM.CONST>
0

>  <SCORE.SYSTEM.DIHEDRAL>
0

>  <SCORE.SYSTEM.SOLV>
0

>  <SCORE.SYSTEM.norm>
0

>  <SCORE.heavy>
12

>  <SCORE.norm>
-1.58134

>  <RMSD>
42.814

$$$$
ligand
 OpenBabel11021811433D
libRbt.so/2013.1/901 2013/11/27
 12 12  0  0  0  0  0  0  0  0999 V2000
    8.9744    1.4979    0.1255 O   0  0  0  0  0  0  0  0  0  0  0  0
    9.1779   -1.4231   -4.9067 O   0  0  0  0  0  0  0  0  0  0  0  0
    9.4198    2.8299   -0.2722 C   0  0  0  0  0  0  0  0  0  0  0  0
   10.4876   -1.6261   -2.8276 O   0  0  0  0  0  0  0  0  0  0  0  0
   10.4494    2.7541   -1.4368 C   0  0  0  0  0  0  0  0  0  0  0  0
    9.2323   -0.2071   -3.3762 O   0  0  0  0  0  0  0  0  0  0  0  0
   10.6603    1.3133   -1.8131 N   0  0  0  0  0  0  0  0  0  0  0  0
   11.1305    0.5291   -0.6309 C   0  0  0  0  0  0  0  0  0  0  0  0
   10.1116    0.6819    0.5338 C   0  0  0  0  0  0  0  0  0  0  0  0
   11.6545    1.1651   -2.9328 C   0  0  0  0  0  0  0  0  0  0  0  0
   10.9579    0.7369   -4.2471 C   0  0  0  0  0  0  0  0  0  0  0  0
   10.2701   -0.9294   -4.1044 S   0  0  0  0  0  0  0  0  0  0  0  0
  1  3  1  0  0  0  0
  1  9  1  0  0  0  0
  2 12  1  0  0  0  0
  3  5  1  0  0  0  0
  4 12  2  0  0  0  0
  5  7  1  0  0  0  0
  6 12  2  0  0  0  0
  7  8  1  0  0  0  0
  7 10  1  0  0  0  0
  8  9  1  0  0  0  0
 10 11  1  0  0  0  0
 11 12  1  0  0  0  0
M  END
>  <CHROM.1>
-108.84871993,-66.33682625,156.03797382,10.18583022,0.42453665,-2.36213511
1.61011343,1.07017678,0.91969721

>  <Name>
ligand

>  <RI>
0

>  <Rbt.Current_Directory>
/home/itssahil/PROJECTS/Mol_Feturizer/New_Systems/rnas/2HO6

>  <Rbt.Executable>
rbdock ($Id: //depot/dev/client3/rdock/2013.1/src/exe/rbdock.cxx#4 $)

>  <Rbt.Library>
libRbt.so (2013.1, Build901 2013/11/27)

>  <Rbt.Parameter_File>
/export/apps/rDock/src/rDock_2013.1_src/data/scripts/dock_solv.prm

>  <Rbt.Receptor>
prm/blind_docking_20.prm

>  <SCORE>
-17.6919

>  <SCORE.INTER>
-18.4296

>  <SCORE.INTER.CONST>
1

>  <SCORE.INTER.POLAR>
-1.34164

>  <SCORE.INTER.ROT>
3

>  <SCORE.INTER.SOLV>
9.57714

>  <SCORE.INTER.VDW>
-16.6066

>  <SCORE.INTER.norm>
-1.5358

>  <SCORE.INTRA>
0.737639

>  <SCORE.INTRA.DIHEDRAL>
2.37288

>  <SCORE.INTRA.DIHEDRAL.0>
1.88407

>  <SCORE.INTRA.POLAR>
0

>  <SCORE.INTRA.POLAR.0>
0

>  <SCORE.INTRA.REPUL>
0

>  <SCORE.INTRA.REPUL.0>
0

>  <SCORE.INTRA.SOLV>
1.65714

>  <SCORE.INTRA.SOLV.lig_0>
-10.2714

>  <SCORE.INTRA.VDW>
-1.27737

>  <SCORE.INTRA.VDW.0>
0.416923

>  <SCORE.INTRA.norm>
0.0614699

>  <SCORE.RESTR>
0

>  <SCORE.RESTR.CAVITY>
0

>  <SCORE.RESTR.norm>
0

>  <SCORE.SYSTEM>
0

>  <SCORE.SYSTEM.CONST>
0

>  <SCORE.SYSTEM.DIHEDRAL>
0

>  <SCORE.SYSTEM.SOLV>
0

>  <SCORE.SYSTEM.norm>
0

>  <SCORE.heavy>
12

>  <SCORE.norm>
-1.47433

>  <RMSD>
42.818

$$$$
ligand
 OpenBabel11021811433D
libRbt.so/2013.1/901 2013/11/27
 12 12  0  0  0  0  0  0  0  0999 V2000
    8.5251   -2.3464   -0.7652 O   0  0  0  0  0  0  0  0  0  0  0  0
   10.5096    3.2250   -2.9123 O   0  0  0  0  0  0  0  0  0  0  0  0
    8.3421   -2.1500    0.6696 C   0  0  0  0  0  0  0  0  0  0  0  0
   11.5890    1.0546   -2.4614 O   0  0  0  0  0  0  0  0  0  0  0  0
    9.1728   -0.9376    1.1817 C   0  0  0  0  0  0  0  0  0  0  0  0
    9.6994    1.5759   -2.2429 O   0  0  0  0  0  0  0  0  0  0  0  0
    9.9063   -0.3201    0.0230 N   0  0  0  0  0  0  0  0  0  0  0  0
   10.7867   -1.3323   -0.6358 C   0  0  0  0  0  0  0  0  0  0  0  0
    9.9343   -2.5569   -1.0742 C   0  0  0  0  0  0  0  0  0  0  0  0
   10.7395    0.8580    0.4495 C   0  0  0  0  0  0  0  0  0  0  0  0
   10.2742    2.1564   -0.2530 C   0  0  0  0  0  0  0  0  0  0  0  0
   10.9463    2.2652   -1.9283 S   0  0  0  0  0  0  0  0  0  0  0  0
  1  3  1  0  0  0  0
  1  9  1  0  0  0  0
  2 12  1  0  0  0  0
  3  5  1  0  0  0  0
  4 12  2  0  0  0  0
  5  7  1  0  0  0  0
  6 12  2  0  0  0  0
  7  8  1  0  0  0  0
  7 10  1  0  0  0  0
  8  9  1  0  0  0  0
 10 11  1  0  0  0  0
 11 12  1  0  0  0  0
M  END
>  <CHROM.1>
-118.48084863,-80.76902829,168.47687039,10.12186383,0.35373448,-0.98269587
-2.83070781,1.23228683,0.77359470

>  <Name>
ligand

>  <RI>
0

>  <Rbt.Current_Directory>
/home/itssahil/PROJECTS/Mol_Feturizer/New_Systems/rnas/2HO6

>  <Rbt.Executable>
rbdock ($Id: //depot/dev/client3/rdock/2013.1/src/exe/rbdock.cxx#4 $)

>  <Rbt.Library>
libRbt.so (2013.1, Build901 2013/11/27)

>  <Rbt.Parameter_File>
/export/apps/rDock/src/rDock_2013.1_src/data/scripts/dock_solv.prm

>  <Rbt.Receptor>
prm/blind_docking_60.prm

>  <SCORE>
-15.3178

>  <SCORE.INTER>
-16.1814

>  <SCORE.INTER.CONST>
1

>  <SCORE.INTER.POLAR>
-1.34164

>  <SCORE.INTER.ROT>
3

>  <SCORE.INTER.SOLV>
8.71869

>  <SCORE.INTER.VDW>
-14.8217

>  <SCORE.INTER.norm>
-1.34845

>  <SCORE.INTRA>
0.863625

>  <SCORE.INTRA.DIHEDRAL>
3.82003

>  <SCORE.INTRA.DIHEDRAL.0>
1.88407

>  <SCORE.INTRA.POLAR>
0

>  <SCORE.INTRA.POLAR.0>
0

>  <SCORE.INTRA.REPUL>
0

>  <SCORE.INTRA.REPUL.0>
0

>  <SCORE.INTRA.SOLV>
1.32116

>  <SCORE.INTRA.SOLV.lig_0>
-10.2714

>  <SCORE.INTRA.VDW>
-1.70697

>  <SCORE.INTRA.VDW.0>
0.416923

>  <SCORE.INTRA.norm>
0.0719688

>  <SCORE.RESTR>
0

>  <SCORE.RESTR.CAVITY>
0

>  <SCORE.RESTR.norm>
0

>  <SCORE.SYSTEM>
0

>  <SCORE.SYSTEM.CONST>
0

>  <SCORE.SYSTEM.DIHEDRAL>
0

>  <SCORE.SYSTEM.SOLV>
0

>  <SCORE.SYSTEM.norm>
0

>  <SCORE.heavy>
12

>  <SCORE.norm>
-1.27648

>  <RMSD>
42.830

$$$$
ligand
 OpenBabel11021811433D
libRbt.so/2013.1/901 2013/11/27
 12 12  0  0  0  0  0  0  0  0999 V2000
   10.7835    1.4547   -3.4075 O   0  0  0  0  0  0  0  0  0  0  0  0
    9.8289   -2.3155   -0.2735 O   0  0  0  0  0  0  0  0  0  0  0  0
   11.5935    0.4653   -2.7035 C   0  0  0  0  0  0  0  0  0  0  0  0
    8.3614   -2.5452    1.6945 O   0  0  0  0  0  0  0  0  0  0  0  0
   11.1105    0.2849   -1.2351 C   0  0  0  0  0  0  0  0  0  0  0  0
    7.9009   -2.0135   -0.1481 O   0  0  0  0  0  0  0  0  0  0  0  0
    9.9299    1.1845   -0.9923 N   0  0  0  0  0  0  0  0  0  0  0  0
   10.2943    2.6080   -1.2649 C   0  0  0  0  0  0  0  0  0  0  0  0
   10.8345    2.7381   -2.7174 C   0  0  0  0  0  0  0  0  0  0  0  0
    9.4144    1.0664    0.4164 C   0  0  0  0  0  0  0  0  0  0  0  0
    8.3055   -0.0087    0.5185 C   0  0  0  0  0  0  0  0  0  0  0  0
    9.0174   -1.6586    0.7216 S   0  0  0  0  0  0  0  0  0  0  0  0
  1  3  1  0  0  0  0
  1  9  1  0  0  0  0
  2 12  1  0  0  0  0
  3  5  1  0  0  0  0
  4 12  2  0  0  0  0
  5  7  1  0  0  0  0
  6 12  2  0  0  0  0
  7  8  1  0  0  0  0
  7 10  1  0  0  0  0
  8  9  1  0  0  0  0
 10 11  1  0  0  0  0
 11 12  1  0  0  0  0
M  END
>  <CHROM.1>
-91.49699683,84.19132185,-64.48618509,9.68742753,-0.11813333,-0.63282656
-0.81467244,-0.93469606,3.09139424

>  <Name>
ligand

>  <RI>
0

>  <Rbt.Current_Directory>
/home/itssahil/PROJECTS/Mol_Feturizer/New_Systems/rnas/2HO6

>  <Rbt.Executable>
rbdock ($Id: //depot/dev/client3/rdock/2013.1/src/exe/rbdock.cxx#4 $)

>  <Rbt.Library>
libRbt.so (2013.1, Build901 2013/11/27)

>  <Rbt.Parameter_File>
/export/apps/rDock/src/rDock_2013.1_src/data/scripts/dock_solv.prm

>  <Rbt.Receptor>
prm/blind_docking_80.prm

>  <SCORE>
-16.4912

>  <SCORE.INTER>
-16.532

>  <SCORE.INTER.CONST>
1

>  <SCORE.INTER.POLAR>
-1.34164

>  <SCORE.INTER.ROT>
3

>  <SCORE.INTER.SOLV>
11.2613

>  <SCORE.INTER.VDW>
-15.903

>  <SCORE.INTER.norm>
-1.37767

>  <SCORE.INTRA>
0.0407853

>  <SCORE.INTRA.DIHEDRAL>
3.22571

>  <SCORE.INTRA.DIHEDRAL.0>
1.88407

>  <SCORE.INTRA.POLAR>
0

>  <SCORE.INTRA.POLAR.0>
0

>  <SCORE.INTRA.REPUL>
0

>  <SCORE.INTRA.REPUL.0>
0

>  <SCORE.INTRA.SOLV>
0.114189

>  <SCORE.INTRA.SOLV.lig_0>
-10.2714

>  <SCORE.INTRA.VDW>
-1.62917

>  <SCORE.INTRA.VDW.0>
0.416923

>  <SCORE.INTRA.norm>
0.00339878

>  <SCORE.RESTR>
0

>  <SCORE.RESTR.CAVITY>
0

>  <SCORE.RESTR.norm>
0

>  <SCORE.SYSTEM>
0

>  <SCORE.SYSTEM.CONST>
0

>  <SCORE.SYSTEM.DIHEDRAL>
0

>  <SCORE.SYSTEM.SOLV>
0

>  <SCORE.SYSTEM.norm>
0

>  <SCORE.heavy>
12

>  <SCORE.norm>
-1.37427

>  <RMSD>
42.839

$$$$
ligand
 OpenBabel11021811433D
libRbt.so/2013.1/901 2013/11/27
 12 12  0  0  0  0  0  0  0  0999 V2000
   10.3402   -2.3769    1.8073 O   0  0  0  0  0  0  0  0  0  0  0  0
   11.6161    1.1484   -2.4014 O   0  0  0  0  0  0  0  0  0  0  0  0
    9.3106   -2.5656    0.7899 C   0  0  0  0  0  0  0  0  0  0  0  0
    9.2302    0.5343   -2.5007 O   0  0  0  0  0  0  0  0  0  0  0  0
    8.7302   -1.2011    0.3173 C   0  0  0  0  0  0  0  0  0  0  0  0
   10.0522    2.3218   -2.3622 O   0  0  0  0  0  0  0  0  0  0  0  0
    9.4292   -0.0895    1.0505 N   0  0  0  0  0  0  0  0  0  0  0  0
    9.2686   -0.2571    2.5269 C   0  0  0  0  0  0  0  0  0  0  0  0
    9.7976   -1.6561    2.9526 C   0  0  0  0  0  0  0  0  0  0  0  0
    8.9095    1.2635    0.6464 C   0  0  0  0  0  0  0  0  0  0  0  0
    9.9344    2.0162   -0.2362 C   0  0  0  0  0  0  0  0  0  0  0  0
   10.3550    1.0533   -1.7080 S   0  0  0  0  0  0  0  0  0  0  0  0
  1  3  1  0  0  0  0
  1  9  1  0  0  0  0
  2 12  1  0  0  0  0
  3  5  1  0  0  0  0
  4 12  2  0  0  0  0
  5  7  1  0  0  0  0
  6 12  2  0  0  0  0
  7  8  1  0  0  0  0
  7 10  1  0  0  0  0
  8  9  1  0  0  0  0
 10 11  1  0  0  0  0
 11 12  1  0  0  0  0
M  END
>  <CHROM.1>
-107.09248957,57.27323328,-152.19665301,9.82704545,0.12814981,-0.15038755
-2.12106705,1.29036474,-0.38443413

>  <Name>
ligand

>  <RI>
0

>  <Rbt.Current_Directory>
/home/itssahil/PROJECTS/Mol_Feturizer/New_Systems/rnas/2HO6

>  <Rbt.Executable>
rbdock ($Id: //depot/dev/client3/rdock/2013.1/src/exe/rbdock.cxx#4 $)

>  <Rbt.Library>
libRbt.so (2013.1, Build901 2013/11/27)

>  <Rbt.Parameter_File>
/export/apps/rDock/src/rDock_2013.1_src/data/scripts/dock_solv.prm

>  <Rbt.Receptor>
prm/blind_docking_80.prm

>  <SCORE>
-13.11

>  <SCORE.INTER>
-12.6874

>  <SCORE.INTER.CONST>
1

>  <SCORE.INTER.POLAR>
-1.34156

>  <SCORE.INTER.ROT>
3

>  <SCORE.INTER.SOLV>
9.96725

>  <SCORE.INTER.VDW>
-12.9088

>  <SCORE.INTER.norm>
-1.05729

>  <SCORE.INTRA>
-0.422618

>  <SCORE.INTRA.DIHEDRAL>
2.05135

>  <SCORE.INTRA.DIHEDRAL.0>
1.88407

>  <SCORE.INTRA.POLAR>
0

>  <SCORE.INTRA.POLAR.0>
0

>  <SCORE.INTRA.REPUL>
0

>  <SCORE.INTRA.REPUL.0>
0

>  <SCORE.INTRA.SOLV>
0.700304

>  <SCORE.INTRA.SOLV.lig_0>
-10.2714

>  <SCORE.INTRA.VDW>
-1.79845

>  <SCORE.INTRA.VDW.0>
0.416923

>  <SCORE.INTRA.norm>
-0.0352181

>  <SCORE.RESTR>
0

>  <SCORE.RESTR.CAVITY>
0

>  <SCORE.RESTR.norm>
0

>  <SCORE.SYSTEM>
0

>  <SCORE.SYSTEM.CONST>
0

>  <SCORE.SYSTEM.DIHEDRAL>
0

>  <SCORE.SYSTEM.SOLV>
0

>  <SCORE.SYSTEM.norm>
0

>  <SCORE.heavy>
12

>  <SCORE.norm>
-1.0925

>  <RMSD>
42.840

$$$$
ligand
 OpenBabel11021811433D
libRbt.so/2013.1/901 2013/11/27
 12 12  0  0  0  0  0  0  0  0999 V2000
    9.7682   -3.2882   -0.8514 O   0  0  0  0  0  0  0  0  0  0  0  0
    9.7582    0.8341    0.0592 O   0  0  0  0  0  0  0  0  0  0  0  0
   10.7510   -2.8147    0.1184 C   0  0  0  0  0  0  0  0  0  0  0  0
    9.0874    2.8612   -1.1736 O   0  0  0  0  0  0  0  0  0  0  0  0
   11.5223   -1.5756   -0.4218 C   0  0  0  0  0  0  0  0  0  0  0  0
    8.8199    0.9664   -1.6514 O   0  0  0  0  0  0  0  0  0  0  0  0
   10.9999   -1.2295   -1.7890 N   0  0  0  0  0  0  0  0  0  0  0  0
   11.1453   -2.3951   -2.7130 C   0  0  0  0  0  0  0  0  0  0  0  0
   10.4196   -3.6312   -2.1099 C   0  0  0  0  0  0  0  0  0  0  0  0
   11.7099   -0.0402   -2.3768 C   0  0  0  0  0  0  0  0  0  0  0  0
   10.7276    1.1284   -2.6321 C   0  0  0  0  0  0  0  0  0  0  0  0
    9.9613    1.6813   -1.0902 S   0  0  0  0  0  0  0  0  0  0  0  0
  1  3  1  0  0  0  0
  1  9  1  0  0  0  0
  2 12  1  0  0  0  0
  3  5  1  0  0  0  0
  4 12  2  0  0  0  0
  5  7  1  0  0  0  0
  6 12  2  0  0  0  0
  7  8  1  0  0  0  0
  7 10  1  0  0  0  0
  8  9  1  0  0  0  0
 10 11  1  0  0  0  0
 11 12  1  0  0  0  0
M  END
>  <CHROM.1>
-118.22834809,61.04540338,-27.43555588,10.30754386,-0.37169051,-1.33891231
1.13971615,-1.03292745,2.78400771

>  <Name>
ligand

>  <RI>
0

>  <Rbt.Current_Directory>
/home/itssahil/PROJECTS/Mol_Feturizer/New_Systems/rnas/2HO6

>  <Rbt.Executable>
rbdock ($Id: //depot/dev/client3/rdock/2013.1/src/exe/rbdock.cxx#4 $)

>  <Rbt.Library>
libRbt.so (2013.1, Build901 2013/11/27)

>  <Rbt.Parameter_File>
/export/apps/rDock/src/rDock_2013.1_src/data/scripts/dock_solv.prm

>  <Rbt.Receptor>
prm/blind_docking_100.prm

>  <SCORE>
-13.7789

>  <SCORE.INTER>
-13.0655

>  <SCORE.INTER.CONST>
1

>  <SCORE.INTER.POLAR>
-1.34143

>  <SCORE.INTER.ROT>
3

>  <SCORE.INTER.SOLV>
6.38791

>  <SCORE.INTER.VDW>
-11.9682

>  <SCORE.INTER.norm>
-1.08879

>  <SCORE.INTRA>
-0.713459

>  <SCORE.INTRA.DIHEDRAL>
2.2459

>  <SCORE.INTRA.DIHEDRAL.0>
1.88407

>  <SCORE.INTRA.POLAR>
0

>  <SCORE.INTRA.POLAR.0>
0

>  <SCORE.INTRA.REPUL>
0

>  <SCORE.INTRA.REPUL.0>
0

>  <SCORE.INTRA.SOLV>
0.400753

>  <SCORE.INTRA.SOLV.lig_0>
-10.2714

>  <SCORE.INTRA.VDW>
-2.03679

>  <SCORE.INTRA.VDW.0>
0.416923

>  <SCORE.INTRA.norm>
-0.0594549

>  <SCORE.RESTR>
0

>  <SCORE.RESTR.CAVITY>
0

>  <SCORE.RESTR.norm>
0

>  <SCORE.SYSTEM>
0

>  <SCORE.SYSTEM.CONST>
0

>  <SCORE.SYSTEM.DIHEDRAL>
0

>  <SCORE.SYSTEM.SOLV>
0

>  <SCORE.SYSTEM.norm>
0

>  <SCORE.heavy>
12

>  <SCORE.norm>
-1.14824

>  <RMSD>
42.842

$$$$
ligand
 OpenBabel11021811433D
libRbt.so/2013.1/901 2013/11/27
 12 12  0  0  0  0  0  0  0  0999 V2000
   10.1405    1.6041   -2.6384 O   0  0  0  0  0  0  0  0  0  0  0  0
    8.8804   -2.1097   -0.8934 O   0  0  0  0  0  0  0  0  0  0  0  0
   11.3281    0.7560   -2.6068 C   0  0  0  0  0  0  0  0  0  0  0  0
    7.6631   -2.9361    1.0852 O   0  0  0  0  0  0  0  0  0  0  0  0
   11.5201    0.1092   -1.2044 C   0  0  0  0  0  0  0  0  0  0  0  0
    7.5813   -1.1648    0.2217 O   0  0  0  0  0  0  0  0  0  0  0  0
   10.3985    0.5477   -0.3035 N   0  0  0  0  0  0  0  0  0  0  0  0
   10.3615    2.0385   -0.2049 C   0  0  0  0  0  0  0  0  0  0  0  0
   10.2362    2.6514   -1.6286 C   0  0  0  0  0  0  0  0  0  0  0  0
   10.5261   -0.0368    1.0772 C   0  0  0  0  0  0  0  0  0  0  0  0
    9.1824   -0.6365    1.5577 C   0  0  0  0  0  0  0  0  0  0  0  0
    8.6991   -2.0483    0.5362 S   0  0  0  0  0  0  0  0  0  0  0  0
  1  3  1  0  0  0  0
  1  9  1  0  0  0  0
  2 12  1  0  0  0  0
  3  5  1  0  0  0  0
  4 12  2  0  0  0  0
  5  7  1  0  0  0  0
  6 12  2  0  0  0  0
  7  8  1  0  0  0  0
  7 10  1  0  0  0  0
  8  9  1  0  0  0  0
 10 11  1  0  0  0  0
 11 12  1  0  0  0  0
M  END
>  <CHROM.1>
-132.59218702,65.00946454,-38.98875542,9.56940482,-0.32551139,-0.33402895
0.30229846,-1.03829598,-1.79648447

>  <Name>
ligand

>  <RI>
0

>  <Rbt.Current_Directory>
/home/itssahil/PROJECTS/Mol_Feturizer/New_Systems/rnas/2HO6

>  <Rbt.Executable>
rbdock ($Id: //depot/dev/client3/rdock/2013.1/src/exe/rbdock.cxx#4 $)

>  <Rbt.Library>
libRbt.so (2013.1, Build901 2013/11/27)

>  <Rbt.Parameter_File>
/export/apps/rDock/src/rDock_2013.1_src/data/scripts/dock_solv.prm

>  <Rbt.Receptor>
prm/blind_docking_40.prm

>  <SCORE>
-20.3792

>  <SCORE.INTER>
-19.5535

>  <SCORE.INTER.CONST>
1

>  <SCORE.INTER.POLAR>
-2.24384

>  <SCORE.INTER.ROT>
3

>  <SCORE.INTER.SOLV>
11.57

>  <SCORE.INTER.VDW>
-15.0128

>  <SCORE.INTER.norm>
-1.62945

>  <SCORE.INTRA>
-0.825783

>  <SCORE.INTRA.DIHEDRAL>
2.03285

>  <SCORE.INTRA.DIHEDRAL.0>
1.88407

>  <SCORE.INTRA.POLAR>
0

>  <SCORE.INTRA.POLAR.0>
0

>  <SCORE.INTRA.REPUL>
0

>  <SCORE.INTRA.REPUL.0>
0

>  <SCORE.INTRA.SOLV>
0.329686

>  <SCORE.INTRA.SOLV.lig_0>
-10.2714

>  <SCORE.INTRA.VDW>
-2.00705

>  <SCORE.INTRA.VDW.0>
0.416923

>  <SCORE.INTRA.norm>
-0.0688152

>  <SCORE.RESTR>
0

>  <SCORE.RESTR.CAVITY>
0

>  <SCORE.RESTR.norm>
0

>  <SCORE.SYSTEM>
0

>  <SCORE.SYSTEM.CONST>
0

>  <SCORE.SYSTEM.DIHEDRAL>
0

>  <SCORE.SYSTEM.SOLV>
0

>  <SCORE.SYSTEM.norm>
0

>  <SCORE.heavy>
12

>  <SCORE.norm>
-1.69827

>  <RMSD>
42.846

$$$$
ligand
 OpenBabel11021811433D
libRbt.so/2013.1/901 2013/11/27
 12 12  0  0  0  0  0  0  0  0999 V2000
   10.1633    1.6181   -2.6699 O   0  0  0  0  0  0  0  0  0  0  0  0
    8.8772   -2.0943   -0.8703 O   0  0  0  0  0  0  0  0  0  0  0  0
   11.3293    0.7432   -2.5944 C   0  0  0  0  0  0  0  0  0  0  0  0
    7.7134   -2.9395    1.1323 O   0  0  0  0  0  0  0  0  0  0  0  0
   11.4817    0.1309   -1.1717 C   0  0  0  0  0  0  0  0  0  0  0  0
    7.5280   -1.1980    0.2252 O   0  0  0  0  0  0  0  0  0  0  0  0
   10.3559    0.6208   -0.3029 N   0  0  0  0  0  0  0  0  0  0  0  0
   10.3535    2.1142   -0.2456 C   0  0  0  0  0  0  0  0  0  0  0  0
   10.2672    2.6903   -1.6874 C   0  0  0  0  0  0  0  0  0  0  0  0
   10.4459    0.0718    1.0952 C   0  0  0  0  0  0  0  0  0  0  0  0
    9.0985   -0.5451    1.5422 C   0  0  0  0  0  0  0  0  0  0  0  0
    8.6954   -2.0075    0.5579 S   0  0  0  0  0  0  0  0  0  0  0  0
  1  3  1  0  0  0  0
  1  9  1  0  0  0  0
  2 12  1  0  0  0  0
  3  5  1  0  0  0  0
  4 12  2  0  0  0  0
  5  7  1  0  0  0  0
  6 12  2  0  0  0  0
  7  8  1  0  0  0  0
  7 10  1  0  0  0  0
  8  9  1  0  0  0  0
 10 11  1  0  0  0  0
 11 12  1  0  0  0  0
M  END
>  <CHROM.1>
-129.79848015,65.99931991,-42.23731131,9.55420560,-0.29075134,-0.33067349
0.21936326,-1.05387193,-1.89680123

>  <Name>
ligand

>  <RI>
0

>  <Rbt.Current_Directory>
/home/itssahil/PROJECTS/Mol_Feturizer/New_Systems/rnas/2HO6

>  <Rbt.Executable>
rbdock ($Id: //depot/dev/client3/rdock/2013.1/src/exe/rbdock.cxx#4 $)

>  <Rbt.Library>
libRbt.so (2013.1, Build901 2013/11/27)

>  <Rbt.Parameter_File>
/export/apps/rDock/src/rDock_2013.1_src/data/scripts/dock_solv.prm

>  <Rbt.Receptor>
prm/blind_docking_20.prm

>  <SCORE>
-20.3099

>  <SCORE.INTER>
-19.5704

>  <SCORE.INTER.CONST>
1

>  <SCORE.INTER.POLAR>
-2.23531

>  <SCORE.INTER.ROT>
3

>  <SCORE.INTER.SOLV>
11.7289

>  <SCORE.INTER.VDW>
-15.1055

>  <SCORE.INTER.norm>
-1.63086

>  <SCORE.INTRA>
-0.739549

>  <SCORE.INTRA.DIHEDRAL>
2.18432

>  <SCORE.INTRA.DIHEDRAL.0>
1.88407

>  <SCORE.INTRA.POLAR>
0

>  <SCORE.INTRA.POLAR.0>
0

>  <SCORE.INTRA.REPUL>
0

>  <SCORE.INTRA.REPUL.0>
0

>  <SCORE.INTRA.SOLV>
0.295916

>  <SCORE.INTRA.SOLV.lig_0>
-10.2714

>  <SCORE.INTRA.VDW>
-1.97967

>  <SCORE.INTRA.VDW.0>
0.416923

>  <SCORE.INTRA.norm>
-0.0616291

>  <SCORE.RESTR>
0

>  <SCORE.RESTR.CAVITY>
0

>  <SCORE.RESTR.norm>
0

>  <SCORE.SYSTEM>
0

>  <SCORE.SYSTEM.CONST>
0

>  <SCORE.SYSTEM.DIHEDRAL>
0

>  <SCORE.SYSTEM.SOLV>
0

>  <SCORE.SYSTEM.norm>
0

>  <SCORE.heavy>
12

>  <SCORE.norm>
-1.69249

>  <RMSD>
42.851

$$$$
ligand
 OpenBabel11021811433D
libRbt.so/2013.1/901 2013/11/27
 12 12  0  0  0  0  0  0  0  0999 V2000
   10.1407    1.5964   -2.6277 O   0  0  0  0  0  0  0  0  0  0  0  0
    8.8799   -2.1037   -0.8823 O   0  0  0  0  0  0  0  0  0  0  0  0
   11.3305    0.7520   -2.5814 C   0  0  0  0  0  0  0  0  0  0  0  0
    7.6618   -2.9425    1.0905 O   0  0  0  0  0  0  0  0  0  0  0  0
   11.5129    0.1143   -1.1735 C   0  0  0  0  0  0  0  0  0  0  0  0
    7.5672   -1.1715    0.2275 O   0  0  0  0  0  0  0  0  0  0  0  0
   10.3828    0.5549   -0.2844 N   0  0  0  0  0  0  0  0  0  0  0  0
   10.3408    2.0462   -0.1952 C   0  0  0  0  0  0  0  0  0  0  0  0
   10.2252    2.6501   -1.6235 C   0  0  0  0  0  0  0  0  0  0  0  0
   10.5009   -0.0208    1.1008 C   0  0  0  0  0  0  0  0  0  0  0  0
    9.1574   -0.6290    1.5707 C   0  0  0  0  0  0  0  0  0  0  0  0
    8.6918   -2.0447    0.5464 S   0  0  0  0  0  0  0  0  0  0  0  0
  1  3  1  0  0  0  0
  1  9  1  0  0  0  0
  2 12  1  0  0  0  0
  3  5  1  0  0  0  0
  4 12  2  0  0  0  0
  5  7  1  0  0  0  0
  6 12  2  0  0  0  0
  7  8  1  0  0  0  0
  7 10  1  0  0  0  0
  8  9  1  0  0  0  0
 10 11  1  0  0  0  0
 11 12  1  0  0  0  0
M  END
>  <CHROM.1>
-132.25531190,64.69042966,-39.26651412,9.55951081,-0.32338819,-0.32046253
0.28616218,-1.04067721,-1.81379884

>  <Name>
ligand

>  <RI>
0

>  <Rbt.Current_Directory>
/home/itssahil/PROJECTS/Mol_Feturizer/New_Systems/rnas/2HO6

>  <Rbt.Executable>
rbdock ($Id: //depot/dev/client3/rdock/2013.1/src/exe/rbdock.cxx#4 $)

>  <Rbt.Library>
libRbt.so (2013.1, Build901 2013/11/27)

>  <Rbt.Parameter_File>
/export/apps/rDock/src/rDock_2013.1_src/data/scripts/dock_solv.prm

>  <Rbt.Receptor>
prm/blind_docking_80.prm

>  <SCORE>
-20.3617

>  <SCORE.INTER>
-19.5306

>  <SCORE.INTER.CONST>
1

>  <SCORE.INTER.POLAR>
-2.23964

>  <SCORE.INTER.ROT>
3

>  <SCORE.INTER.SOLV>
11.5836

>  <SCORE.INTER.VDW>
-15.0162

>  <SCORE.INTER.norm>
-1.62755

>  <SCORE.INTRA>
-0.831077

>  <SCORE.INTRA.DIHEDRAL>
2.03545

>  <SCORE.INTRA.DIHEDRAL.0>
1.88407

>  <SCORE.INTRA.POLAR>
0

>  <SCORE.INTRA.POLAR.0>
0

>  <SCORE.INTRA.REPUL>
0

>  <SCORE.INTRA.REPUL.0>
0

>  <SCORE.INTRA.SOLV>
0.326917

>  <SCORE.INTRA.SOLV.lig_0>
-10.2714

>  <SCORE.INTRA.VDW>
-2.01226

>  <SCORE.INTRA.VDW.0>
0.416923

>  <SCORE.INTRA.norm>
-0.0692564

>  <SCORE.RESTR>
0

>  <SCORE.RESTR.CAVITY>
0

>  <SCORE.RESTR.norm>
0

>  <SCORE.SYSTEM>
0

>  <SCORE.SYSTEM.CONST>
0

>  <SCORE.SYSTEM.DIHEDRAL>
0

>  <SCORE.SYSTEM.SOLV>
0

>  <SCORE.SYSTEM.norm>
0

>  <SCORE.heavy>
12

>  <SCORE.norm>
-1.69681

>  <RMSD>
42.851

$$$$
ligand
 OpenBabel11021811433D
libRbt.so/2013.1/901 2013/11/27
 12 12  0  0  0  0  0  0  0  0999 V2000
   10.1369    1.5892   -2.6264 O   0  0  0  0  0  0  0  0  0  0  0  0
    8.8720   -2.1293   -0.9005 O   0  0  0  0  0  0  0  0  0  0  0  0
   11.3321    0.7517   -2.5998 C   0  0  0  0  0  0  0  0  0  0  0  0
    7.6541   -2.9611    1.0753 O   0  0  0  0  0  0  0  0  0  0  0  0
   11.5282    0.0958   -1.2021 C   0  0  0  0  0  0  0  0  0  0  0  0
    7.5814   -1.1836    0.2237 O   0  0  0  0  0  0  0  0  0  0  0  0
   10.4016    0.5172   -0.2993 N   0  0  0  0  0  0  0  0  0  0  0  0
   10.3510    2.0068   -0.1893 C   0  0  0  0  0  0  0  0  0  0  0  0
   10.2218    2.6295   -1.6083 C   0  0  0  0  0  0  0  0  0  0  0  0
   10.5328   -0.0768    1.0770 C   0  0  0  0  0  0  0  0  0  0  0  0
    9.1888   -0.6741    1.5594 C   0  0  0  0  0  0  0  0  0  0  0  0
    8.6943   -2.0761    0.5298 S   0  0  0  0  0  0  0  0  0  0  0  0
  1  3  1  0  0  0  0
  1  9  1  0  0  0  0
  2 12  1  0  0  0  0
  3  5  1  0  0  0  0
  4 12  2  0  0  0  0
  5  7  1  0  0  0  0
  6 12  2  0  0  0  0
  7  8  1  0  0  0  0
  7 10  1  0  0  0  0
  8  9  1  0  0  0  0
 10 11  1  0  0  0  0
 11 12  1  0  0  0  0
M  END
>  <CHROM.1>
-133.41424923,64.94372511,-38.80291129,9.56714470,-0.34952564,-0.33165496
0.31361690,-1.03517787,-1.77949645

>  <Name>
ligand

>  <RI>
0

>  <Rbt.Current_Directory>
/home/itssahil/PROJECTS/Mol_Feturizer/New_Systems/rnas/2HO6

>  <Rbt.Executable>
rbdock ($Id: //depot/dev/client3/rdock/2013.1/src/exe/rbdock.cxx#4 $)

>  <Rbt.Library>
libRbt.so (2013.1, Build901 2013/11/27)

>  <Rbt.Parameter_File>
/export/apps/rDock/src/rDock_2013.1_src/data/scripts/dock_solv.prm

>  <Rbt.Receptor>
prm/blind_docking_20.prm

>  <SCORE>
-20.3606

>  <SCORE.INTER>
-19.5238

>  <SCORE.INTER.CONST>
1

>  <SCORE.INTER.POLAR>
-2.24139

>  <SCORE.INTER.ROT>
3

>  <SCORE.INTER.SOLV>
11.508

>  <SCORE.INTER.VDW>
-14.9805

>  <SCORE.INTER.norm>
-1.62698

>  <SCORE.INTRA>
-0.836875

>  <SCORE.INTRA.DIHEDRAL>
1.99516

>  <SCORE.INTRA.DIHEDRAL.0>
1.88407

>  <SCORE.INTRA.POLAR>
0

>  <SCORE.INTRA.POLAR.0>
0

>  <SCORE.INTRA.REPUL>
0

>  <SCORE.INTRA.REPUL.0>
0

>  <SCORE.INTRA.SOLV>
0.333489

>  <SCORE.INTRA.SOLV.lig_0>
-10.2714

>  <SCORE.INTRA.VDW>
-2.0012

>  <SCORE.INTRA.VDW.0>
0.416923

>  <SCORE.INTRA.norm>
-0.0697396

>  <SCORE.RESTR>
0

>  <SCORE.RESTR.CAVITY>
0

>  <SCORE.RESTR.norm>
0

>  <SCORE.SYSTEM>
0

>  <SCORE.SYSTEM.CONST>
0

>  <SCORE.SYSTEM.DIHEDRAL>
0

>  <SCORE.SYSTEM.SOLV>
0

>  <SCORE.SYSTEM.norm>
0

>  <SCORE.heavy>
12

>  <SCORE.norm>
-1.69672

>  <RMSD>
42.854

$$$$
ligand
 OpenBabel11021811433D
libRbt.so/2013.1/901 2013/11/27
 12 12  0  0  0  0  0  0  0  0999 V2000
   10.0994    1.9231   -2.5609 O   0  0  0  0  0  0  0  0  0  0  0  0
    9.8184   -2.2931   -2.0286 O   0  0  0  0  0  0  0  0  0  0  0  0
   11.2849    1.0730   -2.6125 C   0  0  0  0  0  0  0  0  0  0  0  0
    9.4352   -4.1339   -0.4336 O   0  0  0  0  0  0  0  0  0  0  0  0
   11.3837    0.1686   -1.3498 C   0  0  0  0  0  0  0  0  0  0  0  0
    8.2547   -2.6249   -0.9023 O   0  0  0  0  0  0  0  0  0  0  0  0
   10.2024    0.4382   -0.4588 N   0  0  0  0  0  0  0  0  0  0  0  0
   10.1541    1.8831   -0.0800 C   0  0  0  0  0  0  0  0  0  0  0  0
   10.1234    2.7575   -1.3655 C   0  0  0  0  0  0  0  0  0  0  0  0
   10.2383   -0.4003    0.7902 C   0  0  0  0  0  0  0  0  0  0  0  0
    9.2452   -1.5840    0.6986 C   0  0  0  0  0  0  0  0  0  0  0  0
    9.6900   -2.7019   -0.6515 S   0  0  0  0  0  0  0  0  0  0  0  0
  1  3  1  0  0  0  0
  1  9  1  0  0  0  0
  2 12  1  0  0  0  0
  3  5  1  0  0  0  0
  4 12  2  0  0  0  0
  5  7  1  0  0  0  0
  6 12  2  0  0  0  0
  7  8  1  0  0  0  0
  7 10  1  0  0  0  0
  8  9  1  0  0  0  0
 10 11  1  0  0  0  0
 11 12  1  0  0  0  0
M  END
>  <CHROM.1>
-103.15602860,62.68783337,-57.26172667,9.94181864,-0.72012012,-0.91176653
-0.61116247,-1.28762512,-2.39154349

>  <Name>
ligand

>  <RI>
0

>  <Rbt.Current_Directory>
/home/itssahil/PROJECTS/Mol_Feturizer/New_Systems/rnas/2HO6

>  <Rbt.Executable>
rbdock ($Id: //depot/dev/client3/rdock/2013.1/src/exe/rbdock.cxx#4 $)

>  <Rbt.Library>
libRbt.so (2013.1, Build901 2013/11/27)

>  <Rbt.Parameter_File>
/export/apps/rDock/src/rDock_2013.1_src/data/scripts/dock_solv.prm

>  <Rbt.Receptor>
prm/blind_docking_20.prm

>  <SCORE>
-14.4256

>  <SCORE.INTER>
-13.6439

>  <SCORE.INTER.CONST>
1

>  <SCORE.INTER.POLAR>
-1.34164

>  <SCORE.INTER.ROT>
3

>  <SCORE.INTER.SOLV>
9.29149

>  <SCORE.INTER.VDW>
-13.3209

>  <SCORE.INTER.norm>
-1.13699

>  <SCORE.INTRA>
-0.781732

>  <SCORE.INTRA.DIHEDRAL>
1.93932

>  <SCORE.INTRA.DIHEDRAL.0>
1.88407

>  <SCORE.INTRA.POLAR>
0

>  <SCORE.INTRA.POLAR.0>
0

>  <SCORE.INTRA.REPUL>
0

>  <SCORE.INTRA.REPUL.0>
0

>  <SCORE.INTRA.SOLV>
0.192445

>  <SCORE.INTRA.SOLV.lig_0>
-10.2714

>  <SCORE.INTRA.VDW>
-1.84762

>  <SCORE.INTRA.VDW.0>
0.416923

>  <SCORE.INTRA.norm>
-0.0651444

>  <SCORE.RESTR>
0

>  <SCORE.RESTR.CAVITY>
0

>  <SCORE.RESTR.norm>
0

>  <SCORE.SYSTEM>
0

>  <SCORE.SYSTEM.CONST>
0

>  <SCORE.SYSTEM.DIHEDRAL>
0

>  <SCORE.SYSTEM.SOLV>
0

>  <SCORE.SYSTEM.norm>
0

>  <SCORE.heavy>
12

>  <SCORE.norm>
-1.20213

>  <RMSD>
42.870

$$$$
ligand
 OpenBabel11021811433D
libRbt.so/2013.1/901 2013/11/27
 12 12  0  0  0  0  0  0  0  0999 V2000
    9.9896    1.3197   -2.4321 O   0  0  0  0  0  0  0  0  0  0  0  0
    9.3340   -2.7245   -0.6174 O   0  0  0  0  0  0  0  0  0  0  0  0
   11.2183    0.5332   -2.4808 C   0  0  0  0  0  0  0  0  0  0  0  0
    7.5360   -3.1057    1.0261 O   0  0  0  0  0  0  0  0  0  0  0  0
   11.5036   -0.1495   -1.1116 C   0  0  0  0  0  0  0  0  0  0  0  0
    8.0167   -1.4512    0.0662 O   0  0  0  0  0  0  0  0  0  0  0  0
   10.4022    0.2005   -0.1492 N   0  0  0  0  0  0  0  0  0  0  0  0
   10.2953    1.6833    0.0039 C   0  0  0  0  0  0  0  0  0  0  0  0
   10.0772    2.3362   -1.3905 C   0  0  0  0  0  0  0  0  0  0  0  0
   10.6192   -0.4226    1.2032 C   0  0  0  0  0  0  0  0  0  0  0  0
    9.3189   -1.0717    1.7358 C   0  0  0  0  0  0  0  0  0  0  0  0
    8.8282   -2.4783    0.7107 S   0  0  0  0  0  0  0  0  0  0  0  0
  1  3  1  0  0  0  0
  1  9  1  0  0  0  0
  2 12  1  0  0  0  0
  3  5  1  0  0  0  0
  4 12  2  0  0  0  0
  5  7  1  0  0  0  0
  6 12  2  0  0  0  0
  7  8  1  0  0  0  0
  7 10  1  0  0  0  0
  8  9  1  0  0  0  0
 10 11  1  0  0  0  0
 11 12  1  0  0  0  0
M  END
>  <CHROM.1>
-134.18655720,65.81678255,-16.71193947,9.63250695,-0.67564387,-0.20200334
0.27413192,-1.10246606,-1.80683307

>  <Name>
ligand

>  <RI>
0

>  <Rbt.Current_Directory>
/home/itssahil/PROJECTS/Mol_Feturizer/New_Systems/rnas/2HO6

>  <Rbt.Executable>
rbdock ($Id: //depot/dev/client3/rdock/2013.1/src/exe/rbdock.cxx#4 $)

>  <Rbt.Library>
libRbt.so (2013.1, Build901 2013/11/27)

>  <Rbt.Parameter_File>
/export/apps/rDock/src/rDock_2013.1_src/data/scripts/dock_solv.prm

>  <Rbt.Receptor>
prm/blind_docking_60.prm

>  <SCORE>
-16.7735

>  <SCORE.INTER>
-16.1064

>  <SCORE.INTER.CONST>
1

>  <SCORE.INTER.POLAR>
-1.34164

>  <SCORE.INTER.ROT>
3

>  <SCORE.INTER.SOLV>
8.02569

>  <SCORE.INTER.VDW>
-14.5407

>  <SCORE.INTER.norm>
-1.3422

>  <SCORE.INTRA>
-0.667033

>  <SCORE.INTRA.DIHEDRAL>
2.02146

>  <SCORE.INTRA.DIHEDRAL.0>
1.88407

>  <SCORE.INTRA.POLAR>
0

>  <SCORE.INTRA.POLAR.0>
0

>  <SCORE.INTRA.REPUL>
0

>  <SCORE.INTRA.REPUL.0>
0

>  <SCORE.INTRA.SOLV>
0.551832

>  <SCORE.INTRA.SOLV.lig_0>
-10.2714

>  <SCORE.INTRA.VDW>
-1.95368

>  <SCORE.INTRA.VDW.0>
0.416923

>  <SCORE.INTRA.norm>
-0.0555861

>  <SCORE.RESTR>
0

>  <SCORE.RESTR.CAVITY>
0

>  <SCORE.RESTR.norm>
0

>  <SCORE.SYSTEM>
0

>  <SCORE.SYSTEM.CONST>
0

>  <SCORE.SYSTEM.DIHEDRAL>
0

>  <SCORE.SYSTEM.SOLV>
0

>  <SCORE.SYSTEM.norm>
0

>  <SCORE.heavy>
12

>  <SCORE.norm>
-1.39779

>  <RMSD>
42.871

$$$$
ligand
 OpenBabel11021811433D
libRbt.so/2013.1/901 2013/11/27
 12 12  0  0  0  0  0  0  0  0999 V2000
   10.1846    1.6107   -2.6959 O   0  0  0  0  0  0  0  0  0  0  0  0
    8.8226   -2.1692   -0.8860 O   0  0  0  0  0  0  0  0  0  0  0  0
   11.3628    0.7528   -2.6151 C   0  0  0  0  0  0  0  0  0  0  0  0
    7.7035   -2.9872    1.1531 O   0  0  0  0  0  0  0  0  0  0  0  0
   11.5034    0.1224   -1.1991 C   0  0  0  0  0  0  0  0  0  0  0  0
    7.4846   -1.2650    0.2169 O   0  0  0  0  0  0  0  0  0  0  0  0
   10.3572    0.5821   -0.3407 N   0  0  0  0  0  0  0  0  0  0  0  0
   10.3306    2.0743   -0.2621 C   0  0  0  0  0  0  0  0  0  0  0  0
   10.2571    2.6700   -1.6967 C   0  0  0  0  0  0  0  0  0  0  0  0
   10.4347    0.0143    1.0506 C   0  0  0  0  0  0  0  0  0  0  0  0
    9.0722   -0.5723    1.4925 C   0  0  0  0  0  0  0  0  0  0  0  0
    8.6658   -2.0570    0.5434 S   0  0  0  0  0  0  0  0  0  0  0  0
  1  3  1  0  0  0  0
  1  9  1  0  0  0  0
  2 12  1  0  0  0  0
  3  5  1  0  0  0  0
  4 12  2  0  0  0  0
  5  7  1  0  0  0  0
  6 12  2  0  0  0  0
  7  8  1  0  0  0  0
  7 10  1  0  0  0  0
  8  9  1  0  0  0  0
 10 11  1  0  0  0  0
 11 12  1  0  0  0  0
M  END
>  <CHROM.1>
-132.37526954,68.63794615,-44.66242257,9.54117461,-0.32831297,-0.35034889
0.19389547,-1.05205642,-1.92332037

>  <Name>
ligand

>  <RI>
0

>  <Rbt.Current_Directory>
/home/itssahil/PROJECTS/Mol_Feturizer/New_Systems/rnas/2HO6

>  <Rbt.Executable>
rbdock ($Id: //depot/dev/client3/rdock/2013.1/src/exe/rbdock.cxx#4 $)

>  <Rbt.Library>
libRbt.so (2013.1, Build901 2013/11/27)

>  <Rbt.Parameter_File>
/export/apps/rDock/src/rDock_2013.1_src/data/scripts/dock_solv.prm

>  <Rbt.Receptor>
prm/blind_docking_60.prm

>  <SCORE>
-20.1303

>  <SCORE.INTER>
-19.5002

>  <SCORE.INTER.CONST>
1

>  <SCORE.INTER.POLAR>
-2.22128

>  <SCORE.INTER.ROT>
3

>  <SCORE.INTER.SOLV>
11.7692

>  <SCORE.INTER.VDW>
-15.1189

>  <SCORE.INTER.norm>
-1.62501

>  <SCORE.INTRA>
-0.630137

>  <SCORE.INTRA.DIHEDRAL>
2.23401

>  <SCORE.INTRA.DIHEDRAL.0>
1.88407

>  <SCORE.INTRA.POLAR>
0

>  <SCORE.INTRA.POLAR.0>
0

>  <SCORE.INTRA.REPUL>
0

>  <SCORE.INTRA.REPUL.0>
0

>  <SCORE.INTRA.SOLV>
0.281715

>  <SCORE.INTRA.SOLV.lig_0>
-10.2714

>  <SCORE.INTRA.VDW>
-1.888

>  <SCORE.INTRA.VDW.0>
0.416923

>  <SCORE.INTRA.norm>
-0.0525114

>  <SCORE.RESTR>
0

>  <SCORE.RESTR.CAVITY>
0

>  <SCORE.RESTR.norm>
0

>  <SCORE.SYSTEM>
0

>  <SCORE.SYSTEM.CONST>
0

>  <SCORE.SYSTEM.DIHEDRAL>
0

>  <SCORE.SYSTEM.SOLV>
0

>  <SCORE.SYSTEM.norm>
0

>  <SCORE.heavy>
12

>  <SCORE.norm>
-1.67753

>  <RMSD>
42.876

$$$$
ligand
 OpenBabel11021811433D
libRbt.so/2013.1/901 2013/11/27
 12 12  0  0  0  0  0  0  0  0999 V2000
   11.8641    2.1131   -2.8017 O   0  0  0  0  0  0  0  0  0  0  0  0
    8.5576   -2.9822    0.9824 O   0  0  0  0  0  0  0  0  0  0  0  0
   11.0052    3.2383   -2.4457 C   0  0  0  0  0  0  0  0  0  0  0  0
    7.1171   -1.1240    0.2401 O   0  0  0  0  0  0  0  0  0  0  0  0
   10.0058    2.8481   -1.3182 C   0  0  0  0  0  0  0  0  0  0  0  0
    8.8033   -1.7830   -0.5425 O   0  0  0  0  0  0  0  0  0  0  0  0
   10.2455    1.4170   -0.9228 N   0  0  0  0  0  0  0  0  0  0  0  0
   10.0953    0.5170   -2.1065 C   0  0  0  0  0  0  0  0  0  0  0  0
   11.0603    0.9768   -3.2359 C   0  0  0  0  0  0  0  0  0  0  0  0
    9.3043    0.9691    0.1624 C   0  0  0  0  0  0  0  0  0  0  0  0
    9.7580   -0.3773    0.7765 C   0  0  0  0  0  0  0  0  0  0  0  0
    8.3890   -1.5571    0.8381 S   0  0  0  0  0  0  0  0  0  0  0  0
  1  3  1  0  0  0  0
  1  9  1  0  0  0  0
  2 12  1  0  0  0  0
  3  5  1  0  0  0  0
  4 12  2  0  0  0  0
  5  7  1  0  0  0  0
  6 12  2  0  0  0  0
  7  8  1  0  0  0  0
  7 10  1  0  0  0  0
  8  9  1  0  0  0  0
 10 11  1  0  0  0  0
 11 12  1  0  0  0  0
M  END
>  <CHROM.1>
-167.30066811,-130.27141291,161.26468110,9.53920332,0.12427343,-0.69282251
-0.63549497,-0.94779059,-2.94830752

>  <Name>
ligand

>  <RI>
0

>  <Rbt.Current_Directory>
/home/itssahil/PROJECTS/Mol_Feturizer/New_Systems/rnas/2HO6

>  <Rbt.Executable>
rbdock ($Id: //depot/dev/client3/rdock/2013.1/src/exe/rbdock.cxx#4 $)

>  <Rbt.Library>
libRbt.so (2013.1, Build901 2013/11/27)

>  <Rbt.Parameter_File>
/export/apps/rDock/src/rDock_2013.1_src/data/scripts/dock_solv.prm

>  <Rbt.Receptor>
prm/blind_docking_60.prm

>  <SCORE>
-17.3096

>  <SCORE.INTER>
-20.0734

>  <SCORE.INTER.CONST>
1

>  <SCORE.INTER.POLAR>
-2.16523

>  <SCORE.INTER.ROT>
3

>  <SCORE.INTER.SOLV>
14.3555

>  <SCORE.INTER.VDW>
-16.55

>  <SCORE.INTER.norm>
-1.67278

>  <SCORE.INTRA>
2.76372

>  <SCORE.INTRA.DIHEDRAL>
5.3096

>  <SCORE.INTRA.DIHEDRAL.0>
1.88407

>  <SCORE.INTRA.POLAR>
0

>  <SCORE.INTRA.POLAR.0>
0

>  <SCORE.INTRA.REPUL>
0

>  <SCORE.INTRA.REPUL.0>
0

>  <SCORE.INTRA.SOLV>
0.721797

>  <SCORE.INTRA.SOLV.lig_0>
-10.2714

>  <SCORE.INTRA.VDW>
-0.251979

>  <SCORE.INTRA.VDW.0>
0.416923

>  <SCORE.INTRA.norm>
0.23031

>  <SCORE.RESTR>
0

>  <SCORE.RESTR.CAVITY>
0

>  <SCORE.RESTR.norm>
0

>  <SCORE.SYSTEM>
0

>  <SCORE.SYSTEM.CONST>
0

>  <SCORE.SYSTEM.DIHEDRAL>
0

>  <SCORE.SYSTEM.SOLV>
0

>  <SCORE.SYSTEM.norm>
0

>  <SCORE.heavy>
12

>  <SCORE.norm>
-1.44247

>  <RMSD>
42.879

$$$$
ligand
 OpenBabel11021811433D
libRbt.so/2013.1/901 2013/11/27
 12 12  0  0  0  0  0  0  0  0999 V2000
    9.6357    2.2578   -1.1873 O   0  0  0  0  0  0  0  0  0  0  0  0
    8.9775    0.1002   -3.4860 O   0  0  0  0  0  0  0  0  0  0  0  0
   10.5786    2.9076   -2.0926 C   0  0  0  0  0  0  0  0  0  0  0  0
    8.9268   -1.7511   -5.1136 O   0  0  0  0  0  0  0  0  0  0  0  0
   11.5432    1.8711   -2.7387 C   0  0  0  0  0  0  0  0  0  0  0  0
    9.1952   -1.8157   -3.1607 O   0  0  0  0  0  0  0  0  0  0  0  0
   11.1930    0.4963   -2.2394 N   0  0  0  0  0  0  0  0  0  0  0  0
   11.2750    0.4468   -0.7480 C   0  0  0  0  0  0  0  0  0  0  0  0
   10.3500    1.5387   -0.1392 C   0  0  0  0  0  0  0  0  0  0  0  0
   12.0952   -0.5586   -2.8202 C   0  0  0  0  0  0  0  0  0  0  0  0
   11.2865   -1.6085   -3.6199 C   0  0  0  0  0  0  0  0  0  0  0  0
    9.7140   -0.9208   -4.1897 S   0  0  0  0  0  0  0  0  0  0  0  0
  1  3  1  0  0  0  0
  1  9  1  0  0  0  0
  2 12  1  0  0  0  0
  3  5  1  0  0  0  0
  4 12  2  0  0  0  0
  5  7  1  0  0  0  0
  6 12  2  0  0  0  0
  7  8  1  0  0  0  0
  7 10  1  0  0  0  0
  8  9  1  0  0  0  0
 10 11  1  0  0  0  0
 11 12  1  0  0  0  0
M  END
>  <CHROM.1>
-120.21284306,23.77506936,-30.51452461,10.28469722,0.11621279,-2.79773269
1.30835561,-0.39455183,0.62804005

>  <Name>
ligand

>  <RI>
0

>  <Rbt.Current_Directory>
/home/itssahil/PROJECTS/Mol_Feturizer/New_Systems/rnas/2HO6

>  <Rbt.Executable>
rbdock ($Id: //depot/dev/client3/rdock/2013.1/src/exe/rbdock.cxx#4 $)

>  <Rbt.Library>
libRbt.so (2013.1, Build901 2013/11/27)

>  <Rbt.Parameter_File>
/export/apps/rDock/src/rDock_2013.1_src/data/scripts/dock_solv.prm

>  <Rbt.Receptor>
prm/blind_docking_40.prm

>  <SCORE>
-15.2117

>  <SCORE.INTER>
-16.4229

>  <SCORE.INTER.CONST>
1

>  <SCORE.INTER.POLAR>
-2.05832

>  <SCORE.INTER.ROT>
3

>  <SCORE.INTER.SOLV>
13.957

>  <SCORE.INTER.VDW>
-14.3399

>  <SCORE.INTER.norm>
-1.36858

>  <SCORE.INTRA>
1.2112

>  <SCORE.INTRA.DIHEDRAL>
5.8792

>  <SCORE.INTRA.DIHEDRAL.0>
1.88407

>  <SCORE.INTRA.POLAR>
0

>  <SCORE.INTRA.POLAR.0>
0

>  <SCORE.INTRA.REPUL>
0

>  <SCORE.INTRA.REPUL.0>
0

>  <SCORE.INTRA.SOLV>
0.35084

>  <SCORE.INTRA.SOLV.lig_0>
-10.2714

>  <SCORE.INTRA.VDW>
-1.90382

>  <SCORE.INTRA.VDW.0>
0.416923

>  <SCORE.INTRA.norm>
0.100933

>  <SCORE.RESTR>
0

>  <SCORE.RESTR.CAVITY>
0

>  <SCORE.RESTR.norm>
0

>  <SCORE.SYSTEM>
0

>  <SCORE.SYSTEM.CONST>
0

>  <SCORE.SYSTEM.DIHEDRAL>
0

>  <SCORE.SYSTEM.SOLV>
0

>  <SCORE.SYSTEM.norm>
0

>  <SCORE.heavy>
12

>  <SCORE.norm>
-1.26764

>  <RMSD>
42.880

$$$$
ligand
 OpenBabel11021811433D
libRbt.so/2013.1/901 2013/11/27
 12 12  0  0  0  0  0  0  0  0999 V2000
   10.0097   -2.6755    1.2890 O   0  0  0  0  0  0  0  0  0  0  0  0
   11.6619    0.9514   -2.9451 O   0  0  0  0  0  0  0  0  0  0  0  0
    8.6229   -2.5377    0.8548 C   0  0  0  0  0  0  0  0  0  0  0  0
    9.2727    0.4086   -2.6683 O   0  0  0  0  0  0  0  0  0  0  0  0
    8.2888   -1.0596    0.5005 C   0  0  0  0  0  0  0  0  0  0  0  0
   10.1637    2.1677   -2.6289 O   0  0  0  0  0  0  0  0  0  0  0  0
    9.5184   -0.2167    0.6998 N   0  0  0  0  0  0  0  0  0  0  0  0
   10.0073   -0.3324    2.1073 C   0  0  0  0  0  0  0  0  0  0  0  0
   10.2670   -1.8276    2.4469 C   0  0  0  0  0  0  0  0  0  0  0  0
    9.2637    1.2318    0.3817 C   0  0  0  0  0  0  0  0  0  0  0  0
   10.3811    1.8121   -0.5186 C   0  0  0  0  0  0  0  0  0  0  0  0
   10.5270    0.8750   -2.0583 S   0  0  0  0  0  0  0  0  0  0  0  0
  1  3  1  0  0  0  0
  1  9  1  0  0  0  0
  2 12  1  0  0  0  0
  3  5  1  0  0  0  0
  4 12  2  0  0  0  0
  5  7  1  0  0  0  0
  6 12  2  0  0  0  0
  7  8  1  0  0  0  0
  7 10  1  0  0  0  0
  8  9  1  0  0  0  0
 10 11  1  0  0  0  0
 11 12  1  0  0  0  0
M  END
>  <CHROM.1>
-132.85530491,57.89819999,-164.27592321,9.91466227,0.00303821,-0.44516484
2.50109167,1.32905898,1.31122607

>  <Name>
ligand

>  <RI>
0

>  <Rbt.Current_Directory>
/home/itssahil/PROJECTS/Mol_Feturizer/New_Systems/rnas/2HO6

>  <Rbt.Executable>
rbdock ($Id: //depot/dev/client3/rdock/2013.1/src/exe/rbdock.cxx#4 $)

>  <Rbt.Library>
libRbt.so (2013.1, Build901 2013/11/27)

>  <Rbt.Parameter_File>
/export/apps/rDock/src/rDock_2013.1_src/data/scripts/dock_solv.prm

>  <Rbt.Receptor>
prm/blind_docking_60.prm

>  <SCORE>
-13.2897

>  <SCORE.INTER>
-12.9146

>  <SCORE.INTER.CONST>
1

>  <SCORE.INTER.POLAR>
-1.34136

>  <SCORE.INTER.ROT>
3

>  <SCORE.INTER.SOLV>
9.6409

>  <SCORE.INTER.VDW>
-12.9521

>  <SCORE.INTER.norm>
-1.07621

>  <SCORE.INTRA>
-0.375078

>  <SCORE.INTRA.DIHEDRAL>
1.95237

>  <SCORE.INTRA.DIHEDRAL.0>
1.88407

>  <SCORE.INTRA.POLAR>
0

>  <SCORE.INTRA.POLAR.0>
0

>  <SCORE.INTRA.REPUL>
0

>  <SCORE.INTRA.REPUL.0>
0

>  <SCORE.INTRA.SOLV>
0.727617

>  <SCORE.INTRA.SOLV.lig_0>
-10.2714

>  <SCORE.INTRA.VDW>
-1.71507

>  <SCORE.INTRA.VDW.0>
0.416923

>  <SCORE.INTRA.norm>
-0.0312565

>  <SCORE.RESTR>
0

>  <SCORE.RESTR.CAVITY>
0

>  <SCORE.RESTR.norm>
0

>  <SCORE.SYSTEM>
0

>  <SCORE.SYSTEM.CONST>
0

>  <SCORE.SYSTEM.DIHEDRAL>
0

>  <SCORE.SYSTEM.SOLV>
0

>  <SCORE.SYSTEM.norm>
0

>  <SCORE.heavy>
12

>  <SCORE.norm>
-1.10747

>  <RMSD>
42.881

$$$$
ligand
 OpenBabel11021811433D
libRbt.so/2013.1/901 2013/11/27
 12 12  0  0  0  0  0  0  0  0999 V2000
    9.6277    2.2349   -1.6623 O   0  0  0  0  0  0  0  0  0  0  0  0
    7.4272   -3.0461    0.9442 O   0  0  0  0  0  0  0  0  0  0  0  0
   10.7355    1.7960   -2.5054 C   0  0  0  0  0  0  0  0  0  0  0  0
    8.8802   -1.2707    1.8473 O   0  0  0  0  0  0  0  0  0  0  0  0
   11.2818    0.4144   -2.0420 C   0  0  0  0  0  0  0  0  0  0  0  0
    8.0603   -1.4210    0.0598 O   0  0  0  0  0  0  0  0  0  0  0  0
   10.4792   -0.0606   -0.8622 N   0  0  0  0  0  0  0  0  0  0  0  0
   10.5414    0.9390    0.2471 C   0  0  0  0  0  0  0  0  0  0  0  0
   10.0514    2.3214   -0.2698 C   0  0  0  0  0  0  0  0  0  0  0  0
   10.9607   -1.3931   -0.3554 C   0  0  0  0  0  0  0  0  0  0  0  0
    9.8577   -2.4717   -0.4813 C   0  0  0  0  0  0  0  0  0  0  0  0
    8.7165   -2.4002    0.9197 S   0  0  0  0  0  0  0  0  0  0  0  0
  1  3  1  0  0  0  0
  1  9  1  0  0  0  0
  2 12  1  0  0  0  0
  3  5  1  0  0  0  0
  4 12  2  0  0  0  0
  5  7  1  0  0  0  0
  6 12  2  0  0  0  0
  7  8  1  0  0  0  0
  7 10  1  0  0  0  0
  8  9  1  0  0  0  0
 10 11  1  0  0  0  0
 11 12  1  0  0  0  0
M  END
>  <CHROM.1>
-117.66768675,-83.00694038,164.89487057,9.57565089,-0.57312742,-0.20289256
0.96633472,0.77376182,-0.08365798

>  <Name>
ligand

>  <RI>
0

>  <Rbt.Current_Directory>
/home/itssahil/PROJECTS/Mol_Feturizer/New_Systems/rnas/2HO6

>  <Rbt.Executable>
rbdock ($Id: //depot/dev/client3/rdock/2013.1/src/exe/rbdock.cxx#4 $)

>  <Rbt.Library>
libRbt.so (2013.1, Build901 2013/11/27)

>  <Rbt.Parameter_File>
/export/apps/rDock/src/rDock_2013.1_src/data/scripts/dock_solv.prm

>  <Rbt.Receptor>
prm/blind_docking_40.prm

>  <SCORE>
-15.681

>  <SCORE.INTER>
-16.7518

>  <SCORE.INTER.CONST>
1

>  <SCORE.INTER.POLAR>
-1.34164

>  <SCORE.INTER.ROT>
3

>  <SCORE.INTER.SOLV>
6.94789

>  <SCORE.INTER.VDW>
-14.6117

>  <SCORE.INTER.norm>
-1.39599

>  <SCORE.INTRA>
1.07078

>  <SCORE.INTRA.DIHEDRAL>
4.12519

>  <SCORE.INTRA.DIHEDRAL.0>
1.88407

>  <SCORE.INTRA.POLAR>
0

>  <SCORE.INTRA.POLAR.0>
0

>  <SCORE.INTRA.REPUL>
0

>  <SCORE.INTRA.REPUL.0>
0

>  <SCORE.INTRA.SOLV>
1.30291

>  <SCORE.INTRA.SOLV.lig_0>
-10.2714

>  <SCORE.INTRA.VDW>
-1.64327

>  <SCORE.INTRA.VDW.0>
0.416923

>  <SCORE.INTRA.norm>
0.0892318

>  <SCORE.RESTR>
0

>  <SCORE.RESTR.CAVITY>
0

>  <SCORE.RESTR.norm>
0

>  <SCORE.SYSTEM>
0

>  <SCORE.SYSTEM.CONST>
0

>  <SCORE.SYSTEM.DIHEDRAL>
0

>  <SCORE.SYSTEM.SOLV>
0

>  <SCORE.SYSTEM.norm>
0

>  <SCORE.heavy>
12

>  <SCORE.norm>
-1.30675

>  <RMSD>
42.909

$$$$
ligand
 OpenBabel11021811433D
libRbt.so/2013.1/901 2013/11/27
 12 12  0  0  0  0  0  0  0  0999 V2000
    9.6028   -3.2001   -0.8957 O   0  0  0  0  0  0  0  0  0  0  0  0
    9.6897    0.8214   -0.0034 O   0  0  0  0  0  0  0  0  0  0  0  0
   10.5762   -2.7477    0.0934 C   0  0  0  0  0  0  0  0  0  0  0  0
    9.0583    2.8777   -1.2086 O   0  0  0  0  0  0  0  0  0  0  0  0
   11.3986   -1.5384   -0.4390 C   0  0  0  0  0  0  0  0  0  0  0  0
    8.8102    0.9949   -1.7413 O   0  0  0  0  0  0  0  0  0  0  0  0
   10.9204   -1.1899   -1.8217 N   0  0  0  0  0  0  0  0  0  0  0  0
   11.0516   -2.3685   -2.7312 C   0  0  0  0  0  0  0  0  0  0  0  0
   10.2734   -3.5755   -2.1348 C   0  0  0  0  0  0  0  0  0  0  0  0
   11.6811   -0.0289   -2.4028 C   0  0  0  0  0  0  0  0  0  0  0  0
   10.7500    1.1822   -2.6520 C   0  0  0  0  0  0  0  0  0  0  0  0
    9.9307    1.6967   -1.1241 S   0  0  0  0  0  0  0  0  0  0  0  0
  1  3  1  0  0  0  0
  1  9  1  0  0  0  0
  2 12  1  0  0  0  0
  3  5  1  0  0  0  0
  4 12  2  0  0  0  0
  5  7  1  0  0  0  0
  6 12  2  0  0  0  0
  7  8  1  0  0  0  0
  7 10  1  0  0  0  0
  8  9  1  0  0  0  0
 10 11  1  0  0  0  0
 11 12  1  0  0  0  0
M  END
>  <CHROM.1>
-116.47849446,57.64162843,-25.11843719,10.23494337,-0.33820175,-1.37541101
1.20794854,-1.00330444,2.84624444

>  <Name>
ligand

>  <RI>
0

>  <Rbt.Current_Directory>
/home/itssahil/PROJECTS/Mol_Feturizer/New_Systems/rnas/2HO6

>  <Rbt.Executable>
rbdock ($Id: //depot/dev/client3/rdock/2013.1/src/exe/rbdock.cxx#4 $)

>  <Rbt.Library>
libRbt.so (2013.1, Build901 2013/11/27)

>  <Rbt.Parameter_File>
/export/apps/rDock/src/rDock_2013.1_src/data/scripts/dock_solv.prm

>  <Rbt.Receptor>
prm/blind_docking_80.prm

>  <SCORE>
-13.6546

>  <SCORE.INTER>
-13.0083

>  <SCORE.INTER.CONST>
1

>  <SCORE.INTER.POLAR>
-1.34164

>  <SCORE.INTER.ROT>
3

>  <SCORE.INTER.SOLV>
6.5436

>  <SCORE.INTER.VDW>
-11.9813

>  <SCORE.INTER.norm>
-1.08403

>  <SCORE.INTRA>
-0.646265

>  <SCORE.INTRA.DIHEDRAL>
2.25847

>  <SCORE.INTRA.DIHEDRAL.0>
1.88407

>  <SCORE.INTRA.POLAR>
0

>  <SCORE.INTRA.POLAR.0>
0

>  <SCORE.INTRA.REPUL>
0

>  <SCORE.INTRA.REPUL.0>
0

>  <SCORE.INTRA.SOLV>
0.428801

>  <SCORE.INTRA.SOLV.lig_0>
-10.2714

>  <SCORE.INTRA.VDW>
-1.9899

>  <SCORE.INTRA.VDW.0>
0.416923

>  <SCORE.INTRA.norm>
-0.0538554

>  <SCORE.RESTR>
0

>  <SCORE.RESTR.CAVITY>
0

>  <SCORE.RESTR.norm>
0

>  <SCORE.SYSTEM>
0

>  <SCORE.SYSTEM.CONST>
0

>  <SCORE.SYSTEM.DIHEDRAL>
0

>  <SCORE.SYSTEM.SOLV>
0

>  <SCORE.SYSTEM.norm>
0

>  <SCORE.heavy>
12

>  <SCORE.norm>
-1.13788

>  <RMSD>
42.912

$$$$
ligand
 OpenBabel11021811433D
libRbt.so/2013.1/901 2013/11/27
 12 12  0  0  0  0  0  0  0  0999 V2000
   10.1149    1.5782   -2.5937 O   0  0  0  0  0  0  0  0  0  0  0  0
    8.8199   -2.2369   -0.9606 O   0  0  0  0  0  0  0  0  0  0  0  0
   11.2979    0.7231   -2.5967 C   0  0  0  0  0  0  0  0  0  0  0  0
    7.6540   -3.1259    1.0218 O   0  0  0  0  0  0  0  0  0  0  0  0
   11.4871    0.0201   -1.2211 C   0  0  0  0  0  0  0  0  0  0  0  0
    7.5271   -1.3379    0.1989 O   0  0  0  0  0  0  0  0  0  0  0  0
   10.3685    0.4288   -0.3026 N   0  0  0  0  0  0  0  0  0  0  0  0
   10.3398    1.9147   -0.1450 C   0  0  0  0  0  0  0  0  0  0  0  0
   10.2170    2.5842   -1.5432 C   0  0  0  0  0  0  0  0  0  0  0  0
   10.4938   -0.2107    1.0537 C   0  0  0  0  0  0  0  0  0  0  0  0
    9.1444   -0.8119    1.5160 C   0  0  0  0  0  0  0  0  0  0  0  0
    8.6648   -2.2092    0.4731 S   0  0  0  0  0  0  0  0  0  0  0  0
  1  3  1  0  0  0  0
  1  9  1  0  0  0  0
  2 12  1  0  0  0  0
  3  5  1  0  0  0  0
  4 12  2  0  0  0  0
  5  7  1  0  0  0  0
  6 12  2  0  0  0  0
  7  8  1  0  0  0  0
  7 10  1  0  0  0  0
  8  9  1  0  0  0  0
 10 11  1  0  0  0  0
 11 12  1  0  0  0  0
M  END
>  <CHROM.1>
-133.03387097,66.75329020,-40.96406302,9.53667576,-0.45098544,-0.34802520
0.28957617,-1.04233670,-1.77859848

>  <Name>
ligand

>  <RI>
0

>  <Rbt.Current_Directory>
/home/itssahil/PROJECTS/Mol_Feturizer/New_Systems/rnas/2HO6

>  <Rbt.Executable>
rbdock ($Id: //depot/dev/client3/rdock/2013.1/src/exe/rbdock.cxx#4 $)

>  <Rbt.Library>
libRbt.so (2013.1, Build901 2013/11/27)

>  <Rbt.Parameter_File>
/export/apps/rDock/src/rDock_2013.1_src/data/scripts/dock_solv.prm

>  <Rbt.Receptor>
prm/blind_docking_80.prm

>  <SCORE>
-20.2421

>  <SCORE.INTER>
-19.4961

>  <SCORE.INTER.CONST>
1

>  <SCORE.INTER.POLAR>
-2.23689

>  <SCORE.INTER.ROT>
3

>  <SCORE.INTER.SOLV>
11.4887

>  <SCORE.INTER.VDW>
-14.9706

>  <SCORE.INTER.norm>
-1.62467

>  <SCORE.INTRA>
-0.746005

>  <SCORE.INTRA.DIHEDRAL>
2.09304

>  <SCORE.INTRA.DIHEDRAL.0>
1.88407

>  <SCORE.INTRA.POLAR>
0

>  <SCORE.INTRA.POLAR.0>
0

>  <SCORE.INTRA.REPUL>
0

>  <SCORE.INTRA.REPUL.0>
0

>  <SCORE.INTRA.SOLV>
0.31338

>  <SCORE.INTRA.SOLV.lig_0>
-10.2714

>  <SCORE.INTRA.VDW>
-1.94922

>  <SCORE.INTRA.VDW.0>
0.416923

>  <SCORE.INTRA.norm>
-0.0621671

>  <SCORE.RESTR>
0

>  <SCORE.RESTR.CAVITY>
0

>  <SCORE.RESTR.norm>
0

>  <SCORE.SYSTEM>
0

>  <SCORE.SYSTEM.CONST>
0

>  <SCORE.SYSTEM.DIHEDRAL>
0

>  <SCORE.SYSTEM.SOLV>
0

>  <SCORE.SYSTEM.norm>
0

>  <SCORE.heavy>
12

>  <SCORE.norm>
-1.68684

>  <RMSD>
42.914

$$$$
ligand
 OpenBabel11021811433D
libRbt.so/2013.1/901 2013/11/27
 12 12  0  0  0  0  0  0  0  0999 V2000
   12.3334   -3.8474   -1.5324 O   0  0  0  0  0  0  0  0  0  0  0  0
    9.3760   -0.5637   -0.9722 O   0  0  0  0  0  0  0  0  0  0  0  0
   13.0544   -3.7848   -2.8000 C   0  0  0  0  0  0  0  0  0  0  0  0
    9.9604    1.8283   -0.8452 O   0  0  0  0  0  0  0  0  0  0  0  0
   12.4956   -2.6522   -3.7094 C   0  0  0  0  0  0  0  0  0  0  0  0
    8.9996    0.8538   -2.2655 O   0  0  0  0  0  0  0  0  0  0  0  0
   11.3802   -1.9476   -2.9873 N   0  0  0  0  0  0  0  0  0  0  0  0
   10.3044   -2.9170   -2.6175 C   0  0  0  0  0  0  0  0  0  0  0  0
   10.9113   -4.0682   -1.7662 C   0  0  0  0  0  0  0  0  0  0  0  0
   10.7860   -0.8408   -3.8156 C   0  0  0  0  0  0  0  0  0  0  0  0
   10.9485    0.5306   -3.1167 C   0  0  0  0  0  0  0  0  0  0  0  0
   10.1820    0.5197   -1.4788 S   0  0  0  0  0  0  0  0  0  0  0  0
  1  3  1  0  0  0  0
  1  9  1  0  0  0  0
  2 12  1  0  0  0  0
  3  5  1  0  0  0  0
  4 12  2  0  0  0  0
  5  7  1  0  0  0  0
  6 12  2  0  0  0  0
  7  8  1  0  0  0  0
  7 10  1  0  0  0  0
  8  9  1  0  0  0  0
 10 11  1  0  0  0  0
 11 12  1  0  0  0  0
M  END
>  <CHROM.1>
-118.97694989,-57.65274079,-7.66206357,10.79858237,-1.18883800,-2.20941802
0.71235190,-0.94236894,2.59598035

>  <Name>
ligand

>  <RI>
0

>  <Rbt.Current_Directory>
/home/itssahil/PROJECTS/Mol_Feturizer/New_Systems/rnas/2HO6

>  <Rbt.Executable>
rbdock ($Id: //depot/dev/client3/rdock/2013.1/src/exe/rbdock.cxx#4 $)

>  <Rbt.Library>
libRbt.so (2013.1, Build901 2013/11/27)

>  <Rbt.Parameter_File>
/export/apps/rDock/src/rDock_2013.1_src/data/scripts/dock_solv.prm

>  <Rbt.Receptor>
prm/blind_docking_40.prm

>  <SCORE>
-14.1267

>  <SCORE.INTER>
-13.8556

>  <SCORE.INTER.CONST>
1

>  <SCORE.INTER.POLAR>
-2.21161

>  <SCORE.INTER.ROT>
3

>  <SCORE.INTER.SOLV>
9.8299

>  <SCORE.INTER.VDW>
-10.7417

>  <SCORE.INTER.norm>
-1.15464

>  <SCORE.INTRA>
-0.271097

>  <SCORE.INTRA.DIHEDRAL>
2.31886

>  <SCORE.INTRA.DIHEDRAL.0>
1.88407

>  <SCORE.INTRA.POLAR>
0

>  <SCORE.INTRA.POLAR.0>
0

>  <SCORE.INTRA.REPUL>
0

>  <SCORE.INTRA.REPUL.0>
0

>  <SCORE.INTRA.SOLV>
0.251803

>  <SCORE.INTRA.SOLV.lig_0>
-10.2714

>  <SCORE.INTRA.VDW>
-1.55643

>  <SCORE.INTRA.VDW.0>
0.416923

>  <SCORE.INTRA.norm>
-0.0225914

>  <SCORE.RESTR>
0

>  <SCORE.RESTR.CAVITY>
0

>  <SCORE.RESTR.norm>
0

>  <SCORE.SYSTEM>
0

>  <SCORE.SYSTEM.CONST>
0

>  <SCORE.SYSTEM.DIHEDRAL>
0

>  <SCORE.SYSTEM.SOLV>
0

>  <SCORE.SYSTEM.norm>
0

>  <SCORE.heavy>
12

>  <SCORE.norm>
-1.17723

>  <RMSD>
42.924

$$$$
ligand
 OpenBabel11021811433D
libRbt.so/2013.1/901 2013/11/27
 12 12  0  0  0  0  0  0  0  0999 V2000
    9.8075   -3.6141   -0.9749 O   0  0  0  0  0  0  0  0  0  0  0  0
    8.9311   -0.0757   -0.5430 O   0  0  0  0  0  0  0  0  0  0  0  0
   10.5647   -3.1076    0.1656 C   0  0  0  0  0  0  0  0  0  0  0  0
    9.1736    2.3696   -0.7453 O   0  0  0  0  0  0  0  0  0  0  0  0
   11.3827   -1.8410   -0.2203 C   0  0  0  0  0  0  0  0  0  0  0  0
    8.8131    1.0327   -2.1497 O   0  0  0  0  0  0  0  0  0  0  0  0
   11.1257   -1.5116   -1.6650 N   0  0  0  0  0  0  0  0  0  0  0  0
   11.4895   -2.6698   -2.5366 C   0  0  0  0  0  0  0  0  0  0  0  0
   10.7038   -3.9318   -2.0801 C   0  0  0  0  0  0  0  0  0  0  0  0
   11.8947   -0.2968   -2.1093 C   0  0  0  0  0  0  0  0  0  0  0  0
   10.9527    0.9106   -2.3345 C   0  0  0  0  0  0  0  0  0  0  0  0
    9.7259    1.0329   -1.0115 S   0  0  0  0  0  0  0  0  0  0  0  0
  1  3  1  0  0  0  0
  1  9  1  0  0  0  0
  2 12  1  0  0  0  0
  3  5  1  0  0  0  0
  4 12  2  0  0  0  0
  5  7  1  0  0  0  0
  6 12  2  0  0  0  0
  7  8  1  0  0  0  0
  7 10  1  0  0  0  0
  8  9  1  0  0  0  0
 10 11  1  0  0  0  0
 11 12  1  0  0  0  0
M  END
>  <CHROM.1>
-108.86717552,42.84191416,-48.51109906,10.27084166,-0.75201336,-1.30884889
1.20037171,-0.71912837,2.89815879

>  <Name>
ligand

>  <RI>
0

>  <Rbt.Current_Directory>
/home/itssahil/PROJECTS/Mol_Feturizer/New_Systems/rnas/2HO6

>  <Rbt.Executable>
rbdock ($Id: //depot/dev/client3/rdock/2013.1/src/exe/rbdock.cxx#4 $)

>  <Rbt.Library>
libRbt.so (2013.1, Build901 2013/11/27)

>  <Rbt.Parameter_File>
/export/apps/rDock/src/rDock_2013.1_src/data/scripts/dock_solv.prm

>  <Rbt.Receptor>
prm/blind_docking_20.prm

>  <SCORE>
-12.4444

>  <SCORE.INTER>
-12.0732

>  <SCORE.INTER.CONST>
1

>  <SCORE.INTER.POLAR>
-2.22736

>  <SCORE.INTER.ROT>
3

>  <SCORE.INTER.SOLV>
9.5522

>  <SCORE.INTER.VDW>
-9.40829

>  <SCORE.INTER.norm>
-1.0061

>  <SCORE.INTRA>
-0.371201

>  <SCORE.INTRA.DIHEDRAL>
3.14438

>  <SCORE.INTRA.DIHEDRAL.0>
1.88407

>  <SCORE.INTRA.POLAR>
0

>  <SCORE.INTRA.POLAR.0>
0

>  <SCORE.INTRA.REPUL>
0

>  <SCORE.INTRA.REPUL.0>
0

>  <SCORE.INTRA.SOLV>
0.229155

>  <SCORE.INTRA.SOLV.lig_0>
-10.2714

>  <SCORE.INTRA.VDW>
-2.05797

>  <SCORE.INTRA.VDW.0>
0.416923

>  <SCORE.INTRA.norm>
-0.0309334

>  <SCORE.RESTR>
0

>  <SCORE.RESTR.CAVITY>
0

>  <SCORE.RESTR.norm>
0

>  <SCORE.SYSTEM>
0

>  <SCORE.SYSTEM.CONST>
0

>  <SCORE.SYSTEM.DIHEDRAL>
0

>  <SCORE.SYSTEM.SOLV>
0

>  <SCORE.SYSTEM.norm>
0

>  <SCORE.heavy>
12

>  <SCORE.norm>
-1.03703

>  <RMSD>
42.941

$$$$
ligand
 OpenBabel11021811433D
libRbt.so/2013.1/901 2013/11/27
 12 12  0  0  0  0  0  0  0  0999 V2000
    9.9612    2.1191   -2.2101 O   0  0  0  0  0  0  0  0  0  0  0  0
    8.4194   -2.7016   -1.1972 O   0  0  0  0  0  0  0  0  0  0  0  0
   11.2220    1.5493   -2.6753 C   0  0  0  0  0  0  0  0  0  0  0  0
    7.5057   -3.1455    1.0494 O   0  0  0  0  0  0  0  0  0  0  0  0
   11.6329    0.3175   -1.8175 C   0  0  0  0  0  0  0  0  0  0  0  0
    7.7867   -1.4196    0.1371 O   0  0  0  0  0  0  0  0  0  0  0  0
   10.5824    0.0770   -0.7684 N   0  0  0  0  0  0  0  0  0  0  0  0
   10.4113    1.2912    0.0859 C   0  0  0  0  0  0  0  0  0  0  0  0
   10.0672    2.5143   -0.8107 C   0  0  0  0  0  0  0  0  0  0  0  0
   10.9212   -1.0999    0.1059 C   0  0  0  0  0  0  0  0  0  0  0  0
    9.7398   -1.4637    1.0375 C   0  0  0  0  0  0  0  0  0  0  0  0
    8.6090   -2.6213    0.2303 S   0  0  0  0  0  0  0  0  0  0  0  0
  1  3  1  0  0  0  0
  1  9  1  0  0  0  0
  2 12  1  0  0  0  0
  3  5  1  0  0  0  0
  4 12  2  0  0  0  0
  5  7  1  0  0  0  0
  6 12  2  0  0  0  0
  7  8  1  0  0  0  0
  7 10  1  0  0  0  0
  8  9  1  0  0  0  0
 10 11  1  0  0  0  0
 11 12  1  0  0  0  0
M  END
>  <CHROM.1>
-171.53471599,88.06756352,-27.95564226,9.57967105,-0.62666998,-0.49456643
0.86661708,0.76718513,0.09631802

>  <Name>
ligand

>  <RI>
0

>  <Rbt.Current_Directory>
/home/itssahil/PROJECTS/Mol_Feturizer/New_Systems/rnas/2HO6

>  <Rbt.Executable>
rbdock ($Id: //depot/dev/client3/rdock/2013.1/src/exe/rbdock.cxx#4 $)

>  <Rbt.Library>
libRbt.so (2013.1, Build901 2013/11/27)

>  <Rbt.Parameter_File>
/export/apps/rDock/src/rDock_2013.1_src/data/scripts/dock_solv.prm

>  <Rbt.Receptor>
prm/blind_docking_100.prm

>  <SCORE>
-18.0924

>  <SCORE.INTER>
-18.9148

>  <SCORE.INTER.CONST>
1

>  <SCORE.INTER.POLAR>
-2.22592

>  <SCORE.INTER.ROT>
3

>  <SCORE.INTER.SOLV>
11.3987

>  <SCORE.INTER.VDW>
-14.5897

>  <SCORE.INTER.norm>
-1.57623

>  <SCORE.INTRA>
0.822398

>  <SCORE.INTRA.DIHEDRAL>
2.41181

>  <SCORE.INTRA.DIHEDRAL.0>
1.88407

>  <SCORE.INTRA.POLAR>
0

>  <SCORE.INTRA.POLAR.0>
0

>  <SCORE.INTRA.REPUL>
0

>  <SCORE.INTRA.REPUL.0>
0

>  <SCORE.INTRA.SOLV>
0.437312

>  <SCORE.INTRA.SOLV.lig_0>
-10.2714

>  <SCORE.INTRA.VDW>
-0.602165

>  <SCORE.INTRA.VDW.0>
0.416923

>  <SCORE.INTRA.norm>
0.0685332

>  <SCORE.RESTR>
0

>  <SCORE.RESTR.CAVITY>
0

>  <SCORE.RESTR.norm>
0

>  <SCORE.SYSTEM>
0

>  <SCORE.SYSTEM.CONST>
0

>  <SCORE.SYSTEM.DIHEDRAL>
0

>  <SCORE.SYSTEM.SOLV>
0

>  <SCORE.SYSTEM.norm>
0

>  <SCORE.heavy>
12

>  <SCORE.norm>
-1.5077

>  <RMSD>
42.951

$$$$
ligand
 OpenBabel11021811433D
libRbt.so/2013.1/901 2013/11/27
 12 12  0  0  0  0  0  0  0  0999 V2000
    8.6310    0.9853    0.4675 O   0  0  0  0  0  0  0  0  0  0  0  0
    9.1412    0.2874   -3.1610 O   0  0  0  0  0  0  0  0  0  0  0  0
    9.4461    2.0779   -0.0546 C   0  0  0  0  0  0  0  0  0  0  0  0
    9.7809   -1.2432   -4.9851 O   0  0  0  0  0  0  0  0  0  0  0  0
   10.6879    1.5366   -0.8207 C   0  0  0  0  0  0  0  0  0  0  0  0
    9.2869   -1.6623   -3.1222 O   0  0  0  0  0  0  0  0  0  0  0  0
   10.6587    0.0331   -0.8038 N   0  0  0  0  0  0  0  0  0  0  0  0
   10.6354   -0.4720    0.6026 C   0  0  0  0  0  0  0  0  0  0  0  0
    9.4207    0.1408    1.3557 C   0  0  0  0  0  0  0  0  0  0  0  0
   11.8400   -0.5596   -1.5232 C   0  0  0  0  0  0  0  0  0  0  0  0
   11.3865   -1.4504   -2.7050 C   0  0  0  0  0  0  0  0  0  0  0  0
   10.1264   -0.6179   -3.6996 S   0  0  0  0  0  0  0  0  0  0  0  0
  1  3  1  0  0  0  0
  1  9  1  0  0  0  0
  2 12  1  0  0  0  0
  3  5  1  0  0  0  0
  4 12  2  0  0  0  0
  5  7  1  0  0  0  0
  6 12  2  0  0  0  0
  7  8  1  0  0  0  0
  7 10  1  0  0  0  0
  8  9  1  0  0  0  0
 10 11  1  0  0  0  0
 11 12  1  0  0  0  0
M  END
>  <CHROM.1>
-120.38346712,46.82952059,-33.20962073,10.05481929,-0.14214874,-1.78549887
1.64525511,-0.62886897,1.22152866

>  <Name>
ligand

>  <RI>
0

>  <Rbt.Current_Directory>
/home/itssahil/PROJECTS/Mol_Feturizer/New_Systems/rnas/2HO6

>  <Rbt.Executable>
rbdock ($Id: //depot/dev/client3/rdock/2013.1/src/exe/rbdock.cxx#4 $)

>  <Rbt.Library>
libRbt.so (2013.1, Build901 2013/11/27)

>  <Rbt.Parameter_File>
/export/apps/rDock/src/rDock_2013.1_src/data/scripts/dock_solv.prm

>  <Rbt.Receptor>
prm/blind_docking_40.prm

>  <SCORE>
-15.8527

>  <SCORE.INTER>
-15.2918

>  <SCORE.INTER.CONST>
1

>  <SCORE.INTER.POLAR>
-2.24061

>  <SCORE.INTER.ROT>
3

>  <SCORE.INTER.SOLV>
10.7265

>  <SCORE.INTER.VDW>
-11.9014

>  <SCORE.INTER.norm>
-1.27432

>  <SCORE.INTRA>
-0.560902

>  <SCORE.INTRA.DIHEDRAL>
2.86416

>  <SCORE.INTRA.DIHEDRAL.0>
1.88407

>  <SCORE.INTRA.POLAR>
0

>  <SCORE.INTRA.POLAR.0>
0

>  <SCORE.INTRA.REPUL>
0

>  <SCORE.INTRA.REPUL.0>
0

>  <SCORE.INTRA.SOLV>
0.355939

>  <SCORE.INTRA.SOLV.lig_0>
-10.2714

>  <SCORE.INTRA.VDW>
-2.17095

>  <SCORE.INTRA.VDW.0>
0.416923

>  <SCORE.INTRA.norm>
-0.0467418

>  <SCORE.RESTR>
0

>  <SCORE.RESTR.CAVITY>
0

>  <SCORE.RESTR.norm>
0

>  <SCORE.SYSTEM>
0

>  <SCORE.SYSTEM.CONST>
0

>  <SCORE.SYSTEM.DIHEDRAL>
0

>  <SCORE.SYSTEM.SOLV>
0

>  <SCORE.SYSTEM.norm>
0

>  <SCORE.heavy>
12

>  <SCORE.norm>
-1.32106

>  <RMSD>
42.952

$$$$
ligand
 OpenBabel11021811433D
libRbt.so/2013.1/901 2013/11/27
 12 12  0  0  0  0  0  0  0  0999 V2000
    8.3964   -2.5420   -0.8958 O   0  0  0  0  0  0  0  0  0  0  0  0
   11.0537    3.3513   -2.3002 O   0  0  0  0  0  0  0  0  0  0  0  0
    8.2039   -2.3081    0.5321 C   0  0  0  0  0  0  0  0  0  0  0  0
   10.0367    1.1356   -2.6687 O   0  0  0  0  0  0  0  0  0  0  0  0
    9.1918   -1.2293    1.0635 C   0  0  0  0  0  0  0  0  0  0  0  0
    9.3908    2.6347   -1.5617 O   0  0  0  0  0  0  0  0  0  0  0  0
   10.0424   -0.7384   -0.0756 N   0  0  0  0  0  0  0  0  0  0  0  0
   10.7797   -1.8765   -0.7038 C   0  0  0  0  0  0  0  0  0  0  0  0
    9.7665   -2.9636   -1.1621 C   0  0  0  0  0  0  0  0  0  0  0  0
   11.0300    0.3055    0.3704 C   0  0  0  0  0  0  0  0  0  0  0  0
   10.5370    1.7297    0.0177 C   0  0  0  0  0  0  0  0  0  0  0  0
   10.7187    2.0605   -1.7509 S   0  0  0  0  0  0  0  0  0  0  0  0
  1  3  1  0  0  0  0
  1  9  1  0  0  0  0
  2 12  1  0  0  0  0
  3  5  1  0  0  0  0
  4 12  2  0  0  0  0
  5  7  1  0  0  0  0
  6 12  2  0  0  0  0
  7  8  1  0  0  0  0
  7 10  1  0  0  0  0
  8  9  1  0  0  0  0
 10 11  1  0  0  0  0
 11 12  1  0  0  0  0
M  END
>  <CHROM.1>
-100.51003211,-74.88188386,-145.22063369,9.99377065,0.20607359,-0.89772031
2.60094354,1.25718384,1.80138038

>  <Name>
ligand

>  <RI>
0

>  <Rbt.Current_Directory>
/home/itssahil/PROJECTS/Mol_Feturizer/New_Systems/rnas/2HO6

>  <Rbt.Executable>
rbdock ($Id: //depot/dev/client3/rdock/2013.1/src/exe/rbdock.cxx#4 $)

>  <Rbt.Library>
libRbt.so (2013.1, Build901 2013/11/27)

>  <Rbt.Parameter_File>
/export/apps/rDock/src/rDock_2013.1_src/data/scripts/dock_solv.prm

>  <Rbt.Receptor>
prm/blind_docking_80.prm

>  <SCORE>
-16.8023

>  <SCORE.INTER>
-16.6824

>  <SCORE.INTER.CONST>
1

>  <SCORE.INTER.POLAR>
-1.34142

>  <SCORE.INTER.ROT>
3

>  <SCORE.INTER.SOLV>
8.7951

>  <SCORE.INTER.VDW>
-15.1819

>  <SCORE.INTER.norm>
-1.3902

>  <SCORE.INTRA>
-0.119911

>  <SCORE.INTRA.DIHEDRAL>
2.53776

>  <SCORE.INTRA.DIHEDRAL.0>
1.88407

>  <SCORE.INTRA.POLAR>
0

>  <SCORE.INTRA.POLAR.0>
0

>  <SCORE.INTRA.REPUL>
0

>  <SCORE.INTRA.REPUL.0>
0

>  <SCORE.INTRA.SOLV>
0.819691

>  <SCORE.INTRA.SOLV.lig_0>
-10.2714

>  <SCORE.INTRA.VDW>
-1.79864

>  <SCORE.INTRA.VDW.0>
0.416923

>  <SCORE.INTRA.norm>
-0.00999258

>  <SCORE.RESTR>
0

>  <SCORE.RESTR.CAVITY>
0

>  <SCORE.RESTR.norm>
0

>  <SCORE.SYSTEM>
0

>  <SCORE.SYSTEM.CONST>
0

>  <SCORE.SYSTEM.DIHEDRAL>
0

>  <SCORE.SYSTEM.SOLV>
0

>  <SCORE.SYSTEM.norm>
0

>  <SCORE.heavy>
12

>  <SCORE.norm>
-1.40019

>  <RMSD>
42.955

$$$$
ligand
 OpenBabel11021811433D
libRbt.so/2013.1/901 2013/11/27
 12 12  0  0  0  0  0  0  0  0999 V2000
    9.9776    1.8322   -2.4758 O   0  0  0  0  0  0  0  0  0  0  0  0
    7.5494   -3.2489    0.8524 O   0  0  0  0  0  0  0  0  0  0  0  0
   11.1735    1.0360   -2.7340 C   0  0  0  0  0  0  0  0  0  0  0  0
    7.5948   -0.8582    0.2511 O   0  0  0  0  0  0  0  0  0  0  0  0
   11.4905    0.0931   -1.5371 C   0  0  0  0  0  0  0  0  0  0  0  0
    8.3798   -2.3975   -0.6998 O   0  0  0  0  0  0  0  0  0  0  0  0
   10.4438    0.2804   -0.4735 N   0  0  0  0  0  0  0  0  0  0  0  0
   10.3978    1.7077   -0.0329 C   0  0  0  0  0  0  0  0  0  0  0  0
   10.1458    2.6245   -1.2635 C   0  0  0  0  0  0  0  0  0  0  0  0
   10.6942   -0.5989    0.7216 C   0  0  0  0  0  0  0  0  0  0  0  0
   10.1257   -2.0213    0.4991 C   0  0  0  0  0  0  0  0  0  0  0  0
    8.3304   -2.0442    0.7149 S   0  0  0  0  0  0  0  0  0  0  0  0
  1  3  1  0  0  0  0
  1  9  1  0  0  0  0
  2 12  1  0  0  0  0
  3  5  1  0  0  0  0
  4 12  2  0  0  0  0
  5  7  1  0  0  0  0
  6 12  2  0  0  0  0
  7  8  1  0  0  0  0
  7 10  1  0  0  0  0
  8  9  1  0  0  0  0
 10 11  1  0  0  0  0
 11 12  1  0  0  0  0
M  END
>  <CHROM.1>
-83.66771378,-77.18964504,-166.39362665,9.51194761,-0.49690486,-0.40075079
1.06974534,0.00144276,-0.51299399

>  <Name>
ligand

>  <RI>
0

>  <Rbt.Current_Directory>
/home/itssahil/PROJECTS/Mol_Feturizer/New_Systems/rnas/2HO6

>  <Rbt.Executable>
rbdock ($Id: //depot/dev/client3/rdock/2013.1/src/exe/rbdock.cxx#4 $)

>  <Rbt.Library>
libRbt.so (2013.1, Build901 2013/11/27)

>  <Rbt.Parameter_File>
/export/apps/rDock/src/rDock_2013.1_src/data/scripts/dock_solv.prm

>  <Rbt.Receptor>
prm/blind_docking_80.prm

>  <SCORE>
-20.5659

>  <SCORE.INTER>
-20.3504

>  <SCORE.INTER.CONST>
1

>  <SCORE.INTER.POLAR>
-2.23339

>  <SCORE.INTER.ROT>
3

>  <SCORE.INTER.SOLV>
9.71953

>  <SCORE.INTER.VDW>
-14.9621

>  <SCORE.INTER.norm>
-1.69586

>  <SCORE.INTRA>
-0.215536

>  <SCORE.INTRA.DIHEDRAL>
1.78806

>  <SCORE.INTRA.DIHEDRAL.0>
1.88407

>  <SCORE.INTRA.POLAR>
0

>  <SCORE.INTRA.POLAR.0>
0

>  <SCORE.INTRA.REPUL>
0

>  <SCORE.INTRA.REPUL.0>
0

>  <SCORE.INTRA.SOLV>
0.986655

>  <SCORE.INTRA.SOLV.lig_0>
-10.2714

>  <SCORE.INTRA.VDW>
-1.6029

>  <SCORE.INTRA.VDW.0>
0.416923

>  <SCORE.INTRA.norm>
-0.0179614

>  <SCORE.RESTR>
0

>  <SCORE.RESTR.CAVITY>
0

>  <SCORE.RESTR.norm>
0

>  <SCORE.SYSTEM>
0

>  <SCORE.SYSTEM.CONST>
0

>  <SCORE.SYSTEM.DIHEDRAL>
0

>  <SCORE.SYSTEM.SOLV>
0

>  <SCORE.SYSTEM.norm>
0

>  <SCORE.heavy>
12

>  <SCORE.norm>
-1.71383

>  <RMSD>
42.958

$$$$
ligand
 OpenBabel11021811433D
libRbt.so/2013.1/901 2013/11/27
 12 12  0  0  0  0  0  0  0  0999 V2000
    9.8210    1.7013   -2.4300 O   0  0  0  0  0  0  0  0  0  0  0  0
    8.7622   -2.3905   -1.0990 O   0  0  0  0  0  0  0  0  0  0  0  0
   11.0662    0.9975   -2.7214 C   0  0  0  0  0  0  0  0  0  0  0  0
    7.5065   -3.0942    0.9029 O   0  0  0  0  0  0  0  0  0  0  0  0
   11.4842    0.0799   -1.5359 C   0  0  0  0  0  0  0  0  0  0  0  0
    7.7741   -1.2815    0.1730 O   0  0  0  0  0  0  0  0  0  0  0  0
   10.4544    0.1869   -0.4451 N   0  0  0  0  0  0  0  0  0  0  0  0
   10.3128    1.6064    0.0008 C   0  0  0  0  0  0  0  0  0  0  0  0
    9.9606    2.5028   -1.2201 C   0  0  0  0  0  0  0  0  0  0  0  0
   10.8011   -0.6722    0.7406 C   0  0  0  0  0  0  0  0  0  0  0  0
    9.5269   -1.2309    1.4189 C   0  0  0  0  0  0  0  0  0  0  0  0
    8.6817   -2.4115    0.3409 S   0  0  0  0  0  0  0  0  0  0  0  0
  1  3  1  0  0  0  0
  1  9  1  0  0  0  0
  2 12  1  0  0  0  0
  3  5  1  0  0  0  0
  4 12  2  0  0  0  0
  5  7  1  0  0  0  0
  6 12  2  0  0  0  0
  7  8  1  0  0  0  0
  7 10  1  0  0  0  0
  8  9  1  0  0  0  0
 10 11  1  0  0  0  0
 11 12  1  0  0  0  0
M  END
>  <CHROM.1>
-146.45440065,67.38804144,-26.93075108,9.53729765,-0.56466530,-0.41746951
0.69174062,-0.94693015,-1.27707079

>  <Name>
ligand

>  <RI>
0

>  <Rbt.Current_Directory>
/home/itssahil/PROJECTS/Mol_Feturizer/New_Systems/rnas/2HO6

>  <Rbt.Executable>
rbdock ($Id: //depot/dev/client3/rdock/2013.1/src/exe/rbdock.cxx#4 $)

>  <Rbt.Library>
libRbt.so (2013.1, Build901 2013/11/27)

>  <Rbt.Parameter_File>
/export/apps/rDock/src/rDock_2013.1_src/data/scripts/dock_solv.prm

>  <Rbt.Receptor>
prm/blind_docking_20.prm

>  <SCORE>
-19.7514

>  <SCORE.INTER>
-18.8368

>  <SCORE.INTER.CONST>
1

>  <SCORE.INTER.POLAR>
-2.23254

>  <SCORE.INTER.ROT>
3

>  <SCORE.INTER.SOLV>
11.1315

>  <SCORE.INTER.VDW>
-14.4266

>  <SCORE.INTER.norm>
-1.56974

>  <SCORE.INTRA>
-0.914551

>  <SCORE.INTRA.DIHEDRAL>
1.391

>  <SCORE.INTRA.DIHEDRAL.0>
1.88407

>  <SCORE.INTRA.POLAR>
0

>  <SCORE.INTRA.POLAR.0>
0

>  <SCORE.INTRA.REPUL>
0

>  <SCORE.INTRA.REPUL.0>
0

>  <SCORE.INTRA.SOLV>
0.47349

>  <SCORE.INTRA.SOLV.lig_0>
-10.2714

>  <SCORE.INTRA.VDW>
-1.8468

>  <SCORE.INTRA.VDW.0>
0.416923

>  <SCORE.INTRA.norm>
-0.0762126

>  <SCORE.RESTR>
0

>  <SCORE.RESTR.CAVITY>
0

>  <SCORE.RESTR.norm>
0

>  <SCORE.SYSTEM>
0

>  <SCORE.SYSTEM.CONST>
0

>  <SCORE.SYSTEM.DIHEDRAL>
0

>  <SCORE.SYSTEM.SOLV>
0

>  <SCORE.SYSTEM.norm>
0

>  <SCORE.heavy>
12

>  <SCORE.norm>
-1.64595

>  <RMSD>
42.969

$$$$
ligand
 OpenBabel11021811433D
libRbt.so/2013.1/901 2013/11/27
 12 12  0  0  0  0  0  0  0  0999 V2000
    9.6794    2.1873   -1.6178 O   0  0  0  0  0  0  0  0  0  0  0  0
    8.5104   -2.5453    2.0779 O   0  0  0  0  0  0  0  0  0  0  0  0
   10.7449    1.7718   -2.5248 C   0  0  0  0  0  0  0  0  0  0  0  0
    7.3988   -1.4246    0.1838 O   0  0  0  0  0  0  0  0  0  0  0  0
   11.3035    0.3730   -2.1328 C   0  0  0  0  0  0  0  0  0  0  0  0
    8.0390   -3.2844    0.3299 O   0  0  0  0  0  0  0  0  0  0  0  0
   10.5526   -0.1374   -0.9338 N   0  0  0  0  0  0  0  0  0  0  0  0
   10.6712    0.8245    0.2039 C   0  0  0  0  0  0  0  0  0  0  0  0
   10.1665    2.2255   -0.2441 C   0  0  0  0  0  0  0  0  0  0  0  0
   11.0487   -1.4882   -0.4939 C   0  0  0  0  0  0  0  0  0  0  0  0
    9.8950   -2.5187   -0.4423 C   0  0  0  0  0  0  0  0  0  0  0  0
    8.6253   -2.0135    0.7422 S   0  0  0  0  0  0  0  0  0  0  0  0
  1  3  1  0  0  0  0
  1  9  1  0  0  0  0
  2 12  1  0  0  0  0
  3  5  1  0  0  0  0
  4 12  2  0  0  0  0
  5  7  1  0  0  0  0
  6 12  2  0  0  0  0
  7  8  1  0  0  0  0
  7 10  1  0  0  0  0
  8  9  1  0  0  0  0
 10 11  1  0  0  0  0
 11 12  1  0  0  0  0
M  END
>  <CHROM.1>
-124.48243762,-61.08865695,-100.03274889,9.56460470,-0.67388891,-0.27149832
1.01780207,0.63866828,-0.17063222

>  <Name>
ligand

>  <RI>
0

>  <Rbt.Current_Directory>
/home/itssahil/PROJECTS/Mol_Feturizer/New_Systems/rnas/2HO6

>  <Rbt.Executable>
rbdock ($Id: //depot/dev/client3/rdock/2013.1/src/exe/rbdock.cxx#4 $)

>  <Rbt.Library>
libRbt.so (2013.1, Build901 2013/11/27)

>  <Rbt.Parameter_File>
/export/apps/rDock/src/rDock_2013.1_src/data/scripts/dock_solv.prm

>  <Rbt.Receptor>
prm/blind_docking_40.prm

>  <SCORE>
-16.4073

>  <SCORE.INTER>
-16.0154

>  <SCORE.INTER.CONST>
1

>  <SCORE.INTER.POLAR>
-1.34164

>  <SCORE.INTER.ROT>
3

>  <SCORE.INTER.SOLV>
8.46371

>  <SCORE.INTER.VDW>
-14.626

>  <SCORE.INTER.norm>
-1.33462

>  <SCORE.INTRA>
-0.391963

>  <SCORE.INTRA.DIHEDRAL>
2.33481

>  <SCORE.INTRA.DIHEDRAL.0>
1.88407

>  <SCORE.INTRA.POLAR>
0

>  <SCORE.INTRA.POLAR.0>
0

>  <SCORE.INTRA.REPUL>
0

>  <SCORE.INTRA.REPUL.0>
0

>  <SCORE.INTRA.SOLV>
0.473002

>  <SCORE.INTRA.SOLV.lig_0>
-10.2714

>  <SCORE.INTRA.VDW>
-1.79587

>  <SCORE.INTRA.VDW.0>
0.416923

>  <SCORE.INTRA.norm>
-0.0326635

>  <SCORE.RESTR>
0

>  <SCORE.RESTR.CAVITY>
0

>  <SCORE.RESTR.norm>
0

>  <SCORE.SYSTEM>
0

>  <SCORE.SYSTEM.CONST>
0

>  <SCORE.SYSTEM.DIHEDRAL>
0

>  <SCORE.SYSTEM.SOLV>
0

>  <SCORE.SYSTEM.norm>
0

>  <SCORE.heavy>
12

>  <SCORE.norm>
-1.36728

>  <RMSD>
42.970

$$$$
ligand
 OpenBabel11021811433D
libRbt.so/2013.1/901 2013/11/27
 12 12  0  0  0  0  0  0  0  0999 V2000
   10.0520    1.7585   -2.4542 O   0  0  0  0  0  0  0  0  0  0  0  0
    7.4297   -3.2294    0.8489 O   0  0  0  0  0  0  0  0  0  0  0  0
   11.2808    0.9814   -2.5843 C   0  0  0  0  0  0  0  0  0  0  0  0
    7.4934   -0.8354    0.2626 O   0  0  0  0  0  0  0  0  0  0  0  0
   11.5167    0.0883   -1.3318 C   0  0  0  0  0  0  0  0  0  0  0  0
    8.3512   -2.3634   -0.6427 O   0  0  0  0  0  0  0  0  0  0  0  0
   10.3821    0.2885   -0.3650 N   0  0  0  0  0  0  0  0  0  0  0  0
   10.2715    1.7289    0.0178 C   0  0  0  0  0  0  0  0  0  0  0  0
   10.1037    2.5962   -1.2620 C   0  0  0  0  0  0  0  0  0  0  0  0
   10.5504   -0.5427    0.8780 C   0  0  0  0  0  0  0  0  0  0  0  0
   10.0129   -1.9789    0.6682 C   0  0  0  0  0  0  0  0  0  0  0  0
    8.2076   -2.0176    0.7676 S   0  0  0  0  0  0  0  0  0  0  0  0
  1  3  1  0  0  0  0
  1  9  1  0  0  0  0
  2 12  1  0  0  0  0
  3  5  1  0  0  0  0
  4 12  2  0  0  0  0
  5  7  1  0  0  0  0
  6 12  2  0  0  0  0
  7  8  1  0  0  0  0
  7 10  1  0  0  0  0
  8  9  1  0  0  0  0
 10 11  1  0  0  0  0
 11 12  1  0  0  0  0
M  END
>  <CHROM.1>
-84.45180193,-77.76957706,-168.63119362,9.45173845,-0.48940831,-0.32418451
1.04122980,-0.02899268,-0.53222245

>  <Name>
ligand

>  <RI>
0

>  <Rbt.Current_Directory>
/home/itssahil/PROJECTS/Mol_Feturizer/New_Systems/rnas/2HO6

>  <Rbt.Executable>
rbdock ($Id: //depot/dev/client3/rdock/2013.1/src/exe/rbdock.cxx#4 $)

>  <Rbt.Library>
libRbt.so (2013.1, Build901 2013/11/27)

>  <Rbt.Parameter_File>
/export/apps/rDock/src/rDock_2013.1_src/data/scripts/dock_solv.prm

>  <Rbt.Receptor>
prm/blind_docking_100.prm

>  <SCORE>
-20.7124

>  <SCORE.INTER>
-20.5582

>  <SCORE.INTER.CONST>
1

>  <SCORE.INTER.POLAR>
-2.23254

>  <SCORE.INTER.ROT>
3

>  <SCORE.INTER.SOLV>
9.72186

>  <SCORE.INTER.VDW>
-15.1043

>  <SCORE.INTER.norm>
-1.71319

>  <SCORE.INTRA>
-0.154174

>  <SCORE.INTRA.DIHEDRAL>
1.90798

>  <SCORE.INTRA.DIHEDRAL.0>
1.88407

>  <SCORE.INTRA.POLAR>
0

>  <SCORE.INTRA.POLAR.0>
0

>  <SCORE.INTRA.REPUL>
0

>  <SCORE.INTRA.REPUL.0>
0

>  <SCORE.INTRA.SOLV>
0.999439

>  <SCORE.INTRA.SOLV.lig_0>
-10.2714

>  <SCORE.INTRA.VDW>
-1.60788

>  <SCORE.INTRA.VDW.0>
0.416923

>  <SCORE.INTRA.norm>
-0.0128478

>  <SCORE.RESTR>
0

>  <SCORE.RESTR.CAVITY>
0

>  <SCORE.RESTR.norm>
0

>  <SCORE.SYSTEM>
0

>  <SCORE.SYSTEM.CONST>
0

>  <SCORE.SYSTEM.DIHEDRAL>
0

>  <SCORE.SYSTEM.SOLV>
0

>  <SCORE.SYSTEM.norm>
0

>  <SCORE.heavy>
12

>  <SCORE.norm>
-1.72603

>  <RMSD>
42.979

$$$$
ligand
 OpenBabel11021811433D
libRbt.so/2013.1/901 2013/11/27
 12 12  0  0  0  0  0  0  0  0999 V2000
   10.0003    1.5512   -2.4548 O   0  0  0  0  0  0  0  0  0  0  0  0
    8.7585   -2.3296   -0.9989 O   0  0  0  0  0  0  0  0  0  0  0  0
   11.2097    0.7397   -2.5509 C   0  0  0  0  0  0  0  0  0  0  0  0
    7.4785   -3.1844    0.9273 O   0  0  0  0  0  0  0  0  0  0  0  0
   11.4601   -0.0543   -1.2360 C   0  0  0  0  0  0  0  0  0  0  0  0
    7.5525   -1.3554    0.1930 O   0  0  0  0  0  0  0  0  0  0  0  0
   10.3549    0.2479   -0.2616 N   0  0  0  0  0  0  0  0  0  0  0  0
   10.2826    1.7165    0.0054 C   0  0  0  0  0  0  0  0  0  0  0  0
   10.0990    2.4812   -1.3362 C   0  0  0  0  0  0  0  0  0  0  0  0
   10.5387   -0.4837    1.0404 C   0  0  0  0  0  0  0  0  0  0  0  0
    9.1986   -1.0687    1.5479 C   0  0  0  0  0  0  0  0  0  0  0  0
    8.5879   -2.3550    0.4331 S   0  0  0  0  0  0  0  0  0  0  0  0
  1  3  1  0  0  0  0
  1  9  1  0  0  0  0
  2 12  1  0  0  0  0
  3  5  1  0  0  0  0
  4 12  2  0  0  0  0
  5  7  1  0  0  0  0
  6 12  2  0  0  0  0
  7  8  1  0  0  0  0
  7 10  1  0  0  0  0
  8  9  1  0  0  0  0
 10 11  1  0  0  0  0
 11 12  1  0  0  0  0
M  END
>  <CHROM.1>
-137.49859878,65.65039713,-34.75159031,9.48232084,-0.56841285,-0.32226728
0.41705105,-1.00907851,-1.59801015

>  <Name>
ligand

>  <RI>
0

>  <Rbt.Current_Directory>
/home/itssahil/PROJECTS/Mol_Feturizer/New_Systems/rnas/2HO6

>  <Rbt.Executable>
rbdock ($Id: //depot/dev/client3/rdock/2013.1/src/exe/rbdock.cxx#4 $)

>  <Rbt.Library>
libRbt.so (2013.1, Build901 2013/11/27)

>  <Rbt.Parameter_File>
/export/apps/rDock/src/rDock_2013.1_src/data/scripts/dock_solv.prm

>  <Rbt.Receptor>
prm/blind_docking_100.prm

>  <SCORE>
-20.6422

>  <SCORE.INTER>
-19.7797

>  <SCORE.INTER.CONST>
1

>  <SCORE.INTER.POLAR>
-2.24545

>  <SCORE.INTER.ROT>
3

>  <SCORE.INTER.SOLV>
11.3337

>  <SCORE.INTER.VDW>
-15.0796

>  <SCORE.INTER.norm>
-1.64831

>  <SCORE.INTRA>
-0.862431

>  <SCORE.INTRA.DIHEDRAL>
1.82426

>  <SCORE.INTRA.DIHEDRAL.0>
1.88407

>  <SCORE.INTRA.POLAR>
0

>  <SCORE.INTRA.POLAR.0>
0

>  <SCORE.INTRA.REPUL>
0

>  <SCORE.INTRA.REPUL.0>
0

>  <SCORE.INTRA.SOLV>
0.37762

>  <SCORE.INTRA.SOLV.lig_0>
-10.2714

>  <SCORE.INTRA.VDW>
-1.96337

>  <SCORE.INTRA.VDW.0>
0.416923

>  <SCORE.INTRA.norm>
-0.0718692

>  <SCORE.RESTR>
0

>  <SCORE.RESTR.CAVITY>
0

>  <SCORE.RESTR.norm>
0

>  <SCORE.SYSTEM>
0

>  <SCORE.SYSTEM.CONST>
0

>  <SCORE.SYSTEM.DIHEDRAL>
0

>  <SCORE.SYSTEM.SOLV>
0

>  <SCORE.SYSTEM.norm>
0

>  <SCORE.heavy>
12

>  <SCORE.norm>
-1.72018

>  <RMSD>
42.986

$$$$
ligand
 OpenBabel11021811433D
libRbt.so/2013.1/901 2013/11/27
 12 12  0  0  0  0  0  0  0  0999 V2000
    9.8314    1.8567   -2.2930 O   0  0  0  0  0  0  0  0  0  0  0  0
    7.4520   -3.1227    1.0007 O   0  0  0  0  0  0  0  0  0  0  0  0
   11.0404    1.1549   -2.7130 C   0  0  0  0  0  0  0  0  0  0  0  0
    7.6997   -0.7920    0.2355 O   0  0  0  0  0  0  0  0  0  0  0  0
   11.4754    0.1008   -1.6539 C   0  0  0  0  0  0  0  0  0  0  0  0
    8.2297   -2.4632   -0.6679 O   0  0  0  0  0  0  0  0  0  0  0  0
   10.4941    0.1156   -0.5143 N   0  0  0  0  0  0  0  0  0  0  0  0
   10.4167    1.4805    0.0894 C   0  0  0  0  0  0  0  0  0  0  0  0
   10.0454    2.5157   -1.0101 C   0  0  0  0  0  0  0  0  0  0  0  0
   10.8598   -0.8785    0.5545 C   0  0  0  0  0  0  0  0  0  0  0  0
   10.1039   -2.2149    0.3584 C   0  0  0  0  0  0  0  0  0  0  0  0
    8.3421   -2.0235    0.7188 S   0  0  0  0  0  0  0  0  0  0  0  0
  1  3  1  0  0  0  0
  1  9  1  0  0  0  0
  2 12  1  0  0  0  0
  3  5  1  0  0  0  0
  4 12  2  0  0  0  0
  5  7  1  0  0  0  0
  6 12  2  0  0  0  0
  7  8  1  0  0  0  0
  7 10  1  0  0  0  0
  8  9  1  0  0  0  0
 10 11  1  0  0  0  0
 11 12  1  0  0  0  0
M  END
>  <CHROM.1>
-95.25553686,-70.17731040,-161.54735381,9.48751809,-0.54221550,-0.37645795
1.06397790,0.12332312,-0.44423141

>  <Name>
ligand

>  <RI>
0

>  <Rbt.Current_Directory>
/home/itssahil/PROJECTS/Mol_Feturizer/New_Systems/rnas/2HO6

>  <Rbt.Executable>
rbdock ($Id: //depot/dev/client3/rdock/2013.1/src/exe/rbdock.cxx#4 $)

>  <Rbt.Library>
libRbt.so (2013.1, Build901 2013/11/27)

>  <Rbt.Parameter_File>
/export/apps/rDock/src/rDock_2013.1_src/data/scripts/dock_solv.prm

>  <Rbt.Receptor>
prm/blind_docking_20.prm

>  <SCORE>
-20.278

>  <SCORE.INTER>
-19.8504

>  <SCORE.INTER.CONST>
1

>  <SCORE.INTER.POLAR>
-2.23069

>  <SCORE.INTER.ROT>
3

>  <SCORE.INTER.SOLV>
9.63254

>  <SCORE.INTER.VDW>
-14.6089

>  <SCORE.INTER.norm>
-1.6542

>  <SCORE.INTRA>
-0.427515

>  <SCORE.INTRA.DIHEDRAL>
1.83144

>  <SCORE.INTRA.DIHEDRAL.0>
1.88407

>  <SCORE.INTRA.POLAR>
0

>  <SCORE.INTRA.POLAR.0>
0

>  <SCORE.INTRA.REPUL>
0

>  <SCORE.INTRA.REPUL.0>
0

>  <SCORE.INTRA.SOLV>
1.07176

>  <SCORE.INTRA.SOLV.lig_0>
-10.2714

>  <SCORE.INTRA.VDW>
-1.87911

>  <SCORE.INTRA.VDW.0>
0.416923

>  <SCORE.INTRA.norm>
-0.0356263

>  <SCORE.RESTR>
0

>  <SCORE.RESTR.CAVITY>
0

>  <SCORE.RESTR.norm>
0

>  <SCORE.SYSTEM>
0

>  <SCORE.SYSTEM.CONST>
0

>  <SCORE.SYSTEM.DIHEDRAL>
0

>  <SCORE.SYSTEM.SOLV>
0

>  <SCORE.SYSTEM.norm>
0

>  <SCORE.heavy>
12

>  <SCORE.norm>
-1.68983

>  <RMSD>
42.993

$$$$
ligand
 OpenBabel11021811433D
libRbt.so/2013.1/901 2013/11/27
 12 12  0  0  0  0  0  0  0  0999 V2000
    9.9576    1.6115   -2.4043 O   0  0  0  0  0  0  0  0  0  0  0  0
    8.7437   -2.3479   -1.0036 O   0  0  0  0  0  0  0  0  0  0  0  0
   11.2258    0.8949   -2.4971 C   0  0  0  0  0  0  0  0  0  0  0  0
    7.4571   -3.1859    0.9255 O   0  0  0  0  0  0  0  0  0  0  0  0
   11.4995    0.0670   -1.2080 C   0  0  0  0  0  0  0  0  0  0  0  0
    7.5598   -1.3563    0.1960 O   0  0  0  0  0  0  0  0  0  0  0  0
   10.3498    0.2470   -0.2552 N   0  0  0  0  0  0  0  0  0  0  0  0
   10.1621    1.6941    0.0677 C   0  0  0  0  0  0  0  0  0  0  0  0
    9.9579    2.4987   -1.2473 C   0  0  0  0  0  0  0  0  0  0  0  0
   10.5528   -0.5229    1.0215 C   0  0  0  0  0  0  0  0  0  0  0  0
    9.2161   -1.1020    1.5447 C   0  0  0  0  0  0  0  0  0  0  0  0
    8.5786   -2.3744    0.4289 S   0  0  0  0  0  0  0  0  0  0  0  0
  1  3  1  0  0  0  0
  1  9  1  0  0  0  0
  2 12  1  0  0  0  0
  3  5  1  0  0  0  0
  4 12  2  0  0  0  0
  5  7  1  0  0  0  0
  6 12  2  0  0  0  0
  7  8  1  0  0  0  0
  7 10  1  0  0  0  0
  8  9  1  0  0  0  0
 10 11  1  0  0  0  0
 11 12  1  0  0  0  0
M  END
>  <CHROM.1>
-143.41279615,66.92882148,-33.85151273,9.46194156,-0.55403285,-0.30339069
0.46489948,-1.00427328,-1.52738265

>  <Name>
ligand

>  <RI>
0

>  <Rbt.Current_Directory>
/home/itssahil/PROJECTS/Mol_Feturizer/New_Systems/rnas/2HO6

>  <Rbt.Executable>
rbdock ($Id: //depot/dev/client3/rdock/2013.1/src/exe/rbdock.cxx#4 $)

>  <Rbt.Library>
libRbt.so (2013.1, Build901 2013/11/27)

>  <Rbt.Parameter_File>
/export/apps/rDock/src/rDock_2013.1_src/data/scripts/dock_solv.prm

>  <Rbt.Receptor>
prm/blind_docking_20.prm

>  <SCORE>
-20.5545

>  <SCORE.INTER>
-19.6523

>  <SCORE.INTER.CONST>
1

>  <SCORE.INTER.POLAR>
-2.23535

>  <SCORE.INTER.ROT>
3

>  <SCORE.INTER.SOLV>
11.4626

>  <SCORE.INTER.VDW>
-15.0712

>  <SCORE.INTER.norm>
-1.63769

>  <SCORE.INTRA>
-0.902245

>  <SCORE.INTRA.DIHEDRAL>
1.54863

>  <SCORE.INTRA.DIHEDRAL.0>
1.88407

>  <SCORE.INTRA.POLAR>
0

>  <SCORE.INTRA.POLAR.0>
0

>  <SCORE.INTRA.REPUL>
0

>  <SCORE.INTRA.REPUL.0>
0

>  <SCORE.INTRA.SOLV>
0.400752

>  <SCORE.INTRA.SOLV.lig_0>
-10.2714

>  <SCORE.INTRA.VDW>
-1.87694

>  <SCORE.INTRA.VDW.0>
0.416923

>  <SCORE.INTRA.norm>
-0.0751871

>  <SCORE.RESTR>
0

>  <SCORE.RESTR.CAVITY>
0

>  <SCORE.RESTR.norm>
0

>  <SCORE.SYSTEM>
0

>  <SCORE.SYSTEM.CONST>
0

>  <SCORE.SYSTEM.DIHEDRAL>
0

>  <SCORE.SYSTEM.SOLV>
0

>  <SCORE.SYSTEM.norm>
0

>  <SCORE.heavy>
12

>  <SCORE.norm>
-1.71287

>  <RMSD>
42.994

$$$$
ligand
 OpenBabel11021811433D
libRbt.so/2013.1/901 2013/11/27
 12 12  0  0  0  0  0  0  0  0999 V2000
   10.0103    1.5598   -2.4592 O   0  0  0  0  0  0  0  0  0  0  0  0
    8.7499   -2.3517   -1.0182 O   0  0  0  0  0  0  0  0  0  0  0  0
   11.2217    0.7496   -2.5416 C   0  0  0  0  0  0  0  0  0  0  0  0
    7.5128   -3.2489    0.9167 O   0  0  0  0  0  0  0  0  0  0  0  0
   11.4562   -0.0467   -1.2252 C   0  0  0  0  0  0  0  0  0  0  0  0
    7.5184   -1.4191    0.1807 O   0  0  0  0  0  0  0  0  0  0  0  0
   10.3386    0.2526   -0.2643 N   0  0  0  0  0  0  0  0  0  0  0  0
   10.2614    1.7207    0.0047 C   0  0  0  0  0  0  0  0  0  0  0  0
   10.0941    2.4877   -1.3377 C   0  0  0  0  0  0  0  0  0  0  0  0
   10.5067   -0.4813    1.0386 C   0  0  0  0  0  0  0  0  0  0  0  0
    9.1620   -1.0740    1.5248 C   0  0  0  0  0  0  0  0  0  0  0  0
    8.5895   -2.3818    0.4149 S   0  0  0  0  0  0  0  0  0  0  0  0
  1  3  1  0  0  0  0
  1  9  1  0  0  0  0
  2 12  1  0  0  0  0
  3  5  1  0  0  0  0
  4 12  2  0  0  0  0
  5  7  1  0  0  0  0
  6 12  2  0  0  0  0
  7  8  1  0  0  0  0
  7 10  1  0  0  0  0
  8  9  1  0  0  0  0
 10 11  1  0  0  0  0
 11 12  1  0  0  0  0
M  END
>  <CHROM.1>
-137.24672480,66.71219028,-37.00219177,9.47529365,-0.58232331,-0.32980212
0.37698312,-1.02303272,-1.63582961

>  <Name>
ligand

>  <RI>
0

>  <Rbt.Current_Directory>
/home/itssahil/PROJECTS/Mol_Feturizer/New_Systems/rnas/2HO6

>  <Rbt.Executable>
rbdock ($Id: //depot/dev/client3/rdock/2013.1/src/exe/rbdock.cxx#4 $)

>  <Rbt.Library>
libRbt.so (2013.1, Build901 2013/11/27)

>  <Rbt.Parameter_File>
/export/apps/rDock/src/rDock_2013.1_src/data/scripts/dock_solv.prm

>  <Rbt.Receptor>
prm/blind_docking_60.prm

>  <SCORE>
-20.6264

>  <SCORE.INTER>
-19.7989

>  <SCORE.INTER.CONST>
1

>  <SCORE.INTER.POLAR>
-2.24229

>  <SCORE.INTER.ROT>
3

>  <SCORE.INTER.SOLV>
11.3864

>  <SCORE.INTER.VDW>
-15.1205

>  <SCORE.INTER.norm>
-1.64991

>  <SCORE.INTRA>
-0.827507

>  <SCORE.INTRA.DIHEDRAL>
1.88709

>  <SCORE.INTRA.DIHEDRAL.0>
1.88407

>  <SCORE.INTRA.POLAR>
0

>  <SCORE.INTRA.POLAR.0>
0

>  <SCORE.INTRA.REPUL>
0

>  <SCORE.INTRA.REPUL.0>
0

>  <SCORE.INTRA.SOLV>
0.356703

>  <SCORE.INTRA.SOLV.lig_0>
-10.2714

>  <SCORE.INTRA.VDW>
-1.9494

>  <SCORE.INTRA.VDW.0>
0.416923

>  <SCORE.INTRA.norm>
-0.0689589

>  <SCORE.RESTR>
0

>  <SCORE.RESTR.CAVITY>
0

>  <SCORE.RESTR.norm>
0

>  <SCORE.SYSTEM>
0

>  <SCORE.SYSTEM.CONST>
0

>  <SCORE.SYSTEM.DIHEDRAL>
0

>  <SCORE.SYSTEM.SOLV>
0

>  <SCORE.SYSTEM.norm>
0

>  <SCORE.heavy>
12

>  <SCORE.norm>
-1.71887

>  <RMSD>
42.999

$$$$
ligand
 OpenBabel11021811433D
libRbt.so/2013.1/901 2013/11/27
 12 12  0  0  0  0  0  0  0  0999 V2000
    9.9874    1.5534   -2.4444 O   0  0  0  0  0  0  0  0  0  0  0  0
    8.7641   -2.3218   -0.9984 O   0  0  0  0  0  0  0  0  0  0  0  0
   11.2014    0.7466   -2.5205 C   0  0  0  0  0  0  0  0  0  0  0  0
    7.4952   -3.2183    0.9161 O   0  0  0  0  0  0  0  0  0  0  0  0
   11.4399   -0.0368   -1.1970 C   0  0  0  0  0  0  0  0  0  0  0  0
    7.5255   -1.3848    0.1898 O   0  0  0  0  0  0  0  0  0  0  0  0
   10.3221    0.2675   -0.2379 N   0  0  0  0  0  0  0  0  0  0  0  0
   10.2402    1.7377    0.0177 C   0  0  0  0  0  0  0  0  0  0  0  0
   10.0691    2.4918   -1.3315 C   0  0  0  0  0  0  0  0  0  0  0  0
   10.4939   -0.4539    1.0715 C   0  0  0  0  0  0  0  0  0  0  0  0
    9.1551   -1.0608    1.5562 C   0  0  0  0  0  0  0  0  0  0  0  0
    8.5854   -2.3579    0.4323 S   0  0  0  0  0  0  0  0  0  0  0  0
  1  3  1  0  0  0  0
  1  9  1  0  0  0  0
  2 12  1  0  0  0  0
  3  5  1  0  0  0  0
  4 12  2  0  0  0  0
  5  7  1  0  0  0  0
  6 12  2  0  0  0  0
  7  8  1  0  0  0  0
  7 10  1  0  0  0  0
  8  9  1  0  0  0  0
 10 11  1  0  0  0  0
 11 12  1  0  0  0  0
M  END
>  <CHROM.1>
-136.57962722,65.35512811,-35.64836486,9.46443835,-0.56508831,-0.31189199
0.38613690,-1.02246283,-1.62793490

>  <Name>
ligand

>  <RI>
0

>  <Rbt.Current_Directory>
/home/itssahil/PROJECTS/Mol_Feturizer/New_Systems/rnas/2HO6

>  <Rbt.Executable>
rbdock ($Id: //depot/dev/client3/rdock/2013.1/src/exe/rbdock.cxx#4 $)

>  <Rbt.Library>
libRbt.so (2013.1, Build901 2013/11/27)

>  <Rbt.Parameter_File>
/export/apps/rDock/src/rDock_2013.1_src/data/scripts/dock_solv.prm

>  <Rbt.Receptor>
prm/blind_docking_40.prm

>  <SCORE>
-20.6092

>  <SCORE.INTER>
-19.7484

>  <SCORE.INTER.CONST>
1

>  <SCORE.INTER.POLAR>
-2.24323

>  <SCORE.INTER.ROT>
3

>  <SCORE.INTER.SOLV>
11.3982

>  <SCORE.INTER.VDW>
-15.0875

>  <SCORE.INTER.norm>
-1.6457

>  <SCORE.INTRA>
-0.860861

>  <SCORE.INTRA.DIHEDRAL>
1.85956

>  <SCORE.INTRA.DIHEDRAL.0>
1.88407

>  <SCORE.INTRA.POLAR>
0

>  <SCORE.INTRA.POLAR.0>
0

>  <SCORE.INTRA.REPUL>
0

>  <SCORE.INTRA.REPUL.0>
0

>  <SCORE.INTRA.SOLV>
0.367745

>  <SCORE.INTRA.SOLV.lig_0>
-10.2714

>  <SCORE.INTRA.VDW>
-1.97451

>  <SCORE.INTRA.VDW.0>
0.416923

>  <SCORE.INTRA.norm>
-0.0717384

>  <SCORE.RESTR>
0

>  <SCORE.RESTR.CAVITY>
0

>  <SCORE.RESTR.norm>
0

>  <SCORE.SYSTEM>
0

>  <SCORE.SYSTEM.CONST>
0

>  <SCORE.SYSTEM.DIHEDRAL>
0

>  <SCORE.SYSTEM.SOLV>
0

>  <SCORE.SYSTEM.norm>
0

>  <SCORE.heavy>
12

>  <SCORE.norm>
-1.71744

>  <RMSD>
43.000

$$$$
ligand
 OpenBabel11021811433D
libRbt.so/2013.1/901 2013/11/27
 12 12  0  0  0  0  0  0  0  0999 V2000
    9.9852    1.5544   -2.4568 O   0  0  0  0  0  0  0  0  0  0  0  0
    8.7555   -2.3382   -1.0071 O   0  0  0  0  0  0  0  0  0  0  0  0
   11.1959    0.7436   -2.5437 C   0  0  0  0  0  0  0  0  0  0  0  0
    7.4989   -3.2262    0.9195 O   0  0  0  0  0  0  0  0  0  0  0  0
   11.4395   -0.0464   -1.2251 C   0  0  0  0  0  0  0  0  0  0  0  0
    7.5269   -1.3953    0.1868 O   0  0  0  0  0  0  0  0  0  0  0  0
   10.3287    0.2577   -0.2579 N   0  0  0  0  0  0  0  0  0  0  0  0
   10.2536    1.7271    0.0045 C   0  0  0  0  0  0  0  0  0  0  0  0
   10.0770    2.4877   -1.3403 C   0  0  0  0  0  0  0  0  0  0  0  0
   10.5058   -0.4699    1.0472 C   0  0  0  0  0  0  0  0  0  0  0  0
    9.1666   -1.0691    1.5404 C   0  0  0  0  0  0  0  0  0  0  0  0
    8.5869   -2.3692    0.4250 S   0  0  0  0  0  0  0  0  0  0  0  0
  1  3  1  0  0  0  0
  1  9  1  0  0  0  0
  2 12  1  0  0  0  0
  3  5  1  0  0  0  0
  4 12  2  0  0  0  0
  5  7  1  0  0  0  0
  6 12  2  0  0  0  0
  7  8  1  0  0  0  0
  7 10  1  0  0  0  0
  8  9  1  0  0  0  0
 10 11  1  0  0  0  0
 11 12  1  0  0  0  0
M  END
>  <CHROM.1>
-136.81902180,65.92282158,-35.88112455,9.46750205,-0.57415726,-0.32443698
0.39237142,-1.02185138,-1.62238200

>  <Name>
ligand

>  <RI>
0

>  <Rbt.Current_Directory>
/home/itssahil/PROJECTS/Mol_Feturizer/New_Systems/rnas/2HO6

>  <Rbt.Executable>
rbdock ($Id: //depot/dev/client3/rdock/2013.1/src/exe/rbdock.cxx#4 $)

>  <Rbt.Library>
libRbt.so (2013.1, Build901 2013/11/27)

>  <Rbt.Parameter_File>
/export/apps/rDock/src/rDock_2013.1_src/data/scripts/dock_solv.prm

>  <Rbt.Receptor>
prm/blind_docking_100.prm

>  <SCORE>
-20.6389

>  <SCORE.INTER>
-19.7922

>  <SCORE.INTER.CONST>
1

>  <SCORE.INTER.POLAR>
-2.24379

>  <SCORE.INTER.ROT>
3

>  <SCORE.INTER.SOLV>
11.374

>  <SCORE.INTER.VDW>
-15.1068

>  <SCORE.INTER.norm>
-1.64935

>  <SCORE.INTRA>
-0.846741

>  <SCORE.INTRA.DIHEDRAL>
1.87139

>  <SCORE.INTRA.DIHEDRAL.0>
1.88407

>  <SCORE.INTRA.POLAR>
0

>  <SCORE.INTRA.POLAR.0>
0

>  <SCORE.INTRA.REPUL>
0

>  <SCORE.INTRA.REPUL.0>
0

>  <SCORE.INTRA.SOLV>
0.3658

>  <SCORE.INTRA.SOLV.lig_0>
-10.2714

>  <SCORE.INTRA.VDW>
-1.96534

>  <SCORE.INTRA.VDW.0>
0.416923

>  <SCORE.INTRA.norm>
-0.0705618

>  <SCORE.RESTR>
0

>  <SCORE.RESTR.CAVITY>
0

>  <SCORE.RESTR.norm>
0

>  <SCORE.SYSTEM>
0

>  <SCORE.SYSTEM.CONST>
0

>  <SCORE.SYSTEM.DIHEDRAL>
0

>  <SCORE.SYSTEM.SOLV>
0

>  <SCORE.SYSTEM.norm>
0

>  <SCORE.heavy>
12

>  <SCORE.norm>
-1.71991

>  <RMSD>
43.003

$$$$
ligand
 OpenBabel11021811433D
libRbt.so/2013.1/901 2013/11/27
 12 12  0  0  0  0  0  0  0  0999 V2000
    9.8376    1.8493   -2.2621 O   0  0  0  0  0  0  0  0  0  0  0  0
    7.4494   -3.1978    0.9355 O   0  0  0  0  0  0  0  0  0  0  0  0
   11.0316    1.1256   -2.6877 C   0  0  0  0  0  0  0  0  0  0  0  0
    7.6817   -0.8440    0.2391 O   0  0  0  0  0  0  0  0  0  0  0  0
   11.4541    0.0659   -1.6291 C   0  0  0  0  0  0  0  0  0  0  0  0
    8.2449   -2.4833   -0.7018 O   0  0  0  0  0  0  0  0  0  0  0  0
   10.4797    0.0999   -0.4840 N   0  0  0  0  0  0  0  0  0  0  0  0
   10.4297    1.4671    0.1176 C   0  0  0  0  0  0  0  0  0  0  0  0
   10.0704    2.5067   -0.9817 C   0  0  0  0  0  0  0  0  0  0  0  0
   10.8339   -0.8986    0.5845 C   0  0  0  0  0  0  0  0  0  0  0  0
   10.1001   -2.2428    0.3602 C   0  0  0  0  0  0  0  0  0  0  0  0
    8.3309   -2.0812    0.6981 S   0  0  0  0  0  0  0  0  0  0  0  0
  1  3  1  0  0  0  0
  1  9  1  0  0  0  0
  2 12  1  0  0  0  0
  3  5  1  0  0  0  0
  4 12  2  0  0  0  0
  5  7  1  0  0  0  0
  6 12  2  0  0  0  0
  7  8  1  0  0  0  0
  7 10  1  0  0  0  0
  8  9  1  0  0  0  0
 10 11  1  0  0  0  0
 11 12  1  0  0  0  0
M  END
>  <CHROM.1>
-92.79675109,-70.75238438,-162.39957661,9.48313007,-0.57533679,-0.37299836
1.06538833,0.09813244,-0.44035609

>  <Name>
ligand

>  <RI>
0

>  <Rbt.Current_Directory>
/home/itssahil/PROJECTS/Mol_Feturizer/New_Systems/rnas/2HO6

>  <Rbt.Executable>
rbdock ($Id: //depot/dev/client3/rdock/2013.1/src/exe/rbdock.cxx#4 $)

>  <Rbt.Library>
libRbt.so (2013.1, Build901 2013/11/27)

>  <Rbt.Parameter_File>
/export/apps/rDock/src/rDock_2013.1_src/data/scripts/dock_solv.prm

>  <Rbt.Receptor>
prm/blind_docking_40.prm

>  <SCORE>
-20.3691

>  <SCORE.INTER>
-19.9202

>  <SCORE.INTER.CONST>
1

>  <SCORE.INTER.POLAR>
-2.23181

>  <SCORE.INTER.ROT>
3

>  <SCORE.INTER.SOLV>
9.60736

>  <SCORE.INTER.VDW>
-14.6432

>  <SCORE.INTER.norm>
-1.66002

>  <SCORE.INTRA>
-0.448895

>  <SCORE.INTRA.DIHEDRAL>
1.728

>  <SCORE.INTRA.DIHEDRAL.0>
1.88407

>  <SCORE.INTRA.POLAR>
0

>  <SCORE.INTRA.POLAR.0>
0

>  <SCORE.INTRA.REPUL>
0

>  <SCORE.INTRA.REPUL.0>
0

>  <SCORE.INTRA.SOLV>
1.06676

>  <SCORE.INTRA.SOLV.lig_0>
-10.2714

>  <SCORE.INTRA.VDW>
-1.84627

>  <SCORE.INTRA.VDW.0>
0.416923

>  <SCORE.INTRA.norm>
-0.0374079

>  <SCORE.RESTR>
0

>  <SCORE.RESTR.CAVITY>
0

>  <SCORE.RESTR.norm>
0

>  <SCORE.SYSTEM>
0

>  <SCORE.SYSTEM.CONST>
0

>  <SCORE.SYSTEM.DIHEDRAL>
0

>  <SCORE.SYSTEM.SOLV>
0

>  <SCORE.SYSTEM.norm>
0

>  <SCORE.heavy>
12

>  <SCORE.norm>
-1.69743

>  <RMSD>
43.004

$$$$
ligand
 OpenBabel11021811433D
libRbt.so/2013.1/901 2013/11/27
 12 12  0  0  0  0  0  0  0  0999 V2000
    9.7440    2.0334   -1.7611 O   0  0  0  0  0  0  0  0  0  0  0  0
    7.5224   -3.1646    1.0921 O   0  0  0  0  0  0  0  0  0  0  0  0
   10.8496    1.4507   -2.5152 C   0  0  0  0  0  0  0  0  0  0  0  0
    7.8190   -0.8817    0.2093 O   0  0  0  0  0  0  0  0  0  0  0  0
   11.3813    0.1601   -1.8270 C   0  0  0  0  0  0  0  0  0  0  0  0
    8.0092   -2.6114   -0.7192 O   0  0  0  0  0  0  0  0  0  0  0  0
   10.5709   -0.1055   -0.5881 N   0  0  0  0  0  0  0  0  0  0  0  0
   10.6399    1.0635    0.3404 C   0  0  0  0  0  0  0  0  0  0  0  0
   10.1647    2.3456   -0.4005 C   0  0  0  0  0  0  0  0  0  0  0  0
   11.0380   -1.3400    0.1344 C   0  0  0  0  0  0  0  0  0  0  0  0
   10.0641   -2.5220   -0.0894 C   0  0  0  0  0  0  0  0  0  0  0  0
    8.4328   -2.1592    0.6017 S   0  0  0  0  0  0  0  0  0  0  0  0
  1  3  1  0  0  0  0
  1  9  1  0  0  0  0
  2 12  1  0  0  0  0
  3  5  1  0  0  0  0
  4 12  2  0  0  0  0
  5  7  1  0  0  0  0
  6 12  2  0  0  0  0
  7  8  1  0  0  0  0
  7 10  1  0  0  0  0
  8  9  1  0  0  0  0
 10 11  1  0  0  0  0
 11 12  1  0  0  0  0
M  END
>  <CHROM.1>
-104.71870793,-63.29974772,-151.44069274,9.51245698,-0.66131641,-0.35486986
1.04259265,0.30958271,-0.24784341

>  <Name>
ligand

>  <RI>
0

>  <Rbt.Current_Directory>
/home/itssahil/PROJECTS/Mol_Feturizer/New_Systems/rnas/2HO6

>  <Rbt.Executable>
rbdock ($Id: //depot/dev/client3/rdock/2013.1/src/exe/rbdock.cxx#4 $)

>  <Rbt.Library>
libRbt.so (2013.1, Build901 2013/11/27)

>  <Rbt.Parameter_File>
/export/apps/rDock/src/rDock_2013.1_src/data/scripts/dock_solv.prm

>  <Rbt.Receptor>
prm/blind_docking_20.prm

>  <SCORE>
-19.6764

>  <SCORE.INTER>
-19.2223

>  <SCORE.INTER.CONST>
1

>  <SCORE.INTER.POLAR>
-2.17084

>  <SCORE.INTER.ROT>
3

>  <SCORE.INTER.SOLV>
9.51638

>  <SCORE.INTER.VDW>
-14.3509

>  <SCORE.INTER.norm>
-1.60186

>  <SCORE.INTRA>
-0.454033

>  <SCORE.INTRA.DIHEDRAL>
1.97223

>  <SCORE.INTRA.DIHEDRAL.0>
1.88407

>  <SCORE.INTRA.POLAR>
0

>  <SCORE.INTRA.POLAR.0>
0

>  <SCORE.INTRA.REPUL>
0

>  <SCORE.INTRA.REPUL.0>
0

>  <SCORE.INTRA.SOLV>
1.09575

>  <SCORE.INTRA.SOLV.lig_0>
-10.2714

>  <SCORE.INTRA.VDW>
-1.98802

>  <SCORE.INTRA.VDW.0>
0.416923

>  <SCORE.INTRA.norm>
-0.0378361

>  <SCORE.RESTR>
0

>  <SCORE.RESTR.CAVITY>
0

>  <SCORE.RESTR.norm>
0

>  <SCORE.SYSTEM>
0

>  <SCORE.SYSTEM.CONST>
0

>  <SCORE.SYSTEM.DIHEDRAL>
0

>  <SCORE.SYSTEM.SOLV>
0

>  <SCORE.SYSTEM.norm>
0

>  <SCORE.heavy>
12

>  <SCORE.norm>
-1.6397

>  <RMSD>
43.005

$$$$
ligand
 OpenBabel11021811433D
libRbt.so/2013.1/901 2013/11/27
 12 12  0  0  0  0  0  0  0  0999 V2000
   10.0360    1.3871   -2.5053 O   0  0  0  0  0  0  0  0  0  0  0  0
    8.7875   -2.2938   -0.9898 O   0  0  0  0  0  0  0  0  0  0  0  0
   11.2507    0.5777   -2.5172 C   0  0  0  0  0  0  0  0  0  0  0  0
    7.4887   -3.2120    0.8941 O   0  0  0  0  0  0  0  0  0  0  0  0
   11.4638   -0.1367   -1.1510 C   0  0  0  0  0  0  0  0  0  0  0  0
    7.5309   -1.3702    0.1899 O   0  0  0  0  0  0  0  0  0  0  0  0
   10.3286    0.2161   -0.2298 N   0  0  0  0  0  0  0  0  0  0  0  0
   10.2430    1.6975   -0.0516 C   0  0  0  0  0  0  0  0  0  0  0  0
   10.0975    2.3814   -1.4406 C   0  0  0  0  0  0  0  0  0  0  0  0
   10.4754   -0.4371    1.1178 C   0  0  0  0  0  0  0  0  0  0  0  0
    9.1391   -1.0629    1.5852 C   0  0  0  0  0  0  0  0  0  0  0  0
    8.5865   -2.3465    0.4374 S   0  0  0  0  0  0  0  0  0  0  0  0
  1  3  1  0  0  0  0
  1  9  1  0  0  0  0
  2 12  1  0  0  0  0
  3  5  1  0  0  0  0
  4 12  2  0  0  0  0
  5  7  1  0  0  0  0
  6 12  2  0  0  0  0
  7  8  1  0  0  0  0
  7 10  1  0  0  0  0
  8  9  1  0  0  0  0
 10 11  1  0  0  0  0
 11 12  1  0  0  0  0
M  END
>  <CHROM.1>
-134.55326036,61.13946417,-34.84563848,9.47598319,-0.60580437,-0.32044840
0.39026326,-1.00496826,-1.64540135

>  <Name>
ligand

>  <RI>
0

>  <Rbt.Current_Directory>
/home/itssahil/PROJECTS/Mol_Feturizer/New_Systems/rnas/2HO6

>  <Rbt.Executable>
rbdock ($Id: //depot/dev/client3/rdock/2013.1/src/exe/rbdock.cxx#4 $)

>  <Rbt.Library>
libRbt.so (2013.1, Build901 2013/11/27)

>  <Rbt.Parameter_File>
/export/apps/rDock/src/rDock_2013.1_src/data/scripts/dock_solv.prm

>  <Rbt.Receptor>
prm/blind_docking_60.prm

>  <SCORE>
-20.4654

>  <SCORE.INTER>
-19.5239

>  <SCORE.INTER.CONST>
1

>  <SCORE.INTER.POLAR>
-2.2446

>  <SCORE.INTER.ROT>
3

>  <SCORE.INTER.SOLV>
11.1993

>  <SCORE.INTER.VDW>
-14.8671

>  <SCORE.INTER.norm>
-1.62699

>  <SCORE.INTRA>
-0.941466

>  <SCORE.INTRA.DIHEDRAL>
1.85449

>  <SCORE.INTRA.DIHEDRAL.0>
1.88407

>  <SCORE.INTRA.POLAR>
0

>  <SCORE.INTRA.POLAR.0>
0

>  <SCORE.INTRA.REPUL>
0

>  <SCORE.INTRA.REPUL.0>
0

>  <SCORE.INTRA.SOLV>
0.372527

>  <SCORE.INTRA.SOLV.lig_0>
-10.2714

>  <SCORE.INTRA.VDW>
-2.05497

>  <SCORE.INTRA.VDW.0>
0.416923

>  <SCORE.INTRA.norm>
-0.0784555

>  <SCORE.RESTR>
0

>  <SCORE.RESTR.CAVITY>
0

>  <SCORE.RESTR.norm>
0

>  <SCORE.SYSTEM>
0

>  <SCORE.SYSTEM.CONST>
0

>  <SCORE.SYSTEM.DIHEDRAL>
0

>  <SCORE.SYSTEM.SOLV>
0

>  <SCORE.SYSTEM.norm>
0

>  <SCORE.heavy>
12

>  <SCORE.norm>
-1.70545

>  <RMSD>
43.005

$$$$
ligand
 OpenBabel11021811433D
libRbt.so/2013.1/901 2013/11/27
 12 12  0  0  0  0  0  0  0  0999 V2000
    9.9898    1.5427   -2.4348 O   0  0  0  0  0  0  0  0  0  0  0  0
    8.7584   -2.3270   -0.9954 O   0  0  0  0  0  0  0  0  0  0  0  0
   11.1922    0.7189   -2.5145 C   0  0  0  0  0  0  0  0  0  0  0  0
    7.4781   -3.2223    0.9121 O   0  0  0  0  0  0  0  0  0  0  0  0
   11.4253   -0.0654   -1.1906 C   0  0  0  0  0  0  0  0  0  0  0  0
    7.5179   -1.3877    0.1890 O   0  0  0  0  0  0  0  0  0  0  0  0
   10.3160    0.2562   -0.2273 N   0  0  0  0  0  0  0  0  0  0  0  0
   10.2556    1.7278    0.0258 C   0  0  0  0  0  0  0  0  0  0  0  0
   10.0892    2.4819   -1.3240 C   0  0  0  0  0  0  0  0  0  0  0  0
   10.4832   -0.4651    1.0826 C   0  0  0  0  0  0  0  0  0  0  0  0
    9.1426   -1.0715    1.5630 C   0  0  0  0  0  0  0  0  0  0  0  0
    8.5733   -2.3648    0.4345 S   0  0  0  0  0  0  0  0  0  0  0  0
  1  3  1  0  0  0  0
  1  9  1  0  0  0  0
  2 12  1  0  0  0  0
  3  5  1  0  0  0  0
  4 12  2  0  0  0  0
  5  7  1  0  0  0  0
  6 12  2  0  0  0  0
  7  8  1  0  0  0  0
  7 10  1  0  0  0  0
  8  9  1  0  0  0  0
 10 11  1  0  0  0  0
 11 12  1  0  0  0  0
M  END
>  <CHROM.1>
-135.69020946,65.17376579,-35.45997101,9.45887383,-0.57599320,-0.30680874
0.38021010,-1.02007485,-1.63298164

>  <Name>
ligand

>  <RI>
0

>  <Rbt.Current_Directory>
/home/itssahil/PROJECTS/Mol_Feturizer/New_Systems/rnas/2HO6

>  <Rbt.Executable>
rbdock ($Id: //depot/dev/client3/rdock/2013.1/src/exe/rbdock.cxx#4 $)

>  <Rbt.Library>
libRbt.so (2013.1, Build901 2013/11/27)

>  <Rbt.Parameter_File>
/export/apps/rDock/src/rDock_2013.1_src/data/scripts/dock_solv.prm

>  <Rbt.Receptor>
prm/blind_docking_20.prm

>  <SCORE>
-20.5967

>  <SCORE.INTER>
-19.7427

>  <SCORE.INTER.CONST>
1

>  <SCORE.INTER.POLAR>
-2.24515

>  <SCORE.INTER.ROT>
3

>  <SCORE.INTER.SOLV>
11.387

>  <SCORE.INTER.VDW>
-15.0736

>  <SCORE.INTER.norm>
-1.64522

>  <SCORE.INTRA>
-0.853986

>  <SCORE.INTRA.DIHEDRAL>
1.89644

>  <SCORE.INTRA.DIHEDRAL.0>
1.88407

>  <SCORE.INTRA.POLAR>
0

>  <SCORE.INTRA.POLAR.0>
0

>  <SCORE.INTRA.REPUL>
0

>  <SCORE.INTRA.REPUL.0>
0

>  <SCORE.INTRA.SOLV>
0.367055

>  <SCORE.INTRA.SOLV.lig_0>
-10.2714

>  <SCORE.INTRA.VDW>
-1.98573

>  <SCORE.INTRA.VDW.0>
0.416923

>  <SCORE.INTRA.norm>
-0.0711655

>  <SCORE.RESTR>
0

>  <SCORE.RESTR.CAVITY>
0

>  <SCORE.RESTR.norm>
0

>  <SCORE.SYSTEM>
0

>  <SCORE.SYSTEM.CONST>
0

>  <SCORE.SYSTEM.DIHEDRAL>
0

>  <SCORE.SYSTEM.SOLV>
0

>  <SCORE.SYSTEM.norm>
0

>  <SCORE.heavy>
12

>  <SCORE.norm>
-1.71639

>  <RMSD>
43.006

$$$$
ligand
 OpenBabel11021811433D
libRbt.so/2013.1/901 2013/11/27
 12 12  0  0  0  0  0  0  0  0999 V2000
    9.9621    1.5627   -2.4535 O   0  0  0  0  0  0  0  0  0  0  0  0
    8.7458   -2.3427   -0.9961 O   0  0  0  0  0  0  0  0  0  0  0  0
   11.1710    0.7509   -2.5546 C   0  0  0  0  0  0  0  0  0  0  0  0
    7.4723   -3.1998    0.9333 O   0  0  0  0  0  0  0  0  0  0  0  0
   11.4256   -0.0446   -1.2415 C   0  0  0  0  0  0  0  0  0  0  0  0
    7.5316   -1.3734    0.1913 O   0  0  0  0  0  0  0  0  0  0  0  0
   10.3240    0.2569   -0.2630 N   0  0  0  0  0  0  0  0  0  0  0  0
   10.2530    1.7253    0.0059 C   0  0  0  0  0  0  0  0  0  0  0  0
   10.0651    2.4914   -1.3343 C   0  0  0  0  0  0  0  0  0  0  0  0
   10.5121   -0.4761    1.0376 C   0  0  0  0  0  0  0  0  0  0  0  0
    9.1748   -1.0675    1.5454 C   0  0  0  0  0  0  0  0  0  0  0  0
    8.5750   -2.3635    0.4359 S   0  0  0  0  0  0  0  0  0  0  0  0
  1  3  1  0  0  0  0
  1  9  1  0  0  0  0
  2 12  1  0  0  0  0
  3  5  1  0  0  0  0
  4 12  2  0  0  0  0
  5  7  1  0  0  0  0
  6 12  2  0  0  0  0
  7  8  1  0  0  0  0
  7 10  1  0  0  0  0
  8  9  1  0  0  0  0
 10 11  1  0  0  0  0
 11 12  1  0  0  0  0
M  END
>  <CHROM.1>
-137.20162744,66.09482704,-34.89064625,9.45803069,-0.56850753,-0.32208474
0.40917029,-1.01840078,-1.60656744

>  <Name>
ligand

>  <RI>
0

>  <Rbt.Current_Directory>
/home/itssahil/PROJECTS/Mol_Feturizer/New_Systems/rnas/2HO6

>  <Rbt.Executable>
rbdock ($Id: //depot/dev/client3/rdock/2013.1/src/exe/rbdock.cxx#4 $)

>  <Rbt.Library>
libRbt.so (2013.1, Build901 2013/11/27)

>  <Rbt.Parameter_File>
/export/apps/rDock/src/rDock_2013.1_src/data/scripts/dock_solv.prm

>  <Rbt.Receptor>
prm/blind_docking_20.prm

>  <SCORE>
-20.6149

>  <SCORE.INTER>
-19.7707

>  <SCORE.INTER.CONST>
1

>  <SCORE.INTER.POLAR>
-2.24015

>  <SCORE.INTER.ROT>
3

>  <SCORE.INTER.SOLV>
11.3791

>  <SCORE.INTER.VDW>
-15.1063

>  <SCORE.INTER.norm>
-1.64756

>  <SCORE.INTRA>
-0.844241

>  <SCORE.INTRA.DIHEDRAL>
1.85914

>  <SCORE.INTRA.DIHEDRAL.0>
1.88407

>  <SCORE.INTRA.POLAR>
0

>  <SCORE.INTRA.POLAR.0>
0

>  <SCORE.INTRA.REPUL>
0

>  <SCORE.INTRA.REPUL.0>
0

>  <SCORE.INTRA.SOLV>
0.375076

>  <SCORE.INTRA.SOLV.lig_0>
-10.2714

>  <SCORE.INTRA.VDW>
-1.96135

>  <SCORE.INTRA.VDW.0>
0.416923

>  <SCORE.INTRA.norm>
-0.0703534

>  <SCORE.RESTR>
0

>  <SCORE.RESTR.CAVITY>
0

>  <SCORE.RESTR.norm>
0

>  <SCORE.SYSTEM>
0

>  <SCORE.SYSTEM.CONST>
0

>  <SCORE.SYSTEM.DIHEDRAL>
0

>  <SCORE.SYSTEM.SOLV>
0

>  <SCORE.SYSTEM.norm>
0

>  <SCORE.heavy>
12

>  <SCORE.norm>
-1.71791

>  <RMSD>
43.009

$$$$
ligand
 OpenBabel11021811433D
libRbt.so/2013.1/901 2013/11/27
 12 12  0  0  0  0  0  0  0  0999 V2000
    9.9577    1.5904   -2.4457 O   0  0  0  0  0  0  0  0  0  0  0  0
    8.7231   -2.3771   -1.0176 O   0  0  0  0  0  0  0  0  0  0  0  0
   11.2472    0.9102   -2.5187 C   0  0  0  0  0  0  0  0  0  0  0  0
    7.4638   -3.2067    0.9331 O   0  0  0  0  0  0  0  0  0  0  0  0
   11.5220    0.0857   -1.2277 C   0  0  0  0  0  0  0  0  0  0  0  0
    7.5458   -1.3830    0.1864 O   0  0  0  0  0  0  0  0  0  0  0  0
   10.3514    0.2298   -0.2944 N   0  0  0  0  0  0  0  0  0  0  0  0
   10.1173    1.6698    0.0298 C   0  0  0  0  0  0  0  0  0  0  0  0
    9.9130    2.4730   -1.2860 C   0  0  0  0  0  0  0  0  0  0  0  0
   10.5542   -0.5387    0.9833 C   0  0  0  0  0  0  0  0  0  0  0  0
    9.2153   -1.1056    1.5142 C   0  0  0  0  0  0  0  0  0  0  0  0
    8.5741   -2.3921    0.4169 S   0  0  0  0  0  0  0  0  0  0  0  0
  1  3  1  0  0  0  0
  1  9  1  0  0  0  0
  2 12  1  0  0  0  0
  3  5  1  0  0  0  0
  4 12  2  0  0  0  0
  5  7  1  0  0  0  0
  6 12  2  0  0  0  0
  7  8  1  0  0  0  0
  7 10  1  0  0  0  0
  8  9  1  0  0  0  0
 10 11  1  0  0  0  0
 11 12  1  0  0  0  0
M  END
>  <CHROM.1>
-145.87354398,67.73819211,-34.79761259,9.45574148,-0.56880907,-0.32641040
0.48431828,-0.99901270,-1.51020270

>  <Name>
ligand

>  <RI>
0

>  <Rbt.Current_Directory>
/home/itssahil/PROJECTS/Mol_Feturizer/New_Systems/rnas/2HO6

>  <Rbt.Executable>
rbdock ($Id: //depot/dev/client3/rdock/2013.1/src/exe/rbdock.cxx#4 $)

>  <Rbt.Library>
libRbt.so (2013.1, Build901 2013/11/27)

>  <Rbt.Parameter_File>
/export/apps/rDock/src/rDock_2013.1_src/data/scripts/dock_solv.prm

>  <Rbt.Receptor>
prm/blind_docking_20.prm

>  <SCORE>
-20.5532

>  <SCORE.INTER>
-19.6448

>  <SCORE.INTER.CONST>
1

>  <SCORE.INTER.POLAR>
-2.24347

>  <SCORE.INTER.ROT>
3

>  <SCORE.INTER.SOLV>
11.4784

>  <SCORE.INTER.VDW>
-15.0444

>  <SCORE.INTER.norm>
-1.63706

>  <SCORE.INTRA>
-0.908405

>  <SCORE.INTRA.DIHEDRAL>
1.44188

>  <SCORE.INTRA.DIHEDRAL.0>
1.88407

>  <SCORE.INTRA.POLAR>
0

>  <SCORE.INTRA.POLAR.0>
0

>  <SCORE.INTRA.REPUL>
0

>  <SCORE.INTRA.REPUL.0>
0

>  <SCORE.INTRA.SOLV>
0.398653

>  <SCORE.INTRA.SOLV.lig_0>
-10.2714

>  <SCORE.INTRA.VDW>
-1.82867

>  <SCORE.INTRA.VDW.0>
0.416923

>  <SCORE.INTRA.norm>
-0.0757004

>  <SCORE.RESTR>
0

>  <SCORE.RESTR.CAVITY>
0

>  <SCORE.RESTR.norm>
0

>  <SCORE.SYSTEM>
0

>  <SCORE.SYSTEM.CONST>
0

>  <SCORE.SYSTEM.DIHEDRAL>
0

>  <SCORE.SYSTEM.SOLV>
0

>  <SCORE.SYSTEM.norm>
0

>  <SCORE.heavy>
12

>  <SCORE.norm>
-1.71276

>  <RMSD>
43.011

$$$$
ligand
 OpenBabel11021811433D
libRbt.so/2013.1/901 2013/11/27
 12 12  0  0  0  0  0  0  0  0999 V2000
    9.6821    2.0759   -1.7705 O   0  0  0  0  0  0  0  0  0  0  0  0
    7.5490   -3.1897    1.0662 O   0  0  0  0  0  0  0  0  0  0  0  0
   10.7565    1.4635   -2.5460 C   0  0  0  0  0  0  0  0  0  0  0  0
    7.7957   -0.8884    0.2163 O   0  0  0  0  0  0  0  0  0  0  0  0
   11.3046    0.1899   -1.8393 C   0  0  0  0  0  0  0  0  0  0  0  0
    8.0497   -2.6002   -0.7298 O   0  0  0  0  0  0  0  0  0  0  0  0
   10.5376   -0.0335   -0.5650 N   0  0  0  0  0  0  0  0  0  0  0  0
   10.6469    1.1618    0.3255 C   0  0  0  0  0  0  0  0  0  0  0  0
   10.1533    2.4249   -0.4356 C   0  0  0  0  0  0  0  0  0  0  0  0
   11.0229   -1.2495    0.1766 C   0  0  0  0  0  0  0  0  0  0  0  0
   10.0906   -2.4614   -0.0647 C   0  0  0  0  0  0  0  0  0  0  0  0
    8.4387   -2.1532    0.6034 S   0  0  0  0  0  0  0  0  0  0  0  0
  1  3  1  0  0  0  0
  1  9  1  0  0  0  0
  2 12  1  0  0  0  0
  3  5  1  0  0  0  0
  4 12  2  0  0  0  0
  5  7  1  0  0  0  0
  6 12  2  0  0  0  0
  7  8  1  0  0  0  0
  7 10  1  0  0  0  0
  8  9  1  0  0  0  0
 10 11  1  0  0  0  0
 11 12  1  0  0  0  0
M  END
>  <CHROM.1>
-100.41657554,-64.09393512,-152.04515436,9.49777391,-0.62652232,-0.35802925
1.06728428,0.27697030,-0.26815820

>  <Name>
ligand

>  <RI>
0

>  <Rbt.Current_Directory>
/home/itssahil/PROJECTS/Mol_Feturizer/New_Systems/rnas/2HO6

>  <Rbt.Executable>
rbdock ($Id: //depot/dev/client3/rdock/2013.1/src/exe/rbdock.cxx#4 $)

>  <Rbt.Library>
libRbt.so (2013.1, Build901 2013/11/27)

>  <Rbt.Parameter_File>
/export/apps/rDock/src/rDock_2013.1_src/data/scripts/dock_solv.prm

>  <Rbt.Receptor>
prm/blind_docking_40.prm

>  <SCORE>
-19.7612

>  <SCORE.INTER>
-19.2472

>  <SCORE.INTER.CONST>
1

>  <SCORE.INTER.POLAR>
-2.17585

>  <SCORE.INTER.ROT>
3

>  <SCORE.INTER.SOLV>
9.6176

>  <SCORE.INTER.VDW>
-14.3845

>  <SCORE.INTER.norm>
-1.60393

>  <SCORE.INTRA>
-0.513943

>  <SCORE.INTRA.DIHEDRAL>
1.79264

>  <SCORE.INTRA.DIHEDRAL.0>
1.88407

>  <SCORE.INTRA.POLAR>
0

>  <SCORE.INTRA.POLAR.0>
0

>  <SCORE.INTRA.REPUL>
0

>  <SCORE.INTRA.REPUL.0>
0

>  <SCORE.INTRA.SOLV>
1.08254

>  <SCORE.INTRA.SOLV.lig_0>
-10.2714

>  <SCORE.INTRA.VDW>
-1.95153

>  <SCORE.INTRA.VDW.0>
0.416923

>  <SCORE.INTRA.norm>
-0.0428286

>  <SCORE.RESTR>
0

>  <SCORE.RESTR.CAVITY>
0

>  <SCORE.RESTR.norm>
0

>  <SCORE.SYSTEM>
0

>  <SCORE.SYSTEM.CONST>
0

>  <SCORE.SYSTEM.DIHEDRAL>
0

>  <SCORE.SYSTEM.SOLV>
0

>  <SCORE.SYSTEM.norm>
0

>  <SCORE.heavy>
12

>  <SCORE.norm>
-1.64676

>  <RMSD>
43.011

$$$$
ligand
 OpenBabel11021811433D
libRbt.so/2013.1/901 2013/11/27
 12 12  0  0  0  0  0  0  0  0999 V2000
    9.9790    1.5057   -2.4540 O   0  0  0  0  0  0  0  0  0  0  0  0
    8.7704   -2.3117   -0.9905 O   0  0  0  0  0  0  0  0  0  0  0  0
   11.1764    0.6737   -2.5233 C   0  0  0  0  0  0  0  0  0  0  0  0
    7.4817   -3.2165    0.9069 O   0  0  0  0  0  0  0  0  0  0  0  0
   11.4094   -0.0889   -1.1868 C   0  0  0  0  0  0  0  0  0  0  0  0
    7.5213   -1.3793    0.1904 O   0  0  0  0  0  0  0  0  0  0  0  0
   10.3052    0.2558   -0.2256 N   0  0  0  0  0  0  0  0  0  0  0  0
   10.2541    1.7319    0.0022 C   0  0  0  0  0  0  0  0  0  0  0  0
   10.0875    2.4634   -1.3600 C   0  0  0  0  0  0  0  0  0  0  0  0
   10.4726   -0.4437    1.0961 C   0  0  0  0  0  0  0  0  0  0  0  0
    9.1377   -1.0641    1.5743 C   0  0  0  0  0  0  0  0  0  0  0  0
    8.5776   -2.3548    0.4382 S   0  0  0  0  0  0  0  0  0  0  0  0
  1  3  1  0  0  0  0
  1  9  1  0  0  0  0
  2 12  1  0  0  0  0
  3  5  1  0  0  0  0
  4 12  2  0  0  0  0
  5  7  1  0  0  0  0
  6 12  2  0  0  0  0
  7  8  1  0  0  0  0
  7 10  1  0  0  0  0
  8  9  1  0  0  0  0
 10 11  1  0  0  0  0
 11 12  1  0  0  0  0
M  END
>  <CHROM.1>
-134.27973922,63.77998594,-34.91669683,9.45583358,-0.57891065,-0.31044299
0.38412094,-1.02038488,-1.63648092

>  <Name>
ligand

>  <RI>
0

>  <Rbt.Current_Directory>
/home/itssahil/PROJECTS/Mol_Feturizer/New_Systems/rnas/2HO6

>  <Rbt.Executable>
rbdock ($Id: //depot/dev/client3/rdock/2013.1/src/exe/rbdock.cxx#4 $)

>  <Rbt.Library>
libRbt.so (2013.1, Build901 2013/11/27)

>  <Rbt.Parameter_File>
/export/apps/rDock/src/rDock_2013.1_src/data/scripts/dock_solv.prm

>  <Rbt.Receptor>
prm/blind_docking_60.prm

>  <SCORE>
-20.5822

>  <SCORE.INTER>
-19.7106

>  <SCORE.INTER.CONST>
1

>  <SCORE.INTER.POLAR>
-2.24532

>  <SCORE.INTER.ROT>
3

>  <SCORE.INTER.SOLV>
11.3431

>  <SCORE.INTER.VDW>
-15.0371

>  <SCORE.INTER.norm>
-1.64255

>  <SCORE.INTRA>
-0.871533

>  <SCORE.INTRA.DIHEDRAL>
1.91603

>  <SCORE.INTRA.DIHEDRAL.0>
1.88407

>  <SCORE.INTRA.POLAR>
0

>  <SCORE.INTRA.POLAR.0>
0

>  <SCORE.INTRA.REPUL>
0

>  <SCORE.INTRA.REPUL.0>
0

>  <SCORE.INTRA.SOLV>
0.369252

>  <SCORE.INTRA.SOLV.lig_0>
-10.2714

>  <SCORE.INTRA.VDW>
-2.01418

>  <SCORE.INTRA.VDW.0>
0.416923

>  <SCORE.INTRA.norm>
-0.0726278

>  <SCORE.RESTR>
0

>  <SCORE.RESTR.CAVITY>
0

>  <SCORE.RESTR.norm>
0

>  <SCORE.SYSTEM>
0

>  <SCORE.SYSTEM.CONST>
0

>  <SCORE.SYSTEM.DIHEDRAL>
0

>  <SCORE.SYSTEM.SOLV>
0

>  <SCORE.SYSTEM.norm>
0

>  <SCORE.heavy>
12

>  <SCORE.norm>
-1.71518

>  <RMSD>
43.012

$$$$
ligand
 OpenBabel11021811433D
libRbt.so/2013.1/901 2013/11/27
 12 12  0  0  0  0  0  0  0  0999 V2000
    9.9419    1.5856   -2.4409 O   0  0  0  0  0  0  0  0  0  0  0  0
    8.7609   -2.3384   -1.0140 O   0  0  0  0  0  0  0  0  0  0  0  0
   11.1518    0.7763   -2.5489 C   0  0  0  0  0  0  0  0  0  0  0  0
    7.5038   -3.2334    0.9091 O   0  0  0  0  0  0  0  0  0  0  0  0
   11.4112   -0.0249   -1.2401 C   0  0  0  0  0  0  0  0  0  0  0  0
    7.5328   -1.3996    0.1837 O   0  0  0  0  0  0  0  0  0  0  0  0
   10.3116    0.2703   -0.2574 N   0  0  0  0  0  0  0  0  0  0  0  0
   10.2389    1.7373    0.0185 C   0  0  0  0  0  0  0  0  0  0  0  0
   10.0462    2.5093   -1.3176 C   0  0  0  0  0  0  0  0  0  0  0  0
   10.5043   -0.4684    1.0393 C   0  0  0  0  0  0  0  0  0  0  0  0
    9.1728   -1.0798    1.5385 C   0  0  0  0  0  0  0  0  0  0  0  0
    8.5923   -2.3750    0.4180 S   0  0  0  0  0  0  0  0  0  0  0  0
  1  3  1  0  0  0  0
  1  9  1  0  0  0  0
  2 12  1  0  0  0  0
  3  5  1  0  0  0  0
  4 12  2  0  0  0  0
  5  7  1  0  0  0  0
  6 12  2  0  0  0  0
  7  8  1  0  0  0  0
  7 10  1  0  0  0  0
  8  9  1  0  0  0  0
 10 11  1  0  0  0  0
 11 12  1  0  0  0  0
M  END
>  <CHROM.1>
-136.47952940,66.03844116,-35.24514015,9.45674211,-0.56705689,-0.32545937
0.40230316,-1.02983454,-1.60634591

>  <Name>
ligand

>  <RI>
0

>  <Rbt.Current_Directory>
/home/itssahil/PROJECTS/Mol_Feturizer/New_Systems/rnas/2HO6

>  <Rbt.Executable>
rbdock ($Id: //depot/dev/client3/rdock/2013.1/src/exe/rbdock.cxx#4 $)

>  <Rbt.Library>
libRbt.so (2013.1, Build901 2013/11/27)

>  <Rbt.Parameter_File>
/export/apps/rDock/src/rDock_2013.1_src/data/scripts/dock_solv.prm

>  <Rbt.Receptor>
prm/blind_docking_20.prm

>  <SCORE>
-20.5972

>  <SCORE.INTER>
-19.7601

>  <SCORE.INTER.CONST>
1

>  <SCORE.INTER.POLAR>
-2.24438

>  <SCORE.INTER.ROT>
3

>  <SCORE.INTER.SOLV>
11.4103

>  <SCORE.INTER.VDW>
-15.0956

>  <SCORE.INTER.norm>
-1.64668

>  <SCORE.INTRA>
-0.837075

>  <SCORE.INTRA.DIHEDRAL>
1.89348

>  <SCORE.INTRA.DIHEDRAL.0>
1.88407

>  <SCORE.INTRA.POLAR>
0

>  <SCORE.INTRA.POLAR.0>
0

>  <SCORE.INTRA.REPUL>
0

>  <SCORE.INTRA.REPUL.0>
0

>  <SCORE.INTRA.SOLV>
0.370095

>  <SCORE.INTRA.SOLV.lig_0>
-10.2714

>  <SCORE.INTRA.VDW>
-1.96886

>  <SCORE.INTRA.VDW.0>
0.416923

>  <SCORE.INTRA.norm>
-0.0697563

>  <SCORE.RESTR>
0

>  <SCORE.RESTR.CAVITY>
0

>  <SCORE.RESTR.norm>
0

>  <SCORE.SYSTEM>
0

>  <SCORE.SYSTEM.CONST>
0

>  <SCORE.SYSTEM.DIHEDRAL>
0

>  <SCORE.SYSTEM.SOLV>
0

>  <SCORE.SYSTEM.norm>
0

>  <SCORE.heavy>
12

>  <SCORE.norm>
-1.71643

>  <RMSD>
43.013

$$$$
ligand
 OpenBabel11021811433D
libRbt.so/2013.1/901 2013/11/27
 12 12  0  0  0  0  0  0  0  0999 V2000
    9.9358    1.5364   -2.4477 O   0  0  0  0  0  0  0  0  0  0  0  0
    8.7769   -2.3103   -0.9972 O   0  0  0  0  0  0  0  0  0  0  0  0
   11.1363    0.7120   -2.5466 C   0  0  0  0  0  0  0  0  0  0  0  0
    7.4839   -3.2019    0.9034 O   0  0  0  0  0  0  0  0  0  0  0  0
   11.3957   -0.0646   -1.2231 C   0  0  0  0  0  0  0  0  0  0  0  0
    7.5464   -1.3635    0.1917 O   0  0  0  0  0  0  0  0  0  0  0  0
   10.3058    0.2626   -0.2398 N   0  0  0  0  0  0  0  0  0  0  0  0
   10.2505    1.7358    0.0060 C   0  0  0  0  0  0  0  0  0  0  0  0
   10.0573    2.4820   -1.3446 C   0  0  0  0  0  0  0  0  0  0  0  0
   10.4991   -0.4511    1.0708 C   0  0  0  0  0  0  0  0  0  0  0  0
    9.1732   -1.0752    1.5692 C   0  0  0  0  0  0  0  0  0  0  0  0
    8.5898   -2.3546    0.4322 S   0  0  0  0  0  0  0  0  0  0  0  0
  1  3  1  0  0  0  0
  1  9  1  0  0  0  0
  2 12  1  0  0  0  0
  3  5  1  0  0  0  0
  4 12  2  0  0  0  0
  5  7  1  0  0  0  0
  6 12  2  0  0  0  0
  7  8  1  0  0  0  0
  7 10  1  0  0  0  0
  8  9  1  0  0  0  0
 10 11  1  0  0  0  0
 11 12  1  0  0  0  0
M  END
>  <CHROM.1>
-134.71892744,63.85795214,-33.68782835,9.45528625,-0.56843430,-0.31778208
0.41690361,-1.02219571,-1.59885235

>  <Name>
ligand

>  <RI>
0

>  <Rbt.Current_Directory>
/home/itssahil/PROJECTS/Mol_Feturizer/New_Systems/rnas/2HO6

>  <Rbt.Executable>
rbdock ($Id: //depot/dev/client3/rdock/2013.1/src/exe/rbdock.cxx#4 $)

>  <Rbt.Library>
libRbt.so (2013.1, Build901 2013/11/27)

>  <Rbt.Parameter_File>
/export/apps/rDock/src/rDock_2013.1_src/data/scripts/dock_solv.prm

>  <Rbt.Receptor>
prm/blind_docking_40.prm

>  <SCORE>
-20.5817

>  <SCORE.INTER>
-19.7098

>  <SCORE.INTER.CONST>
1

>  <SCORE.INTER.POLAR>
-2.24527

>  <SCORE.INTER.ROT>
3

>  <SCORE.INTER.SOLV>
11.3348

>  <SCORE.INTER.VDW>
-15.0339

>  <SCORE.INTER.norm>
-1.64248

>  <SCORE.INTRA>
-0.871907

>  <SCORE.INTRA.DIHEDRAL>
1.8979

>  <SCORE.INTRA.DIHEDRAL.0>
1.88407

>  <SCORE.INTRA.POLAR>
0

>  <SCORE.INTRA.POLAR.0>
0

>  <SCORE.INTRA.REPUL>
0

>  <SCORE.INTRA.REPUL.0>
0

>  <SCORE.INTRA.SOLV>
0.380967

>  <SCORE.INTRA.SOLV.lig_0>
-10.2714

>  <SCORE.INTRA.VDW>
-2.01134

>  <SCORE.INTRA.VDW.0>
0.416923

>  <SCORE.INTRA.norm>
-0.0726589

>  <SCORE.RESTR>
0

>  <SCORE.RESTR.CAVITY>
0

>  <SCORE.RESTR.norm>
0

>  <SCORE.SYSTEM>
0

>  <SCORE.SYSTEM.CONST>
0

>  <SCORE.SYSTEM.DIHEDRAL>
0

>  <SCORE.SYSTEM.SOLV>
0

>  <SCORE.SYSTEM.norm>
0

>  <SCORE.heavy>
12

>  <SCORE.norm>
-1.71514

>  <RMSD>
43.013

$$$$
ligand
 OpenBabel11021811433D
libRbt.so/2013.1/901 2013/11/27
 12 12  0  0  0  0  0  0  0  0999 V2000
    8.8239    1.1638    0.3011 O   0  0  0  0  0  0  0  0  0  0  0  0
    9.0551   -1.5029   -5.0254 O   0  0  0  0  0  0  0  0  0  0  0  0
    9.4672    2.3663   -0.2193 C   0  0  0  0  0  0  0  0  0  0  0  0
    9.4003   -1.8270   -2.6057 O   0  0  0  0  0  0  0  0  0  0  0  0
   10.5934    2.0082   -1.2320 C   0  0  0  0  0  0  0  0  0  0  0  0
    9.0494   -0.1616   -3.6024 O   0  0  0  0  0  0  0  0  0  0  0  0
   10.6638    0.5132   -1.3800 N   0  0  0  0  0  0  0  0  0  0  0  0
   10.9114   -0.1308   -0.0542 C   0  0  0  0  0  0  0  0  0  0  0  0
    9.8051    0.3019    0.9493 C   0  0  0  0  0  0  0  0  0  0  0  0
   11.7417    0.0945   -2.3428 C   0  0  0  0  0  0  0  0  0  0  0  0
   11.1887   -0.0284   -3.7833 C   0  0  0  0  0  0  0  0  0  0  0  0
    9.9116   -1.3049   -3.8820 S   0  0  0  0  0  0  0  0  0  0  0  0
  1  3  1  0  0  0  0
  1  9  1  0  0  0  0
  2 12  1  0  0  0  0
  3  5  1  0  0  0  0
  4 12  2  0  0  0  0
  5  7  1  0  0  0  0
  6 12  2  0  0  0  0
  7  8  1  0  0  0  0
  7 10  1  0  0  0  0
  8  9  1  0  0  0  0
 10 11  1  0  0  0  0
 11 12  1  0  0  0  0
M  END
>  <CHROM.1>
-91.24696036,-62.30490629,169.22785827,9.99859927,-0.03707829,-2.12346364
1.52536981,0.54668747,1.07250599

>  <Name>
ligand

>  <RI>
0

>  <Rbt.Current_Directory>
/home/itssahil/PROJECTS/Mol_Feturizer/New_Systems/rnas/2HO6

>  <Rbt.Executable>
rbdock ($Id: //depot/dev/client3/rdock/2013.1/src/exe/rbdock.cxx#4 $)

>  <Rbt.Library>
libRbt.so (2013.1, Build901 2013/11/27)

>  <Rbt.Parameter_File>
/export/apps/rDock/src/rDock_2013.1_src/data/scripts/dock_solv.prm

>  <Rbt.Receptor>
prm/blind_docking_100.prm

>  <SCORE>
-17.3588

>  <SCORE.INTER>
-16.9812

>  <SCORE.INTER.CONST>
1

>  <SCORE.INTER.POLAR>
-1.98888

>  <SCORE.INTER.ROT>
3

>  <SCORE.INTER.SOLV>
11.3119

>  <SCORE.INTER.VDW>
-14.0618

>  <SCORE.INTER.norm>
-1.4151

>  <SCORE.INTRA>
-0.377675

>  <SCORE.INTRA.DIHEDRAL>
1.32096

>  <SCORE.INTRA.DIHEDRAL.0>
1.88407

>  <SCORE.INTRA.POLAR>
0

>  <SCORE.INTRA.POLAR.0>
0

>  <SCORE.INTRA.REPUL>
0

>  <SCORE.INTRA.REPUL.0>
0

>  <SCORE.INTRA.SOLV>
1.52693

>  <SCORE.INTRA.SOLV.lig_0>
-10.2714

>  <SCORE.INTRA.VDW>
-1.80162

>  <SCORE.INTRA.VDW.0>
0.416923

>  <SCORE.INTRA.norm>
-0.0314729

>  <SCORE.RESTR>
0

>  <SCORE.RESTR.CAVITY>
0

>  <SCORE.RESTR.norm>
0

>  <SCORE.SYSTEM>
0

>  <SCORE.SYSTEM.CONST>
0

>  <SCORE.SYSTEM.DIHEDRAL>
0

>  <SCORE.SYSTEM.SOLV>
0

>  <SCORE.SYSTEM.norm>
0

>  <SCORE.heavy>
12

>  <SCORE.norm>
-1.44657

>  <RMSD>
43.015

$$$$
ligand
 OpenBabel11021811433D
libRbt.so/2013.1/901 2013/11/27
 12 12  0  0  0  0  0  0  0  0999 V2000
    9.9299    1.5685   -2.4415 O   0  0  0  0  0  0  0  0  0  0  0  0
    8.7691   -2.3294   -1.0141 O   0  0  0  0  0  0  0  0  0  0  0  0
   11.1283    0.7433   -2.5575 C   0  0  0  0  0  0  0  0  0  0  0  0
    7.5029   -3.2311    0.8999 O   0  0  0  0  0  0  0  0  0  0  0  0
   11.3926   -0.0519   -1.2461 C   0  0  0  0  0  0  0  0  0  0  0  0
    7.5420   -1.3928    0.1863 O   0  0  0  0  0  0  0  0  0  0  0  0
   10.3080    0.2638   -0.2531 N   0  0  0  0  0  0  0  0  0  0  0  0
   10.2568    1.7335    0.0132 C   0  0  0  0  0  0  0  0  0  0  0  0
   10.0585    2.4986   -1.3261 C   0  0  0  0  0  0  0  0  0  0  0  0
   10.5062   -0.4682    1.0465 C   0  0  0  0  0  0  0  0  0  0  0  0
    9.1797   -1.0889    1.5475 C   0  0  0  0  0  0  0  0  0  0  0  0
    8.5965   -2.3744    0.4171 S   0  0  0  0  0  0  0  0  0  0  0  0
  1  3  1  0  0  0  0
  1  9  1  0  0  0  0
  2 12  1  0  0  0  0
  3  5  1  0  0  0  0
  4 12  2  0  0  0  0
  5  7  1  0  0  0  0
  6 12  2  0  0  0  0
  7  8  1  0  0  0  0
  7 10  1  0  0  0  0
  8  9  1  0  0  0  0
 10 11  1  0  0  0  0
 11 12  1  0  0  0  0
M  END
>  <CHROM.1>
-135.08617845,65.09403951,-34.54768986,9.45733352,-0.57336495,-0.32675848
0.41322276,-1.02818165,-1.59632029

>  <Name>
ligand

>  <RI>
0

>  <Rbt.Current_Directory>
/home/itssahil/PROJECTS/Mol_Feturizer/New_Systems/rnas/2HO6

>  <Rbt.Executable>
rbdock ($Id: //depot/dev/client3/rdock/2013.1/src/exe/rbdock.cxx#4 $)

>  <Rbt.Library>
libRbt.so (2013.1, Build901 2013/11/27)

>  <Rbt.Parameter_File>
/export/apps/rDock/src/rDock_2013.1_src/data/scripts/dock_solv.prm

>  <Rbt.Receptor>
prm/blind_docking_100.prm

>  <SCORE>
-20.5921

>  <SCORE.INTER>
-19.7458

>  <SCORE.INTER.CONST>
1

>  <SCORE.INTER.POLAR>
-2.24329

>  <SCORE.INTER.ROT>
3

>  <SCORE.INTER.SOLV>
11.3585

>  <SCORE.INTER.VDW>
-15.0724

>  <SCORE.INTER.norm>
-1.64548

>  <SCORE.INTRA>
-0.846287

>  <SCORE.INTRA.DIHEDRAL>
1.92217

>  <SCORE.INTRA.DIHEDRAL.0>
1.88407

>  <SCORE.INTRA.POLAR>
0

>  <SCORE.INTRA.POLAR.0>
0

>  <SCORE.INTRA.REPUL>
0

>  <SCORE.INTRA.REPUL.0>
0

>  <SCORE.INTRA.SOLV>
0.373234

>  <SCORE.INTRA.SOLV.lig_0>
-10.2714

>  <SCORE.INTRA.VDW>
-1.99399

>  <SCORE.INTRA.VDW.0>
0.416923

>  <SCORE.INTRA.norm>
-0.0705239

>  <SCORE.RESTR>
0

>  <SCORE.RESTR.CAVITY>
0

>  <SCORE.RESTR.norm>
0

>  <SCORE.SYSTEM>
0

>  <SCORE.SYSTEM.CONST>
0

>  <SCORE.SYSTEM.DIHEDRAL>
0

>  <SCORE.SYSTEM.SOLV>
0

>  <SCORE.SYSTEM.norm>
0

>  <SCORE.heavy>
12

>  <SCORE.norm>
-1.71601

>  <RMSD>
43.015

$$$$
ligand
 OpenBabel11021811433D
libRbt.so/2013.1/901 2013/11/27
 12 12  0  0  0  0  0  0  0  0999 V2000
    9.9477    1.5223   -2.4572 O   0  0  0  0  0  0  0  0  0  0  0  0
    8.7637   -2.3196   -0.9924 O   0  0  0  0  0  0  0  0  0  0  0  0
   11.1476    0.6963   -2.5514 C   0  0  0  0  0  0  0  0  0  0  0  0
    7.4684   -3.1949    0.9142 O   0  0  0  0  0  0  0  0  0  0  0  0
   11.4024   -0.0785   -1.2259 C   0  0  0  0  0  0  0  0  0  0  0  0
    7.5390   -1.3607    0.1927 O   0  0  0  0  0  0  0  0  0  0  0  0
   10.3101    0.2515   -0.2462 N   0  0  0  0  0  0  0  0  0  0  0  0
   10.2558    1.7251   -0.0029 C   0  0  0  0  0  0  0  0  0  0  0  0
   10.0673    2.4694   -1.3552 C   0  0  0  0  0  0  0  0  0  0  0  0
   10.4988   -0.4604    1.0660 C   0  0  0  0  0  0  0  0  0  0  0  0
    9.1686   -1.0728    1.5671 C   0  0  0  0  0  0  0  0  0  0  0  0
    8.5779   -2.3555    0.4374 S   0  0  0  0  0  0  0  0  0  0  0  0
  1  3  1  0  0  0  0
  1  9  1  0  0  0  0
  2 12  1  0  0  0  0
  3  5  1  0  0  0  0
  4 12  2  0  0  0  0
  5  7  1  0  0  0  0
  6 12  2  0  0  0  0
  7  8  1  0  0  0  0
  7 10  1  0  0  0  0
  8  9  1  0  0  0  0
 10 11  1  0  0  0  0
 11 12  1  0  0  0  0
M  END
>  <CHROM.1>
-135.15650223,64.10142767,-33.83887107,9.45366870,-0.57481381,-0.31924987
0.41602930,-1.01702636,-1.60317248

>  <Name>
ligand

>  <RI>
0

>  <Rbt.Current_Directory>
/home/itssahil/PROJECTS/Mol_Feturizer/New_Systems/rnas/2HO6

>  <Rbt.Executable>
rbdock ($Id: //depot/dev/client3/rdock/2013.1/src/exe/rbdock.cxx#4 $)

>  <Rbt.Library>
libRbt.so (2013.1, Build901 2013/11/27)

>  <Rbt.Parameter_File>
/export/apps/rDock/src/rDock_2013.1_src/data/scripts/dock_solv.prm

>  <Rbt.Receptor>
prm/blind_docking_40.prm

>  <SCORE>
-20.5932

>  <SCORE.INTER>
-19.7211

>  <SCORE.INTER.CONST>
1

>  <SCORE.INTER.POLAR>
-2.24521

>  <SCORE.INTER.ROT>
3

>  <SCORE.INTER.SOLV>
11.3258

>  <SCORE.INTER.VDW>
-15.0386

>  <SCORE.INTER.norm>
-1.64342

>  <SCORE.INTRA>
-0.872104

>  <SCORE.INTRA.DIHEDRAL>
1.88458

>  <SCORE.INTRA.DIHEDRAL.0>
1.88407

>  <SCORE.INTRA.POLAR>
0

>  <SCORE.INTRA.POLAR.0>
0

>  <SCORE.INTRA.REPUL>
0

>  <SCORE.INTRA.REPUL.0>
0

>  <SCORE.INTRA.SOLV>
0.380624

>  <SCORE.INTRA.SOLV.lig_0>
-10.2714

>  <SCORE.INTRA.VDW>
-2.00471

>  <SCORE.INTRA.VDW.0>
0.416923

>  <SCORE.INTRA.norm>
-0.0726754

>  <SCORE.RESTR>
0

>  <SCORE.RESTR.CAVITY>
0

>  <SCORE.RESTR.norm>
0

>  <SCORE.SYSTEM>
0

>  <SCORE.SYSTEM.CONST>
0

>  <SCORE.SYSTEM.DIHEDRAL>
0

>  <SCORE.SYSTEM.SOLV>
0

>  <SCORE.SYSTEM.norm>
0

>  <SCORE.heavy>
12

>  <SCORE.norm>
-1.7161

>  <RMSD>
43.016

$$$$
ligand
 OpenBabel11021811433D
libRbt.so/2013.1/901 2013/11/27
 12 12  0  0  0  0  0  0  0  0999 V2000
    9.9751    1.5403   -2.5118 O   0  0  0  0  0  0  0  0  0  0  0  0
    8.7245   -2.3828   -1.0259 O   0  0  0  0  0  0  0  0  0  0  0  0
   11.1848    0.7309   -2.6231 C   0  0  0  0  0  0  0  0  0  0  0  0
    7.5016   -3.2296    0.9405 O   0  0  0  0  0  0  0  0  0  0  0  0
   11.4477   -0.0702   -1.3150 C   0  0  0  0  0  0  0  0  0  0  0  0
    7.5345   -1.4091    0.1824 O   0  0  0  0  0  0  0  0  0  0  0  0
   10.3508    0.2249   -0.3293 N   0  0  0  0  0  0  0  0  0  0  0  0
   10.2788    1.6920   -0.0533 C   0  0  0  0  0  0  0  0  0  0  0  0
   10.0825    2.4640   -1.3889 C   0  0  0  0  0  0  0  0  0  0  0  0
   10.5469   -0.5137    0.9668 C   0  0  0  0  0  0  0  0  0  0  0  0
    9.2083   -1.0846    1.4940 C   0  0  0  0  0  0  0  0  0  0  0  0
    8.5882   -2.3925    0.4099 S   0  0  0  0  0  0  0  0  0  0  0  0
  1  3  1  0  0  0  0
  1  9  1  0  0  0  0
  2 12  1  0  0  0  0
  3  5  1  0  0  0  0
  4 12  2  0  0  0  0
  5  7  1  0  0  0  0
  6 12  2  0  0  0  0
  7  8  1  0  0  0  0
  7 10  1  0  0  0  0
  8  9  1  0  0  0  0
 10 11  1  0  0  0  0
 11 12  1  0  0  0  0
M  END
>  <CHROM.1>
-138.38358226,67.28499443,-36.19505298,9.47476381,-0.59779950,-0.36584805
0.42511159,-1.01498798,-1.59704581

>  <Name>
ligand

>  <RI>
0

>  <Rbt.Current_Directory>
/home/itssahil/PROJECTS/Mol_Feturizer/New_Systems/rnas/2HO6

>  <Rbt.Executable>
rbdock ($Id: //depot/dev/client3/rdock/2013.1/src/exe/rbdock.cxx#4 $)

>  <Rbt.Library>
libRbt.so (2013.1, Build901 2013/11/27)

>  <Rbt.Parameter_File>
/export/apps/rDock/src/rDock_2013.1_src/data/scripts/dock_solv.prm

>  <Rbt.Receptor>
prm/blind_docking_60.prm

>  <SCORE>
-20.5023

>  <SCORE.INTER>
-19.6813

>  <SCORE.INTER.CONST>
1

>  <SCORE.INTER.POLAR>
-2.23775

>  <SCORE.INTER.ROT>
3

>  <SCORE.INTER.SOLV>
11.3109

>  <SCORE.INTER.VDW>
-15.032

>  <SCORE.INTER.norm>
-1.64011

>  <SCORE.INTRA>
-0.821011

>  <SCORE.INTRA.DIHEDRAL>
1.85633

>  <SCORE.INTRA.DIHEDRAL.0>
1.88407

>  <SCORE.INTRA.POLAR>
0

>  <SCORE.INTRA.POLAR.0>
0

>  <SCORE.INTRA.REPUL>
0

>  <SCORE.INTRA.REPUL.0>
0

>  <SCORE.INTRA.SOLV>
0.365919

>  <SCORE.INTRA.SOLV.lig_0>
-10.2714

>  <SCORE.INTRA.VDW>
-1.93213

>  <SCORE.INTRA.VDW.0>
0.416923

>  <SCORE.INTRA.norm>
-0.0684176

>  <SCORE.RESTR>
0

>  <SCORE.RESTR.CAVITY>
0

>  <SCORE.RESTR.norm>
0

>  <SCORE.SYSTEM>
0

>  <SCORE.SYSTEM.CONST>
0

>  <SCORE.SYSTEM.DIHEDRAL>
0

>  <SCORE.SYSTEM.SOLV>
0

>  <SCORE.SYSTEM.norm>
0

>  <SCORE.heavy>
12

>  <SCORE.norm>
-1.70852

>  <RMSD>
43.016

$$$$
ligand
 OpenBabel11021811433D
libRbt.so/2013.1/901 2013/11/27
 12 12  0  0  0  0  0  0  0  0999 V2000
    9.9963    1.5489   -2.4524 O   0  0  0  0  0  0  0  0  0  0  0  0
    8.7665   -2.3415   -1.0274 O   0  0  0  0  0  0  0  0  0  0  0  0
   11.2042    0.7315   -2.5111 C   0  0  0  0  0  0  0  0  0  0  0  0
    7.5495   -3.3053    0.8881 O   0  0  0  0  0  0  0  0  0  0  0  0
   11.4215   -0.0471   -1.1812 C   0  0  0  0  0  0  0  0  0  0  0  0
    7.4896   -1.4695    0.1696 O   0  0  0  0  0  0  0  0  0  0  0  0
   10.2959    0.2714   -0.2359 N   0  0  0  0  0  0  0  0  0  0  0  0
   10.2236    1.7436    0.0114 C   0  0  0  0  0  0  0  0  0  0  0  0
   10.0736    2.4922   -1.3434 C   0  0  0  0  0  0  0  0  0  0  0  0
   10.4472   -0.4446    1.0788 C   0  0  0  0  0  0  0  0  0  0  0  0
    9.1073   -1.0738    1.5311 C   0  0  0  0  0  0  0  0  0  0  0  0
    8.5955   -2.3919    0.4038 S   0  0  0  0  0  0  0  0  0  0  0  0
  1  3  1  0  0  0  0
  1  9  1  0  0  0  0
  2 12  1  0  0  0  0
  3  5  1  0  0  0  0
  4 12  2  0  0  0  0
  5  7  1  0  0  0  0
  6 12  2  0  0  0  0
  7  8  1  0  0  0  0
  7 10  1  0  0  0  0
  8  9  1  0  0  0  0
 10 11  1  0  0  0  0
 11 12  1  0  0  0  0
M  END
>  <CHROM.1>
-134.89396698,65.83856986,-38.21070568,9.45784091,-0.58819835,-0.32423304
0.33302764,-1.04041023,-1.67846416

>  <Name>
ligand

>  <RI>
0

>  <Rbt.Current_Directory>
/home/itssahil/PROJECTS/Mol_Feturizer/New_Systems/rnas/2HO6

>  <Rbt.Executable>
rbdock ($Id: //depot/dev/client3/rdock/2013.1/src/exe/rbdock.cxx#4 $)

>  <Rbt.Library>
libRbt.so (2013.1, Build901 2013/11/27)

>  <Rbt.Parameter_File>
/export/apps/rDock/src/rDock_2013.1_src/data/scripts/dock_solv.prm

>  <Rbt.Receptor>
prm/blind_docking_100.prm

>  <SCORE>
-20.4435

>  <SCORE.INTER>
-19.6161

>  <SCORE.INTER.CONST>
1

>  <SCORE.INTER.POLAR>
-2.23829

>  <SCORE.INTER.ROT>
3

>  <SCORE.INTER.SOLV>
11.4296

>  <SCORE.INTER.VDW>
-15.0263

>  <SCORE.INTER.norm>
-1.63467

>  <SCORE.INTRA>
-0.827446

>  <SCORE.INTRA.DIHEDRAL>
1.96354

>  <SCORE.INTRA.DIHEDRAL.0>
1.88407

>  <SCORE.INTRA.POLAR>
0

>  <SCORE.INTRA.POLAR.0>
0

>  <SCORE.INTRA.REPUL>
0

>  <SCORE.INTRA.REPUL.0>
0

>  <SCORE.INTRA.SOLV>
0.341305

>  <SCORE.INTRA.SOLV.lig_0>
-10.2714

>  <SCORE.INTRA.VDW>
-1.97987

>  <SCORE.INTRA.VDW.0>
0.416923

>  <SCORE.INTRA.norm>
-0.0689538

>  <SCORE.RESTR>
0

>  <SCORE.RESTR.CAVITY>
0

>  <SCORE.RESTR.norm>
0

>  <SCORE.SYSTEM>
0

>  <SCORE.SYSTEM.CONST>
0

>  <SCORE.SYSTEM.DIHEDRAL>
0

>  <SCORE.SYSTEM.SOLV>
0

>  <SCORE.SYSTEM.norm>
0

>  <SCORE.heavy>
12

>  <SCORE.norm>
-1.70363

>  <RMSD>
43.017

$$$$
ligand
 OpenBabel11021811433D
libRbt.so/2013.1/901 2013/11/27
 12 12  0  0  0  0  0  0  0  0999 V2000
    9.9267    1.5902   -2.4451 O   0  0  0  0  0  0  0  0  0  0  0  0
    8.7426   -2.3520   -1.0036 O   0  0  0  0  0  0  0  0  0  0  0  0
   11.2222    0.9202   -2.5042 C   0  0  0  0  0  0  0  0  0  0  0  0
    7.4747   -3.2003    0.9334 O   0  0  0  0  0  0  0  0  0  0  0  0
   11.4988    0.1148   -1.2015 C   0  0  0  0  0  0  0  0  0  0  0  0
    7.5418   -1.3744    0.1907 O   0  0  0  0  0  0  0  0  0  0  0  0
   10.3233    0.2609   -0.2748 N   0  0  0  0  0  0  0  0  0  0  0  0
   10.0756    1.7029    0.0298 C   0  0  0  0  0  0  0  0  0  0  0  0
    9.8698    2.4873   -1.2971 C   0  0  0  0  0  0  0  0  0  0  0  0
   10.5275   -0.4893    1.0135 C   0  0  0  0  0  0  0  0  0  0  0  0
    9.1950   -1.0793    1.5351 C   0  0  0  0  0  0  0  0  0  0  0  0
    8.5800   -2.3714    0.4294 S   0  0  0  0  0  0  0  0  0  0  0  0
  1  3  1  0  0  0  0
  1  9  1  0  0  0  0
  2 12  1  0  0  0  0
  3  5  1  0  0  0  0
  4 12  2  0  0  0  0
  5  7  1  0  0  0  0
  6 12  2  0  0  0  0
  7  8  1  0  0  0  0
  7 10  1  0  0  0  0
  8  9  1  0  0  0  0
 10 11  1  0  0  0  0
 11 12  1  0  0  0  0
M  END
>  <CHROM.1>
-144.99614439,66.75972857,-34.45033710,9.44132078,-0.54816453,-0.31552999
0.47744560,-1.01014170,-1.52165894

>  <Name>
ligand

>  <RI>
0

>  <Rbt.Current_Directory>
/home/itssahil/PROJECTS/Mol_Feturizer/New_Systems/rnas/2HO6

>  <Rbt.Executable>
rbdock ($Id: //depot/dev/client3/rdock/2013.1/src/exe/rbdock.cxx#4 $)

>  <Rbt.Library>
libRbt.so (2013.1, Build901 2013/11/27)

>  <Rbt.Parameter_File>
/export/apps/rDock/src/rDock_2013.1_src/data/scripts/dock_solv.prm

>  <Rbt.Receptor>
prm/blind_docking_40.prm

>  <SCORE>
-20.6229

>  <SCORE.INTER>
-19.6899

>  <SCORE.INTER.CONST>
1

>  <SCORE.INTER.POLAR>
-2.23706

>  <SCORE.INTER.ROT>
3

>  <SCORE.INTER.SOLV>
11.498

>  <SCORE.INTER.VDW>
-15.1024

>  <SCORE.INTER.norm>
-1.64082

>  <SCORE.INTRA>
-0.932959

>  <SCORE.INTRA.DIHEDRAL>
1.44363

>  <SCORE.INTRA.DIHEDRAL.0>
1.88407

>  <SCORE.INTRA.POLAR>
0

>  <SCORE.INTRA.POLAR.0>
0

>  <SCORE.INTRA.REPUL>
0

>  <SCORE.INTRA.REPUL.0>
0

>  <SCORE.INTRA.SOLV>
0.40036

>  <SCORE.INTRA.SOLV.lig_0>
-10.2714

>  <SCORE.INTRA.VDW>
-1.85495

>  <SCORE.INTRA.VDW.0>
0.416923

>  <SCORE.INTRA.norm>
-0.0777466

>  <SCORE.RESTR>
0

>  <SCORE.RESTR.CAVITY>
0

>  <SCORE.RESTR.norm>
0

>  <SCORE.SYSTEM>
0

>  <SCORE.SYSTEM.CONST>
0

>  <SCORE.SYSTEM.DIHEDRAL>
0

>  <SCORE.SYSTEM.SOLV>
0

>  <SCORE.SYSTEM.norm>
0

>  <SCORE.heavy>
12

>  <SCORE.norm>
-1.71857

>  <RMSD>
43.018

$$$$
ligand
 OpenBabel11021811433D
libRbt.so/2013.1/901 2013/11/27
 12 12  0  0  0  0  0  0  0  0999 V2000
    9.9428    1.5327   -2.4527 O   0  0  0  0  0  0  0  0  0  0  0  0
    8.7644   -2.3371   -1.0162 O   0  0  0  0  0  0  0  0  0  0  0  0
   11.1634    0.7366   -2.5370 C   0  0  0  0  0  0  0  0  0  0  0  0
    7.5007   -3.2512    0.8934 O   0  0  0  0  0  0  0  0  0  0  0  0
   11.4166   -0.0459   -1.2158 C   0  0  0  0  0  0  0  0  0  0  0  0
    7.5267   -1.4118    0.1822 O   0  0  0  0  0  0  0  0  0  0  0  0
   10.3021    0.2476   -0.2496 N   0  0  0  0  0  0  0  0  0  0  0  0
   10.2088    1.7168    0.0080 C   0  0  0  0  0  0  0  0  0  0  0  0
   10.0229    2.4707   -1.3394 C   0  0  0  0  0  0  0  0  0  0  0  0
   10.4881   -0.4735    1.0580 C   0  0  0  0  0  0  0  0  0  0  0  0
    9.1585   -1.0964    1.5479 C   0  0  0  0  0  0  0  0  0  0  0  0
    8.5886   -2.3851    0.4145 S   0  0  0  0  0  0  0  0  0  0  0  0
  1  3  1  0  0  0  0
  1  9  1  0  0  0  0
  2 12  1  0  0  0  0
  3  5  1  0  0  0  0
  4 12  2  0  0  0  0
  5  7  1  0  0  0  0
  6 12  2  0  0  0  0
  7  8  1  0  0  0  0
  7 10  1  0  0  0  0
  8  9  1  0  0  0  0
 10 11  1  0  0  0  0
 11 12  1  0  0  0  0
M  END
>  <CHROM.1>
-136.40520610,64.69275940,-35.07491667,9.45020496,-0.58731411,-0.32571795
0.40428851,-1.02718195,-1.60700761

>  <Name>
ligand

>  <RI>
0

>  <Rbt.Current_Directory>
/home/itssahil/PROJECTS/Mol_Feturizer/New_Systems/rnas/2HO6

>  <Rbt.Executable>
rbdock ($Id: //depot/dev/client3/rdock/2013.1/src/exe/rbdock.cxx#4 $)

>  <Rbt.Library>
libRbt.so (2013.1, Build901 2013/11/27)

>  <Rbt.Parameter_File>
/export/apps/rDock/src/rDock_2013.1_src/data/scripts/dock_solv.prm

>  <Rbt.Receptor>
prm/blind_docking_20.prm

>  <SCORE>
-20.5847

>  <SCORE.INTER>
-19.7082

>  <SCORE.INTER.CONST>
1

>  <SCORE.INTER.POLAR>
-2.24448

>  <SCORE.INTER.ROT>
3

>  <SCORE.INTER.SOLV>
11.3618

>  <SCORE.INTER.VDW>
-15.0444

>  <SCORE.INTER.norm>
-1.64235

>  <SCORE.INTRA>
-0.87646

>  <SCORE.INTRA.DIHEDRAL>
1.84325

>  <SCORE.INTRA.DIHEDRAL.0>
1.88407

>  <SCORE.INTRA.POLAR>
0

>  <SCORE.INTRA.POLAR.0>
0

>  <SCORE.INTRA.REPUL>
0

>  <SCORE.INTRA.REPUL.0>
0

>  <SCORE.INTRA.SOLV>
0.372864

>  <SCORE.INTRA.SOLV.lig_0>
-10.2714

>  <SCORE.INTRA.VDW>
-1.98452

>  <SCORE.INTRA.VDW.0>
0.416923

>  <SCORE.INTRA.norm>
-0.0730384

>  <SCORE.RESTR>
0

>  <SCORE.RESTR.CAVITY>
0

>  <SCORE.RESTR.norm>
0

>  <SCORE.SYSTEM>
0

>  <SCORE.SYSTEM.CONST>
0

>  <SCORE.SYSTEM.DIHEDRAL>
0

>  <SCORE.SYSTEM.SOLV>
0

>  <SCORE.SYSTEM.norm>
0

>  <SCORE.heavy>
12

>  <SCORE.norm>
-1.71539

>  <RMSD>
43.026

$$$$
ligand
 OpenBabel11021811433D
libRbt.so/2013.1/901 2013/11/27
 12 12  0  0  0  0  0  0  0  0999 V2000
    9.9153    1.5161   -2.4311 O   0  0  0  0  0  0  0  0  0  0  0  0
    8.7681   -2.3259   -1.0066 O   0  0  0  0  0  0  0  0  0  0  0  0
   11.1295    0.7126   -2.5354 C   0  0  0  0  0  0  0  0  0  0  0  0
    7.4577   -3.2149    0.8834 O   0  0  0  0  0  0  0  0  0  0  0  0
   11.3988   -0.0729   -1.2191 C   0  0  0  0  0  0  0  0  0  0  0  0
    7.5516   -1.3709    0.1900 O   0  0  0  0  0  0  0  0  0  0  0  0
   10.3015    0.2265   -0.2351 N   0  0  0  0  0  0  0  0  0  0  0  0
   10.2215    1.6960    0.0253 C   0  0  0  0  0  0  0  0  0  0  0  0
   10.0190    2.4524   -1.3183 C   0  0  0  0  0  0  0  0  0  0  0  0
   10.5037   -0.4971    1.0686 C   0  0  0  0  0  0  0  0  0  0  0  0
    9.1808   -1.1230    1.5725 C   0  0  0  0  0  0  0  0  0  0  0  0
    8.5781   -2.3814    0.4221 S   0  0  0  0  0  0  0  0  0  0  0  0
  1  3  1  0  0  0  0
  1  9  1  0  0  0  0
  2 12  1  0  0  0  0
  3  5  1  0  0  0  0
  4 12  2  0  0  0  0
  5  7  1  0  0  0  0
  6 12  2  0  0  0  0
  7  8  1  0  0  0  0
  7 10  1  0  0  0  0
  8  9  1  0  0  0  0
 10 11  1  0  0  0  0
 11 12  1  0  0  0  0
M  END
>  <CHROM.1>
-135.89231130,63.27497062,-32.61672541,9.44464344,-0.59242466,-0.31583133
0.44163045,-1.01492856,-1.56586174

>  <Name>
ligand

>  <RI>
0

>  <Rbt.Current_Directory>
/home/itssahil/PROJECTS/Mol_Feturizer/New_Systems/rnas/2HO6

>  <Rbt.Executable>
rbdock ($Id: //depot/dev/client3/rdock/2013.1/src/exe/rbdock.cxx#4 $)

>  <Rbt.Library>
libRbt.so (2013.1, Build901 2013/11/27)

>  <Rbt.Parameter_File>
/export/apps/rDock/src/rDock_2013.1_src/data/scripts/dock_solv.prm

>  <Rbt.Receptor>
prm/blind_docking_100.prm

>  <SCORE>
-20.5876

>  <SCORE.INTER>
-19.653

>  <SCORE.INTER.CONST>
1

>  <SCORE.INTER.POLAR>
-2.24479

>  <SCORE.INTER.ROT>
3

>  <SCORE.INTER.SOLV>
11.3158

>  <SCORE.INTER.VDW>
-14.9913

>  <SCORE.INTER.norm>
-1.63775

>  <SCORE.INTRA>
-0.934549

>  <SCORE.INTRA.DIHEDRAL>
1.82625

>  <SCORE.INTRA.DIHEDRAL.0>
1.88407

>  <SCORE.INTRA.POLAR>
0

>  <SCORE.INTRA.POLAR.0>
0

>  <SCORE.INTRA.REPUL>
0

>  <SCORE.INTRA.REPUL.0>
0

>  <SCORE.INTRA.SOLV>
0.394253

>  <SCORE.INTRA.SOLV.lig_0>
-10.2714

>  <SCORE.INTRA.VDW>
-2.0448

>  <SCORE.INTRA.VDW.0>
0.416923

>  <SCORE.INTRA.norm>
-0.0778791

>  <SCORE.RESTR>
0

>  <SCORE.RESTR.CAVITY>
0

>  <SCORE.RESTR.norm>
0

>  <SCORE.SYSTEM>
0

>  <SCORE.SYSTEM.CONST>
0

>  <SCORE.SYSTEM.DIHEDRAL>
0

>  <SCORE.SYSTEM.SOLV>
0

>  <SCORE.SYSTEM.norm>
0

>  <SCORE.heavy>
12

>  <SCORE.norm>
-1.71563

>  <RMSD>
43.029

$$$$
ligand
 OpenBabel11021811433D
libRbt.so/2013.1/901 2013/11/27
 12 12  0  0  0  0  0  0  0  0999 V2000
    9.6970    2.0136   -1.8166 O   0  0  0  0  0  0  0  0  0  0  0  0
    7.4976   -3.1914    1.0647 O   0  0  0  0  0  0  0  0  0  0  0  0
   10.8114    1.4180   -2.5474 C   0  0  0  0  0  0  0  0  0  0  0  0
    7.7863   -0.8940    0.2174 O   0  0  0  0  0  0  0  0  0  0  0  0
   11.3472    0.1504   -1.8205 C   0  0  0  0  0  0  0  0  0  0  0  0
    8.0195   -2.6094   -0.7277 O   0  0  0  0  0  0  0  0  0  0  0  0
   10.5307   -0.0864   -0.5799 N   0  0  0  0  0  0  0  0  0  0  0  0
   10.5859    1.1082    0.3164 C   0  0  0  0  0  0  0  0  0  0  0  0
   10.1070    2.3660   -0.4625 C   0  0  0  0  0  0  0  0  0  0  0  0
   11.0014   -1.2973    0.1793 C   0  0  0  0  0  0  0  0  0  0  0  0
   10.0579   -2.5029   -0.0489 C   0  0  0  0  0  0  0  0  0  0  0  0
    8.4066   -2.1689    0.6083 S   0  0  0  0  0  0  0  0  0  0  0  0
  1  3  1  0  0  0  0
  1  9  1  0  0  0  0
  2 12  1  0  0  0  0
  3  5  1  0  0  0  0
  4 12  2  0  0  0  0
  5  7  1  0  0  0  0
  6 12  2  0  0  0  0
  7  8  1  0  0  0  0
  7 10  1  0  0  0  0
  8  9  1  0  0  0  0
 10 11  1  0  0  0  0
 11 12  1  0  0  0  0
M  END
>  <CHROM.1>
-103.16503120,-64.04377340,-152.93114779,9.48108970,-0.66013332,-0.36196767
1.05444870,0.28722548,-0.26969191

>  <Name>
ligand

>  <RI>
0

>  <Rbt.Current_Directory>
/home/itssahil/PROJECTS/Mol_Feturizer/New_Systems/rnas/2HO6

>  <Rbt.Executable>
rbdock ($Id: //depot/dev/client3/rdock/2013.1/src/exe/rbdock.cxx#4 $)

>  <Rbt.Library>
libRbt.so (2013.1, Build901 2013/11/27)

>  <Rbt.Parameter_File>
/export/apps/rDock/src/rDock_2013.1_src/data/scripts/dock_solv.prm

>  <Rbt.Receptor>
prm/blind_docking_40.prm

>  <SCORE>
-19.7158

>  <SCORE.INTER>
-19.2534

>  <SCORE.INTER.CONST>
1

>  <SCORE.INTER.POLAR>
-2.17802

>  <SCORE.INTER.ROT>
3

>  <SCORE.INTER.SOLV>
9.56063

>  <SCORE.INTER.VDW>
-14.3624

>  <SCORE.INTER.norm>
-1.60445

>  <SCORE.INTRA>
-0.462465

>  <SCORE.INTRA.DIHEDRAL>
1.92423

>  <SCORE.INTRA.DIHEDRAL.0>
1.88407

>  <SCORE.INTRA.POLAR>
0

>  <SCORE.INTRA.POLAR.0>
0

>  <SCORE.INTRA.REPUL>
0

>  <SCORE.INTRA.REPUL.0>
0

>  <SCORE.INTRA.SOLV>
1.09956

>  <SCORE.INTRA.SOLV.lig_0>
-10.2714

>  <SCORE.INTRA.VDW>
-1.97436

>  <SCORE.INTRA.VDW.0>
0.416923

>  <SCORE.INTRA.norm>
-0.0385387

>  <SCORE.RESTR>
0

>  <SCORE.RESTR.CAVITY>
0

>  <SCORE.RESTR.norm>
0

>  <SCORE.SYSTEM>
0

>  <SCORE.SYSTEM.CONST>
0

>  <SCORE.SYSTEM.DIHEDRAL>
0

>  <SCORE.SYSTEM.SOLV>
0

>  <SCORE.SYSTEM.norm>
0

>  <SCORE.heavy>
12

>  <SCORE.norm>
-1.64299

>  <RMSD>
43.036

$$$$
ligand
 OpenBabel11021811433D
libRbt.so/2013.1/901 2013/11/27
 12 12  0  0  0  0  0  0  0  0999 V2000
    9.9454    1.5340   -2.4717 O   0  0  0  0  0  0  0  0  0  0  0  0
    8.6666   -2.4169   -1.0055 O   0  0  0  0  0  0  0  0  0  0  0  0
   11.2590    0.9017   -2.5437 C   0  0  0  0  0  0  0  0  0  0  0  0
    7.3772   -3.1484    0.9647 O   0  0  0  0  0  0  0  0  0  0  0  0
   11.5529    0.0681   -1.2627 C   0  0  0  0  0  0  0  0  0  0  0  0
    7.5584   -1.3418    0.1945 O   0  0  0  0  0  0  0  0  0  0  0  0
   10.3705    0.1560   -0.3375 N   0  0  0  0  0  0  0  0  0  0  0  0
   10.0821    1.5816    0.0060 C   0  0  0  0  0  0  0  0  0  0  0  0
    9.8597    2.3968   -1.2995 C   0  0  0  0  0  0  0  0  0  0  0  0
   10.5905   -0.6240    0.9304 C   0  0  0  0  0  0  0  0  0  0  0  0
    9.2517   -1.1453    1.5064 C   0  0  0  0  0  0  0  0  0  0  0  0
    8.5285   -2.4058    0.4301 S   0  0  0  0  0  0  0  0  0  0  0  0
  1  3  1  0  0  0  0
  1  9  1  0  0  0  0
  2 12  1  0  0  0  0
  3  5  1  0  0  0  0
  4 12  2  0  0  0  0
  5  7  1  0  0  0  0
  6 12  2  0  0  0  0
  7  8  1  0  0  0  0
  7 10  1  0  0  0  0
  8  9  1  0  0  0  0
 10 11  1  0  0  0  0
 11 12  1  0  0  0  0
M  END
>  <CHROM.1>
-150.70113123,67.81595247,-32.61123903,9.43978606,-0.59888828,-0.33661099
0.59764045,-0.93795714,-1.38758399

>  <Name>
ligand

>  <RI>
0

>  <Rbt.Current_Directory>
/home/itssahil/PROJECTS/Mol_Feturizer/New_Systems/rnas/2HO6

>  <Rbt.Executable>
rbdock ($Id: //depot/dev/client3/rdock/2013.1/src/exe/rbdock.cxx#4 $)

>  <Rbt.Library>
libRbt.so (2013.1, Build901 2013/11/27)

>  <Rbt.Parameter_File>
/export/apps/rDock/src/rDock_2013.1_src/data/scripts/dock_solv.prm

>  <Rbt.Receptor>
prm/blind_docking_40.prm

>  <SCORE>
-20.5123

>  <SCORE.INTER>
-19.555

>  <SCORE.INTER.CONST>
1

>  <SCORE.INTER.POLAR>
-2.24478

>  <SCORE.INTER.ROT>
3

>  <SCORE.INTER.SOLV>
11.4225

>  <SCORE.INTER.VDW>
-14.9616

>  <SCORE.INTER.norm>
-1.62958

>  <SCORE.INTRA>
-0.957345

>  <SCORE.INTRA.DIHEDRAL>
1.14462

>  <SCORE.INTRA.DIHEDRAL.0>
1.88407

>  <SCORE.INTRA.POLAR>
0

>  <SCORE.INTRA.POLAR.0>
0

>  <SCORE.INTRA.REPUL>
0

>  <SCORE.INTRA.REPUL.0>
0

>  <SCORE.INTRA.SOLV>
0.431866

>  <SCORE.INTRA.SOLV.lig_0>
-10.2714

>  <SCORE.INTRA.VDW>
-1.74559

>  <SCORE.INTRA.VDW.0>
0.416923

>  <SCORE.INTRA.norm>
-0.0797787

>  <SCORE.RESTR>
0

>  <SCORE.RESTR.CAVITY>
0

>  <SCORE.RESTR.norm>
0

>  <SCORE.SYSTEM>
0

>  <SCORE.SYSTEM.CONST>
0

>  <SCORE.SYSTEM.DIHEDRAL>
0

>  <SCORE.SYSTEM.SOLV>
0

>  <SCORE.SYSTEM.norm>
0

>  <SCORE.heavy>
12

>  <SCORE.norm>
-1.70936

>  <RMSD>
43.036

$$$$
ligand
 OpenBabel11021811433D
libRbt.so/2013.1/901 2013/11/27
 12 12  0  0  0  0  0  0  0  0999 V2000
    9.9285    1.4940   -2.4730 O   0  0  0  0  0  0  0  0  0  0  0  0
    8.7558   -2.3545   -1.0288 O   0  0  0  0  0  0  0  0  0  0  0  0
   11.1256    0.6668   -2.5889 C   0  0  0  0  0  0  0  0  0  0  0  0
    7.4827   -3.2470    0.8848 O   0  0  0  0  0  0  0  0  0  0  0  0
   11.3953   -0.1195   -1.2732 C   0  0  0  0  0  0  0  0  0  0  0  0
    7.5476   -1.4056    0.1812 O   0  0  0  0  0  0  0  0  0  0  0  0
   10.3158    0.2042   -0.2773 N   0  0  0  0  0  0  0  0  0  0  0  0
   10.2672    1.6758   -0.0211 C   0  0  0  0  0  0  0  0  0  0  0  0
   10.0634    2.4317   -1.3647 C   0  0  0  0  0  0  0  0  0  0  0  0
   10.5194   -0.5189    1.0264 C   0  0  0  0  0  0  0  0  0  0  0  0
    9.1946   -1.1346    1.5380 C   0  0  0  0  0  0  0  0  0  0  0  0
    8.5876   -2.4046    0.4028 S   0  0  0  0  0  0  0  0  0  0  0  0
  1  3  1  0  0  0  0
  1  9  1  0  0  0  0
  2 12  1  0  0  0  0
  3  5  1  0  0  0  0
  4 12  2  0  0  0  0
  5  7  1  0  0  0  0
  6 12  2  0  0  0  0
  7  8  1  0  0  0  0
  7 10  1  0  0  0  0
  8  9  1  0  0  0  0
 10 11  1  0  0  0  0
 11 12  1  0  0  0  0
M  END
>  <CHROM.1>
-135.09339729,63.97907624,-33.81952406,9.45713663,-0.61958168,-0.34794680
0.44058680,-1.01500990,-1.57307333

>  <Name>
ligand

>  <RI>
0

>  <Rbt.Current_Directory>
/home/itssahil/PROJECTS/Mol_Feturizer/New_Systems/rnas/2HO6

>  <Rbt.Executable>
rbdock ($Id: //depot/dev/client3/rdock/2013.1/src/exe/rbdock.cxx#4 $)

>  <Rbt.Library>
libRbt.so (2013.1, Build901 2013/11/27)

>  <Rbt.Parameter_File>
/export/apps/rDock/src/rDock_2013.1_src/data/scripts/dock_solv.prm

>  <Rbt.Receptor>
prm/blind_docking_60.prm

>  <SCORE>
-20.5058

>  <SCORE.INTER>
-19.6315

>  <SCORE.INTER.CONST>
1

>  <SCORE.INTER.POLAR>
-2.24456

>  <SCORE.INTER.ROT>
3

>  <SCORE.INTER.SOLV>
11.2453

>  <SCORE.INTER.VDW>
-14.9542

>  <SCORE.INTER.norm>
-1.63596

>  <SCORE.INTRA>
-0.874256

>  <SCORE.INTRA.DIHEDRAL>
1.88386

>  <SCORE.INTRA.DIHEDRAL.0>
1.88407

>  <SCORE.INTRA.POLAR>
0

>  <SCORE.INTRA.POLAR.0>
0

>  <SCORE.INTRA.REPUL>
0

>  <SCORE.INTRA.REPUL.0>
0

>  <SCORE.INTRA.SOLV>
0.380745

>  <SCORE.INTRA.SOLV.lig_0>
-10.2714

>  <SCORE.INTRA.VDW>
-2.00656

>  <SCORE.INTRA.VDW.0>
0.416923

>  <SCORE.INTRA.norm>
-0.0728547

>  <SCORE.RESTR>
0

>  <SCORE.RESTR.CAVITY>
0

>  <SCORE.RESTR.norm>
0

>  <SCORE.SYSTEM>
0

>  <SCORE.SYSTEM.CONST>
0

>  <SCORE.SYSTEM.DIHEDRAL>
0

>  <SCORE.SYSTEM.SOLV>
0

>  <SCORE.SYSTEM.norm>
0

>  <SCORE.heavy>
12

>  <SCORE.norm>
-1.70882

>  <RMSD>
43.036

$$$$
ligand
 OpenBabel11021811433D
libRbt.so/2013.1/901 2013/11/27
 12 12  0  0  0  0  0  0  0  0999 V2000
    9.9308    1.5133   -2.4882 O   0  0  0  0  0  0  0  0  0  0  0  0
    8.7600   -2.3383   -1.0083 O   0  0  0  0  0  0  0  0  0  0  0  0
   11.1227    0.6755   -2.5787 C   0  0  0  0  0  0  0  0  0  0  0  0
    7.5069   -3.2456    0.9116 O   0  0  0  0  0  0  0  0  0  0  0  0
   11.3740   -0.0906   -1.2475 C   0  0  0  0  0  0  0  0  0  0  0  0
    7.5154   -1.4129    0.1827 O   0  0  0  0  0  0  0  0  0  0  0  0
   10.2875    0.2577   -0.2676 N   0  0  0  0  0  0  0  0  0  0  0  0
   10.2476    1.7337   -0.0365 C   0  0  0  0  0  0  0  0  0  0  0  0
   10.0622    2.4685   -1.3945 C   0  0  0  0  0  0  0  0  0  0  0  0
   10.4733   -0.4449    1.0499 C   0  0  0  0  0  0  0  0  0  0  0  0
    9.1459   -1.0697    1.5433 C   0  0  0  0  0  0  0  0  0  0  0  0
    8.5863   -2.3743    0.4230 S   0  0  0  0  0  0  0  0  0  0  0  0
  1  3  1  0  0  0  0
  1  9  1  0  0  0  0
  2 12  1  0  0  0  0
  3  5  1  0  0  0  0
  4 12  2  0  0  0  0
  5  7  1  0  0  0  0
  6 12  2  0  0  0  0
  7  8  1  0  0  0  0
  7 10  1  0  0  0  0
  8  9  1  0  0  0  0
 10 11  1  0  0  0  0
 11 12  1  0  0  0  0
M  END
>  <CHROM.1>
-133.80647970,64.56686870,-35.38872102,9.44467314,-0.58870615,-0.33975674
0.39419111,-1.03151453,-1.63043457

>  <Name>
ligand

>  <RI>
0

>  <Rbt.Current_Directory>
/home/itssahil/PROJECTS/Mol_Feturizer/New_Systems/rnas/2HO6

>  <Rbt.Executable>
rbdock ($Id: //depot/dev/client3/rdock/2013.1/src/exe/rbdock.cxx#4 $)

>  <Rbt.Library>
libRbt.so (2013.1, Build901 2013/11/27)

>  <Rbt.Parameter_File>
/export/apps/rDock/src/rDock_2013.1_src/data/scripts/dock_solv.prm

>  <Rbt.Receptor>
prm/blind_docking_40.prm

>  <SCORE>
-20.5855

>  <SCORE.INTER>
-19.7386

>  <SCORE.INTER.CONST>
1

>  <SCORE.INTER.POLAR>
-2.2381

>  <SCORE.INTER.ROT>
3

>  <SCORE.INTER.SOLV>
11.324

>  <SCORE.INTER.VDW>
-15.0734

>  <SCORE.INTER.norm>
-1.64489

>  <SCORE.INTRA>
-0.846921

>  <SCORE.INTRA.DIHEDRAL>
1.96215

>  <SCORE.INTRA.DIHEDRAL.0>
1.88407

>  <SCORE.INTRA.POLAR>
0

>  <SCORE.INTRA.POLAR.0>
0

>  <SCORE.INTRA.REPUL>
0

>  <SCORE.INTRA.REPUL.0>
0

>  <SCORE.INTRA.SOLV>
0.363089

>  <SCORE.INTRA.SOLV.lig_0>
-10.2714

>  <SCORE.INTRA.VDW>
-2.00954

>  <SCORE.INTRA.VDW.0>
0.416923

>  <SCORE.INTRA.norm>
-0.0705767

>  <SCORE.RESTR>
0

>  <SCORE.RESTR.CAVITY>
0

>  <SCORE.RESTR.norm>
0

>  <SCORE.SYSTEM>
0

>  <SCORE.SYSTEM.CONST>
0

>  <SCORE.SYSTEM.DIHEDRAL>
0

>  <SCORE.SYSTEM.SOLV>
0

>  <SCORE.SYSTEM.norm>
0

>  <SCORE.heavy>
12

>  <SCORE.norm>
-1.71546

>  <RMSD>
43.037

$$$$
ligand
 OpenBabel11021811433D
libRbt.so/2013.1/901 2013/11/27
 12 12  0  0  0  0  0  0  0  0999 V2000
    9.9137    1.5731   -2.3836 O   0  0  0  0  0  0  0  0  0  0  0  0
    8.5487   -2.6267   -1.2029 O   0  0  0  0  0  0  0  0  0  0  0  0
   11.2585    1.0708   -2.6480 C   0  0  0  0  0  0  0  0  0  0  0  0
    7.3510   -3.1615    0.8849 O   0  0  0  0  0  0  0  0  0  0  0  0
   11.6847    0.0178   -1.5842 C   0  0  0  0  0  0  0  0  0  0  0  0
    7.8243   -1.3993    0.1360 O   0  0  0  0  0  0  0  0  0  0  0  0
   10.5589   -0.1758   -0.6060 N   0  0  0  0  0  0  0  0  0  0  0  0
   10.2007    1.1232    0.0403 C   0  0  0  0  0  0  0  0  0  0  0  0
    9.8453    2.1688   -1.0546 C   0  0  0  0  0  0  0  0  0  0  0  0
   10.9072   -1.1795    0.4595 C   0  0  0  0  0  0  0  0  0  0  0  0
    9.6506   -1.6133    1.2523 C   0  0  0  0  0  0  0  0  0  0  0  0
    8.5692   -2.6497    0.2391 S   0  0  0  0  0  0  0  0  0  0  0  0
  1  3  1  0  0  0  0
  1  9  1  0  0  0  0
  2 12  1  0  0  0  0
  3  5  1  0  0  0  0
  4 12  2  0  0  0  0
  5  7  1  0  0  0  0
  6 12  2  0  0  0  0
  7  8  1  0  0  0  0
  7 10  1  0  0  0  0
  8  9  1  0  0  0  0
 10 11  1  0  0  0  0
 11 12  1  0  0  0  0
M  END
>  <CHROM.1>
-166.76879259,71.02887716,-24.12041367,9.53618869,-0.79788211,-0.47084386
1.00432125,-0.42549406,-0.74644321

>  <Name>
ligand

>  <RI>
0

>  <Rbt.Current_Directory>
/home/itssahil/PROJECTS/Mol_Feturizer/New_Systems/rnas/2HO6

>  <Rbt.Executable>
rbdock ($Id: //depot/dev/client3/rdock/2013.1/src/exe/rbdock.cxx#4 $)

>  <Rbt.Library>
libRbt.so (2013.1, Build901 2013/11/27)

>  <Rbt.Parameter_File>
/export/apps/rDock/src/rDock_2013.1_src/data/scripts/dock_solv.prm

>  <Rbt.Receptor>
prm/blind_docking_100.prm

>  <SCORE>
-19.0671

>  <SCORE.INTER>
-18.4562

>  <SCORE.INTER.CONST>
1

>  <SCORE.INTER.POLAR>
-2.23568

>  <SCORE.INTER.ROT>
3

>  <SCORE.INTER.SOLV>
10.775

>  <SCORE.INTER.VDW>
-14.0435

>  <SCORE.INTER.norm>
-1.53802

>  <SCORE.INTRA>
-0.610896

>  <SCORE.INTRA.DIHEDRAL>
0.527199

>  <SCORE.INTRA.DIHEDRAL.0>
1.88407

>  <SCORE.INTRA.POLAR>
0

>  <SCORE.INTRA.POLAR.0>
0

>  <SCORE.INTRA.REPUL>
0

>  <SCORE.INTRA.REPUL.0>
0

>  <SCORE.INTRA.SOLV>
0.573284

>  <SCORE.INTRA.SOLV.lig_0>
-10.2714

>  <SCORE.INTRA.VDW>
-1.16114

>  <SCORE.INTRA.VDW.0>
0.416923

>  <SCORE.INTRA.norm>
-0.050908

>  <SCORE.RESTR>
0

>  <SCORE.RESTR.CAVITY>
0

>  <SCORE.RESTR.norm>
0

>  <SCORE.SYSTEM>
0

>  <SCORE.SYSTEM.CONST>
0

>  <SCORE.SYSTEM.DIHEDRAL>
0

>  <SCORE.SYSTEM.SOLV>
0

>  <SCORE.SYSTEM.norm>
0

>  <SCORE.heavy>
12

>  <SCORE.norm>
-1.58893

>  <RMSD>
43.041

$$$$
ligand
 OpenBabel11021811433D
libRbt.so/2013.1/901 2013/11/27
 12 12  0  0  0  0  0  0  0  0999 V2000
    9.6137    2.1648   -1.7681 O   0  0  0  0  0  0  0  0  0  0  0  0
    8.3799   -2.6526    2.0673 O   0  0  0  0  0  0  0  0  0  0  0  0
   10.8030    1.7732   -2.5184 C   0  0  0  0  0  0  0  0  0  0  0  0
    7.3091   -1.5005    0.1685 O   0  0  0  0  0  0  0  0  0  0  0  0
   11.3655    0.4136   -2.0112 C   0  0  0  0  0  0  0  0  0  0  0  0
    8.0097   -3.3412    0.2749 O   0  0  0  0  0  0  0  0  0  0  0  0
   10.4899   -0.0964   -0.8999 N   0  0  0  0  0  0  0  0  0  0  0  0
   10.4215    0.9021    0.2100 C   0  0  0  0  0  0  0  0  0  0  0  0
    9.9194    2.2648   -0.3460 C   0  0  0  0  0  0  0  0  0  0  0  0
   10.9823   -1.4097   -0.3548 C   0  0  0  0  0  0  0  0  0  0  0  0
    9.8675   -2.4829   -0.3878 C   0  0  0  0  0  0  0  0  0  0  0  0
    8.5316   -2.0671    0.7579 S   0  0  0  0  0  0  0  0  0  0  0  0
  1  3  1  0  0  0  0
  1  9  1  0  0  0  0
  2 12  1  0  0  0  0
  3  5  1  0  0  0  0
  4 12  2  0  0  0  0
  5  7  1  0  0  0  0
  6 12  2  0  0  0  0
  7  8  1  0  0  0  0
  7 10  1  0  0  0  0
  8  9  1  0  0  0  0
 10 11  1  0  0  0  0
 11 12  1  0  0  0  0
M  END
>  <CHROM.1>
-125.61876938,-66.79904639,-100.19077387,9.48463224,-0.68166641,-0.26919143
1.05329899,0.56155319,-0.22686101

>  <Name>
ligand

>  <RI>
0

>  <Rbt.Current_Directory>
/home/itssahil/PROJECTS/Mol_Feturizer/New_Systems/rnas/2HO6

>  <Rbt.Executable>
rbdock ($Id: //depot/dev/client3/rdock/2013.1/src/exe/rbdock.cxx#4 $)

>  <Rbt.Library>
libRbt.so (2013.1, Build901 2013/11/27)

>  <Rbt.Parameter_File>
/export/apps/rDock/src/rDock_2013.1_src/data/scripts/dock_solv.prm

>  <Rbt.Receptor>
prm/blind_docking_60.prm

>  <SCORE>
-16.6846

>  <SCORE.INTER>
-16.3739

>  <SCORE.INTER.CONST>
1

>  <SCORE.INTER.POLAR>
-1.34164

>  <SCORE.INTER.ROT>
3

>  <SCORE.INTER.SOLV>
8.78613

>  <SCORE.INTER.VDW>
-14.9725

>  <SCORE.INTER.norm>
-1.36449

>  <SCORE.INTRA>
-0.310673

>  <SCORE.INTRA.DIHEDRAL>
2.47999

>  <SCORE.INTRA.DIHEDRAL.0>
1.88407

>  <SCORE.INTRA.POLAR>
0

>  <SCORE.INTRA.POLAR.0>
0

>  <SCORE.INTRA.REPUL>
0

>  <SCORE.INTRA.REPUL.0>
0

>  <SCORE.INTRA.SOLV>
0.449536

>  <SCORE.INTRA.SOLV.lig_0>
-10.2714

>  <SCORE.INTRA.VDW>
-1.77543

>  <SCORE.INTRA.VDW.0>
0.416923

>  <SCORE.INTRA.norm>
-0.0258894

>  <SCORE.RESTR>
0

>  <SCORE.RESTR.CAVITY>
0

>  <SCORE.RESTR.norm>
0

>  <SCORE.SYSTEM>
0

>  <SCORE.SYSTEM.CONST>
0

>  <SCORE.SYSTEM.DIHEDRAL>
0

>  <SCORE.SYSTEM.SOLV>
0

>  <SCORE.SYSTEM.norm>
0

>  <SCORE.heavy>
12

>  <SCORE.norm>
-1.39038

>  <RMSD>
43.042

$$$$
ligand
 OpenBabel11021811433D
libRbt.so/2013.1/901 2013/11/27
 12 12  0  0  0  0  0  0  0  0999 V2000
    9.8329    1.5801   -2.4128 O   0  0  0  0  0  0  0  0  0  0  0  0
    8.7575   -2.3348   -1.0054 O   0  0  0  0  0  0  0  0  0  0  0  0
   11.0044    0.7275   -2.5897 C   0  0  0  0  0  0  0  0  0  0  0  0
    7.4430   -3.1904    0.8971 O   0  0  0  0  0  0  0  0  0  0  0  0
   11.3089   -0.0850   -1.2976 C   0  0  0  0  0  0  0  0  0  0  0  0
    7.5663   -1.3518    0.1940 O   0  0  0  0  0  0  0  0  0  0  0  0
   10.2788    0.2482   -0.2537 N   0  0  0  0  0  0  0  0  0  0  0  0
   10.2754    1.7164    0.0255 C   0  0  0  0  0  0  0  0  0  0  0  0
   10.0348    2.4973   -1.2976 C   0  0  0  0  0  0  0  0  0  0  0  0
   10.5183   -0.4994    1.0301 C   0  0  0  0  0  0  0  0  0  0  0  0
    9.2085   -1.1272    1.5651 C   0  0  0  0  0  0  0  0  0  0  0  0
    8.5756   -2.3798    0.4247 S   0  0  0  0  0  0  0  0  0  0  0  0
  1  3  1  0  0  0  0
  1  9  1  0  0  0  0
  2 12  1  0  0  0  0
  3  5  1  0  0  0  0
  4 12  2  0  0  0  0
  5  7  1  0  0  0  0
  6 12  2  0  0  0  0
  7  8  1  0  0  0  0
  7 10  1  0  0  0  0
  8  9  1  0  0  0  0
 10 11  1  0  0  0  0
 11 12  1  0  0  0  0
M  END
>  <CHROM.1>
-133.43529741,64.14185232,-30.99925730,9.42749539,-0.57803736,-0.32507992
0.47334185,-1.02092917,-1.53053282

>  <Name>
ligand

>  <RI>
0

>  <Rbt.Current_Directory>
/home/itssahil/PROJECTS/Mol_Feturizer/New_Systems/rnas/2HO6

>  <Rbt.Executable>
rbdock ($Id: //depot/dev/client3/rdock/2013.1/src/exe/rbdock.cxx#4 $)

>  <Rbt.Library>
libRbt.so (2013.1, Build901 2013/11/27)

>  <Rbt.Parameter_File>
/export/apps/rDock/src/rDock_2013.1_src/data/scripts/dock_solv.prm

>  <Rbt.Receptor>
prm/blind_docking_100.prm

>  <SCORE>
-20.5286

>  <SCORE.INTER>
-19.6526

>  <SCORE.INTER.CONST>
1

>  <SCORE.INTER.POLAR>
-2.24109

>  <SCORE.INTER.ROT>
3

>  <SCORE.INTER.SOLV>
11.3374

>  <SCORE.INTER.VDW>
-15.0106

>  <SCORE.INTER.norm>
-1.63772

>  <SCORE.INTRA>
-0.876031

>  <SCORE.INTRA.DIHEDRAL>
1.96519

>  <SCORE.INTRA.DIHEDRAL.0>
1.88407

>  <SCORE.INTRA.POLAR>
0

>  <SCORE.INTRA.POLAR.0>
0

>  <SCORE.INTRA.REPUL>
0

>  <SCORE.INTRA.REPUL.0>
0

>  <SCORE.INTRA.SOLV>
0.400889

>  <SCORE.INTRA.SOLV.lig_0>
-10.2714

>  <SCORE.INTRA.VDW>
-2.05907

>  <SCORE.INTRA.VDW.0>
0.416923

>  <SCORE.INTRA.norm>
-0.0730026

>  <SCORE.RESTR>
0

>  <SCORE.RESTR.CAVITY>
0

>  <SCORE.RESTR.norm>
0

>  <SCORE.SYSTEM>
0

>  <SCORE.SYSTEM.CONST>
0

>  <SCORE.SYSTEM.DIHEDRAL>
0

>  <SCORE.SYSTEM.SOLV>
0

>  <SCORE.SYSTEM.norm>
0

>  <SCORE.heavy>
12

>  <SCORE.norm>
-1.71072

>  <RMSD>
43.046

$$$$
ligand
 OpenBabel11021811433D
libRbt.so/2013.1/901 2013/11/27
 12 12  0  0  0  0  0  0  0  0999 V2000
    9.5879    2.1249   -1.7787 O   0  0  0  0  0  0  0  0  0  0  0  0
    8.3853   -2.6022    2.0975 O   0  0  0  0  0  0  0  0  0  0  0  0
   10.8463    1.8015   -2.4439 C   0  0  0  0  0  0  0  0  0  0  0  0
    7.3081   -1.5146    0.1646 O   0  0  0  0  0  0  0  0  0  0  0  0
   11.4217    0.4491   -1.9319 C   0  0  0  0  0  0  0  0  0  0  0  0
    8.0131   -3.3492    0.3291 O   0  0  0  0  0  0  0  0  0  0  0  0
   10.4838   -0.1273   -0.9072 N   0  0  0  0  0  0  0  0  0  0  0  0
   10.2899    0.8334    0.2210 C   0  0  0  0  0  0  0  0  0  0  0  0
    9.7784    2.1927   -0.3348 C   0  0  0  0  0  0  0  0  0  0  0  0
   10.9846   -1.4372   -0.3617 C   0  0  0  0  0  0  0  0  0  0  0  0
    9.8676   -2.5087   -0.3649 C   0  0  0  0  0  0  0  0  0  0  0  0
    8.5330   -2.0591    0.7696 S   0  0  0  0  0  0  0  0  0  0  0  0
  1  3  1  0  0  0  0
  1  9  1  0  0  0  0
  2 12  1  0  0  0  0
  3  5  1  0  0  0  0
  4 12  2  0  0  0  0
  5  7  1  0  0  0  0
  6 12  2  0  0  0  0
  7  8  1  0  0  0  0
  7 10  1  0  0  0  0
  8  9  1  0  0  0  0
 10 11  1  0  0  0  0
 11 12  1  0  0  0  0
M  END
>  <CHROM.1>
-132.02275798,-65.23232464,-99.80539559,9.47062629,-0.69293819,-0.24817347
1.06293038,0.53847841,-0.24871321

>  <Name>
ligand

>  <RI>
0

>  <Rbt.Current_Directory>
/home/itssahil/PROJECTS/Mol_Feturizer/New_Systems/rnas/2HO6

>  <Rbt.Executable>
rbdock ($Id: //depot/dev/client3/rdock/2013.1/src/exe/rbdock.cxx#4 $)

>  <Rbt.Library>
libRbt.so (2013.1, Build901 2013/11/27)

>  <Rbt.Parameter_File>
/export/apps/rDock/src/rDock_2013.1_src/data/scripts/dock_solv.prm

>  <Rbt.Receptor>
prm/blind_docking_60.prm

>  <SCORE>
-16.5246

>  <SCORE.INTER>
-16.1023

>  <SCORE.INTER.CONST>
1

>  <SCORE.INTER.POLAR>
-1.34164

>  <SCORE.INTER.ROT>
3

>  <SCORE.INTER.SOLV>
8.75272

>  <SCORE.INTER.VDW>
-14.7803

>  <SCORE.INTER.norm>
-1.34186

>  <SCORE.INTRA>
-0.422257

>  <SCORE.INTRA.DIHEDRAL>
2.20868

>  <SCORE.INTRA.DIHEDRAL.0>
1.88407

>  <SCORE.INTRA.POLAR>
0

>  <SCORE.INTRA.POLAR.0>
0

>  <SCORE.INTRA.REPUL>
0

>  <SCORE.INTRA.REPUL.0>
0

>  <SCORE.INTRA.SOLV>
0.478555

>  <SCORE.INTRA.SOLV.lig_0>
-10.2714

>  <SCORE.INTRA.VDW>
-1.76587

>  <SCORE.INTRA.VDW.0>
0.416923

>  <SCORE.INTRA.norm>
-0.0351881

>  <SCORE.RESTR>
0

>  <SCORE.RESTR.CAVITY>
0

>  <SCORE.RESTR.norm>
0

>  <SCORE.SYSTEM>
0

>  <SCORE.SYSTEM.CONST>
0

>  <SCORE.SYSTEM.DIHEDRAL>
0

>  <SCORE.SYSTEM.SOLV>
0

>  <SCORE.SYSTEM.norm>
0

>  <SCORE.heavy>
12

>  <SCORE.norm>
-1.37705

>  <RMSD>
43.056

$$$$
ligand
 OpenBabel11021811433D
libRbt.so/2013.1/901 2013/11/27
 12 12  0  0  0  0  0  0  0  0999 V2000
    9.8192    1.5400   -2.4497 O   0  0  0  0  0  0  0  0  0  0  0  0
    8.7673   -2.3258   -1.0076 O   0  0  0  0  0  0  0  0  0  0  0  0
   11.1232    0.8877   -2.5189 C   0  0  0  0  0  0  0  0  0  0  0  0
    7.4658   -3.2006    0.8951 O   0  0  0  0  0  0  0  0  0  0  0  0
   11.4327    0.1087   -1.2076 C   0  0  0  0  0  0  0  0  0  0  0  0
    7.5614   -1.3605    0.1915 O   0  0  0  0  0  0  0  0  0  0  0  0
   10.2704    0.2537   -0.2642 N   0  0  0  0  0  0  0  0  0  0  0  0
   10.0066    1.6970    0.0201 C   0  0  0  0  0  0  0  0  0  0  0  0
    9.7679    2.4556   -1.3162 C   0  0  0  0  0  0  0  0  0  0  0  0
   10.5063   -0.4715    1.0330 C   0  0  0  0  0  0  0  0  0  0  0  0
    9.2000   -1.1109    1.5626 C   0  0  0  0  0  0  0  0  0  0  0  0
    8.5861   -2.3732    0.4225 S   0  0  0  0  0  0  0  0  0  0  0  0
  1  3  1  0  0  0  0
  1  9  1  0  0  0  0
  2 12  1  0  0  0  0
  3  5  1  0  0  0  0
  4 12  2  0  0  0  0
  5  7  1  0  0  0  0
  6 12  2  0  0  0  0
  7  8  1  0  0  0  0
  7 10  1  0  0  0  0
  8  9  1  0  0  0  0
 10 11  1  0  0  0  0
 11 12  1  0  0  0  0
M  END
>  <CHROM.1>
-143.14512230,63.35087223,-31.45379180,9.40711404,-0.55630986,-0.31988815
0.53016733,-1.01211202,-1.46969249

>  <Name>
ligand

>  <RI>
0

>  <Rbt.Current_Directory>
/home/itssahil/PROJECTS/Mol_Feturizer/New_Systems/rnas/2HO6

>  <Rbt.Executable>
rbdock ($Id: //depot/dev/client3/rdock/2013.1/src/exe/rbdock.cxx#4 $)

>  <Rbt.Library>
libRbt.so (2013.1, Build901 2013/11/27)

>  <Rbt.Parameter_File>
/export/apps/rDock/src/rDock_2013.1_src/data/scripts/dock_solv.prm

>  <Rbt.Receptor>
prm/blind_docking_40.prm

>  <SCORE>
-20.4367

>  <SCORE.INTER>
-19.4002

>  <SCORE.INTER.CONST>
1

>  <SCORE.INTER.POLAR>
-2.24413

>  <SCORE.INTER.ROT>
3

>  <SCORE.INTER.SOLV>
11.4649

>  <SCORE.INTER.VDW>
-14.8747

>  <SCORE.INTER.norm>
-1.61668

>  <SCORE.INTRA>
-1.03653

>  <SCORE.INTRA.DIHEDRAL>
1.42803

>  <SCORE.INTRA.DIHEDRAL.0>
1.88407

>  <SCORE.INTRA.POLAR>
0

>  <SCORE.INTRA.POLAR.0>
0

>  <SCORE.INTRA.REPUL>
0

>  <SCORE.INTRA.REPUL.0>
0

>  <SCORE.INTRA.SOLV>
0.425452

>  <SCORE.INTRA.SOLV.lig_0>
-10.2714

>  <SCORE.INTRA.VDW>
-1.96327

>  <SCORE.INTRA.VDW.0>
0.416923

>  <SCORE.INTRA.norm>
-0.0863777

>  <SCORE.RESTR>
0

>  <SCORE.RESTR.CAVITY>
0

>  <SCORE.RESTR.norm>
0

>  <SCORE.SYSTEM>
0

>  <SCORE.SYSTEM.CONST>
0

>  <SCORE.SYSTEM.DIHEDRAL>
0

>  <SCORE.SYSTEM.SOLV>
0

>  <SCORE.SYSTEM.norm>
0

>  <SCORE.heavy>
12

>  <SCORE.norm>
-1.70306

>  <RMSD>
43.059

$$$$
ligand
 OpenBabel11021811433D
libRbt.so/2013.1/901 2013/11/27
 12 12  0  0  0  0  0  0  0  0999 V2000
    9.7150    1.9222   -1.9239 O   0  0  0  0  0  0  0  0  0  0  0  0
    7.3932   -3.2043    0.9981 O   0  0  0  0  0  0  0  0  0  0  0  0
   10.7381    1.1642   -2.6375 C   0  0  0  0  0  0  0  0  0  0  0  0
    7.7358   -0.8880    0.2256 O   0  0  0  0  0  0  0  0  0  0  0  0
   11.2336   -0.0453   -1.7927 C   0  0  0  0  0  0  0  0  0  0  0  0
    8.0781   -2.5821   -0.7246 O   0  0  0  0  0  0  0  0  0  0  0  0
   10.4842   -0.0738   -0.4891 N   0  0  0  0  0  0  0  0  0  0  0  0
   10.6762    1.2105    0.2508 C   0  0  0  0  0  0  0  0  0  0  0  0
   10.2333    2.4000   -0.6476 C   0  0  0  0  0  0  0  0  0  0  0  0
   10.9208   -1.2185    0.3846 C   0  0  0  0  0  0  0  0  0  0  0  0
   10.0406   -2.4698    0.1491 C   0  0  0  0  0  0  0  0  0  0  0  0
    8.3302   -2.1644    0.6505 S   0  0  0  0  0  0  0  0  0  0  0  0
  1  3  1  0  0  0  0
  1  9  1  0  0  0  0
  2 12  1  0  0  0  0
  3  5  1  0  0  0  0
  4 12  2  0  0  0  0
  5  7  1  0  0  0  0
  6 12  2  0  0  0  0
  7  8  1  0  0  0  0
  7 10  1  0  0  0  0
  8  9  1  0  0  0  0
 10 11  1  0  0  0  0
 11 12  1  0  0  0  0
M  END
>  <CHROM.1>
-92.10927446,-64.70221558,-157.50521972,9.45373580,-0.67885523,-0.35532559
1.06101343,0.13764089,-0.37192089

>  <Name>
ligand

>  <RI>
0

>  <Rbt.Current_Directory>
/home/itssahil/PROJECTS/Mol_Feturizer/New_Systems/rnas/2HO6

>  <Rbt.Executable>
rbdock ($Id: //depot/dev/client3/rdock/2013.1/src/exe/rbdock.cxx#4 $)

>  <Rbt.Library>
libRbt.so (2013.1, Build901 2013/11/27)

>  <Rbt.Parameter_File>
/export/apps/rDock/src/rDock_2013.1_src/data/scripts/dock_solv.prm

>  <Rbt.Receptor>
prm/blind_docking_40.prm

>  <SCORE>
-20.0317

>  <SCORE.INTER>
-19.3708

>  <SCORE.INTER.CONST>
1

>  <SCORE.INTER.POLAR>
-2.21438

>  <SCORE.INTER.ROT>
3

>  <SCORE.INTER.SOLV>
9.4508

>  <SCORE.INTER.VDW>
-14.2828

>  <SCORE.INTER.norm>
-1.61423

>  <SCORE.INTRA>
-0.66092

>  <SCORE.INTRA.DIHEDRAL>
1.33691

>  <SCORE.INTRA.DIHEDRAL.0>
1.88407

>  <SCORE.INTRA.POLAR>
0

>  <SCORE.INTRA.POLAR.0>
0

>  <SCORE.INTRA.REPUL>
0

>  <SCORE.INTRA.REPUL.0>
0

>  <SCORE.INTRA.SOLV>
1.12996

>  <SCORE.INTRA.SOLV.lig_0>
-10.2714

>  <SCORE.INTRA.VDW>
-1.89435

>  <SCORE.INTRA.VDW.0>
0.416923

>  <SCORE.INTRA.norm>
-0.0550767

>  <SCORE.RESTR>
0

>  <SCORE.RESTR.CAVITY>
0

>  <SCORE.RESTR.norm>
0

>  <SCORE.SYSTEM>
0

>  <SCORE.SYSTEM.CONST>
0

>  <SCORE.SYSTEM.DIHEDRAL>
0

>  <SCORE.SYSTEM.SOLV>
0

>  <SCORE.SYSTEM.norm>
0

>  <SCORE.heavy>
12

>  <SCORE.norm>
-1.66931

>  <RMSD>
43.060

$$$$
ligand
 OpenBabel11021811433D
libRbt.so/2013.1/901 2013/11/27
 12 12  0  0  0  0  0  0  0  0999 V2000
    9.8434    1.5307   -2.4483 O   0  0  0  0  0  0  0  0  0  0  0  0
    8.7641   -2.3356   -1.0140 O   0  0  0  0  0  0  0  0  0  0  0  0
   11.0023    0.6567   -2.6020 C   0  0  0  0  0  0  0  0  0  0  0  0
    7.4706   -3.2314    0.8843 O   0  0  0  0  0  0  0  0  0  0  0  0
   11.2909   -0.1304   -1.2907 C   0  0  0  0  0  0  0  0  0  0  0  0
    7.5448   -1.3883    0.1861 O   0  0  0  0  0  0  0  0  0  0  0  0
   10.2632    0.2422   -0.2578 N   0  0  0  0  0  0  0  0  0  0  0  0
   10.2814    1.7163   -0.0124 C   0  0  0  0  0  0  0  0  0  0  0  0
   10.0563    2.4702   -1.3537 C   0  0  0  0  0  0  0  0  0  0  0  0
   10.4879   -0.4792    1.0434 C   0  0  0  0  0  0  0  0  0  0  0  0
    9.1784   -1.1227    1.5602 C   0  0  0  0  0  0  0  0  0  0  0  0
    8.5814   -2.3892    0.4157 S   0  0  0  0  0  0  0  0  0  0  0  0
  1  3  1  0  0  0  0
  1  9  1  0  0  0  0
  2 12  1  0  0  0  0
  3  5  1  0  0  0  0
  4 12  2  0  0  0  0
  5  7  1  0  0  0  0
  6 12  2  0  0  0  0
  7  8  1  0  0  0  0
  7 10  1  0  0  0  0
  8  9  1  0  0  0  0
 10 11  1  0  0  0  0
 11 12  1  0  0  0  0
M  END
>  <CHROM.1>
-131.17453461,63.31550518,-32.21147760,9.42538538,-0.59908555,-0.33877656
0.44940497,-1.02815743,-1.56333589

>  <Name>
ligand

>  <RI>
0

>  <Rbt.Current_Directory>
/home/itssahil/PROJECTS/Mol_Feturizer/New_Systems/rnas/2HO6

>  <Rbt.Executable>
rbdock ($Id: //depot/dev/client3/rdock/2013.1/src/exe/rbdock.cxx#4 $)

>  <Rbt.Library>
libRbt.so (2013.1, Build901 2013/11/27)

>  <Rbt.Parameter_File>
/export/apps/rDock/src/rDock_2013.1_src/data/scripts/dock_solv.prm

>  <Rbt.Receptor>
prm/blind_docking_60.prm

>  <SCORE>
-20.5721

>  <SCORE.INTER>
-19.699

>  <SCORE.INTER.CONST>
1

>  <SCORE.INTER.POLAR>
-2.24542

>  <SCORE.INTER.ROT>
3

>  <SCORE.INTER.SOLV>
11.2845

>  <SCORE.INTER.VDW>
-15.0094

>  <SCORE.INTER.norm>
-1.64158

>  <SCORE.INTRA>
-0.873163

>  <SCORE.INTRA.DIHEDRAL>
2.03396

>  <SCORE.INTRA.DIHEDRAL.0>
1.88407

>  <SCORE.INTRA.POLAR>
0

>  <SCORE.INTRA.POLAR.0>
0

>  <SCORE.INTRA.REPUL>
0

>  <SCORE.INTRA.REPUL.0>
0

>  <SCORE.INTRA.SOLV>
0.384631

>  <SCORE.INTRA.SOLV.lig_0>
-10.2714

>  <SCORE.INTRA.VDW>
-2.08246

>  <SCORE.INTRA.VDW.0>
0.416923

>  <SCORE.INTRA.norm>
-0.0727636

>  <SCORE.RESTR>
0

>  <SCORE.RESTR.CAVITY>
0

>  <SCORE.RESTR.norm>
0

>  <SCORE.SYSTEM>
0

>  <SCORE.SYSTEM.CONST>
0

>  <SCORE.SYSTEM.DIHEDRAL>
0

>  <SCORE.SYSTEM.SOLV>
0

>  <SCORE.SYSTEM.norm>
0

>  <SCORE.heavy>
12

>  <SCORE.norm>
-1.71434

>  <RMSD>
43.060

$$$$
ligand
 OpenBabel11021811433D
libRbt.so/2013.1/901 2013/11/27
 12 12  0  0  0  0  0  0  0  0999 V2000
    9.8302    1.5246   -2.4536 O   0  0  0  0  0  0  0  0  0  0  0  0
    8.7726   -2.3215   -1.0061 O   0  0  0  0  0  0  0  0  0  0  0  0
   10.9824    0.6411   -2.6041 C   0  0  0  0  0  0  0  0  0  0  0  0
    7.4734   -3.2212    0.8864 O   0  0  0  0  0  0  0  0  0  0  0  0
   11.2720   -0.1348   -1.2865 C   0  0  0  0  0  0  0  0  0  0  0  0
    7.5458   -1.3778    0.1889 O   0  0  0  0  0  0  0  0  0  0  0  0
   10.2518    0.2550   -0.2525 N   0  0  0  0  0  0  0  0  0  0  0  0
   10.2812    1.7313   -0.0218 C   0  0  0  0  0  0  0  0  0  0  0  0
   10.0547    2.4734   -1.3695 C   0  0  0  0  0  0  0  0  0  0  0  0
   10.4779   -0.4550    1.0548 C   0  0  0  0  0  0  0  0  0  0  0  0
    9.1727   -1.1082    1.5702 C   0  0  0  0  0  0  0  0  0  0  0  0
    8.5840   -2.3760    0.4228 S   0  0  0  0  0  0  0  0  0  0  0  0
  1  3  1  0  0  0  0
  1  9  1  0  0  0  0
  2 12  1  0  0  0  0
  3  5  1  0  0  0  0
  4 12  2  0  0  0  0
  5  7  1  0  0  0  0
  6 12  2  0  0  0  0
  7  8  1  0  0  0  0
  7 10  1  0  0  0  0
  8  9  1  0  0  0  0
 10 11  1  0  0  0  0
 11 12  1  0  0  0  0
M  END
>  <CHROM.1>
-130.04791220,62.68501354,-31.85449031,9.42087029,-0.59096312,-0.33671563
0.44973437,-1.03089513,-1.56704711

>  <Name>
ligand

>  <RI>
0

>  <Rbt.Current_Directory>
/home/itssahil/PROJECTS/Mol_Feturizer/New_Systems/rnas/2HO6

>  <Rbt.Executable>
rbdock ($Id: //depot/dev/client3/rdock/2013.1/src/exe/rbdock.cxx#4 $)

>  <Rbt.Library>
libRbt.so (2013.1, Build901 2013/11/27)

>  <Rbt.Parameter_File>
/export/apps/rDock/src/rDock_2013.1_src/data/scripts/dock_solv.prm

>  <Rbt.Receptor>
prm/blind_docking_20.prm

>  <SCORE>
-20.5433

>  <SCORE.INTER>
-19.6713

>  <SCORE.INTER.CONST>
1

>  <SCORE.INTER.POLAR>
-2.2451

>  <SCORE.INTER.ROT>
3

>  <SCORE.INTER.SOLV>
11.278

>  <SCORE.INTER.VDW>
-14.9898

>  <SCORE.INTER.norm>
-1.63927

>  <SCORE.INTRA>
-0.872004

>  <SCORE.INTRA.DIHEDRAL>
2.06103

>  <SCORE.INTRA.DIHEDRAL.0>
1.88407

>  <SCORE.INTRA.POLAR>
0

>  <SCORE.INTRA.POLAR.0>
0

>  <SCORE.INTRA.REPUL>
0

>  <SCORE.INTRA.REPUL.0>
0

>  <SCORE.INTRA.SOLV>
0.385313

>  <SCORE.INTRA.SOLV.lig_0>
-10.2714

>  <SCORE.INTRA.VDW>
-2.09518

>  <SCORE.INTRA.VDW.0>
0.416923

>  <SCORE.INTRA.norm>
-0.072667

>  <SCORE.RESTR>
0

>  <SCORE.RESTR.CAVITY>
0

>  <SCORE.RESTR.norm>
0

>  <SCORE.SYSTEM>
0

>  <SCORE.SYSTEM.CONST>
0

>  <SCORE.SYSTEM.DIHEDRAL>
0

>  <SCORE.SYSTEM.SOLV>
0

>  <SCORE.SYSTEM.norm>
0

>  <SCORE.heavy>
12

>  <SCORE.norm>
-1.71194

>  <RMSD>
43.062

$$$$
ligand
 OpenBabel11021811433D
libRbt.so/2013.1/901 2013/11/27
 12 12  0  0  0  0  0  0  0  0999 V2000
    9.7019    1.9290   -1.7156 O   0  0  0  0  0  0  0  0  0  0  0  0
    7.5420   -3.3753    0.9102 O   0  0  0  0  0  0  0  0  0  0  0  0
   10.8394    1.4212   -2.4764 C   0  0  0  0  0  0  0  0  0  0  0  0
    7.8663   -1.0402    0.1883 O   0  0  0  0  0  0  0  0  0  0  0  0
   11.3966    0.1111   -1.8477 C   0  0  0  0  0  0  0  0  0  0  0  0
    8.0344   -2.7031   -0.8588 O   0  0  0  0  0  0  0  0  0  0  0  0
   10.5706   -0.2454   -0.6425 N   0  0  0  0  0  0  0  0  0  0  0  0
   10.5856    0.8727    0.3490 C   0  0  0  0  0  0  0  0  0  0  0  0
   10.0862    2.1787   -0.3315 C   0  0  0  0  0  0  0  0  0  0  0  0
   11.0610   -1.5032    0.0221 C   0  0  0  0  0  0  0  0  0  0  0  0
   10.0907   -2.6831   -0.2274 C   0  0  0  0  0  0  0  0  0  0  0  0
    8.4645   -2.3495    0.4898 S   0  0  0  0  0  0  0  0  0  0  0  0
  1  3  1  0  0  0  0
  1  9  1  0  0  0  0
  2 12  1  0  0  0  0
  3  5  1  0  0  0  0
  4 12  2  0  0  0  0
  5  7  1  0  0  0  0
  6 12  2  0  0  0  0
  7  8  1  0  0  0  0
  7 10  1  0  0  0  0
  8  9  1  0  0  0  0
 10 11  1  0  0  0  0
 11 12  1  0  0  0  0
M  END
>  <CHROM.1>
-107.55102241,-62.48412867,-153.99699792,9.51612965,-0.80432740,-0.41291666
1.05209907,0.32372112,-0.20721724

>  <Name>
ligand

>  <RI>
0

>  <Rbt.Current_Directory>
/home/itssahil/PROJECTS/Mol_Feturizer/New_Systems/rnas/2HO6

>  <Rbt.Executable>
rbdock ($Id: //depot/dev/client3/rdock/2013.1/src/exe/rbdock.cxx#4 $)

>  <Rbt.Library>
libRbt.so (2013.1, Build901 2013/11/27)

>  <Rbt.Parameter_File>
/export/apps/rDock/src/rDock_2013.1_src/data/scripts/dock_solv.prm

>  <Rbt.Receptor>
prm/blind_docking_20.prm

>  <SCORE>
-19.4147

>  <SCORE.INTER>
-19.014

>  <SCORE.INTER.CONST>
1

>  <SCORE.INTER.POLAR>
-2.18105

>  <SCORE.INTER.ROT>
3

>  <SCORE.INTER.SOLV>
9.23016

>  <SCORE.INTER.VDW>
-14.0826

>  <SCORE.INTER.norm>
-1.5845

>  <SCORE.INTRA>
-0.400643

>  <SCORE.INTRA.DIHEDRAL>
2.06247

>  <SCORE.INTRA.DIHEDRAL.0>
1.88407

>  <SCORE.INTRA.POLAR>
0

>  <SCORE.INTRA.POLAR.0>
0

>  <SCORE.INTRA.REPUL>
0

>  <SCORE.INTRA.REPUL.0>
0

>  <SCORE.INTRA.SOLV>
1.15529

>  <SCORE.INTRA.SOLV.lig_0>
-10.2714

>  <SCORE.INTRA.VDW>
-2.00952

>  <SCORE.INTRA.VDW.0>
0.416923

>  <SCORE.INTRA.norm>
-0.0333869

>  <SCORE.RESTR>
0

>  <SCORE.RESTR.CAVITY>
0

>  <SCORE.RESTR.norm>
0

>  <SCORE.SYSTEM>
0

>  <SCORE.SYSTEM.CONST>
0

>  <SCORE.SYSTEM.DIHEDRAL>
0

>  <SCORE.SYSTEM.SOLV>
0

>  <SCORE.SYSTEM.norm>
0

>  <SCORE.heavy>
12

>  <SCORE.norm>
-1.61789

>  <RMSD>
43.063

$$$$
ligand
 OpenBabel11021811433D
libRbt.so/2013.1/901 2013/11/27
 12 12  0  0  0  0  0  0  0  0999 V2000
    9.6141    1.9393   -1.9169 O   0  0  0  0  0  0  0  0  0  0  0  0
    7.4441   -3.1566    1.0389 O   0  0  0  0  0  0  0  0  0  0  0  0
   10.7738    1.3477   -2.5771 C   0  0  0  0  0  0  0  0  0  0  0  0
    7.7837   -0.8565    0.2185 O   0  0  0  0  0  0  0  0  0  0  0  0
   11.3299    0.1428   -1.7640 C   0  0  0  0  0  0  0  0  0  0  0  0
    8.0908   -2.5690   -0.7105 O   0  0  0  0  0  0  0  0  0  0  0  0
   10.4803   -0.0573   -0.5392 N   0  0  0  0  0  0  0  0  0  0  0  0
   10.4614    1.1855    0.2908 C   0  0  0  0  0  0  0  0  0  0  0  0
    9.9643    2.3800   -0.5719 C   0  0  0  0  0  0  0  0  0  0  0  0
   10.9682   -1.2063    0.3009 C   0  0  0  0  0  0  0  0  0  0  0  0
   10.0749   -2.4563    0.1128 C   0  0  0  0  0  0  0  0  0  0  0  0
    8.3795   -2.1298    0.6506 S   0  0  0  0  0  0  0  0  0  0  0  0
  1  3  1  0  0  0  0
  1  9  1  0  0  0  0
  2 12  1  0  0  0  0
  3  5  1  0  0  0  0
  4 12  2  0  0  0  0
  5  7  1  0  0  0  0
  6 12  2  0  0  0  0
  7  8  1  0  0  0  0
  7 10  1  0  0  0  0
  8  9  1  0  0  0  0
 10 11  1  0  0  0  0
 11 12  1  0  0  0  0
M  END
>  <CHROM.1>
-103.33400320,-62.20486205,-157.68568657,9.44296655,-0.63750602,-0.34828558
1.07596379,0.22547733,-0.33071270

>  <Name>
ligand

>  <RI>
0

>  <Rbt.Current_Directory>
/home/itssahil/PROJECTS/Mol_Feturizer/New_Systems/rnas/2HO6

>  <Rbt.Executable>
rbdock ($Id: //depot/dev/client3/rdock/2013.1/src/exe/rbdock.cxx#4 $)

>  <Rbt.Library>
libRbt.so (2013.1, Build901 2013/11/27)

>  <Rbt.Parameter_File>
/export/apps/rDock/src/rDock_2013.1_src/data/scripts/dock_solv.prm

>  <Rbt.Receptor>
prm/blind_docking_20.prm

>  <SCORE>
-19.8798

>  <SCORE.INTER>
-19.4148

>  <SCORE.INTER.CONST>
1

>  <SCORE.INTER.POLAR>
-2.21412

>  <SCORE.INTER.ROT>
3

>  <SCORE.INTER.SOLV>
9.51258

>  <SCORE.INTER.VDW>
-14.3337

>  <SCORE.INTER.norm>
-1.6179

>  <SCORE.INTRA>
-0.46497

>  <SCORE.INTRA.DIHEDRAL>
1.89011

>  <SCORE.INTRA.DIHEDRAL.0>
1.88407

>  <SCORE.INTRA.POLAR>
0

>  <SCORE.INTRA.POLAR.0>
0

>  <SCORE.INTRA.REPUL>
0

>  <SCORE.INTRA.REPUL.0>
0

>  <SCORE.INTRA.SOLV>
1.19888

>  <SCORE.INTRA.SOLV.lig_0>
-10.2714

>  <SCORE.INTRA.VDW>
-2.00946

>  <SCORE.INTRA.VDW.0>
0.416923

>  <SCORE.INTRA.norm>
-0.0387475

>  <SCORE.RESTR>
0

>  <SCORE.RESTR.CAVITY>
0

>  <SCORE.RESTR.norm>
0

>  <SCORE.SYSTEM>
0

>  <SCORE.SYSTEM.CONST>
0

>  <SCORE.SYSTEM.DIHEDRAL>
0

>  <SCORE.SYSTEM.SOLV>
0

>  <SCORE.SYSTEM.norm>
0

>  <SCORE.heavy>
12

>  <SCORE.norm>
-1.65665

>  <RMSD>
43.063

$$$$
ligand
 OpenBabel11021811433D
libRbt.so/2013.1/901 2013/11/27
 12 12  0  0  0  0  0  0  0  0999 V2000
    9.8258    1.5367   -2.4267 O   0  0  0  0  0  0  0  0  0  0  0  0
    8.7665   -2.3236   -1.0023 O   0  0  0  0  0  0  0  0  0  0  0  0
   10.9899    0.6691   -2.5786 C   0  0  0  0  0  0  0  0  0  0  0  0
    7.4495   -3.2154    0.8817 O   0  0  0  0  0  0  0  0  0  0  0  0
   11.2802   -0.1170   -1.2671 C   0  0  0  0  0  0  0  0  0  0  0  0
    7.5440   -1.3708    0.1900 O   0  0  0  0  0  0  0  0  0  0  0  0
   10.2484    0.2494   -0.2361 N   0  0  0  0  0  0  0  0  0  0  0  0
   10.2580    1.7234    0.0101 C   0  0  0  0  0  0  0  0  0  0  0  0
   10.0314    2.4767   -1.3314 C   0  0  0  0  0  0  0  0  0  0  0  0
   10.4744   -0.4714    1.0652 C   0  0  0  0  0  0  0  0  0  0  0  0
    9.1674   -1.1220    1.5793 C   0  0  0  0  0  0  0  0  0  0  0  0
    8.5708   -2.3802    0.4255 S   0  0  0  0  0  0  0  0  0  0  0  0
  1  3  1  0  0  0  0
  1  9  1  0  0  0  0
  2 12  1  0  0  0  0
  3  5  1  0  0  0  0
  4 12  2  0  0  0  0
  5  7  1  0  0  0  0
  6 12  2  0  0  0  0
  7  8  1  0  0  0  0
  7 10  1  0  0  0  0
  8  9  1  0  0  0  0
 10 11  1  0  0  0  0
 11 12  1  0  0  0  0
M  END
>  <CHROM.1>
-131.19165156,62.78398799,-31.32351674,9.41259932,-0.58939887,-0.32315772
0.45131519,-1.02832309,-1.55875938

>  <Name>
ligand

>  <RI>
0

>  <Rbt.Current_Directory>
/home/itssahil/PROJECTS/Mol_Feturizer/New_Systems/rnas/2HO6

>  <Rbt.Executable>
rbdock ($Id: //depot/dev/client3/rdock/2013.1/src/exe/rbdock.cxx#4 $)

>  <Rbt.Library>
libRbt.so (2013.1, Build901 2013/11/27)

>  <Rbt.Parameter_File>
/export/apps/rDock/src/rDock_2013.1_src/data/scripts/dock_solv.prm

>  <Rbt.Receptor>
prm/blind_docking_20.prm

>  <SCORE>
-20.5074

>  <SCORE.INTER>
-19.6267

>  <SCORE.INTER.CONST>
1

>  <SCORE.INTER.POLAR>
-2.24444

>  <SCORE.INTER.ROT>
3

>  <SCORE.INTER.SOLV>
11.3263

>  <SCORE.INTER.VDW>
-14.9784

>  <SCORE.INTER.norm>
-1.63556

>  <SCORE.INTRA>
-0.88077

>  <SCORE.INTRA.DIHEDRAL>
2.02147

>  <SCORE.INTRA.DIHEDRAL.0>
1.88407

>  <SCORE.INTRA.POLAR>
0

>  <SCORE.INTRA.POLAR.0>
0

>  <SCORE.INTRA.REPUL>
0

>  <SCORE.INTRA.REPUL.0>
0

>  <SCORE.INTRA.SOLV>
0.393102

>  <SCORE.INTRA.SOLV.lig_0>
-10.2714

>  <SCORE.INTRA.VDW>
-2.08806

>  <SCORE.INTRA.VDW.0>
0.416923

>  <SCORE.INTRA.norm>
-0.0733975

>  <SCORE.RESTR>
0

>  <SCORE.RESTR.CAVITY>
0

>  <SCORE.RESTR.norm>
0

>  <SCORE.SYSTEM>
0

>  <SCORE.SYSTEM.CONST>
0

>  <SCORE.SYSTEM.DIHEDRAL>
0

>  <SCORE.SYSTEM.SOLV>
0

>  <SCORE.SYSTEM.norm>
0

>  <SCORE.heavy>
12

>  <SCORE.norm>
-1.70895

>  <RMSD>
43.064

$$$$
ligand
 OpenBabel11021811433D
libRbt.so/2013.1/901 2013/11/27
 12 12  0  0  0  0  0  0  0  0999 V2000
    9.6754    1.9246   -1.8503 O   0  0  0  0  0  0  0  0  0  0  0  0
    7.4674   -3.2647    0.9702 O   0  0  0  0  0  0  0  0  0  0  0  0
   10.7798    1.3072   -2.5781 C   0  0  0  0  0  0  0  0  0  0  0  0
    7.8066   -0.9434    0.2114 O   0  0  0  0  0  0  0  0  0  0  0  0
   11.3214    0.0580   -1.8242 C   0  0  0  0  0  0  0  0  0  0  0  0
    8.0692   -2.6291   -0.7784 O   0  0  0  0  0  0  0  0  0  0  0  0
   10.5190   -0.1441   -0.5683 N   0  0  0  0  0  0  0  0  0  0  0  0
   10.5872    1.0736    0.2954 C   0  0  0  0  0  0  0  0  0  0  0  0
   10.1019    2.3116   -0.5109 C   0  0  0  0  0  0  0  0  0  0  0  0
   10.9960   -1.3356    0.2171 C   0  0  0  0  0  0  0  0  0  0  0  0
   10.0773   -2.5604   -0.0104 C   0  0  0  0  0  0  0  0  0  0  0  0
    8.4016   -2.2350    0.5865 S   0  0  0  0  0  0  0  0  0  0  0  0
  1  3  1  0  0  0  0
  1  9  1  0  0  0  0
  2 12  1  0  0  0  0
  3  5  1  0  0  0  0
  4 12  2  0  0  0  0
  5  7  1  0  0  0  0
  6 12  2  0  0  0  0
  7  8  1  0  0  0  0
  7 10  1  0  0  0  0
  8  9  1  0  0  0  0
 10 11  1  0  0  0  0
 11 12  1  0  0  0  0
M  END
>  <CHROM.1>
-101.01543294,-63.08726129,-156.48994364,9.47751224,-0.72229169,-0.38194622
1.06380018,0.24765508,-0.29128204

>  <Name>
ligand

>  <RI>
0

>  <Rbt.Current_Directory>
/home/itssahil/PROJECTS/Mol_Feturizer/New_Systems/rnas/2HO6

>  <Rbt.Executable>
rbdock ($Id: //depot/dev/client3/rdock/2013.1/src/exe/rbdock.cxx#4 $)

>  <Rbt.Library>
libRbt.so (2013.1, Build901 2013/11/27)

>  <Rbt.Parameter_File>
/export/apps/rDock/src/rDock_2013.1_src/data/scripts/dock_solv.prm

>  <Rbt.Receptor>
prm/blind_docking_80.prm

>  <SCORE>
-19.6706

>  <SCORE.INTER>
-19.1596

>  <SCORE.INTER.CONST>
1

>  <SCORE.INTER.POLAR>
-2.20596

>  <SCORE.INTER.ROT>
3

>  <SCORE.INTER.SOLV>
9.36742

>  <SCORE.INTER.VDW>
-14.1423

>  <SCORE.INTER.norm>
-1.59663

>  <SCORE.INTRA>
-0.510959

>  <SCORE.INTRA.DIHEDRAL>
1.79625

>  <SCORE.INTRA.DIHEDRAL.0>
1.88407

>  <SCORE.INTRA.POLAR>
0

>  <SCORE.INTRA.POLAR.0>
0

>  <SCORE.INTRA.REPUL>
0

>  <SCORE.INTRA.REPUL.0>
0

>  <SCORE.INTRA.SOLV>
1.15898

>  <SCORE.INTRA.SOLV.lig_0>
-10.2714

>  <SCORE.INTRA.VDW>
-1.98857

>  <SCORE.INTRA.VDW.0>
0.416923

>  <SCORE.INTRA.norm>
-0.0425799

>  <SCORE.RESTR>
0

>  <SCORE.RESTR.CAVITY>
0

>  <SCORE.RESTR.norm>
0

>  <SCORE.SYSTEM>
0

>  <SCORE.SYSTEM.CONST>
0

>  <SCORE.SYSTEM.DIHEDRAL>
0

>  <SCORE.SYSTEM.SOLV>
0

>  <SCORE.SYSTEM.norm>
0

>  <SCORE.heavy>
12

>  <SCORE.norm>
-1.63921

>  <RMSD>
43.064

$$$$
ligand
 OpenBabel11021811433D
libRbt.so/2013.1/901 2013/11/27
 12 12  0  0  0  0  0  0  0  0999 V2000
    9.7158    1.9589   -2.0350 O   0  0  0  0  0  0  0  0  0  0  0  0
    7.4494   -3.2301    1.0154 O   0  0  0  0  0  0  0  0  0  0  0  0
   10.7581    1.1937   -2.7125 C   0  0  0  0  0  0  0  0  0  0  0  0
    7.6889   -0.9033    0.2358 O   0  0  0  0  0  0  0  0  0  0  0  0
   11.2443    0.0050   -1.8335 C   0  0  0  0  0  0  0  0  0  0  0  0
    8.0743   -2.5842   -0.7213 O   0  0  0  0  0  0  0  0  0  0  0  0
   10.4690   -0.0023   -0.5448 N   0  0  0  0  0  0  0  0  0  0  0  0
   10.6376    1.2979    0.1725 C   0  0  0  0  0  0  0  0  0  0  0  0
   10.2052    2.4660   -0.7586 C   0  0  0  0  0  0  0  0  0  0  0  0
   10.8953   -1.1261    0.3605 C   0  0  0  0  0  0  0  0  0  0  0  0
   10.0491   -2.3979    0.1108 C   0  0  0  0  0  0  0  0  0  0  0  0
    8.3394   -2.1562    0.6481 S   0  0  0  0  0  0  0  0  0  0  0  0
  1  3  1  0  0  0  0
  1  9  1  0  0  0  0
  2 12  1  0  0  0  0
  3  5  1  0  0  0  0
  4 12  2  0  0  0  0
  5  7  1  0  0  0  0
  6 12  2  0  0  0  0
  7  8  1  0  0  0  0
  7 10  1  0  0  0  0
  8  9  1  0  0  0  0
 10 11  1  0  0  0  0
 11 12  1  0  0  0  0
M  END
>  <CHROM.1>
-90.84053509,-68.50556544,-156.08223165,9.45087132,-0.64418958,-0.39288731
1.06945946,0.16196745,-0.37420612

>  <Name>
ligand

>  <RI>
0

>  <Rbt.Current_Directory>
/home/itssahil/PROJECTS/Mol_Feturizer/New_Systems/rnas/2HO6

>  <Rbt.Executable>
rbdock ($Id: //depot/dev/client3/rdock/2013.1/src/exe/rbdock.cxx#4 $)

>  <Rbt.Library>
libRbt.so (2013.1, Build901 2013/11/27)

>  <Rbt.Parameter_File>
/export/apps/rDock/src/rDock_2013.1_src/data/scripts/dock_solv.prm

>  <Rbt.Receptor>
prm/blind_docking_40.prm

>  <SCORE>
-20.0616

>  <SCORE.INTER>
-19.4635

>  <SCORE.INTER.CONST>
1

>  <SCORE.INTER.POLAR>
-2.19695

>  <SCORE.INTER.ROT>
3

>  <SCORE.INTER.SOLV>
9.61685

>  <SCORE.INTER.VDW>
-14.4581

>  <SCORE.INTER.norm>
-1.62196

>  <SCORE.INTRA>
-0.598169

>  <SCORE.INTRA.DIHEDRAL>
1.44332

>  <SCORE.INTRA.DIHEDRAL.0>
1.88407

>  <SCORE.INTRA.POLAR>
0

>  <SCORE.INTRA.POLAR.0>
0

>  <SCORE.INTRA.REPUL>
0

>  <SCORE.INTRA.REPUL.0>
0

>  <SCORE.INTRA.SOLV>
1.03618

>  <SCORE.INTRA.SOLV.lig_0>
-10.2714

>  <SCORE.INTRA.VDW>
-1.83792

>  <SCORE.INTRA.VDW.0>
0.416923

>  <SCORE.INTRA.norm>
-0.0498474

>  <SCORE.RESTR>
0

>  <SCORE.RESTR.CAVITY>
0

>  <SCORE.RESTR.norm>
0

>  <SCORE.SYSTEM>
0

>  <SCORE.SYSTEM.CONST>
0

>  <SCORE.SYSTEM.DIHEDRAL>
0

>  <SCORE.SYSTEM.SOLV>
0

>  <SCORE.SYSTEM.norm>
0

>  <SCORE.heavy>
12

>  <SCORE.norm>
-1.6718

>  <RMSD>
43.065

$$$$
ligand
 OpenBabel11021811433D
libRbt.so/2013.1/901 2013/11/27
 12 12  0  0  0  0  0  0  0  0999 V2000
   13.3913   -3.3180   -3.1384 O   0  0  0  0  0  0  0  0  0  0  0  0
    7.4344   -1.5563    0.1463 O   0  0  0  0  0  0  0  0  0  0  0  0
   12.3220   -2.5555   -3.7756 C   0  0  0  0  0  0  0  0  0  0  0  0
    8.5687    0.0879    1.5917 O   0  0  0  0  0  0  0  0  0  0  0  0
   11.1003   -2.3974   -2.8245 C   0  0  0  0  0  0  0  0  0  0  0  0
    8.7811   -0.2258   -0.3438 O   0  0  0  0  0  0  0  0  0  0  0  0
   11.4059   -3.0726   -1.5158 N   0  0  0  0  0  0  0  0  0  0  0  0
   11.7295   -4.5149   -1.7364 C   0  0  0  0  0  0  0  0  0  0  0  0
   12.9097   -4.6358   -2.7417 C   0  0  0  0  0  0  0  0  0  0  0  0
   10.2594   -2.9649   -0.5473 C   0  0  0  0  0  0  0  0  0  0  0  0
   10.3079   -1.6279    0.2311 C   0  0  0  0  0  0  0  0  0  0  0  0
    8.6577   -1.1397    0.7868 S   0  0  0  0  0  0  0  0  0  0  0  0
  1  3  1  0  0  0  0
  1  9  1  0  0  0  0
  2 12  1  0  0  0  0
  3  5  1  0  0  0  0
  4 12  2  0  0  0  0
  5  7  1  0  0  0  0
  6 12  2  0  0  0  0
  7  8  1  0  0  0  0
  7 10  1  0  0  0  0
  8  9  1  0  0  0  0
 10 11  1  0  0  0  0
 11 12  1  0  0  0  0
M  END
>  <CHROM.1>
-84.77241495,154.07150511,-25.12954265,10.35268281,-2.17281587,-0.94600414
-0.10964634,0.83694567,-0.52419282

>  <Name>
ligand

>  <RI>
0

>  <Rbt.Current_Directory>
/home/itssahil/PROJECTS/Mol_Feturizer/New_Systems/rnas/2HO6

>  <Rbt.Executable>
rbdock ($Id: //depot/dev/client3/rdock/2013.1/src/exe/rbdock.cxx#4 $)

>  <Rbt.Library>
libRbt.so (2013.1, Build901 2013/11/27)

>  <Rbt.Parameter_File>
/export/apps/rDock/src/rDock_2013.1_src/data/scripts/dock_solv.prm

>  <Rbt.Receptor>
prm/blind_docking_60.prm

>  <SCORE>
-11.0677

>  <SCORE.INTER>
-11.5721

>  <SCORE.INTER.CONST>
1

>  <SCORE.INTER.POLAR>
-2.1506

>  <SCORE.INTER.ROT>
3

>  <SCORE.INTER.SOLV>
8.07112

>  <SCORE.INTER.VDW>
-8.83644

>  <SCORE.INTER.norm>
-0.964341

>  <SCORE.INTRA>
0.49014

>  <SCORE.INTRA.DIHEDRAL>
2.97888

>  <SCORE.INTRA.DIHEDRAL.0>
1.88407

>  <SCORE.INTRA.POLAR>
0

>  <SCORE.INTRA.POLAR.0>
0

>  <SCORE.INTRA.REPUL>
0

>  <SCORE.INTRA.REPUL.0>
0

>  <SCORE.INTRA.SOLV>
0.0912067

>  <SCORE.INTRA.SOLV.lig_0>
-10.2714

>  <SCORE.INTRA.VDW>
-1.04491

>  <SCORE.INTRA.VDW.0>
0.416923

>  <SCORE.INTRA.norm>
0.040845

>  <SCORE.RESTR>
0.0142838

>  <SCORE.RESTR.CAVITY>
0.0142838

>  <SCORE.RESTR.norm>
0.00119032

>  <SCORE.SYSTEM>
0

>  <SCORE.SYSTEM.CONST>
0

>  <SCORE.SYSTEM.DIHEDRAL>
0

>  <SCORE.SYSTEM.SOLV>
0

>  <SCORE.SYSTEM.norm>
0

>  <SCORE.heavy>
12

>  <SCORE.norm>
-0.922305

>  <RMSD>
43.078

$$$$
ligand
 OpenBabel11021811433D
libRbt.so/2013.1/901 2013/11/27
 12 12  0  0  0  0  0  0  0  0999 V2000
    9.8432    1.4879   -2.3541 O   0  0  0  0  0  0  0  0  0  0  0  0
    8.6545   -2.5363   -1.1809 O   0  0  0  0  0  0  0  0  0  0  0  0
   11.2144    1.0058   -2.4894 C   0  0  0  0  0  0  0  0  0  0  0  0
    7.3635   -3.3224    0.7671 O   0  0  0  0  0  0  0  0  0  0  0  0
   11.5969    0.0611   -1.3133 C   0  0  0  0  0  0  0  0  0  0  0  0
    7.6785   -1.4782    0.1427 O   0  0  0  0  0  0  0  0  0  0  0  0
   10.4152   -0.0823   -0.3940 N   0  0  0  0  0  0  0  0  0  0  0  0
    9.9837    1.2558    0.1129 C   0  0  0  0  0  0  0  0  0  0  0  0
    9.6741    2.1927   -1.0891 C   0  0  0  0  0  0  0  0  0  0  0  0
   10.7187   -0.9801    0.7747 C   0  0  0  0  0  0  0  0  0  0  0  0
    9.4194   -1.5373    1.4049 C   0  0  0  0  0  0  0  0  0  0  0  0
    8.5591   -2.6361    0.2548 S   0  0  0  0  0  0  0  0  0  0  0  0
  1  3  1  0  0  0  0
  1  9  1  0  0  0  0
  2 12  1  0  0  0  0
  3  5  1  0  0  0  0
  4 12  2  0  0  0  0
  5  7  1  0  0  0  0
  6 12  2  0  0  0  0
  7  8  1  0  0  0  0
  7 10  1  0  0  0  0
  8  9  1  0  0  0  0
 10 11  1  0  0  0  0
 11 12  1  0  0  0  0
M  END
>  <CHROM.1>
-159.04227539,65.75900320,-27.41619386,9.44820711,-0.77859431,-0.39033153
0.88394009,-0.72261629,-0.95951548

>  <Name>
ligand

>  <RI>
0

>  <Rbt.Current_Directory>
/home/itssahil/PROJECTS/Mol_Feturizer/New_Systems/rnas/2HO6

>  <Rbt.Executable>
rbdock ($Id: //depot/dev/client3/rdock/2013.1/src/exe/rbdock.cxx#4 $)

>  <Rbt.Library>
libRbt.so (2013.1, Build901 2013/11/27)

>  <Rbt.Parameter_File>
/export/apps/rDock/src/rDock_2013.1_src/data/scripts/dock_solv.prm

>  <Rbt.Receptor>
prm/blind_docking_40.prm

>  <SCORE>
-19.8295

>  <SCORE.INTER>
-18.766

>  <SCORE.INTER.CONST>
1

>  <SCORE.INTER.POLAR>
-2.24124

>  <SCORE.INTER.ROT>
3

>  <SCORE.INTER.SOLV>
11.0932

>  <SCORE.INTER.VDW>
-14.3376

>  <SCORE.INTER.norm>
-1.56383

>  <SCORE.INTRA>
-1.06351

>  <SCORE.INTRA.DIHEDRAL>
0.553205

>  <SCORE.INTRA.DIHEDRAL.0>
1.88407

>  <SCORE.INTRA.POLAR>
0

>  <SCORE.INTRA.POLAR.0>
0

>  <SCORE.INTRA.REPUL>
0

>  <SCORE.INTRA.REPUL.0>
0

>  <SCORE.INTRA.SOLV>
0.533057

>  <SCORE.INTRA.SOLV.lig_0>
-10.2714

>  <SCORE.INTRA.VDW>
-1.60665

>  <SCORE.INTRA.VDW.0>
0.416923

>  <SCORE.INTRA.norm>
-0.0886262

>  <SCORE.RESTR>
0

>  <SCORE.RESTR.CAVITY>
0

>  <SCORE.RESTR.norm>
0

>  <SCORE.SYSTEM>
0

>  <SCORE.SYSTEM.CONST>
0

>  <SCORE.SYSTEM.DIHEDRAL>
0

>  <SCORE.SYSTEM.SOLV>
0

>  <SCORE.SYSTEM.norm>
0

>  <SCORE.heavy>
12

>  <SCORE.norm>
-1.65246

>  <RMSD>
43.098

$$$$
ligand
 OpenBabel11021811433D
libRbt.so/2013.1/901 2013/11/27
 12 12  0  0  0  0  0  0  0  0999 V2000
    9.8583    1.4343   -2.3976 O   0  0  0  0  0  0  0  0  0  0  0  0
    8.6583   -2.5293   -1.1744 O   0  0  0  0  0  0  0  0  0  0  0  0
   11.2283    0.9434   -2.5108 C   0  0  0  0  0  0  0  0  0  0  0  0
    7.3698   -3.3337    0.7678 O   0  0  0  0  0  0  0  0  0  0  0  0
   11.5984    0.0268   -1.3088 C   0  0  0  0  0  0  0  0  0  0  0  0
    7.6605   -1.4853    0.1442 O   0  0  0  0  0  0  0  0  0  0  0  0
   10.4095   -0.0887   -0.3949 N   0  0  0  0  0  0  0  0  0  0  0  0
    9.9801    1.2634    0.0753 C   0  0  0  0  0  0  0  0  0  0  0  0
    9.6832    2.1712   -1.1518 C   0  0  0  0  0  0  0  0  0  0  0  0
   10.7008   -0.9584    0.7981 C   0  0  0  0  0  0  0  0  0  0  0  0
    9.3961   -1.5183    1.4146 C   0  0  0  0  0  0  0  0  0  0  0  0
    8.5576   -2.6301    0.2609 S   0  0  0  0  0  0  0  0  0  0  0  0
  1  3  1  0  0  0  0
  1  9  1  0  0  0  0
  2 12  1  0  0  0  0
  3  5  1  0  0  0  0
  4 12  2  0  0  0  0
  5  7  1  0  0  0  0
  6 12  2  0  0  0  0
  7  8  1  0  0  0  0
  7 10  1  0  0  0  0
  8  9  1  0  0  0  0
 10 11  1  0  0  0  0
 11 12  1  0  0  0  0
M  END
>  <CHROM.1>
-157.85196297,64.82389500,-28.24180211,9.44667492,-0.78846632,-0.39833225
0.86098109,-0.74588581,-1.00225181

>  <Name>
ligand

>  <RI>
0

>  <Rbt.Current_Directory>
/home/itssahil/PROJECTS/Mol_Feturizer/New_Systems/rnas/2HO6

>  <Rbt.Executable>
rbdock ($Id: //depot/dev/client3/rdock/2013.1/src/exe/rbdock.cxx#4 $)

>  <Rbt.Library>
libRbt.so (2013.1, Build901 2013/11/27)

>  <Rbt.Parameter_File>
/export/apps/rDock/src/rDock_2013.1_src/data/scripts/dock_solv.prm

>  <Rbt.Receptor>
prm/blind_docking_100.prm

>  <SCORE>
-19.8461

>  <SCORE.INTER>
-18.7412

>  <SCORE.INTER.CONST>
1

>  <SCORE.INTER.POLAR>
-2.24297

>  <SCORE.INTER.ROT>
3

>  <SCORE.INTER.SOLV>
11.0753

>  <SCORE.INTER.VDW>
-14.3094

>  <SCORE.INTER.norm>
-1.56177

>  <SCORE.INTRA>
-1.10481

>  <SCORE.INTRA.DIHEDRAL>
0.580378

>  <SCORE.INTRA.DIHEDRAL.0>
1.88407

>  <SCORE.INTRA.POLAR>
0

>  <SCORE.INTRA.POLAR.0>
0

>  <SCORE.INTRA.REPUL>
0

>  <SCORE.INTRA.REPUL.0>
0

>  <SCORE.INTRA.SOLV>
0.520895

>  <SCORE.INTRA.SOLV.lig_0>
-10.2714

>  <SCORE.INTRA.VDW>
-1.65545

>  <SCORE.INTRA.VDW.0>
0.416923

>  <SCORE.INTRA.norm>
-0.0920676

>  <SCORE.RESTR>
0

>  <SCORE.RESTR.CAVITY>
0

>  <SCORE.RESTR.norm>
0

>  <SCORE.SYSTEM>
0

>  <SCORE.SYSTEM.CONST>
0

>  <SCORE.SYSTEM.DIHEDRAL>
0

>  <SCORE.SYSTEM.SOLV>
0

>  <SCORE.SYSTEM.norm>
0

>  <SCORE.heavy>
12

>  <SCORE.norm>
-1.65384

>  <RMSD>
43.105

$$$$
ligand
 OpenBabel11021811433D
libRbt.so/2013.1/901 2013/11/27
 12 12  0  0  0  0  0  0  0  0999 V2000
    9.8706    1.4000   -2.4310 O   0  0  0  0  0  0  0  0  0  0  0  0
    8.6520   -2.5333   -1.1716 O   0  0  0  0  0  0  0  0  0  0  0  0
   11.2699    0.9883   -2.4864 C   0  0  0  0  0  0  0  0  0  0  0  0
    7.3680   -3.3246    0.7789 O   0  0  0  0  0  0  0  0  0  0  0  0
   11.6390    0.0858   -1.2734 C   0  0  0  0  0  0  0  0  0  0  0  0
    7.6620   -1.4801    0.1454 O   0  0  0  0  0  0  0  0  0  0  0  0
   10.4202   -0.1029   -0.4127 N   0  0  0  0  0  0  0  0  0  0  0  0
    9.8948    1.2195    0.0442 C   0  0  0  0  0  0  0  0  0  0  0  0
    9.6001    2.1174   -1.1908 C   0  0  0  0  0  0  0  0  0  0  0  0
   10.7085   -0.9627    0.7881 C   0  0  0  0  0  0  0  0  0  0  0  0
    9.4018   -1.5121    1.4099 C   0  0  0  0  0  0  0  0  0  0  0  0
    8.5561   -2.6269    0.2645 S   0  0  0  0  0  0  0  0  0  0  0  0
  1  3  1  0  0  0  0
  1  9  1  0  0  0  0
  2 12  1  0  0  0  0
  3  5  1  0  0  0  0
  4 12  2  0  0  0  0
  5  7  1  0  0  0  0
  6 12  2  0  0  0  0
  7  8  1  0  0  0  0
  7 10  1  0  0  0  0
  8  9  1  0  0  0  0
 10 11  1  0  0  0  0
 11 12  1  0  0  0  0
M  END
>  <CHROM.1>
-162.21249408,64.63821058,-28.43604549,9.44241411,-0.79035753,-0.40233721
0.92694138,-0.64169812,-0.90479108

>  <Name>
ligand

>  <RI>
0

>  <Rbt.Current_Directory>
/home/itssahil/PROJECTS/Mol_Feturizer/New_Systems/rnas/2HO6

>  <Rbt.Executable>
rbdock ($Id: //depot/dev/client3/rdock/2013.1/src/exe/rbdock.cxx#4 $)

>  <Rbt.Library>
libRbt.so (2013.1, Build901 2013/11/27)

>  <Rbt.Parameter_File>
/export/apps/rDock/src/rDock_2013.1_src/data/scripts/dock_solv.prm

>  <Rbt.Receptor>
prm/blind_docking_40.prm

>  <SCORE>
-19.6712

>  <SCORE.INTER>
-18.5961

>  <SCORE.INTER.CONST>
1

>  <SCORE.INTER.POLAR>
-2.24267

>  <SCORE.INTER.ROT>
3

>  <SCORE.INTER.SOLV>
11.0603

>  <SCORE.INTER.VDW>
-14.2086

>  <SCORE.INTER.norm>
-1.54968

>  <SCORE.INTRA>
-1.07502

>  <SCORE.INTRA.DIHEDRAL>
0.347303

>  <SCORE.INTRA.DIHEDRAL.0>
1.88407

>  <SCORE.INTRA.POLAR>
0

>  <SCORE.INTRA.POLAR.0>
0

>  <SCORE.INTRA.REPUL>
0

>  <SCORE.INTRA.REPUL.0>
0

>  <SCORE.INTRA.SOLV>
0.540434

>  <SCORE.INTRA.SOLV.lig_0>
-10.2714

>  <SCORE.INTRA.VDW>
-1.51889

>  <SCORE.INTRA.VDW.0>
0.416923

>  <SCORE.INTRA.norm>
-0.0895853

>  <SCORE.RESTR>
0

>  <SCORE.RESTR.CAVITY>
0

>  <SCORE.RESTR.norm>
0

>  <SCORE.SYSTEM>
0

>  <SCORE.SYSTEM.CONST>
0

>  <SCORE.SYSTEM.DIHEDRAL>
0

>  <SCORE.SYSTEM.SOLV>
0

>  <SCORE.SYSTEM.norm>
0

>  <SCORE.heavy>
12

>  <SCORE.norm>
-1.63926

>  <RMSD>
43.112

$$$$
ligand
 OpenBabel11021811433D
libRbt.so/2013.1/901 2013/11/27
 12 12  0  0  0  0  0  0  0  0999 V2000
    9.0871   -2.0857   -3.0508 O   0  0  0  0  0  0  0  0  0  0  0  0
    8.6102    1.0254   -1.3097 O   0  0  0  0  0  0  0  0  0  0  0  0
   10.3730   -2.5698   -2.5583 C   0  0  0  0  0  0  0  0  0  0  0  0
    9.7364    2.5590    0.2585 O   0  0  0  0  0  0  0  0  0  0  0  0
   11.4113   -1.4141   -2.4665 C   0  0  0  0  0  0  0  0  0  0  0  0
    9.0886    2.9032   -1.5724 O   0  0  0  0  0  0  0  0  0  0  0  0
   10.7583   -0.1314   -2.9025 N   0  0  0  0  0  0  0  0  0  0  0  0
   10.2260   -0.2637   -4.2927 C   0  0  0  0  0  0  0  0  0  0  0  0
    9.2443   -1.4677   -4.3619 C   0  0  0  0  0  0  0  0  0  0  0  0
   11.7116    1.0315   -2.8458 C   0  0  0  0  0  0  0  0  0  0  0  0
   11.0476    2.2686   -2.1944 C   0  0  0  0  0  0  0  0  0  0  0  0
    9.7993    1.7734   -0.9832 S   0  0  0  0  0  0  0  0  0  0  0  0
  1  3  1  0  0  0  0
  1  9  1  0  0  0  0
  2 12  1  0  0  0  0
  3  5  1  0  0  0  0
  4 12  2  0  0  0  0
  5  7  1  0  0  0  0
  6 12  2  0  0  0  0
  7  8  1  0  0  0  0
  7 10  1  0  0  0  0
  8  9  1  0  0  0  0
 10 11  1  0  0  0  0
 11 12  1  0  0  0  0
M  END
>  <CHROM.1>
-134.93858429,29.98711586,-62.51632285,10.02495005,0.47142717,-2.19095192
1.48133547,-0.52883260,-2.63157689

>  <Name>
ligand

>  <RI>
0

>  <Rbt.Current_Directory>
/home/itssahil/PROJECTS/Mol_Feturizer/New_Systems/rnas/2HO6

>  <Rbt.Executable>
rbdock ($Id: //depot/dev/client3/rdock/2013.1/src/exe/rbdock.cxx#4 $)

>  <Rbt.Library>
libRbt.so (2013.1, Build901 2013/11/27)

>  <Rbt.Parameter_File>
/export/apps/rDock/src/rDock_2013.1_src/data/scripts/dock_solv.prm

>  <Rbt.Receptor>
prm/blind_docking_40.prm

>  <SCORE>
-18.3668

>  <SCORE.INTER>
-18.7817

>  <SCORE.INTER.CONST>
1

>  <SCORE.INTER.POLAR>
-2.63842

>  <SCORE.INTER.ROT>
3

>  <SCORE.INTER.SOLV>
15.2657

>  <SCORE.INTER.VDW>
-14.415

>  <SCORE.INTER.norm>
-1.56514

>  <SCORE.INTRA>
0.414868

>  <SCORE.INTRA.DIHEDRAL>
4.66347

>  <SCORE.INTRA.DIHEDRAL.0>
1.88407

>  <SCORE.INTRA.POLAR>
0

>  <SCORE.INTRA.POLAR.0>
0

>  <SCORE.INTRA.REPUL>
0

>  <SCORE.INTRA.REPUL.0>
0

>  <SCORE.INTRA.SOLV>
0.244251

>  <SCORE.INTRA.SOLV.lig_0>
-10.2714

>  <SCORE.INTRA.VDW>
-2.03899

>  <SCORE.INTRA.VDW.0>
0.416923

>  <SCORE.INTRA.norm>
0.0345723

>  <SCORE.RESTR>
0

>  <SCORE.RESTR.CAVITY>
0

>  <SCORE.RESTR.norm>
0

>  <SCORE.SYSTEM>
0

>  <SCORE.SYSTEM.CONST>
0

>  <SCORE.SYSTEM.DIHEDRAL>
0

>  <SCORE.SYSTEM.SOLV>
0

>  <SCORE.SYSTEM.norm>
0

>  <SCORE.heavy>
12

>  <SCORE.norm>
-1.53057

>  <RMSD>
43.125

$$$$
ligand
 OpenBabel11021811433D
libRbt.so/2013.1/901 2013/11/27
 12 12  0  0  0  0  0  0  0  0999 V2000
    9.0648   -2.0734   -3.1061 O   0  0  0  0  0  0  0  0  0  0  0  0
    8.6511    0.9167   -1.1803 O   0  0  0  0  0  0  0  0  0  0  0  0
   10.3351   -2.5585   -2.5753 C   0  0  0  0  0  0  0  0  0  0  0  0
    9.7094    2.5532    0.3301 O   0  0  0  0  0  0  0  0  0  0  0  0
   11.3689   -1.4022   -2.4463 C   0  0  0  0  0  0  0  0  0  0  0  0
    9.0233    2.8095   -1.5012 O   0  0  0  0  0  0  0  0  0  0  0  0
   10.7287   -0.1183   -2.8976 N   0  0  0  0  0  0  0  0  0  0  0  0
   10.2406   -0.2455   -4.3044 C   0  0  0  0  0  0  0  0  0  0  0  0
    9.2627   -1.4501   -4.4092 C   0  0  0  0  0  0  0  0  0  0  0  0
   11.6787    1.0451   -2.8064 C   0  0  0  0  0  0  0  0  0  0  0  0
   11.0070    2.2646   -2.1301 C   0  0  0  0  0  0  0  0  0  0  0  0
    9.8013    1.7371   -0.8899 S   0  0  0  0  0  0  0  0  0  0  0  0
  1  3  1  0  0  0  0
  1  9  1  0  0  0  0
  2 12  1  0  0  0  0
  3  5  1  0  0  0  0
  4 12  2  0  0  0  0
  5  7  1  0  0  0  0
  6 12  2  0  0  0  0
  7  8  1  0  0  0  0
  7 10  1  0  0  0  0
  8  9  1  0  0  0  0
 10 11  1  0  0  0  0
 11 12  1  0  0  0  0
M  END
>  <CHROM.1>
-133.12446764,32.38213719,-59.63427880,10.00832972,0.45520491,-2.15388418
1.48021915,-0.59483087,-2.60478632

>  <Name>
ligand

>  <RI>
0

>  <Rbt.Current_Directory>
/home/itssahil/PROJECTS/Mol_Feturizer/New_Systems/rnas/2HO6

>  <Rbt.Executable>
rbdock ($Id: //depot/dev/client3/rdock/2013.1/src/exe/rbdock.cxx#4 $)

>  <Rbt.Library>
libRbt.so (2013.1, Build901 2013/11/27)

>  <Rbt.Parameter_File>
/export/apps/rDock/src/rDock_2013.1_src/data/scripts/dock_solv.prm

>  <Rbt.Receptor>
prm/blind_docking_20.prm

>  <SCORE>
-18.321

>  <SCORE.INTER>
-18.5608

>  <SCORE.INTER.CONST>
1

>  <SCORE.INTER.POLAR>
-2.6822

>  <SCORE.INTER.ROT>
3

>  <SCORE.INTER.SOLV>
15.2585

>  <SCORE.INTER.VDW>
-14.1194

>  <SCORE.INTER.norm>
-1.54673

>  <SCORE.INTRA>
0.239854

>  <SCORE.INTRA.DIHEDRAL>
4.38873

>  <SCORE.INTRA.DIHEDRAL.0>
1.88407

>  <SCORE.INTRA.POLAR>
0

>  <SCORE.INTRA.POLAR.0>
0

>  <SCORE.INTRA.REPUL>
0

>  <SCORE.INTRA.REPUL.0>
0

>  <SCORE.INTRA.SOLV>
0.235878

>  <SCORE.INTRA.SOLV.lig_0>
-10.2714

>  <SCORE.INTRA.VDW>
-2.07245

>  <SCORE.INTRA.VDW.0>
0.416923

>  <SCORE.INTRA.norm>
0.0199878

>  <SCORE.RESTR>
0

>  <SCORE.RESTR.CAVITY>
0

>  <SCORE.RESTR.norm>
0

>  <SCORE.SYSTEM>
0

>  <SCORE.SYSTEM.CONST>
0

>  <SCORE.SYSTEM.DIHEDRAL>
0

>  <SCORE.SYSTEM.SOLV>
0

>  <SCORE.SYSTEM.norm>
0

>  <SCORE.heavy>
12

>  <SCORE.norm>
-1.52675

>  <RMSD>
43.134

$$$$
ligand
 OpenBabel11021811433D
libRbt.so/2013.1/901 2013/11/27
 12 12  0  0  0  0  0  0  0  0999 V2000
    9.2389   -0.2581   -3.3926 O   0  0  0  0  0  0  0  0  0  0  0  0
    8.8207   -0.0660    2.3655 O   0  0  0  0  0  0  0  0  0  0  0  0
    9.7405   -1.5998   -3.6735 C   0  0  0  0  0  0  0  0  0  0  0  0
    8.1306   -0.8128    0.1193 O   0  0  0  0  0  0  0  0  0  0  0  0
   10.5973   -2.1388   -2.4914 C   0  0  0  0  0  0  0  0  0  0  0  0
    8.5325   -1.8899    1.7219 O   0  0  0  0  0  0  0  0  0  0  0  0
   10.6326   -1.1055   -1.3991 N   0  0  0  0  0  0  0  0  0  0  0  0
   11.1856    0.1825   -1.9175 C   0  0  0  0  0  0  0  0  0  0  0  0
   10.3459    0.6559   -3.1377 C   0  0  0  0  0  0  0  0  0  0  0  0
   11.4542   -1.5595   -0.2231 C   0  0  0  0  0  0  0  0  0  0  0  0
   10.5551   -1.9013    0.9896 C   0  0  0  0  0  0  0  0  0  0  0  0
    9.1889   -0.7256    1.1368 S   0  0  0  0  0  0  0  0  0  0  0  0
  1  3  1  0  0  0  0
  1  9  1  0  0  0  0
  2 12  1  0  0  0  0
  3  5  1  0  0  0  0
  4 12  2  0  0  0  0
  5  7  1  0  0  0  0
  6 12  2  0  0  0  0
  7  8  1  0  0  0  0
  7 10  1  0  0  0  0
  8  9  1  0  0  0  0
 10 11  1  0  0  0  0
 11 12  1  0  0  0  0
M  END
>  <CHROM.1>
-108.10274973,-39.13281463,-131.62382774,9.75712157,-0.90822348,-0.60112868
1.27526869,0.53670726,-1.34973630

>  <Name>
ligand

>  <RI>
0

>  <Rbt.Current_Directory>
/home/itssahil/PROJECTS/Mol_Feturizer/New_Systems/rnas/2HO6

>  <Rbt.Executable>
rbdock ($Id: //depot/dev/client3/rdock/2013.1/src/exe/rbdock.cxx#4 $)

>  <Rbt.Library>
libRbt.so (2013.1, Build901 2013/11/27)

>  <Rbt.Parameter_File>
/export/apps/rDock/src/rDock_2013.1_src/data/scripts/dock_solv.prm

>  <Rbt.Receptor>
prm/blind_docking_100.prm

>  <SCORE>
-13.0454

>  <SCORE.INTER>
-13.3103

>  <SCORE.INTER.CONST>
1

>  <SCORE.INTER.POLAR>
-2.67754

>  <SCORE.INTER.ROT>
3

>  <SCORE.INTER.SOLV>
11.5291

>  <SCORE.INTER.VDW>
-9.39145

>  <SCORE.INTER.norm>
-1.10919

>  <SCORE.INTRA>
0.264927

>  <SCORE.INTRA.DIHEDRAL>
3.59302

>  <SCORE.INTRA.DIHEDRAL.0>
1.88407

>  <SCORE.INTRA.POLAR>
0

>  <SCORE.INTRA.POLAR.0>
0

>  <SCORE.INTRA.REPUL>
0

>  <SCORE.INTRA.REPUL.0>
0

>  <SCORE.INTRA.SOLV>
1.12265

>  <SCORE.INTRA.SOLV.lig_0>
-10.2714

>  <SCORE.INTRA.VDW>
-2.09291

>  <SCORE.INTRA.VDW.0>
0.416923

>  <SCORE.INTRA.norm>
0.0220773

>  <SCORE.RESTR>
0

>  <SCORE.RESTR.CAVITY>
0

>  <SCORE.RESTR.norm>
0

>  <SCORE.SYSTEM>
0

>  <SCORE.SYSTEM.CONST>
0

>  <SCORE.SYSTEM.DIHEDRAL>
0

>  <SCORE.SYSTEM.SOLV>
0

>  <SCORE.SYSTEM.norm>
0

>  <SCORE.heavy>
12

>  <SCORE.norm>
-1.08711

>  <RMSD>
43.147

$$$$
ligand
 OpenBabel11021811433D
libRbt.so/2013.1/901 2013/11/27
 12 12  0  0  0  0  0  0  0  0999 V2000
    9.9246    1.3086   -2.3824 O   0  0  0  0  0  0  0  0  0  0  0  0
    8.7345   -2.4828   -1.2037 O   0  0  0  0  0  0  0  0  0  0  0  0
   11.2329    0.6626   -2.4249 C   0  0  0  0  0  0  0  0  0  0  0  0
    7.4737   -3.5856    0.6056 O   0  0  0  0  0  0  0  0  0  0  0  0
   11.4905   -0.1711   -1.1362 C   0  0  0  0  0  0  0  0  0  0  0  0
    7.5112   -1.6810    0.0943 O   0  0  0  0  0  0  0  0  0  0  0  0
   10.2894   -0.0691   -0.2368 N   0  0  0  0  0  0  0  0  0  0  0  0
   10.0083    1.3602    0.0975 C   0  0  0  0  0  0  0  0  0  0  0  0
    9.8225    2.1748   -1.2140 C   0  0  0  0  0  0  0  0  0  0  0  0
   10.4740   -0.8485    1.0370 C   0  0  0  0  0  0  0  0  0  0  0  0
    9.1529   -1.5256    1.4755 C   0  0  0  0  0  0  0  0  0  0  0  0
    8.5661   -2.6817    0.2149 S   0  0  0  0  0  0  0  0  0  0  0  0
  1  3  1  0  0  0  0
  1  9  1  0  0  0  0
  2 12  1  0  0  0  0
  3  5  1  0  0  0  0
  4 12  2  0  0  0  0
  5  7  1  0  0  0  0
  6 12  2  0  0  0  0
  7  8  1  0  0  0  0
  7 10  1  0  0  0  0
  8  9  1  0  0  0  0
 10 11  1  0  0  0  0
 11 12  1  0  0  0  0
M  END
>  <CHROM.1>
-142.51775085,60.48315331,-34.22654401,9.41812263,-0.85887243,-0.37572762
0.51806079,-0.98478222,-1.41068980

>  <Name>
ligand

>  <RI>
0

>  <Rbt.Current_Directory>
/home/itssahil/PROJECTS/Mol_Feturizer/New_Systems/rnas/2HO6

>  <Rbt.Executable>
rbdock ($Id: //depot/dev/client3/rdock/2013.1/src/exe/rbdock.cxx#4 $)

>  <Rbt.Library>
libRbt.so (2013.1, Build901 2013/11/27)

>  <Rbt.Parameter_File>
/export/apps/rDock/src/rDock_2013.1_src/data/scripts/dock_solv.prm

>  <Rbt.Receptor>
prm/blind_docking_80.prm

>  <SCORE>
-20.098

>  <SCORE.INTER>
-19.0315

>  <SCORE.INTER.CONST>
1

>  <SCORE.INTER.POLAR>
-2.24216

>  <SCORE.INTER.ROT>
3

>  <SCORE.INTER.SOLV>
11.1736

>  <SCORE.INTER.VDW>
-14.5383

>  <SCORE.INTER.norm>
-1.58596

>  <SCORE.INTRA>
-1.06649

>  <SCORE.INTRA.DIHEDRAL>
1.42346

>  <SCORE.INTRA.DIHEDRAL.0>
1.88407

>  <SCORE.INTRA.POLAR>
0

>  <SCORE.INTRA.POLAR.0>
0

>  <SCORE.INTRA.REPUL>
0

>  <SCORE.INTRA.REPUL.0>
0

>  <SCORE.INTRA.SOLV>
0.400943

>  <SCORE.INTRA.SOLV.lig_0>
-10.2714

>  <SCORE.INTRA.VDW>
-1.97869

>  <SCORE.INTRA.VDW.0>
0.416923

>  <SCORE.INTRA.norm>
-0.0888738

>  <SCORE.RESTR>
0

>  <SCORE.RESTR.CAVITY>
0

>  <SCORE.RESTR.norm>
0

>  <SCORE.SYSTEM>
0

>  <SCORE.SYSTEM.CONST>
0

>  <SCORE.SYSTEM.DIHEDRAL>
0

>  <SCORE.SYSTEM.SOLV>
0

>  <SCORE.SYSTEM.norm>
0

>  <SCORE.heavy>
12

>  <SCORE.norm>
-1.67483

>  <RMSD>
43.148

$$$$
ligand
 OpenBabel11021811433D
libRbt.so/2013.1/901 2013/11/27
 12 12  0  0  0  0  0  0  0  0999 V2000
    8.1969   -2.5694   -0.7761 O   0  0  0  0  0  0  0  0  0  0  0  0
   10.4150    2.8214   -2.3472 O   0  0  0  0  0  0  0  0  0  0  0  0
    8.0400   -2.2936    0.6486 C   0  0  0  0  0  0  0  0  0  0  0  0
    8.8780    0.9580   -1.8524 O   0  0  0  0  0  0  0  0  0  0  0  0
    9.1422   -1.3198    1.1576 C   0  0  0  0  0  0  0  0  0  0  0  0
    9.2081    2.6080   -0.8234 O   0  0  0  0  0  0  0  0  0  0  0  0
   10.0336   -0.9420    0.0067 N   0  0  0  0  0  0  0  0  0  0  0  0
   10.6394   -2.1630   -0.6062 C   0  0  0  0  0  0  0  0  0  0  0  0
    9.5116   -3.1410   -1.0419 C   0  0  0  0  0  0  0  0  0  0  0  0
   11.1312   -0.0042    0.4309 C   0  0  0  0  0  0  0  0  0  0  0  0
   10.7395    1.4704    0.1705 C   0  0  0  0  0  0  0  0  0  0  0  0
   10.1082    1.6877   -1.5101 S   0  0  0  0  0  0  0  0  0  0  0  0
  1  3  1  0  0  0  0
  1  9  1  0  0  0  0
  2 12  1  0  0  0  0
  3  5  1  0  0  0  0
  4 12  2  0  0  0  0
  5  7  1  0  0  0  0
  6 12  2  0  0  0  0
  7  8  1  0  0  0  0
  7 10  1  0  0  0  0
  8  9  1  0  0  0  0
 10 11  1  0  0  0  0
 11 12  1  0  0  0  0
M  END
>  <CHROM.1>
-95.51951333,-48.92181083,-139.91477203,9.69080287,-0.01295246,-0.67164574
1.85092884,0.78431137,2.65827775

>  <Name>
ligand

>  <RI>
0

>  <Rbt.Current_Directory>
/home/itssahil/PROJECTS/Mol_Feturizer/New_Systems/rnas/2HO6

>  <Rbt.Executable>
rbdock ($Id: //depot/dev/client3/rdock/2013.1/src/exe/rbdock.cxx#4 $)

>  <Rbt.Library>
libRbt.so (2013.1, Build901 2013/11/27)

>  <Rbt.Parameter_File>
/export/apps/rDock/src/rDock_2013.1_src/data/scripts/dock_solv.prm

>  <Rbt.Receptor>
prm/blind_docking_40.prm

>  <SCORE>
-20.8574

>  <SCORE.INTER>
-20.3867

>  <SCORE.INTER.CONST>
1

>  <SCORE.INTER.POLAR>
-2.67845

>  <SCORE.INTER.ROT>
3

>  <SCORE.INTER.SOLV>
11.2002

>  <SCORE.INTER.VDW>
-13.9963

>  <SCORE.INTER.norm>
-1.69889

>  <SCORE.INTRA>
-0.470768

>  <SCORE.INTRA.DIHEDRAL>
1.92869

>  <SCORE.INTRA.DIHEDRAL.0>
1.88407

>  <SCORE.INTRA.POLAR>
0

>  <SCORE.INTRA.POLAR.0>
0

>  <SCORE.INTRA.REPUL>
0

>  <SCORE.INTRA.REPUL.0>
0

>  <SCORE.INTRA.SOLV>
1.16861

>  <SCORE.INTRA.SOLV.lig_0>
-10.2714

>  <SCORE.INTRA.VDW>
-2.01942

>  <SCORE.INTRA.VDW.0>
0.416923

>  <SCORE.INTRA.norm>
-0.0392306

>  <SCORE.RESTR>
0

>  <SCORE.RESTR.CAVITY>
0

>  <SCORE.RESTR.norm>
0

>  <SCORE.SYSTEM>
0

>  <SCORE.SYSTEM.CONST>
0

>  <SCORE.SYSTEM.DIHEDRAL>
0

>  <SCORE.SYSTEM.SOLV>
0

>  <SCORE.SYSTEM.norm>
0

>  <SCORE.heavy>
12

>  <SCORE.norm>
-1.73812

>  <RMSD>
43.162

$$$$
ligand
 OpenBabel11021811433D
libRbt.so/2013.1/901 2013/11/27
 12 12  0  0  0  0  0  0  0  0999 V2000
    8.9062   -3.1439   -1.0108 O   0  0  0  0  0  0  0  0  0  0  0  0
    8.7805    1.0362   -1.8314 O   0  0  0  0  0  0  0  0  0  0  0  0
    8.1329   -3.0761    0.2254 C   0  0  0  0  0  0  0  0  0  0  0  0
   10.0408    3.1415   -1.5893 O   0  0  0  0  0  0  0  0  0  0  0  0
    8.5435   -1.8410    1.0786 C   0  0  0  0  0  0  0  0  0  0  0  0
   10.7129    1.3189   -1.9305 O   0  0  0  0  0  0  0  0  0  0  0  0
    9.6136   -1.0749    0.3506 N   0  0  0  0  0  0  0  0  0  0  0  0
   10.7915   -1.9540    0.0799 C   0  0  0  0  0  0  0  0  0  0  0  0
   10.3325   -3.2089   -0.7157 C   0  0  0  0  0  0  0  0  0  0  0  0
   10.0651    0.1332    1.1257 C   0  0  0  0  0  0  0  0  0  0  0  0
   10.8016    1.1419    0.2114 C   0  0  0  0  0  0  0  0  0  0  0  0
    9.6824    1.8285   -1.0320 S   0  0  0  0  0  0  0  0  0  0  0  0
  1  3  1  0  0  0  0
  1  9  1  0  0  0  0
  2 12  1  0  0  0  0
  3  5  1  0  0  0  0
  4 12  2  0  0  0  0
  5  7  1  0  0  0  0
  6 12  2  0  0  0  0
  7  8  1  0  0  0  0
  7 10  1  0  0  0  0
  8  9  1  0  0  0  0
 10 11  1  0  0  0  0
 11 12  1  0  0  0  0
M  END
>  <CHROM.1>
-161.74930812,65.19602534,-46.83913494,9.69497376,-0.21775593,-0.52432606
1.97797700,1.18346493,2.50797558

>  <Name>
ligand

>  <RI>
0

>  <Rbt.Current_Directory>
/home/itssahil/PROJECTS/Mol_Feturizer/New_Systems/rnas/2HO6

>  <Rbt.Executable>
rbdock ($Id: //depot/dev/client3/rdock/2013.1/src/exe/rbdock.cxx#4 $)

>  <Rbt.Library>
libRbt.so (2013.1, Build901 2013/11/27)

>  <Rbt.Parameter_File>
/export/apps/rDock/src/rDock_2013.1_src/data/scripts/dock_solv.prm

>  <Rbt.Receptor>
prm/blind_docking_20.prm

>  <SCORE>
-16.0535

>  <SCORE.INTER>
-15.0065

>  <SCORE.INTER.CONST>
1

>  <SCORE.INTER.POLAR>
-1.34164

>  <SCORE.INTER.ROT>
3

>  <SCORE.INTER.SOLV>
8.94884

>  <SCORE.INTER.VDW>
-14.1151

>  <SCORE.INTER.norm>
-1.25054

>  <SCORE.INTRA>
-1.04699

>  <SCORE.INTRA.DIHEDRAL>
0.40402

>  <SCORE.INTRA.DIHEDRAL.0>
1.88407

>  <SCORE.INTRA.POLAR>
0

>  <SCORE.INTRA.POLAR.0>
0

>  <SCORE.INTRA.REPUL>
0

>  <SCORE.INTRA.REPUL.0>
0

>  <SCORE.INTRA.SOLV>
0.378951

>  <SCORE.INTRA.SOLV.lig_0>
-10.2714

>  <SCORE.INTRA.VDW>
-1.43848

>  <SCORE.INTRA.VDW.0>
0.416923

>  <SCORE.INTRA.norm>
-0.0872492

>  <SCORE.RESTR>
0

>  <SCORE.RESTR.CAVITY>
0

>  <SCORE.RESTR.norm>
0

>  <SCORE.SYSTEM>
0

>  <SCORE.SYSTEM.CONST>
0

>  <SCORE.SYSTEM.DIHEDRAL>
0

>  <SCORE.SYSTEM.SOLV>
0

>  <SCORE.SYSTEM.norm>
0

>  <SCORE.heavy>
12

>  <SCORE.norm>
-1.33779

>  <RMSD>
43.170

$$$$
ligand
 OpenBabel11021811433D
libRbt.so/2013.1/901 2013/11/27
 12 12  0  0  0  0  0  0  0  0999 V2000
    8.1972   -2.6156   -0.8421 O   0  0  0  0  0  0  0  0  0  0  0  0
   10.4330    2.8250   -2.2956 O   0  0  0  0  0  0  0  0  0  0  0  0
    7.9993   -2.3105    0.5715 C   0  0  0  0  0  0  0  0  0  0  0  0
    8.9513    0.8948   -1.8974 O   0  0  0  0  0  0  0  0  0  0  0  0
    9.1028   -1.3480    1.0989 C   0  0  0  0  0  0  0  0  0  0  0  0
    9.2046    2.5177   -0.8055 O   0  0  0  0  0  0  0  0  0  0  0  0
   10.0381   -1.0081   -0.0288 N   0  0  0  0  0  0  0  0  0  0  0  0
   10.6401   -2.2513   -0.5994 C   0  0  0  0  0  0  0  0  0  0  0  0
    9.5087   -3.2162   -1.0543 C   0  0  0  0  0  0  0  0  0  0  0  0
   11.1390   -0.0831    0.4144 C   0  0  0  0  0  0  0  0  0  0  0  0
   10.7543    1.3978    0.1801 C   0  0  0  0  0  0  0  0  0  0  0  0
   10.1489    1.6528   -1.5047 S   0  0  0  0  0  0  0  0  0  0  0  0
  1  3  1  0  0  0  0
  1  9  1  0  0  0  0
  2 12  1  0  0  0  0
  3  5  1  0  0  0  0
  4 12  2  0  0  0  0
  5  7  1  0  0  0  0
  6 12  2  0  0  0  0
  7  8  1  0  0  0  0
  7 10  1  0  0  0  0
  8  9  1  0  0  0  0
 10 11  1  0  0  0  0
 11 12  1  0  0  0  0
M  END
>  <CHROM.1>
-92.66272134,-49.71748255,-142.13530422,9.70077467,-0.06564821,-0.68744886
1.85369159,0.75412379,2.67718039

>  <Name>
ligand

>  <RI>
0

>  <Rbt.Current_Directory>
/home/itssahil/PROJECTS/Mol_Feturizer/New_Systems/rnas/2HO6

>  <Rbt.Executable>
rbdock ($Id: //depot/dev/client3/rdock/2013.1/src/exe/rbdock.cxx#4 $)

>  <Rbt.Library>
libRbt.so (2013.1, Build901 2013/11/27)

>  <Rbt.Parameter_File>
/export/apps/rDock/src/rDock_2013.1_src/data/scripts/dock_solv.prm

>  <Rbt.Receptor>
prm/blind_docking_100.prm

>  <SCORE>
-20.7406

>  <SCORE.INTER>
-20.1892

>  <SCORE.INTER.CONST>
1

>  <SCORE.INTER.POLAR>
-2.68308

>  <SCORE.INTER.ROT>
3

>  <SCORE.INTER.SOLV>
11.25

>  <SCORE.INTER.VDW>
-13.8659

>  <SCORE.INTER.norm>
-1.68244

>  <SCORE.INTRA>
-0.551363

>  <SCORE.INTRA.DIHEDRAL>
1.69038

>  <SCORE.INTRA.DIHEDRAL.0>
1.88407

>  <SCORE.INTRA.POLAR>
0

>  <SCORE.INTRA.POLAR.0>
0

>  <SCORE.INTRA.REPUL>
0

>  <SCORE.INTRA.REPUL.0>
0

>  <SCORE.INTRA.SOLV>
1.20049

>  <SCORE.INTRA.SOLV.lig_0>
-10.2714

>  <SCORE.INTRA.VDW>
-1.9968

>  <SCORE.INTRA.VDW.0>
0.416923

>  <SCORE.INTRA.norm>
-0.045947

>  <SCORE.RESTR>
0

>  <SCORE.RESTR.CAVITY>
0

>  <SCORE.RESTR.norm>
0

>  <SCORE.SYSTEM>
0

>  <SCORE.SYSTEM.CONST>
0

>  <SCORE.SYSTEM.DIHEDRAL>
0

>  <SCORE.SYSTEM.SOLV>
0

>  <SCORE.SYSTEM.norm>
0

>  <SCORE.heavy>
12

>  <SCORE.norm>
-1.72838

>  <RMSD>
43.179

$$$$
ligand
 OpenBabel11021811433D
libRbt.so/2013.1/901 2013/11/27
 12 12  0  0  0  0  0  0  0  0999 V2000
    8.1372   -2.5242   -0.6832 O   0  0  0  0  0  0  0  0  0  0  0  0
   10.7222    2.5434   -2.6807 O   0  0  0  0  0  0  0  0  0  0  0  0
    8.1333   -2.4734    0.7756 C   0  0  0  0  0  0  0  0  0  0  0  0
    9.0486    0.8088   -2.1617 O   0  0  0  0  0  0  0  0  0  0  0  0
    9.1779   -1.4487    1.3054 C   0  0  0  0  0  0  0  0  0  0  0  0
    9.2778    2.5979   -1.3637 O   0  0  0  0  0  0  0  0  0  0  0  0
    9.8689   -0.8026    0.1363 N   0  0  0  0  0  0  0  0  0  0  0  0
   10.5221   -1.8383   -0.7206 C   0  0  0  0  0  0  0  0  0  0  0  0
    9.4621   -2.8808   -1.1764 C   0  0  0  0  0  0  0  0  0  0  0  0
   10.9022    0.1982    0.5778 C   0  0  0  0  0  0  0  0  0  0  0  0
   10.5798    1.6119    0.0361 C   0  0  0  0  0  0  0  0  0  0  0  0
   10.2372    1.5647   -1.7389 S   0  0  0  0  0  0  0  0  0  0  0  0
  1  3  1  0  0  0  0
  1  9  1  0  0  0  0
  2 12  1  0  0  0  0
  3  5  1  0  0  0  0
  4 12  2  0  0  0  0
  5  7  1  0  0  0  0
  6 12  2  0  0  0  0
  7  8  1  0  0  0  0
  7 10  1  0  0  0  0
  8  9  1  0  0  0  0
 10 11  1  0  0  0  0
 11 12  1  0  0  0  0
M  END
>  <CHROM.1>
-120.09582814,-49.47323146,-138.27397557,9.70957874,-0.01071956,-0.78708755
2.14195330,1.09821157,2.22789605

>  <Name>
ligand

>  <RI>
0

>  <Rbt.Current_Directory>
/home/itssahil/PROJECTS/Mol_Feturizer/New_Systems/rnas/2HO6

>  <Rbt.Executable>
rbdock ($Id: //depot/dev/client3/rdock/2013.1/src/exe/rbdock.cxx#4 $)

>  <Rbt.Library>
libRbt.so (2013.1, Build901 2013/11/27)

>  <Rbt.Parameter_File>
/export/apps/rDock/src/rDock_2013.1_src/data/scripts/dock_solv.prm

>  <Rbt.Receptor>
prm/blind_docking_60.prm

>  <SCORE>
-20.7069

>  <SCORE.INTER>
-20.4718

>  <SCORE.INTER.CONST>
1

>  <SCORE.INTER.POLAR>
-2.68328

>  <SCORE.INTER.ROT>
3

>  <SCORE.INTER.SOLV>
11.7742

>  <SCORE.INTER.VDW>
-14.2283

>  <SCORE.INTER.norm>
-1.70598

>  <SCORE.INTRA>
-0.235061

>  <SCORE.INTRA.DIHEDRAL>
2.66717

>  <SCORE.INTRA.DIHEDRAL.0>
1.88407

>  <SCORE.INTRA.POLAR>
0

>  <SCORE.INTRA.POLAR.0>
0

>  <SCORE.INTRA.REPUL>
0

>  <SCORE.INTRA.REPUL.0>
0

>  <SCORE.INTRA.SOLV>
1.16079

>  <SCORE.INTRA.SOLV.lig_0>
-10.2714

>  <SCORE.INTRA.VDW>
-2.14904

>  <SCORE.INTRA.VDW.0>
0.416923

>  <SCORE.INTRA.norm>
-0.0195884

>  <SCORE.RESTR>
0

>  <SCORE.RESTR.CAVITY>
0

>  <SCORE.RESTR.norm>
0

>  <SCORE.SYSTEM>
0

>  <SCORE.SYSTEM.CONST>
0

>  <SCORE.SYSTEM.DIHEDRAL>
0

>  <SCORE.SYSTEM.SOLV>
0

>  <SCORE.SYSTEM.norm>
0

>  <SCORE.heavy>
12

>  <SCORE.norm>
-1.72557

>  <RMSD>
43.188

$$$$
ligand
 OpenBabel11021811433D
libRbt.so/2013.1/901 2013/11/27
 12 12  0  0  0  0  0  0  0  0999 V2000
    7.6349   -1.8249    0.0192 O   0  0  0  0  0  0  0  0  0  0  0  0
    9.9587    3.4539   -2.1699 O   0  0  0  0  0  0  0  0  0  0  0  0
    8.4238   -0.8511    0.7675 C   0  0  0  0  0  0  0  0  0  0  0  0
   11.1056    1.9748   -0.5648 O   0  0  0  0  0  0  0  0  0  0  0  0
    9.6389   -0.3515   -0.0668 C   0  0  0  0  0  0  0  0  0  0  0  0
   11.6264    2.4601   -2.4042 O   0  0  0  0  0  0  0  0  0  0  0  0
    9.6186   -1.0208   -1.4136 N   0  0  0  0  0  0  0  0  0  0  0  0
    9.6508   -2.5068   -1.2578 C   0  0  0  0  0  0  0  0  0  0  0  0
    8.4620   -2.9625   -0.3649 C   0  0  0  0  0  0  0  0  0  0  0  0
   10.7752   -0.5878   -2.2732 C   0  0  0  0  0  0  0  0  0  0  0  0
   10.4678    0.7466   -2.9947 C   0  0  0  0  0  0  0  0  0  0  0  0
   10.3395    2.1094   -1.8130 S   0  0  0  0  0  0  0  0  0  0  0  0
  1  3  1  0  0  0  0
  1  9  1  0  0  0  0
  2 12  1  0  0  0  0
  3  5  1  0  0  0  0
  4 12  2  0  0  0  0
  5  7  1  0  0  0  0
  6 12  2  0  0  0  0
  7  8  1  0  0  0  0
  7 10  1  0  0  0  0
  8  9  1  0  0  0  0
 10 11  1  0  0  0  0
 11 12  1  0  0  0  0
M  END
>  <CHROM.1>
-83.46366134,66.92983737,-174.97569223,9.86892319,0.30372651,-1.26996513
2.28541861,-0.91152059,-2.90684078

>  <Name>
ligand

>  <RI>
0

>  <Rbt.Current_Directory>
/home/itssahil/PROJECTS/Mol_Feturizer/New_Systems/rnas/2HO6

>  <Rbt.Executable>
rbdock ($Id: //depot/dev/client3/rdock/2013.1/src/exe/rbdock.cxx#4 $)

>  <Rbt.Library>
libRbt.so (2013.1, Build901 2013/11/27)

>  <Rbt.Parameter_File>
/export/apps/rDock/src/rDock_2013.1_src/data/scripts/dock_solv.prm

>  <Rbt.Receptor>
prm/blind_docking_60.prm

>  <SCORE>
-15.8323

>  <SCORE.INTER>
-16.1845

>  <SCORE.INTER.CONST>
1

>  <SCORE.INTER.POLAR>
-2.41478

>  <SCORE.INTER.ROT>
3

>  <SCORE.INTER.SOLV>
16.1883

>  <SCORE.INTER.VDW>
-13.7365

>  <SCORE.INTER.norm>
-1.34871

>  <SCORE.INTRA>
0.352165

>  <SCORE.INTRA.DIHEDRAL>
0.936882

>  <SCORE.INTRA.DIHEDRAL.0>
1.88407

>  <SCORE.INTRA.POLAR>
0

>  <SCORE.INTRA.POLAR.0>
0

>  <SCORE.INTRA.REPUL>
0

>  <SCORE.INTRA.REPUL.0>
0

>  <SCORE.INTRA.SOLV>
0.935009

>  <SCORE.INTRA.SOLV.lig_0>
-10.2714

>  <SCORE.INTRA.VDW>
-0.583781

>  <SCORE.INTRA.VDW.0>
0.416923

>  <SCORE.INTRA.norm>
0.0293471

>  <SCORE.RESTR>
0

>  <SCORE.RESTR.CAVITY>
0

>  <SCORE.RESTR.norm>
0

>  <SCORE.SYSTEM>
0

>  <SCORE.SYSTEM.CONST>
0

>  <SCORE.SYSTEM.DIHEDRAL>
0

>  <SCORE.SYSTEM.SOLV>
0

>  <SCORE.SYSTEM.norm>
0

>  <SCORE.heavy>
12

>  <SCORE.norm>
-1.31936

>  <RMSD>
43.188

$$$$
ligand
 OpenBabel11021811433D
libRbt.so/2013.1/901 2013/11/27
 12 12  0  0  0  0  0  0  0  0999 V2000
    8.1508   -2.5159   -0.6855 O   0  0  0  0  0  0  0  0  0  0  0  0
   10.7976    2.4601   -2.7390 O   0  0  0  0  0  0  0  0  0  0  0  0
    8.0984   -2.4396    0.7713 C   0  0  0  0  0  0  0  0  0  0  0  0
    9.0546    0.8012   -2.2010 O   0  0  0  0  0  0  0  0  0  0  0  0
    9.1126   -1.3925    1.3164 C   0  0  0  0  0  0  0  0  0  0  0  0
    9.3141    2.6164   -1.4745 O   0  0  0  0  0  0  0  0  0  0  0  0
    9.8337   -0.7583    0.1590 N   0  0  0  0  0  0  0  0  0  0  0  0
   10.5272   -1.8005   -0.6574 C   0  0  0  0  0  0  0  0  0  0  0  0
    9.4954   -2.8643   -1.1287 C   0  0  0  0  0  0  0  0  0  0  0  0
   10.8398    0.2631    0.6159 C   0  0  0  0  0  0  0  0  0  0  0  0
   10.5392    1.6552    0.0096 C   0  0  0  0  0  0  0  0  0  0  0  0
   10.2522    1.5393   -1.7721 S   0  0  0  0  0  0  0  0  0  0  0  0
  1  3  1  0  0  0  0
  1  9  1  0  0  0  0
  2 12  1  0  0  0  0
  3  5  1  0  0  0  0
  4 12  2  0  0  0  0
  5  7  1  0  0  0  0
  6 12  2  0  0  0  0
  7  8  1  0  0  0  0
  7 10  1  0  0  0  0
  8  9  1  0  0  0  0
 10 11  1  0  0  0  0
 11 12  1  0  0  0  0
M  END
>  <CHROM.1>
-121.55467177,-48.30776692,-136.64922614,9.70844261,0.00123145,-0.79897030
2.20365001,1.12491259,2.14287752

>  <Name>
ligand

>  <RI>
0

>  <Rbt.Current_Directory>
/home/itssahil/PROJECTS/Mol_Feturizer/New_Systems/rnas/2HO6

>  <Rbt.Executable>
rbdock ($Id: //depot/dev/client3/rdock/2013.1/src/exe/rbdock.cxx#4 $)

>  <Rbt.Library>
libRbt.so (2013.1, Build901 2013/11/27)

>  <Rbt.Parameter_File>
/export/apps/rDock/src/rDock_2013.1_src/data/scripts/dock_solv.prm

>  <Rbt.Receptor>
prm/blind_docking_20.prm

>  <SCORE>
-20.5403

>  <SCORE.INTER>
-20.3474

>  <SCORE.INTER.CONST>
1

>  <SCORE.INTER.POLAR>
-2.68274

>  <SCORE.INTER.ROT>
3

>  <SCORE.INTER.SOLV>
11.7957

>  <SCORE.INTER.VDW>
-14.1544

>  <SCORE.INTER.norm>
-1.69562

>  <SCORE.INTRA>
-0.192904

>  <SCORE.INTRA.DIHEDRAL>
2.75445

>  <SCORE.INTRA.DIHEDRAL.0>
1.88407

>  <SCORE.INTRA.POLAR>
0

>  <SCORE.INTRA.POLAR.0>
0

>  <SCORE.INTRA.REPUL>
0

>  <SCORE.INTRA.REPUL.0>
0

>  <SCORE.INTRA.SOLV>
1.15161

>  <SCORE.INTRA.SOLV.lig_0>
-10.2714

>  <SCORE.INTRA.VDW>
-2.14593

>  <SCORE.INTRA.VDW.0>
0.416923

>  <SCORE.INTRA.norm>
-0.0160753

>  <SCORE.RESTR>
0

>  <SCORE.RESTR.CAVITY>
0

>  <SCORE.RESTR.norm>
0

>  <SCORE.SYSTEM>
0

>  <SCORE.SYSTEM.CONST>
0

>  <SCORE.SYSTEM.DIHEDRAL>
0

>  <SCORE.SYSTEM.SOLV>
0

>  <SCORE.SYSTEM.norm>
0

>  <SCORE.heavy>
12

>  <SCORE.norm>
-1.71169

>  <RMSD>
43.189

$$$$
ligand
 OpenBabel11021811433D
libRbt.so/2013.1/901 2013/11/27
 12 12  0  0  0  0  0  0  0  0999 V2000
    8.1970   -2.6051   -0.8242 O   0  0  0  0  0  0  0  0  0  0  0  0
   10.5572    2.7257   -2.4554 O   0  0  0  0  0  0  0  0  0  0  0  0
    8.0616   -2.4344    0.6192 C   0  0  0  0  0  0  0  0  0  0  0  0
    8.9815    0.8784   -2.0263 O   0  0  0  0  0  0  0  0  0  0  0  0
    9.1244   -1.4397    1.1699 C   0  0  0  0  0  0  0  0  0  0  0  0
    9.2140    2.5720   -1.0425 O   0  0  0  0  0  0  0  0  0  0  0  0
    9.9659   -0.9384    0.0287 N   0  0  0  0  0  0  0  0  0  0  0  0
   10.6187   -2.0814   -0.6791 C   0  0  0  0  0  0  0  0  0  0  0  0
    9.5325   -3.0866   -1.1565 C   0  0  0  0  0  0  0  0  0  0  0  0
   11.0239    0.0259    0.4926 C   0  0  0  0  0  0  0  0  0  0  0  0
   10.6468    1.4843    0.1370 C   0  0  0  0  0  0  0  0  0  0  0  0
   10.1743    1.6272   -1.6028 S   0  0  0  0  0  0  0  0  0  0  0  0
  1  3  1  0  0  0  0
  1  9  1  0  0  0  0
  2 12  1  0  0  0  0
  3  5  1  0  0  0  0
  4 12  2  0  0  0  0
  5  7  1  0  0  0  0
  6 12  2  0  0  0  0
  7  8  1  0  0  0  0
  7 10  1  0  0  0  0
  8  9  1  0  0  0  0
 10 11  1  0  0  0  0
 11 12  1  0  0  0  0
M  END
>  <CHROM.1>
-104.54107611,-49.97889876,-139.46385978,9.70338467,-0.04885789,-0.74333565
1.97113557,0.98566594,2.49241683

>  <Name>
ligand

>  <RI>
0

>  <Rbt.Current_Directory>
/home/itssahil/PROJECTS/Mol_Feturizer/New_Systems/rnas/2HO6

>  <Rbt.Executable>
rbdock ($Id: //depot/dev/client3/rdock/2013.1/src/exe/rbdock.cxx#4 $)

>  <Rbt.Library>
libRbt.so (2013.1, Build901 2013/11/27)

>  <Rbt.Parameter_File>
/export/apps/rDock/src/rDock_2013.1_src/data/scripts/dock_solv.prm

>  <Rbt.Receptor>
prm/blind_docking_20.prm

>  <SCORE>
-20.9404

>  <SCORE.INTER>
-20.5692

>  <SCORE.INTER.CONST>
1

>  <SCORE.INTER.POLAR>
-2.67746

>  <SCORE.INTER.ROT>
3

>  <SCORE.INTER.SOLV>
11.2634

>  <SCORE.INTER.VDW>
-14.1424

>  <SCORE.INTER.norm>
-1.7141

>  <SCORE.INTRA>
-0.371147

>  <SCORE.INTRA.DIHEDRAL>
2.3146

>  <SCORE.INTRA.DIHEDRAL.0>
1.88407

>  <SCORE.INTRA.POLAR>
0

>  <SCORE.INTRA.POLAR.0>
0

>  <SCORE.INTRA.REPUL>
0

>  <SCORE.INTRA.REPUL.0>
0

>  <SCORE.INTRA.SOLV>
1.13677

>  <SCORE.INTRA.SOLV.lig_0>
-10.2714

>  <SCORE.INTRA.VDW>
-2.09683

>  <SCORE.INTRA.VDW.0>
0.416923

>  <SCORE.INTRA.norm>
-0.030929

>  <SCORE.RESTR>
0

>  <SCORE.RESTR.CAVITY>
0

>  <SCORE.RESTR.norm>
0

>  <SCORE.SYSTEM>
0

>  <SCORE.SYSTEM.CONST>
0

>  <SCORE.SYSTEM.DIHEDRAL>
0

>  <SCORE.SYSTEM.SOLV>
0

>  <SCORE.SYSTEM.norm>
0

>  <SCORE.heavy>
12

>  <SCORE.norm>
-1.74503

>  <RMSD>
43.190

$$$$
ligand
 OpenBabel11021811433D
libRbt.so/2013.1/901 2013/11/27
 12 12  0  0  0  0  0  0  0  0999 V2000
    7.6194   -1.8169    0.0242 O   0  0  0  0  0  0  0  0  0  0  0  0
    9.9178    3.4164   -2.1503 O   0  0  0  0  0  0  0  0  0  0  0  0
    8.3960   -0.8243    0.7607 C   0  0  0  0  0  0  0  0  0  0  0  0
   11.1161    1.9663   -0.5564 O   0  0  0  0  0  0  0  0  0  0  0  0
    9.6182   -0.3369   -0.0705 C   0  0  0  0  0  0  0  0  0  0  0  0
   11.6084    2.4660   -2.3998 O   0  0  0  0  0  0  0  0  0  0  0  0
    9.6154   -1.0340   -1.4032 N   0  0  0  0  0  0  0  0  0  0  0  0
    9.6520   -2.5163   -1.2162 C   0  0  0  0  0  0  0  0  0  0  0  0
    8.4553   -2.9586   -0.3271 C   0  0  0  0  0  0  0  0  0  0  0  0
   10.7796   -0.6139   -2.2589 C   0  0  0  0  0  0  0  0  0  0  0  0
   10.4892    0.7236   -2.9818 C   0  0  0  0  0  0  0  0  0  0  0  0
   10.3361    2.0819   -1.7978 S   0  0  0  0  0  0  0  0  0  0  0  0
  1  3  1  0  0  0  0
  1  9  1  0  0  0  0
  2 12  1  0  0  0  0
  3  5  1  0  0  0  0
  4 12  2  0  0  0  0
  5  7  1  0  0  0  0
  6 12  2  0  0  0  0
  7  8  1  0  0  0  0
  7 10  1  0  0  0  0
  8  9  1  0  0  0  0
 10 11  1  0  0  0  0
 11 12  1  0  0  0  0
M  END
>  <CHROM.1>
-81.94206925,65.69668777,-172.64633597,9.86082380,0.29464320,-1.25670955
2.27275358,-0.89551367,-2.92681123

>  <Name>
ligand

>  <RI>
0

>  <Rbt.Current_Directory>
/home/itssahil/PROJECTS/Mol_Feturizer/New_Systems/rnas/2HO6

>  <Rbt.Executable>
rbdock ($Id: //depot/dev/client3/rdock/2013.1/src/exe/rbdock.cxx#4 $)

>  <Rbt.Library>
libRbt.so (2013.1, Build901 2013/11/27)

>  <Rbt.Parameter_File>
/export/apps/rDock/src/rDock_2013.1_src/data/scripts/dock_solv.prm

>  <Rbt.Receptor>
prm/blind_docking_80.prm

>  <SCORE>
-15.8673

>  <SCORE.INTER>
-16.2733

>  <SCORE.INTER.CONST>
1

>  <SCORE.INTER.POLAR>
-2.41637

>  <SCORE.INTER.ROT>
3

>  <SCORE.INTER.SOLV>
16.1296

>  <SCORE.INTER.VDW>
-13.7708

>  <SCORE.INTER.norm>
-1.35611

>  <SCORE.INTRA>
0.405938

>  <SCORE.INTRA.DIHEDRAL>
0.780437

>  <SCORE.INTRA.DIHEDRAL.0>
1.88407

>  <SCORE.INTRA.POLAR>
0

>  <SCORE.INTRA.POLAR.0>
0

>  <SCORE.INTRA.REPUL>
0

>  <SCORE.INTRA.REPUL.0>
0

>  <SCORE.INTRA.SOLV>
0.927034

>  <SCORE.INTRA.SOLV.lig_0>
-10.2714

>  <SCORE.INTRA.VDW>
-0.447798

>  <SCORE.INTRA.VDW.0>
0.416923

>  <SCORE.INTRA.norm>
0.0338281

>  <SCORE.RESTR>
0

>  <SCORE.RESTR.CAVITY>
0

>  <SCORE.RESTR.norm>
0

>  <SCORE.SYSTEM>
0

>  <SCORE.SYSTEM.CONST>
0

>  <SCORE.SYSTEM.DIHEDRAL>
0

>  <SCORE.SYSTEM.SOLV>
0

>  <SCORE.SYSTEM.norm>
0

>  <SCORE.heavy>
12

>  <SCORE.norm>
-1.32228

>  <RMSD>
43.192

$$$$
ligand
 OpenBabel11021811433D
libRbt.so/2013.1/901 2013/11/27
 12 12  0  0  0  0  0  0  0  0999 V2000
    8.1895   -2.6003   -0.8140 O   0  0  0  0  0  0  0  0  0  0  0  0
   10.5223    2.7564   -2.4434 O   0  0  0  0  0  0  0  0  0  0  0  0
    8.0336   -2.3942    0.6227 C   0  0  0  0  0  0  0  0  0  0  0  0
    8.9843    0.8740   -2.0308 O   0  0  0  0  0  0  0  0  0  0  0  0
    9.0976   -1.3971    1.1664 C   0  0  0  0  0  0  0  0  0  0  0  0
    9.1836    2.5626   -1.0313 O   0  0  0  0  0  0  0  0  0  0  0  0
    9.9616   -0.9310    0.0271 N   0  0  0  0  0  0  0  0  0  0  0  0
   10.6137   -2.0966   -0.6434 C   0  0  0  0  0  0  0  0  0  0  0  0
    9.5250   -3.1024   -1.1140 C   0  0  0  0  0  0  0  0  0  0  0  0
   11.0218    0.0338    0.4846 C   0  0  0  0  0  0  0  0  0  0  0  0
   10.6389    1.4927    0.1370 C   0  0  0  0  0  0  0  0  0  0  0  0
   10.1623    1.6425   -1.6010 S   0  0  0  0  0  0  0  0  0  0  0  0
  1  3  1  0  0  0  0
  1  9  1  0  0  0  0
  2 12  1  0  0  0  0
  3  5  1  0  0  0  0
  4 12  2  0  0  0  0
  5  7  1  0  0  0  0
  6 12  2  0  0  0  0
  7  8  1  0  0  0  0
  7 10  1  0  0  0  0
  8  9  1  0  0  0  0
 10 11  1  0  0  0  0
 11 12  1  0  0  0  0
M  END
>  <CHROM.1>
-102.36220901,-50.38934037,-140.44864283,9.68976290,-0.03909552,-0.73571790
1.95377953,0.96437153,2.51147419

>  <Name>
ligand

>  <RI>
0

>  <Rbt.Current_Directory>
/home/itssahil/PROJECTS/Mol_Feturizer/New_Systems/rnas/2HO6

>  <Rbt.Executable>
rbdock ($Id: //depot/dev/client3/rdock/2013.1/src/exe/rbdock.cxx#4 $)

>  <Rbt.Library>
libRbt.so (2013.1, Build901 2013/11/27)

>  <Rbt.Parameter_File>
/export/apps/rDock/src/rDock_2013.1_src/data/scripts/dock_solv.prm

>  <Rbt.Receptor>
prm/blind_docking_40.prm

>  <SCORE>
-20.9432

>  <SCORE.INTER>
-20.544

>  <SCORE.INTER.CONST>
1

>  <SCORE.INTER.POLAR>
-2.68328

>  <SCORE.INTER.ROT>
3

>  <SCORE.INTER.SOLV>
11.3234

>  <SCORE.INTER.VDW>
-14.1262

>  <SCORE.INTER.norm>
-1.712

>  <SCORE.INTRA>
-0.399289

>  <SCORE.INTRA.DIHEDRAL>
2.185

>  <SCORE.INTRA.DIHEDRAL.0>
1.88407

>  <SCORE.INTRA.POLAR>
0

>  <SCORE.INTRA.POLAR.0>
0

>  <SCORE.INTRA.REPUL>
0

>  <SCORE.INTRA.REPUL.0>
0

>  <SCORE.INTRA.SOLV>
1.14899

>  <SCORE.INTRA.SOLV.lig_0>
-10.2714

>  <SCORE.INTRA.VDW>
-2.06628

>  <SCORE.INTRA.VDW.0>
0.416923

>  <SCORE.INTRA.norm>
-0.0332741

>  <SCORE.RESTR>
0

>  <SCORE.RESTR.CAVITY>
0

>  <SCORE.RESTR.norm>
0

>  <SCORE.SYSTEM>
0

>  <SCORE.SYSTEM.CONST>
0

>  <SCORE.SYSTEM.DIHEDRAL>
0

>  <SCORE.SYSTEM.SOLV>
0

>  <SCORE.SYSTEM.norm>
0

>  <SCORE.heavy>
12

>  <SCORE.norm>
-1.74527

>  <RMSD>
43.197

$$$$
ligand
 OpenBabel11021811433D
libRbt.so/2013.1/901 2013/11/27
 12 12  0  0  0  0  0  0  0  0999 V2000
    9.5635    1.8497   -1.8835 O   0  0  0  0  0  0  0  0  0  0  0  0
    7.3522   -3.5153    0.7458 O   0  0  0  0  0  0  0  0  0  0  0  0
   10.6345    1.1279   -2.5637 C   0  0  0  0  0  0  0  0  0  0  0  0
    7.6052   -1.1174    0.2307 O   0  0  0  0  0  0  0  0  0  0  0  0
   11.1340   -0.0733   -1.7094 C   0  0  0  0  0  0  0  0  0  0  0  0
    8.0843   -2.6850   -0.8662 O   0  0  0  0  0  0  0  0  0  0  0  0
   10.3378   -0.1343   -0.4349 N   0  0  0  0  0  0  0  0  0  0  0  0
   10.4640    1.1490    0.3205 C   0  0  0  0  0  0  0  0  0  0  0  0
   10.0197    2.3322   -0.5855 C   0  0  0  0  0  0  0  0  0  0  0  0
   10.7754   -1.2728    0.4464 C   0  0  0  0  0  0  0  0  0  0  0  0
    9.9935   -2.5676    0.1179 C   0  0  0  0  0  0  0  0  0  0  0  0
    8.2469   -2.4002    0.5556 S   0  0  0  0  0  0  0  0  0  0  0  0
  1  3  1  0  0  0  0
  1  9  1  0  0  0  0
  2 12  1  0  0  0  0
  3  5  1  0  0  0  0
  4 12  2  0  0  0  0
  5  7  1  0  0  0  0
  6 12  2  0  0  0  0
  7  8  1  0  0  0  0
  7 10  1  0  0  0  0
  8  9  1  0  0  0  0
 10 11  1  0  0  0  0
 11 12  1  0  0  0  0
M  END
>  <CHROM.1>
-89.11274496,-67.06561587,-160.96125914,9.34401446,-0.80608320,-0.37271621
1.09018031,0.06998977,-0.35397970

>  <Name>
ligand

>  <RI>
0

>  <Rbt.Current_Directory>
/home/itssahil/PROJECTS/Mol_Feturizer/New_Systems/rnas/2HO6

>  <Rbt.Executable>
rbdock ($Id: //depot/dev/client3/rdock/2013.1/src/exe/rbdock.cxx#4 $)

>  <Rbt.Library>
libRbt.so (2013.1, Build901 2013/11/27)

>  <Rbt.Parameter_File>
/export/apps/rDock/src/rDock_2013.1_src/data/scripts/dock_solv.prm

>  <Rbt.Receptor>
prm/blind_docking_40.prm

>  <SCORE>
-20.1092

>  <SCORE.INTER>
-19.4582

>  <SCORE.INTER.CONST>
1

>  <SCORE.INTER.POLAR>
-2.21195

>  <SCORE.INTER.ROT>
3

>  <SCORE.INTER.SOLV>
9.46991

>  <SCORE.INTER.VDW>
-14.3556

>  <SCORE.INTER.norm>
-1.62152

>  <SCORE.INTRA>
-0.65098

>  <SCORE.INTRA.DIHEDRAL>
1.25748

>  <SCORE.INTRA.DIHEDRAL.0>
1.88407

>  <SCORE.INTRA.POLAR>
0

>  <SCORE.INTRA.POLAR.0>
0

>  <SCORE.INTRA.REPUL>
0

>  <SCORE.INTRA.REPUL.0>
0

>  <SCORE.INTRA.SOLV>
1.11844

>  <SCORE.INTRA.SOLV.lig_0>
-10.2714

>  <SCORE.INTRA.VDW>
-1.83894

>  <SCORE.INTRA.VDW.0>
0.416923

>  <SCORE.INTRA.norm>
-0.0542483

>  <SCORE.RESTR>
0

>  <SCORE.RESTR.CAVITY>
0

>  <SCORE.RESTR.norm>
0

>  <SCORE.SYSTEM>
0

>  <SCORE.SYSTEM.CONST>
0

>  <SCORE.SYSTEM.DIHEDRAL>
0

>  <SCORE.SYSTEM.SOLV>
0

>  <SCORE.SYSTEM.norm>
0

>  <SCORE.heavy>
12

>  <SCORE.norm>
-1.67576

>  <RMSD>
43.201

$$$$
ligand
 OpenBabel11021811433D
libRbt.so/2013.1/901 2013/11/27
 12 12  0  0  0  0  0  0  0  0999 V2000
    9.9695    1.4210   -2.4646 O   0  0  0  0  0  0  0  0  0  0  0  0
    7.4389   -3.5703    0.4098 O   0  0  0  0  0  0  0  0  0  0  0  0
   11.1999    0.6455   -2.3403 C   0  0  0  0  0  0  0  0  0  0  0  0
    7.1940   -1.1227    0.2401 O   0  0  0  0  0  0  0  0  0  0  0  0
   11.2685   -0.0841   -0.9673 C   0  0  0  0  0  0  0  0  0  0  0  0
    8.4762   -2.3130   -0.6706 O   0  0  0  0  0  0  0  0  0  0  0  0
   10.0212    0.2230   -0.1850 N   0  0  0  0  0  0  0  0  0  0  0  0
    9.8718    1.6985   -0.0002 C   0  0  0  0  0  0  0  0  0  0  0  0
    9.8740    2.3998   -1.3881 C   0  0  0  0  0  0  0  0  0  0  0  0
   10.0244   -0.4469    1.1624 C   0  0  0  0  0  0  0  0  0  0  0  0
    9.7402   -1.9631    1.0345 C   0  0  0  0  0  0  0  0  0  0  0  0
    7.9889   -2.2699    0.7040 S   0  0  0  0  0  0  0  0  0  0  0  0
  1  3  1  0  0  0  0
  1  9  1  0  0  0  0
  2 12  1  0  0  0  0
  3  5  1  0  0  0  0
  4 12  2  0  0  0  0
  5  7  1  0  0  0  0
  6 12  2  0  0  0  0
  7  8  1  0  0  0  0
  7 10  1  0  0  0  0
  8  9  1  0  0  0  0
 10 11  1  0  0  0  0
 11 12  1  0  0  0  0
M  END
>  <CHROM.1>
-74.87930400,-75.35079462,173.88968010,9.24231981,-0.65619370,-0.28232674
0.91803890,-0.61243803,-0.88963624

>  <Name>
ligand

>  <RI>
0

>  <Rbt.Current_Directory>
/home/itssahil/PROJECTS/Mol_Feturizer/New_Systems/rnas/2HO6

>  <Rbt.Executable>
rbdock ($Id: //depot/dev/client3/rdock/2013.1/src/exe/rbdock.cxx#4 $)

>  <Rbt.Library>
libRbt.so (2013.1, Build901 2013/11/27)

>  <Rbt.Parameter_File>
/export/apps/rDock/src/rDock_2013.1_src/data/scripts/dock_solv.prm

>  <Rbt.Receptor>
prm/blind_docking_20.prm

>  <SCORE>
-21.1428

>  <SCORE.INTER>
-20.9838

>  <SCORE.INTER.CONST>
1

>  <SCORE.INTER.POLAR>
-2.17696

>  <SCORE.INTER.ROT>
3

>  <SCORE.INTER.SOLV>
9.39396

>  <SCORE.INTER.VDW>
-15.464

>  <SCORE.INTER.norm>
-1.74865

>  <SCORE.INTRA>
-0.158994

>  <SCORE.INTRA.DIHEDRAL>
1.17598

>  <SCORE.INTRA.DIHEDRAL.0>
1.88407

>  <SCORE.INTRA.POLAR>
0

>  <SCORE.INTRA.POLAR.0>
0

>  <SCORE.INTRA.REPUL>
0

>  <SCORE.INTRA.REPUL.0>
0

>  <SCORE.INTRA.SOLV>
1.21555

>  <SCORE.INTRA.SOLV.lig_0>
-10.2714

>  <SCORE.INTRA.VDW>
-1.35475

>  <SCORE.INTRA.VDW.0>
0.416923

>  <SCORE.INTRA.norm>
-0.0132495

>  <SCORE.RESTR>
0

>  <SCORE.RESTR.CAVITY>
0

>  <SCORE.RESTR.norm>
0

>  <SCORE.SYSTEM>
0

>  <SCORE.SYSTEM.CONST>
0

>  <SCORE.SYSTEM.DIHEDRAL>
0

>  <SCORE.SYSTEM.SOLV>
0

>  <SCORE.SYSTEM.norm>
0

>  <SCORE.heavy>
12

>  <SCORE.norm>
-1.7619

>  <RMSD>
43.202

$$$$
ligand
 OpenBabel11021811433D
libRbt.so/2013.1/901 2013/11/27
 12 12  0  0  0  0  0  0  0  0999 V2000
    8.1737   -2.6124   -0.8195 O   0  0  0  0  0  0  0  0  0  0  0  0
   10.4918    2.7912   -2.3546 O   0  0  0  0  0  0  0  0  0  0  0  0
    8.0339   -2.4360    0.6227 C   0  0  0  0  0  0  0  0  0  0  0  0
    8.9306    0.9227   -1.9670 O   0  0  0  0  0  0  0  0  0  0  0  0
    9.1011   -1.4465    1.1743 C   0  0  0  0  0  0  0  0  0  0  0  0
    9.1650    2.5857   -0.9329 O   0  0  0  0  0  0  0  0  0  0  0  0
    9.9504   -0.9546    0.0347 N   0  0  0  0  0  0  0  0  0  0  0  0
   10.5982   -2.1043   -0.6668 C   0  0  0  0  0  0  0  0  0  0  0  0
    9.5072   -3.1040   -1.1450 C   0  0  0  0  0  0  0  0  0  0  0  0
   11.0129    0.0042    0.4994 C   0  0  0  0  0  0  0  0  0  0  0  0
   10.6163    1.4693    0.1962 C   0  0  0  0  0  0  0  0  0  0  0  0
   10.1241    1.6643   -1.5330 S   0  0  0  0  0  0  0  0  0  0  0  0
  1  3  1  0  0  0  0
  1  9  1  0  0  0  0
  2 12  1  0  0  0  0
  3  5  1  0  0  0  0
  4 12  2  0  0  0  0
  5  7  1  0  0  0  0
  6 12  2  0  0  0  0
  7  8  1  0  0  0  0
  7 10  1  0  0  0  0
  8  9  1  0  0  0  0
 10 11  1  0  0  0  0
 11 12  1  0  0  0  0
M  END
>  <CHROM.1>
-101.90134999,-50.90323567,-139.12620873,9.66844589,-0.04050326,-0.70172528
1.93638960,0.95409623,2.54978912

>  <Name>
ligand

>  <RI>
0

>  <Rbt.Current_Directory>
/home/itssahil/PROJECTS/Mol_Feturizer/New_Systems/rnas/2HO6

>  <Rbt.Executable>
rbdock ($Id: //depot/dev/client3/rdock/2013.1/src/exe/rbdock.cxx#4 $)

>  <Rbt.Library>
libRbt.so (2013.1, Build901 2013/11/27)

>  <Rbt.Parameter_File>
/export/apps/rDock/src/rDock_2013.1_src/data/scripts/dock_solv.prm

>  <Rbt.Receptor>
prm/blind_docking_20.prm

>  <SCORE>
-20.8972

>  <SCORE.INTER>
-20.4654

>  <SCORE.INTER.CONST>
1

>  <SCORE.INTER.POLAR>
-2.68213

>  <SCORE.INTER.ROT>
3

>  <SCORE.INTER.SOLV>
11.4304

>  <SCORE.INTER.VDW>
-14.1133

>  <SCORE.INTER.norm>
-1.70545

>  <SCORE.INTRA>
-0.431853

>  <SCORE.INTRA.DIHEDRAL>
2.1315

>  <SCORE.INTRA.DIHEDRAL.0>
1.88407

>  <SCORE.INTRA.POLAR>
0

>  <SCORE.INTRA.POLAR.0>
0

>  <SCORE.INTRA.REPUL>
0

>  <SCORE.INTRA.REPUL.0>
0

>  <SCORE.INTRA.SOLV>
1.11752

>  <SCORE.INTRA.SOLV.lig_0>
-10.2714

>  <SCORE.INTRA.VDW>
-2.05636

>  <SCORE.INTRA.VDW.0>
0.416923

>  <SCORE.INTRA.norm>
-0.0359878

>  <SCORE.RESTR>
0

>  <SCORE.RESTR.CAVITY>
0

>  <SCORE.RESTR.norm>
0

>  <SCORE.SYSTEM>
0

>  <SCORE.SYSTEM.CONST>
0

>  <SCORE.SYSTEM.DIHEDRAL>
0

>  <SCORE.SYSTEM.SOLV>
0

>  <SCORE.SYSTEM.norm>
0

>  <SCORE.heavy>
12

>  <SCORE.norm>
-1.74144

>  <RMSD>
43.207

$$$$
ligand
 OpenBabel11021811433D
libRbt.so/2013.1/901 2013/11/27
 12 12  0  0  0  0  0  0  0  0999 V2000
    8.1477   -2.6118   -0.8017 O   0  0  0  0  0  0  0  0  0  0  0  0
   10.5874    2.7052   -2.4389 O   0  0  0  0  0  0  0  0  0  0  0  0
    8.0302   -2.4734    0.6466 C   0  0  0  0  0  0  0  0  0  0  0  0
    8.9751    0.8828   -2.0409 O   0  0  0  0  0  0  0  0  0  0  0  0
    9.0887   -1.4778    1.2041 C   0  0  0  0  0  0  0  0  0  0  0  0
    9.2042    2.5798   -1.0623 O   0  0  0  0  0  0  0  0  0  0  0  0
    9.9085   -0.9424    0.0626 N   0  0  0  0  0  0  0  0  0  0  0  0
   10.5648   -2.0622   -0.6781 C   0  0  0  0  0  0  0  0  0  0  0  0
    9.4841   -3.0701   -1.1622 C   0  0  0  0  0  0  0  0  0  0  0  0
   10.9613    0.0245    0.5327 C   0  0  0  0  0  0  0  0  0  0  0  0
   10.5891    1.4808    0.1630 C   0  0  0  0  0  0  0  0  0  0  0  0
   10.1663    1.6180   -1.5898 S   0  0  0  0  0  0  0  0  0  0  0  0
  1  3  1  0  0  0  0
  1  9  1  0  0  0  0
  2 12  1  0  0  0  0
  3  5  1  0  0  0  0
  4 12  2  0  0  0  0
  5  7  1  0  0  0  0
  6 12  2  0  0  0  0
  7  8  1  0  0  0  0
  7 10  1  0  0  0  0
  8  9  1  0  0  0  0
 10 11  1  0  0  0  0
 11 12  1  0  0  0  0
M  END
>  <CHROM.1>
-106.81335781,-51.00406973,-138.42139643,9.67410105,-0.05523728,-0.72948811
2.01792596,1.02448541,2.43751553

>  <Name>
ligand

>  <RI>
0

>  <Rbt.Current_Directory>
/home/itssahil/PROJECTS/Mol_Feturizer/New_Systems/rnas/2HO6

>  <Rbt.Executable>
rbdock ($Id: //depot/dev/client3/rdock/2013.1/src/exe/rbdock.cxx#4 $)

>  <Rbt.Library>
libRbt.so (2013.1, Build901 2013/11/27)

>  <Rbt.Parameter_File>
/export/apps/rDock/src/rDock_2013.1_src/data/scripts/dock_solv.prm

>  <Rbt.Receptor>
prm/blind_docking_80.prm

>  <SCORE>
-20.9049

>  <SCORE.INTER>
-20.5238

>  <SCORE.INTER.CONST>
1

>  <SCORE.INTER.POLAR>
-2.68328

>  <SCORE.INTER.ROT>
3

>  <SCORE.INTER.SOLV>
11.4792

>  <SCORE.INTER.VDW>
-14.1647

>  <SCORE.INTER.norm>
-1.71032

>  <SCORE.INTRA>
-0.381078

>  <SCORE.INTRA.DIHEDRAL>
2.33656

>  <SCORE.INTRA.DIHEDRAL.0>
1.88407

>  <SCORE.INTRA.POLAR>
0

>  <SCORE.INTRA.POLAR.0>
0

>  <SCORE.INTRA.REPUL>
0

>  <SCORE.INTRA.REPUL.0>
0

>  <SCORE.INTRA.SOLV>
1.10776

>  <SCORE.INTRA.SOLV.lig_0>
-10.2714

>  <SCORE.INTRA.VDW>
-2.10324

>  <SCORE.INTRA.VDW.0>
0.416923

>  <SCORE.INTRA.norm>
-0.0317565

>  <SCORE.RESTR>
0

>  <SCORE.RESTR.CAVITY>
0

>  <SCORE.RESTR.norm>
0

>  <SCORE.SYSTEM>
0

>  <SCORE.SYSTEM.CONST>
0

>  <SCORE.SYSTEM.DIHEDRAL>
0

>  <SCORE.SYSTEM.SOLV>
0

>  <SCORE.SYSTEM.norm>
0

>  <SCORE.heavy>
12

>  <SCORE.norm>
-1.74208

>  <RMSD>
43.219

$$$$
ligand
 OpenBabel11021811433D
libRbt.so/2013.1/901 2013/11/27
 12 12  0  0  0  0  0  0  0  0999 V2000
    8.1569   -2.6037   -0.7961 O   0  0  0  0  0  0  0  0  0  0  0  0
   10.7967    2.4872   -2.6180 O   0  0  0  0  0  0  0  0  0  0  0  0
    8.0303   -2.5142    0.6554 C   0  0  0  0  0  0  0  0  0  0  0  0
    9.0597    0.7943   -2.1751 O   0  0  0  0  0  0  0  0  0  0  0  0
    9.0369   -1.4842    1.2452 C   0  0  0  0  0  0  0  0  0  0  0  0
    9.3036    2.5729   -1.3582 O   0  0  0  0  0  0  0  0  0  0  0  0
    9.8309   -0.8750    0.1225 N   0  0  0  0  0  0  0  0  0  0  0  0
   10.5434   -1.9385   -0.6489 C   0  0  0  0  0  0  0  0  0  0  0  0
    9.5150   -2.9841   -1.1658 C   0  0  0  0  0  0  0  0  0  0  0  0
   10.8335    0.1287    0.6241 C   0  0  0  0  0  0  0  0  0  0  0  0
   10.5238    1.5464    0.0857 C   0  0  0  0  0  0  0  0  0  0  0  0
   10.2500    1.5168   -1.7016 S   0  0  0  0  0  0  0  0  0  0  0  0
  1  3  1  0  0  0  0
  1  9  1  0  0  0  0
  2 12  1  0  0  0  0
  3  5  1  0  0  0  0
  4 12  2  0  0  0  0
  5  7  1  0  0  0  0
  6 12  2  0  0  0  0
  7  8  1  0  0  0  0
  7 10  1  0  0  0  0
  8  9  1  0  0  0  0
 10 11  1  0  0  0  0
 11 12  1  0  0  0  0
M  END
>  <CHROM.1>
-116.80424137,-48.97414661,-136.43111947,9.69849069,-0.06824450,-0.78688138
2.20262821,1.12381239,2.18803921

>  <Name>
ligand

>  <RI>
0

>  <Rbt.Current_Directory>
/home/itssahil/PROJECTS/Mol_Feturizer/New_Systems/rnas/2HO6

>  <Rbt.Executable>
rbdock ($Id: //depot/dev/client3/rdock/2013.1/src/exe/rbdock.cxx#4 $)

>  <Rbt.Library>
libRbt.so (2013.1, Build901 2013/11/27)

>  <Rbt.Parameter_File>
/export/apps/rDock/src/rDock_2013.1_src/data/scripts/dock_solv.prm

>  <Rbt.Receptor>
prm/blind_docking_20.prm

>  <SCORE>
-20.6226

>  <SCORE.INTER>
-20.3954

>  <SCORE.INTER.CONST>
1

>  <SCORE.INTER.POLAR>
-2.68328

>  <SCORE.INTER.ROT>
3

>  <SCORE.INTER.SOLV>
11.6265

>  <SCORE.INTER.VDW>
-14.1282

>  <SCORE.INTER.norm>
-1.69962

>  <SCORE.INTRA>
-0.227225

>  <SCORE.INTRA.DIHEDRAL>
2.70836

>  <SCORE.INTRA.DIHEDRAL.0>
1.88407

>  <SCORE.INTRA.POLAR>
0

>  <SCORE.INTRA.POLAR.0>
0

>  <SCORE.INTRA.REPUL>
0

>  <SCORE.INTRA.REPUL.0>
0

>  <SCORE.INTRA.SOLV>
1.12537

>  <SCORE.INTRA.SOLV.lig_0>
-10.2714

>  <SCORE.INTRA.VDW>
-2.14409

>  <SCORE.INTRA.VDW.0>
0.416923

>  <SCORE.INTRA.norm>
-0.0189354

>  <SCORE.RESTR>
0

>  <SCORE.RESTR.CAVITY>
0

>  <SCORE.RESTR.norm>
0

>  <SCORE.SYSTEM>
0

>  <SCORE.SYSTEM.CONST>
0

>  <SCORE.SYSTEM.DIHEDRAL>
0

>  <SCORE.SYSTEM.SOLV>
0

>  <SCORE.SYSTEM.norm>
0

>  <SCORE.heavy>
12

>  <SCORE.norm>
-1.71855

>  <RMSD>
43.222

$$$$
ligand
 OpenBabel11021811433D
libRbt.so/2013.1/901 2013/11/27
 12 12  0  0  0  0  0  0  0  0999 V2000
    8.1161   -2.6117   -0.7787 O   0  0  0  0  0  0  0  0  0  0  0  0
   10.5373    2.7509   -2.4085 O   0  0  0  0  0  0  0  0  0  0  0  0
    7.9870   -2.3902    0.6583 C   0  0  0  0  0  0  0  0  0  0  0  0
    8.9699    0.8880   -2.0186 O   0  0  0  0  0  0  0  0  0  0  0  0
    9.0828   -1.4148    1.1777 C   0  0  0  0  0  0  0  0  0  0  0  0
    9.2091    2.5521   -0.9872 O   0  0  0  0  0  0  0  0  0  0  0  0
    9.9405   -0.9789    0.0216 N   0  0  0  0  0  0  0  0  0  0  0  0
   10.5541   -2.1654   -0.6486 C   0  0  0  0  0  0  0  0  0  0  0  0
    9.4345   -3.1483   -1.0944 C   0  0  0  0  0  0  0  0  0  0  0  0
   11.0304   -0.0365    0.4551 C   0  0  0  0  0  0  0  0  0  0  0  0
   10.6562    1.4330    0.1446 C   0  0  0  0  0  0  0  0  0  0  0  0
   10.1655    1.6266   -1.5851 S   0  0  0  0  0  0  0  0  0  0  0  0
  1  3  1  0  0  0  0
  1  9  1  0  0  0  0
  2 12  1  0  0  0  0
  3  5  1  0  0  0  0
  4 12  2  0  0  0  0
  5  7  1  0  0  0  0
  6 12  2  0  0  0  0
  7  8  1  0  0  0  0
  7 10  1  0  0  0  0
  8  9  1  0  0  0  0
 10 11  1  0  0  0  0
 11 12  1  0  0  0  0
M  END
>  <CHROM.1>
-100.42342484,-52.06119769,-139.85818118,9.67148151,-0.06494186,-0.72021091
1.95518143,0.92703521,2.52058552

>  <Name>
ligand

>  <RI>
0

>  <Rbt.Current_Directory>
/home/itssahil/PROJECTS/Mol_Feturizer/New_Systems/rnas/2HO6

>  <Rbt.Executable>
rbdock ($Id: //depot/dev/client3/rdock/2013.1/src/exe/rbdock.cxx#4 $)

>  <Rbt.Library>
libRbt.so (2013.1, Build901 2013/11/27)

>  <Rbt.Parameter_File>
/export/apps/rDock/src/rDock_2013.1_src/data/scripts/dock_solv.prm

>  <Rbt.Receptor>
prm/blind_docking_60.prm

>  <SCORE>
-21.0022

>  <SCORE.INTER>
-20.5072

>  <SCORE.INTER.CONST>
1

>  <SCORE.INTER.POLAR>
-2.67854

>  <SCORE.INTER.ROT>
3

>  <SCORE.INTER.SOLV>
11.3677

>  <SCORE.INTER.VDW>
-14.1322

>  <SCORE.INTER.norm>
-1.70893

>  <SCORE.INTRA>
-0.49504

>  <SCORE.INTRA.DIHEDRAL>
1.98372

>  <SCORE.INTRA.DIHEDRAL.0>
1.88407

>  <SCORE.INTRA.POLAR>
0

>  <SCORE.INTRA.POLAR.0>
0

>  <SCORE.INTRA.REPUL>
0

>  <SCORE.INTRA.REPUL.0>
0

>  <SCORE.INTRA.SOLV>
1.11298

>  <SCORE.INTRA.SOLV.lig_0>
-10.2714

>  <SCORE.INTRA.VDW>
-2.04339

>  <SCORE.INTRA.VDW.0>
0.416923

>  <SCORE.INTRA.norm>
-0.0412534

>  <SCORE.RESTR>
0

>  <SCORE.RESTR.CAVITY>
0

>  <SCORE.RESTR.norm>
0

>  <SCORE.SYSTEM>
0

>  <SCORE.SYSTEM.CONST>
0

>  <SCORE.SYSTEM.DIHEDRAL>
0

>  <SCORE.SYSTEM.SOLV>
0

>  <SCORE.SYSTEM.norm>
0

>  <SCORE.heavy>
12

>  <SCORE.norm>
-1.75018

>  <RMSD>
43.222

$$$$
ligand
 OpenBabel11021811433D
libRbt.so/2013.1/901 2013/11/27
 12 12  0  0  0  0  0  0  0  0999 V2000
    8.1468   -2.6000   -0.7848 O   0  0  0  0  0  0  0  0  0  0  0  0
   10.5749    2.7219   -2.4542 O   0  0  0  0  0  0  0  0  0  0  0  0
    8.0162   -2.4716    0.6633 C   0  0  0  0  0  0  0  0  0  0  0  0
    8.9998    0.8607   -2.0876 O   0  0  0  0  0  0  0  0  0  0  0  0
    9.0457   -1.4528    1.2327 C   0  0  0  0  0  0  0  0  0  0  0  0
    9.1418    2.5799   -1.1313 O   0  0  0  0  0  0  0  0  0  0  0  0
    9.8596   -0.8914    0.0994 N   0  0  0  0  0  0  0  0  0  0  0  0
   10.5486   -1.9909   -0.6422 C   0  0  0  0  0  0  0  0  0  0  0  0
    9.4966   -3.0231   -1.1384 C   0  0  0  0  0  0  0  0  0  0  0  0
   10.8848    0.0991    0.5812 C   0  0  0  0  0  0  0  0  0  0  0  0
   10.5070    1.5419    0.1672 C   0  0  0  0  0  0  0  0  0  0  0  0
   10.1508    1.6375   -1.6031 S   0  0  0  0  0  0  0  0  0  0  0  0
  1  3  1  0  0  0  0
  1  9  1  0  0  0  0
  2 12  1  0  0  0  0
  3  5  1  0  0  0  0
  4 12  2  0  0  0  0
  5  7  1  0  0  0  0
  6 12  2  0  0  0  0
  7  8  1  0  0  0  0
  7 10  1  0  0  0  0
  8  9  1  0  0  0  0
 10 11  1  0  0  0  0
 11 12  1  0  0  0  0
M  END
>  <CHROM.1>
-109.05736211,-51.40727085,-139.25007060,9.64796030,-0.02754260,-0.72705838
2.06113952,1.07590231,2.37330610

>  <Name>
ligand

>  <RI>
0

>  <Rbt.Current_Directory>
/home/itssahil/PROJECTS/Mol_Feturizer/New_Systems/rnas/2HO6

>  <Rbt.Executable>
rbdock ($Id: //depot/dev/client3/rdock/2013.1/src/exe/rbdock.cxx#4 $)

>  <Rbt.Library>
libRbt.so (2013.1, Build901 2013/11/27)

>  <Rbt.Parameter_File>
/export/apps/rDock/src/rDock_2013.1_src/data/scripts/dock_solv.prm

>  <Rbt.Receptor>
prm/blind_docking_20.prm

>  <SCORE>
-20.7599

>  <SCORE.INTER>
-20.3945

>  <SCORE.INTER.CONST>
1

>  <SCORE.INTER.POLAR>
-2.68318

>  <SCORE.INTER.ROT>
3

>  <SCORE.INTER.SOLV>
11.7306

>  <SCORE.INTER.VDW>
-14.1625

>  <SCORE.INTER.norm>
-1.69954

>  <SCORE.INTRA>
-0.365427

>  <SCORE.INTRA.DIHEDRAL>
2.38359

>  <SCORE.INTRA.DIHEDRAL.0>
1.88407

>  <SCORE.INTRA.POLAR>
0

>  <SCORE.INTRA.POLAR.0>
0

>  <SCORE.INTRA.REPUL>
0

>  <SCORE.INTRA.REPUL.0>
0

>  <SCORE.INTRA.SOLV>
1.12041

>  <SCORE.INTRA.SOLV.lig_0>
-10.2714

>  <SCORE.INTRA.VDW>
-2.11743

>  <SCORE.INTRA.VDW.0>
0.416923

>  <SCORE.INTRA.norm>
-0.0304522

>  <SCORE.RESTR>
0

>  <SCORE.RESTR.CAVITY>
0

>  <SCORE.RESTR.norm>
0

>  <SCORE.SYSTEM>
0

>  <SCORE.SYSTEM.CONST>
0

>  <SCORE.SYSTEM.DIHEDRAL>
0

>  <SCORE.SYSTEM.SOLV>
0

>  <SCORE.SYSTEM.norm>
0

>  <SCORE.heavy>
12

>  <SCORE.norm>
-1.72999

>  <RMSD>
43.233

$$$$
ligand
 OpenBabel11021811433D
libRbt.so/2013.1/901 2013/11/27
 12 12  0  0  0  0  0  0  0  0999 V2000
    9.0488   -1.6039   -3.5466 O   0  0  0  0  0  0  0  0  0  0  0  0
    7.8366   -0.1617    0.1159 O   0  0  0  0  0  0  0  0  0  0  0  0
    9.8364   -2.2310   -2.4897 C   0  0  0  0  0  0  0  0  0  0  0  0
    9.3795    0.1099    2.0198 O   0  0  0  0  0  0  0  0  0  0  0  0
   10.5506   -1.1628   -1.6115 C   0  0  0  0  0  0  0  0  0  0  0  0
    8.2510    1.4594    1.1279 O   0  0  0  0  0  0  0  0  0  0  0  0
   10.1921    0.2077   -2.1164 N   0  0  0  0  0  0  0  0  0  0  0  0
   10.5775    0.3513   -3.5532 C   0  0  0  0  0  0  0  0  0  0  0  0
    9.8991   -0.7712   -4.3888 C   0  0  0  0  0  0  0  0  0  0  0  0
   10.8574    1.2933   -1.3145 C   0  0  0  0  0  0  0  0  0  0  0  0
    9.9481    1.7712   -0.1566 C   0  0  0  0  0  0  0  0  0  0  0  0
    9.0809    0.3792    0.6051 S   0  0  0  0  0  0  0  0  0  0  0  0
  1  3  1  0  0  0  0
  1  9  1  0  0  0  0
  2 12  1  0  0  0  0
  3  5  1  0  0  0  0
  4 12  2  0  0  0  0
  5  7  1  0  0  0  0
  6 12  2  0  0  0  0
  7  8  1  0  0  0  0
  7 10  1  0  0  0  0
  8  9  1  0  0  0  0
 10 11  1  0  0  0  0
 11 12  1  0  0  0  0
M  END
>  <CHROM.1>
-92.34174832,39.35452623,-85.27880655,9.53091360,0.00729594,-1.05204686,1.19373328
-0.94649476,-2.23936279

>  <Name>
ligand

>  <RI>
0

>  <Rbt.Current_Directory>
/home/itssahil/PROJECTS/Mol_Feturizer/New_Systems/rnas/2HO6

>  <Rbt.Executable>
rbdock ($Id: //depot/dev/client3/rdock/2013.1/src/exe/rbdock.cxx#4 $)

>  <Rbt.Library>
libRbt.so (2013.1, Build901 2013/11/27)

>  <Rbt.Parameter_File>
/export/apps/rDock/src/rDock_2013.1_src/data/scripts/dock_solv.prm

>  <Rbt.Receptor>
prm/blind_docking_100.prm

>  <SCORE>
-17.7441

>  <SCORE.INTER>
-17.7961

>  <SCORE.INTER.CONST>
1

>  <SCORE.INTER.POLAR>
-2.64975

>  <SCORE.INTER.ROT>
3

>  <SCORE.INTER.SOLV>
15.0594

>  <SCORE.INTER.VDW>
-13.6514

>  <SCORE.INTER.norm>
-1.48301

>  <SCORE.INTRA>
0.0520199

>  <SCORE.INTRA.DIHEDRAL>
2.87119

>  <SCORE.INTRA.DIHEDRAL.0>
1.88407

>  <SCORE.INTRA.POLAR>
0

>  <SCORE.INTRA.POLAR.0>
0

>  <SCORE.INTRA.REPUL>
0

>  <SCORE.INTRA.REPUL.0>
0

>  <SCORE.INTRA.SOLV>
0.318023

>  <SCORE.INTRA.SOLV.lig_0>
-10.2714

>  <SCORE.INTRA.VDW>
-1.54259

>  <SCORE.INTRA.VDW.0>
0.416923

>  <SCORE.INTRA.norm>
0.00433499

>  <SCORE.RESTR>
0

>  <SCORE.RESTR.CAVITY>
0

>  <SCORE.RESTR.norm>
0

>  <SCORE.SYSTEM>
0

>  <SCORE.SYSTEM.CONST>
0

>  <SCORE.SYSTEM.DIHEDRAL>
0

>  <SCORE.SYSTEM.SOLV>
0

>  <SCORE.SYSTEM.norm>
0

>  <SCORE.heavy>
12

>  <SCORE.norm>
-1.47868

>  <RMSD>
43.251

$$$$
ligand
 OpenBabel11021811433D
libRbt.so/2013.1/901 2013/11/27
 12 12  0  0  0  0  0  0  0  0999 V2000
    8.2623   -2.7015   -1.0258 O   0  0  0  0  0  0  0  0  0  0  0  0
    8.6403    1.0493   -1.4693 O   0  0  0  0  0  0  0  0  0  0  0  0
    7.8817   -2.7397    0.3829 C   0  0  0  0  0  0  0  0  0  0  0  0
    9.5424    3.2643   -0.8699 O   0  0  0  0  0  0  0  0  0  0  0  0
    8.7500   -1.7617    1.2267 C   0  0  0  0  0  0  0  0  0  0  0  0
   10.4339    1.7615   -1.7848 O   0  0  0  0  0  0  0  0  0  0  0  0
    9.7168   -1.0540    0.3176 N   0  0  0  0  0  0  0  0  0  0  0  0
   10.5732   -2.0434   -0.4043 C   0  0  0  0  0  0  0  0  0  0  0  0
    9.6710   -3.0434   -1.1817 C   0  0  0  0  0  0  0  0  0  0  0  0
   10.5970   -0.0945    1.0719 C   0  0  0  0  0  0  0  0  0  0  0  0
   10.9865    1.1178    0.1919 C   0  0  0  0  0  0  0  0  0  0  0  0
    9.5364    1.8124   -0.6356 S   0  0  0  0  0  0  0  0  0  0  0  0
  1  3  1  0  0  0  0
  1  9  1  0  0  0  0
  2 12  1  0  0  0  0
  3  5  1  0  0  0  0
  4 12  2  0  0  0  0
  5  7  1  0  0  0  0
  6 12  2  0  0  0  0
  7  8  1  0  0  0  0
  7 10  1  0  0  0  0
  8  9  1  0  0  0  0
 10 11  1  0  0  0  0
 11 12  1  0  0  0  0
M  END
>  <CHROM.1>
-148.69300086,47.88893921,-55.05119000,9.53468218,-0.11749281,-0.41325231
1.83329701,0.80601099,2.80022728

>  <Name>
ligand

>  <RI>
0

>  <Rbt.Current_Directory>
/home/itssahil/PROJECTS/Mol_Feturizer/New_Systems/rnas/2HO6

>  <Rbt.Executable>
rbdock ($Id: //depot/dev/client3/rdock/2013.1/src/exe/rbdock.cxx#4 $)

>  <Rbt.Library>
libRbt.so (2013.1, Build901 2013/11/27)

>  <Rbt.Parameter_File>
/export/apps/rDock/src/rDock_2013.1_src/data/scripts/dock_solv.prm

>  <Rbt.Receptor>
prm/blind_docking_20.prm

>  <SCORE>
-21.5104

>  <SCORE.INTER>
-20.526

>  <SCORE.INTER.CONST>
1

>  <SCORE.INTER.POLAR>
-2.68328

>  <SCORE.INTER.ROT>
3

>  <SCORE.INTER.SOLV>
11.912

>  <SCORE.INTER.VDW>
-14.3104

>  <SCORE.INTER.norm>
-1.7105

>  <SCORE.INTRA>
-0.984415

>  <SCORE.INTRA.DIHEDRAL>
1.62073

>  <SCORE.INTRA.DIHEDRAL.0>
1.88407

>  <SCORE.INTRA.POLAR>
0

>  <SCORE.INTRA.POLAR.0>
0

>  <SCORE.INTRA.REPUL>
0

>  <SCORE.INTRA.REPUL.0>
0

>  <SCORE.INTRA.SOLV>
0.28012

>  <SCORE.INTRA.SOLV.lig_0>
-10.2714

>  <SCORE.INTRA.VDW>
-1.93484

>  <SCORE.INTRA.VDW.0>
0.416923

>  <SCORE.INTRA.norm>
-0.0820346

>  <SCORE.RESTR>
0

>  <SCORE.RESTR.CAVITY>
0

>  <SCORE.RESTR.norm>
0

>  <SCORE.SYSTEM>
0

>  <SCORE.SYSTEM.CONST>
0

>  <SCORE.SYSTEM.DIHEDRAL>
0

>  <SCORE.SYSTEM.SOLV>
0

>  <SCORE.SYSTEM.norm>
0

>  <SCORE.heavy>
12

>  <SCORE.norm>
-1.79253

>  <RMSD>
43.251

$$$$
ligand
 OpenBabel11021811433D
libRbt.so/2013.1/901 2013/11/27
 12 12  0  0  0  0  0  0  0  0999 V2000
    8.1419   -2.6281   -0.8171 O   0  0  0  0  0  0  0  0  0  0  0  0
   10.7963    2.4984   -2.6081 O   0  0  0  0  0  0  0  0  0  0  0  0
    8.0158   -2.5548    0.6352 C   0  0  0  0  0  0  0  0  0  0  0  0
    9.0788    0.7724   -2.2205 O   0  0  0  0  0  0  0  0  0  0  0  0
    9.0081   -1.5161    1.2341 C   0  0  0  0  0  0  0  0  0  0  0  0
    9.2663    2.5522   -1.3915 O   0  0  0  0  0  0  0  0  0  0  0  0
    9.7917   -0.8844    0.1166 N   0  0  0  0  0  0  0  0  0  0  0  0
   10.5186   -1.9296   -0.6661 C   0  0  0  0  0  0  0  0  0  0  0  0
    9.5049   -2.9850   -1.1921 C   0  0  0  0  0  0  0  0  0  0  0  0
   10.7802    0.1289    0.6270 C   0  0  0  0  0  0  0  0  0  0  0  0
   10.4632    1.5432    0.0837 C   0  0  0  0  0  0  0  0  0  0  0  0
   10.2414    1.5149   -1.7108 S   0  0  0  0  0  0  0  0  0  0  0  0
  1  3  1  0  0  0  0
  1  9  1  0  0  0  0
  2 12  1  0  0  0  0
  3  5  1  0  0  0  0
  4 12  2  0  0  0  0
  5  7  1  0  0  0  0
  6 12  2  0  0  0  0
  7  8  1  0  0  0  0
  7 10  1  0  0  0  0
  8  9  1  0  0  0  0
 10 11  1  0  0  0  0
 11 12  1  0  0  0  0
M  END
>  <CHROM.1>
-117.76187280,-50.15110784,-136.56035336,9.67759339,-0.07869122,-0.80156081
2.24107930,1.14518617,2.14700307

>  <Name>
ligand

>  <RI>
0

>  <Rbt.Current_Directory>
/home/itssahil/PROJECTS/Mol_Feturizer/New_Systems/rnas/2HO6

>  <Rbt.Executable>
rbdock ($Id: //depot/dev/client3/rdock/2013.1/src/exe/rbdock.cxx#4 $)

>  <Rbt.Library>
libRbt.so (2013.1, Build901 2013/11/27)

>  <Rbt.Parameter_File>
/export/apps/rDock/src/rDock_2013.1_src/data/scripts/dock_solv.prm

>  <Rbt.Receptor>
prm/blind_docking_40.prm

>  <SCORE>
-20.5833

>  <SCORE.INTER>
-20.3099

>  <SCORE.INTER.CONST>
1

>  <SCORE.INTER.POLAR>
-2.67782

>  <SCORE.INTER.ROT>
3

>  <SCORE.INTER.SOLV>
11.8395

>  <SCORE.INTER.VDW>
-14.1604

>  <SCORE.INTER.norm>
-1.69249

>  <SCORE.INTRA>
-0.273408

>  <SCORE.INTRA.DIHEDRAL>
2.62408

>  <SCORE.INTRA.DIHEDRAL.0>
1.88407

>  <SCORE.INTRA.POLAR>
0

>  <SCORE.INTRA.POLAR.0>
0

>  <SCORE.INTRA.REPUL>
0

>  <SCORE.INTRA.REPUL.0>
0

>  <SCORE.INTRA.SOLV>
1.11585

>  <SCORE.INTRA.SOLV.lig_0>
-10.2714

>  <SCORE.INTRA.VDW>
-2.14337

>  <SCORE.INTRA.VDW.0>
0.416923

>  <SCORE.INTRA.norm>
-0.022784

>  <SCORE.RESTR>
0

>  <SCORE.RESTR.CAVITY>
0

>  <SCORE.RESTR.norm>
0

>  <SCORE.SYSTEM>
0

>  <SCORE.SYSTEM.CONST>
0

>  <SCORE.SYSTEM.DIHEDRAL>
0

>  <SCORE.SYSTEM.SOLV>
0

>  <SCORE.SYSTEM.norm>
0

>  <SCORE.heavy>
12

>  <SCORE.norm>
-1.71528

>  <RMSD>
43.251

$$$$
ligand
 OpenBabel11021811433D
libRbt.so/2013.1/901 2013/11/27
 12 12  0  0  0  0  0  0  0  0999 V2000
    8.2596   -2.7052   -1.0304 O   0  0  0  0  0  0  0  0  0  0  0  0
    8.7091    1.0375   -1.5794 O   0  0  0  0  0  0  0  0  0  0  0  0
    7.8911   -2.7542    0.3812 C   0  0  0  0  0  0  0  0  0  0  0  0
    9.4797    3.2534   -0.8208 O   0  0  0  0  0  0  0  0  0  0  0  0
    8.7596   -1.7753    1.2234 C   0  0  0  0  0  0  0  0  0  0  0  0
   10.4779    1.8474   -1.7782 O   0  0  0  0  0  0  0  0  0  0  0  0
    9.7139   -1.0556    0.3106 N   0  0  0  0  0  0  0  0  0  0  0  0
   10.5711   -2.0349   -0.4243 C   0  0  0  0  0  0  0  0  0  0  0  0
    9.6693   -3.0365   -1.2000 C   0  0  0  0  0  0  0  0  0  0  0  0
   10.5938   -0.0945    1.0631 C   0  0  0  0  0  0  0  0  0  0  0  0
   10.9809    1.1177    0.1818 C   0  0  0  0  0  0  0  0  0  0  0  0
    9.5335    1.7917   -0.6674 S   0  0  0  0  0  0  0  0  0  0  0  0
  1  3  1  0  0  0  0
  1  9  1  0  0  0  0
  2 12  1  0  0  0  0
  3  5  1  0  0  0  0
  4 12  2  0  0  0  0
  5  7  1  0  0  0  0
  6 12  2  0  0  0  0
  7  8  1  0  0  0  0
  7 10  1  0  0  0  0
  8  9  1  0  0  0  0
 10 11  1  0  0  0  0
 11 12  1  0  0  0  0
M  END
>  <CHROM.1>
-149.33682852,46.88601801,-59.43302919,9.53836837,-0.11705065,-0.42835647
1.84442886,0.84342863,2.78276195

>  <Name>
ligand

>  <RI>
0

>  <Rbt.Current_Directory>
/home/itssahil/PROJECTS/Mol_Feturizer/New_Systems/rnas/2HO6

>  <Rbt.Executable>
rbdock ($Id: //depot/dev/client3/rdock/2013.1/src/exe/rbdock.cxx#4 $)

>  <Rbt.Library>
libRbt.so (2013.1, Build901 2013/11/27)

>  <Rbt.Parameter_File>
/export/apps/rDock/src/rDock_2013.1_src/data/scripts/dock_solv.prm

>  <Rbt.Receptor>
prm/blind_docking_80.prm

>  <SCORE>
-21.5467

>  <SCORE.INTER>
-20.6154

>  <SCORE.INTER.CONST>
1

>  <SCORE.INTER.POLAR>
-2.67977

>  <SCORE.INTER.ROT>
3

>  <SCORE.INTER.SOLV>
11.9256

>  <SCORE.INTER.VDW>
-14.3862

>  <SCORE.INTER.norm>
-1.71795

>  <SCORE.INTRA>
-0.93131

>  <SCORE.INTRA.DIHEDRAL>
1.68548

>  <SCORE.INTRA.DIHEDRAL.0>
1.88407

>  <SCORE.INTRA.POLAR>
0

>  <SCORE.INTRA.POLAR.0>
0

>  <SCORE.INTRA.REPUL>
0

>  <SCORE.INTRA.REPUL.0>
0

>  <SCORE.INTRA.SOLV>
0.266695

>  <SCORE.INTRA.SOLV.lig_0>
-10.2714

>  <SCORE.INTRA.VDW>
-1.9074

>  <SCORE.INTRA.VDW.0>
0.416923

>  <SCORE.INTRA.norm>
-0.0776092

>  <SCORE.RESTR>
0

>  <SCORE.RESTR.CAVITY>
0

>  <SCORE.RESTR.norm>
0

>  <SCORE.SYSTEM>
0

>  <SCORE.SYSTEM.CONST>
0

>  <SCORE.SYSTEM.DIHEDRAL>
0

>  <SCORE.SYSTEM.SOLV>
0

>  <SCORE.SYSTEM.norm>
0

>  <SCORE.heavy>
12

>  <SCORE.norm>
-1.79556

>  <RMSD>
43.251

$$$$
ligand
 OpenBabel11021811433D
libRbt.so/2013.1/901 2013/11/27
 12 12  0  0  0  0  0  0  0  0999 V2000
    8.2541   -2.6996   -1.0111 O   0  0  0  0  0  0  0  0  0  0  0  0
    8.6266    1.0554   -1.4617 O   0  0  0  0  0  0  0  0  0  0  0  0
    7.8853   -2.7423    0.4006 C   0  0  0  0  0  0  0  0  0  0  0  0
    9.5422    3.2698   -0.8806 O   0  0  0  0  0  0  0  0  0  0  0  0
    8.7555   -1.7615    1.2390 C   0  0  0  0  0  0  0  0  0  0  0  0
   10.4217    1.7575   -1.7914 O   0  0  0  0  0  0  0  0  0  0  0  0
    9.7112   -1.0472    0.3234 N   0  0  0  0  0  0  0  0  0  0  0  0
   10.5667   -2.0310   -0.4073 C   0  0  0  0  0  0  0  0  0  0  0  0
    9.6632   -3.0341   -1.1792 C   0  0  0  0  0  0  0  0  0  0  0  0
   10.5927   -0.0847    1.0722 C   0  0  0  0  0  0  0  0  0  0  0  0
   10.9823    1.1231    0.1861 C   0  0  0  0  0  0  0  0  0  0  0  0
    9.5308    1.8193   -0.6376 S   0  0  0  0  0  0  0  0  0  0  0  0
  1  3  1  0  0  0  0
  1  9  1  0  0  0  0
  2 12  1  0  0  0  0
  3  5  1  0  0  0  0
  4 12  2  0  0  0  0
  5  7  1  0  0  0  0
  6 12  2  0  0  0  0
  7  8  1  0  0  0  0
  7 10  1  0  0  0  0
  8  9  1  0  0  0  0
 10 11  1  0  0  0  0
 11 12  1  0  0  0  0
M  END
>  <CHROM.1>
-149.34842816,48.14947048,-54.88747196,9.52954027,-0.11258306,-0.41103793
1.83401708,0.81069730,2.79535381

>  <Name>
ligand

>  <RI>
0

>  <Rbt.Current_Directory>
/home/itssahil/PROJECTS/Mol_Feturizer/New_Systems/rnas/2HO6

>  <Rbt.Executable>
rbdock ($Id: //depot/dev/client3/rdock/2013.1/src/exe/rbdock.cxx#4 $)

>  <Rbt.Library>
libRbt.so (2013.1, Build901 2013/11/27)

>  <Rbt.Parameter_File>
/export/apps/rDock/src/rDock_2013.1_src/data/scripts/dock_solv.prm

>  <Rbt.Receptor>
prm/blind_docking_100.prm

>  <SCORE>
-21.4935

>  <SCORE.INTER>
-20.4892

>  <SCORE.INTER.CONST>
1

>  <SCORE.INTER.POLAR>
-2.67715

>  <SCORE.INTER.ROT>
3

>  <SCORE.INTER.SOLV>
11.8936

>  <SCORE.INTER.VDW>
-14.3002

>  <SCORE.INTER.norm>
-1.70743

>  <SCORE.INTRA>
-1.00431

>  <SCORE.INTRA.DIHEDRAL>
1.55697

>  <SCORE.INTRA.DIHEDRAL.0>
1.88407

>  <SCORE.INTRA.POLAR>
0

>  <SCORE.INTRA.POLAR.0>
0

>  <SCORE.INTRA.REPUL>
0

>  <SCORE.INTRA.REPUL.0>
0

>  <SCORE.INTRA.SOLV>
0.282555

>  <SCORE.INTRA.SOLV.lig_0>
-10.2714

>  <SCORE.INTRA.VDW>
-1.92407

>  <SCORE.INTRA.VDW.0>
0.416923

>  <SCORE.INTRA.norm>
-0.0836924

>  <SCORE.RESTR>
0

>  <SCORE.RESTR.CAVITY>
0

>  <SCORE.RESTR.norm>
0

>  <SCORE.SYSTEM>
0

>  <SCORE.SYSTEM.CONST>
0

>  <SCORE.SYSTEM.DIHEDRAL>
0

>  <SCORE.SYSTEM.SOLV>
0

>  <SCORE.SYSTEM.norm>
0

>  <SCORE.heavy>
12

>  <SCORE.norm>
-1.79113

>  <RMSD>
43.253

$$$$
ligand
 OpenBabel11021811433D
libRbt.so/2013.1/901 2013/11/27
 12 12  0  0  0  0  0  0  0  0999 V2000
    8.2409   -2.7089   -1.0197 O   0  0  0  0  0  0  0  0  0  0  0  0
    8.7667    1.0250   -1.7114 O   0  0  0  0  0  0  0  0  0  0  0  0
    7.9134   -2.8210    0.3983 C   0  0  0  0  0  0  0  0  0  0  0  0
    9.9970    3.1534   -1.5233 O   0  0  0  0  0  0  0  0  0  0  0  0
    8.7049   -1.7801    1.2422 C   0  0  0  0  0  0  0  0  0  0  0  0
   10.6716    1.3617   -1.9975 O   0  0  0  0  0  0  0  0  0  0  0  0
    9.5636   -0.9543    0.3242 N   0  0  0  0  0  0  0  0  0  0  0  0
   10.4920   -1.8322   -0.4510 C   0  0  0  0  0  0  0  0  0  0  0  0
    9.6712   -2.9001   -1.2282 C   0  0  0  0  0  0  0  0  0  0  0  0
   10.3659    0.0717    1.0778 C   0  0  0  0  0  0  0  0  0  0  0  0
   10.9848    1.1149    0.1164 C   0  0  0  0  0  0  0  0  0  0  0  0
    9.7280    1.8134   -0.9803 S   0  0  0  0  0  0  0  0  0  0  0  0
  1  3  1  0  0  0  0
  1  9  1  0  0  0  0
  2 12  1  0  0  0  0
  3  5  1  0  0  0  0
  4 12  2  0  0  0  0
  5  7  1  0  0  0  0
  6 12  2  0  0  0  0
  7  8  1  0  0  0  0
  7 10  1  0  0  0  0
  8  9  1  0  0  0  0
 10 11  1  0  0  0  0
 11 12  1  0  0  0  0
M  END
>  <CHROM.1>
-166.92299685,51.56748192,-47.65465448,9.59731755,-0.12462024,-0.57000947
2.13290143,1.08364685,2.38805136

>  <Name>
ligand

>  <RI>
0

>  <Rbt.Current_Directory>
/home/itssahil/PROJECTS/Mol_Feturizer/New_Systems/rnas/2HO6

>  <Rbt.Executable>
rbdock ($Id: //depot/dev/client3/rdock/2013.1/src/exe/rbdock.cxx#4 $)

>  <Rbt.Library>
libRbt.so (2013.1, Build901 2013/11/27)

>  <Rbt.Parameter_File>
/export/apps/rDock/src/rDock_2013.1_src/data/scripts/dock_solv.prm

>  <Rbt.Receptor>
prm/blind_docking_40.prm

>  <SCORE>
-21.4435

>  <SCORE.INTER>
-20.3348

>  <SCORE.INTER.CONST>
1

>  <SCORE.INTER.POLAR>
-2.68328

>  <SCORE.INTER.ROT>
3

>  <SCORE.INTER.SOLV>
11.9263

>  <SCORE.INTER.VDW>
-14.1877

>  <SCORE.INTER.norm>
-1.69457

>  <SCORE.INTRA>
-1.10869

>  <SCORE.INTRA.DIHEDRAL>
0.348152

>  <SCORE.INTRA.DIHEDRAL.0>
1.88407

>  <SCORE.INTRA.POLAR>
0

>  <SCORE.INTRA.POLAR.0>
0

>  <SCORE.INTRA.REPUL>
0

>  <SCORE.INTRA.REPUL.0>
0

>  <SCORE.INTRA.SOLV>
0.375113

>  <SCORE.INTRA.SOLV.lig_0>
-10.2714

>  <SCORE.INTRA.VDW>
-1.47032

>  <SCORE.INTRA.VDW.0>
0.416923

>  <SCORE.INTRA.norm>
-0.0923906

>  <SCORE.RESTR>
0

>  <SCORE.RESTR.CAVITY>
0

>  <SCORE.RESTR.norm>
0

>  <SCORE.SYSTEM>
0

>  <SCORE.SYSTEM.CONST>
0

>  <SCORE.SYSTEM.DIHEDRAL>
0

>  <SCORE.SYSTEM.SOLV>
0

>  <SCORE.SYSTEM.norm>
0

>  <SCORE.heavy>
12

>  <SCORE.norm>
-1.78696

>  <RMSD>
43.257

$$$$
ligand
 OpenBabel11021811433D
libRbt.so/2013.1/901 2013/11/27
 12 12  0  0  0  0  0  0  0  0999 V2000
    8.2052   -2.6955   -0.9675 O   0  0  0  0  0  0  0  0  0  0  0  0
    8.7110    1.0379   -1.5915 O   0  0  0  0  0  0  0  0  0  0  0  0
    7.8653   -2.7574    0.4507 C   0  0  0  0  0  0  0  0  0  0  0  0
    9.4630    3.2526   -0.8113 O   0  0  0  0  0  0  0  0  0  0  0  0
    8.7419   -1.7766    1.2824 C   0  0  0  0  0  0  0  0  0  0  0  0
   10.4793    1.8552   -1.7623 O   0  0  0  0  0  0  0  0  0  0  0  0
    9.6717   -1.0424    0.3559 N   0  0  0  0  0  0  0  0  0  0  0  0
   10.5224   -2.0091   -0.4026 C   0  0  0  0  0  0  0  0  0  0  0  0
    9.6141   -3.0133   -1.1673 C   0  0  0  0  0  0  0  0  0  0  0  0
   10.5580   -0.0788    1.0976 C   0  0  0  0  0  0  0  0  0  0  0  0
   10.9585    1.1174    0.2006 C   0  0  0  0  0  0  0  0  0  0  0  0
    9.5202    1.7904   -0.6647 S   0  0  0  0  0  0  0  0  0  0  0  0
  1  3  1  0  0  0  0
  1  9  1  0  0  0  0
  2 12  1  0  0  0  0
  3  5  1  0  0  0  0
  4 12  2  0  0  0  0
  5  7  1  0  0  0  0
  6 12  2  0  0  0  0
  7  8  1  0  0  0  0
  7 10  1  0  0  0  0
  8  9  1  0  0  0  0
 10 11  1  0  0  0  0
 11 12  1  0  0  0  0
M  END
>  <CHROM.1>
-151.37400595,46.77567447,-60.83510904,9.51269682,-0.11057768,-0.40132600
1.86966230,0.87874199,2.74426604

>  <Name>
ligand

>  <RI>
0

>  <Rbt.Current_Directory>
/home/itssahil/PROJECTS/Mol_Feturizer/New_Systems/rnas/2HO6

>  <Rbt.Executable>
rbdock ($Id: //depot/dev/client3/rdock/2013.1/src/exe/rbdock.cxx#4 $)

>  <Rbt.Library>
libRbt.so (2013.1, Build901 2013/11/27)

>  <Rbt.Parameter_File>
/export/apps/rDock/src/rDock_2013.1_src/data/scripts/dock_solv.prm

>  <Rbt.Receptor>
prm/blind_docking_100.prm

>  <SCORE>
-21.7104

>  <SCORE.INTER>
-20.7638

>  <SCORE.INTER.CONST>
1

>  <SCORE.INTER.POLAR>
-2.68328

>  <SCORE.INTER.ROT>
3

>  <SCORE.INTER.SOLV>
11.956

>  <SCORE.INTER.VDW>
-14.4836

>  <SCORE.INTER.norm>
-1.73032

>  <SCORE.INTRA>
-0.946642

>  <SCORE.INTRA.DIHEDRAL>
1.57386

>  <SCORE.INTRA.DIHEDRAL.0>
1.88407

>  <SCORE.INTRA.POLAR>
0

>  <SCORE.INTRA.POLAR.0>
0

>  <SCORE.INTRA.REPUL>
0

>  <SCORE.INTRA.REPUL.0>
0

>  <SCORE.INTRA.SOLV>
0.267083

>  <SCORE.INTRA.SOLV.lig_0>
-10.2714

>  <SCORE.INTRA.VDW>
-1.86711

>  <SCORE.INTRA.VDW.0>
0.416923

>  <SCORE.INTRA.norm>
-0.0788868

>  <SCORE.RESTR>
0

>  <SCORE.RESTR.CAVITY>
0

>  <SCORE.RESTR.norm>
0

>  <SCORE.SYSTEM>
0

>  <SCORE.SYSTEM.CONST>
0

>  <SCORE.SYSTEM.DIHEDRAL>
0

>  <SCORE.SYSTEM.SOLV>
0

>  <SCORE.SYSTEM.norm>
0

>  <SCORE.heavy>
12

>  <SCORE.norm>
-1.8092

>  <RMSD>
43.266

$$$$
ligand
 OpenBabel11021811433D
libRbt.so/2013.1/901 2013/11/27
 12 12  0  0  0  0  0  0  0  0999 V2000
    8.2010   -2.6896   -0.9546 O   0  0  0  0  0  0  0  0  0  0  0  0
    8.6347    1.0639   -1.4858 O   0  0  0  0  0  0  0  0  0  0  0  0
    7.8241   -2.7148    0.4554 C   0  0  0  0  0  0  0  0  0  0  0  0
    9.5593    3.2741   -0.9033 O   0  0  0  0  0  0  0  0  0  0  0  0
    8.6933   -1.7278    1.2876 C   0  0  0  0  0  0  0  0  0  0  0  0
   10.4421    1.7472   -1.7861 O   0  0  0  0  0  0  0  0  0  0  0  0
    9.6569   -1.0276    0.3693 N   0  0  0  0  0  0  0  0  0  0  0  0
   10.5127   -2.0228   -0.3454 C   0  0  0  0  0  0  0  0  0  0  0  0
    9.6098   -3.0313   -1.1109 C   0  0  0  0  0  0  0  0  0  0  0  0
   10.5378   -0.0599    1.1121 C   0  0  0  0  0  0  0  0  0  0  0  0
   10.9590    1.1225    0.2064 C   0  0  0  0  0  0  0  0  0  0  0  0
    9.5299    1.8257   -0.6501 S   0  0  0  0  0  0  0  0  0  0  0  0
  1  3  1  0  0  0  0
  1  9  1  0  0  0  0
  2 12  1  0  0  0  0
  3  5  1  0  0  0  0
  4 12  2  0  0  0  0
  5  7  1  0  0  0  0
  6 12  2  0  0  0  0
  7  8  1  0  0  0  0
  7 10  1  0  0  0  0
  8  9  1  0  0  0  0
 10 11  1  0  0  0  0
 11 12  1  0  0  0  0
M  END
>  <CHROM.1>
-150.42958086,48.52615570,-55.84945084,9.50255165,-0.10214069,-0.38730782
1.86322327,0.83644714,2.75213713

>  <Name>
ligand

>  <RI>
0

>  <Rbt.Current_Directory>
/home/itssahil/PROJECTS/Mol_Feturizer/New_Systems/rnas/2HO6

>  <Rbt.Executable>
rbdock ($Id: //depot/dev/client3/rdock/2013.1/src/exe/rbdock.cxx#4 $)

>  <Rbt.Library>
libRbt.so (2013.1, Build901 2013/11/27)

>  <Rbt.Parameter_File>
/export/apps/rDock/src/rDock_2013.1_src/data/scripts/dock_solv.prm

>  <Rbt.Receptor>
prm/blind_docking_60.prm

>  <SCORE>
-21.6219

>  <SCORE.INTER>
-20.5946

>  <SCORE.INTER.CONST>
1

>  <SCORE.INTER.POLAR>
-2.67776

>  <SCORE.INTER.ROT>
3

>  <SCORE.INTER.SOLV>
11.9568

>  <SCORE.INTER.VDW>
-14.3895

>  <SCORE.INTER.norm>
-1.71622

>  <SCORE.INTRA>
-1.02729

>  <SCORE.INTRA.DIHEDRAL>
1.46154

>  <SCORE.INTRA.DIHEDRAL.0>
1.88407

>  <SCORE.INTRA.POLAR>
0

>  <SCORE.INTRA.POLAR.0>
0

>  <SCORE.INTRA.REPUL>
0

>  <SCORE.INTRA.REPUL.0>
0

>  <SCORE.INTRA.SOLV>
0.282117

>  <SCORE.INTRA.SOLV.lig_0>
-10.2714

>  <SCORE.INTRA.VDW>
-1.89912

>  <SCORE.INTRA.VDW.0>
0.416923

>  <SCORE.INTRA.norm>
-0.0856074

>  <SCORE.RESTR>
0

>  <SCORE.RESTR.CAVITY>
0

>  <SCORE.RESTR.norm>
0

>  <SCORE.SYSTEM>
0

>  <SCORE.SYSTEM.CONST>
0

>  <SCORE.SYSTEM.DIHEDRAL>
0

>  <SCORE.SYSTEM.SOLV>
0

>  <SCORE.SYSTEM.norm>
0

>  <SCORE.heavy>
12

>  <SCORE.norm>
-1.80182

>  <RMSD>
43.271

$$$$
ligand
 OpenBabel11021811433D
libRbt.so/2013.1/901 2013/11/27
 12 12  0  0  0  0  0  0  0  0999 V2000
    8.1913   -2.7079   -0.9761 O   0  0  0  0  0  0  0  0  0  0  0  0
    8.7188    1.0348   -1.6010 O   0  0  0  0  0  0  0  0  0  0  0  0
    7.8717   -2.7919    0.4457 C   0  0  0  0  0  0  0  0  0  0  0  0
    9.4852    3.2400   -0.8079 O   0  0  0  0  0  0  0  0  0  0  0  0
    8.7528   -1.8162    1.2787 C   0  0  0  0  0  0  0  0  0  0  0  0
   10.4928    1.8409   -1.7655 O   0  0  0  0  0  0  0  0  0  0  0  0
    9.6640   -1.0623    0.3496 N   0  0  0  0  0  0  0  0  0  0  0  0
   10.5111   -2.0120   -0.4340 C   0  0  0  0  0  0  0  0  0  0  0  0
    9.5995   -3.0123   -1.1999 C   0  0  0  0  0  0  0  0  0  0  0  0
   10.5536   -0.1024    1.0922 C   0  0  0  0  0  0  0  0  0  0  0  0
   10.9649    1.0890    0.1938 C   0  0  0  0  0  0  0  0  0  0  0  0
    9.5322    1.7766   -0.6692 S   0  0  0  0  0  0  0  0  0  0  0  0
  1  3  1  0  0  0  0
  1  9  1  0  0  0  0
  2 12  1  0  0  0  0
  3  5  1  0  0  0  0
  4 12  2  0  0  0  0
  5  7  1  0  0  0  0
  6 12  2  0  0  0  0
  7  8  1  0  0  0  0
  7 10  1  0  0  0  0
  8  9  1  0  0  0  0
 10 11  1  0  0  0  0
 11 12  1  0  0  0  0
M  END
>  <CHROM.1>
-152.96594059,47.19547877,-61.27316559,9.51608689,-0.12700895,-0.41012022
1.88502723,0.89778969,2.72959130

>  <Name>
ligand

>  <RI>
0

>  <Rbt.Current_Directory>
/home/itssahil/PROJECTS/Mol_Feturizer/New_Systems/rnas/2HO6

>  <Rbt.Executable>
rbdock ($Id: //depot/dev/client3/rdock/2013.1/src/exe/rbdock.cxx#4 $)

>  <Rbt.Library>
libRbt.so (2013.1, Build901 2013/11/27)

>  <Rbt.Parameter_File>
/export/apps/rDock/src/rDock_2013.1_src/data/scripts/dock_solv.prm

>  <Rbt.Receptor>
prm/blind_docking_60.prm

>  <SCORE>
-21.703

>  <SCORE.INTER>
-20.7242

>  <SCORE.INTER.CONST>
1

>  <SCORE.INTER.POLAR>
-2.68249

>  <SCORE.INTER.ROT>
3

>  <SCORE.INTER.SOLV>
11.9627

>  <SCORE.INTER.VDW>
-14.4621

>  <SCORE.INTER.norm>
-1.72702

>  <SCORE.INTRA>
-0.978761

>  <SCORE.INTRA.DIHEDRAL>
1.43921

>  <SCORE.INTRA.DIHEDRAL.0>
1.88407

>  <SCORE.INTRA.POLAR>
0

>  <SCORE.INTRA.POLAR.0>
0

>  <SCORE.INTRA.REPUL>
0

>  <SCORE.INTRA.REPUL.0>
0

>  <SCORE.INTRA.SOLV>
0.26957

>  <SCORE.INTRA.SOLV.lig_0>
-10.2714

>  <SCORE.INTRA.VDW>
-1.83315

>  <SCORE.INTRA.VDW.0>
0.416923

>  <SCORE.INTRA.norm>
-0.0815634

>  <SCORE.RESTR>
0

>  <SCORE.RESTR.CAVITY>
0

>  <SCORE.RESTR.norm>
0

>  <SCORE.SYSTEM>
0

>  <SCORE.SYSTEM.CONST>
0

>  <SCORE.SYSTEM.DIHEDRAL>
0

>  <SCORE.SYSTEM.SOLV>
0

>  <SCORE.SYSTEM.norm>
0

>  <SCORE.heavy>
12

>  <SCORE.norm>
-1.80858

>  <RMSD>
43.273

$$$$
ligand
 OpenBabel11021811433D
libRbt.so/2013.1/901 2013/11/27
 12 12  0  0  0  0  0  0  0  0999 V2000
    8.1912   -2.7249   -1.0072 O   0  0  0  0  0  0  0  0  0  0  0  0
    8.6285    1.0311   -1.3902 O   0  0  0  0  0  0  0  0  0  0  0  0
    7.8668   -2.7500    0.4158 C   0  0  0  0  0  0  0  0  0  0  0  0
    9.2113    3.1298   -0.2347 O   0  0  0  0  0  0  0  0  0  0  0  0
    8.8321   -1.8394    1.2288 C   0  0  0  0  0  0  0  0  0  0  0  0
   10.2836    2.0663   -1.5032 O   0  0  0  0  0  0  0  0  0  0  0  0
    9.8061   -1.1895    0.2849 N   0  0  0  0  0  0  0  0  0  0  0  0
   10.5644   -2.2272   -0.4778 C   0  0  0  0  0  0  0  0  0  0  0  0
    9.5665   -3.1582   -1.2232 C   0  0  0  0  0  0  0  0  0  0  0  0
   10.7784   -0.2972    1.0079 C   0  0  0  0  0  0  0  0  0  0  0  0
   10.9959    1.0303    0.2422 C   0  0  0  0  0  0  0  0  0  0  0  0
    9.4299    1.6831   -0.3838 S   0  0  0  0  0  0  0  0  0  0  0  0
  1  3  1  0  0  0  0
  1  9  1  0  0  0  0
  2 12  1  0  0  0  0
  3  5  1  0  0  0  0
  4 12  2  0  0  0  0
  5  7  1  0  0  0  0
  6 12  2  0  0  0  0
  7  8  1  0  0  0  0
  7 10  1  0  0  0  0
  8  9  1  0  0  0  0
 10 11  1  0  0  0  0
 11 12  1  0  0  0  0
M  END
>  <CHROM.1>
-137.44017220,42.47776546,-65.43365194,9.48751387,-0.18687893,-0.29724322
1.74947558,0.59867907,2.96695630

>  <Name>
ligand

>  <RI>
0

>  <Rbt.Current_Directory>
/home/itssahil/PROJECTS/Mol_Feturizer/New_Systems/rnas/2HO6

>  <Rbt.Executable>
rbdock ($Id: //depot/dev/client3/rdock/2013.1/src/exe/rbdock.cxx#4 $)

>  <Rbt.Library>
libRbt.so (2013.1, Build901 2013/11/27)

>  <Rbt.Parameter_File>
/export/apps/rDock/src/rDock_2013.1_src/data/scripts/dock_solv.prm

>  <Rbt.Receptor>
prm/blind_docking_80.prm

>  <SCORE>
-20.6868

>  <SCORE.INTER>
-20.2338

>  <SCORE.INTER.CONST>
1

>  <SCORE.INTER.POLAR>
-2.68328

>  <SCORE.INTER.ROT>
3

>  <SCORE.INTER.SOLV>
11.6813

>  <SCORE.INTER.VDW>
-14.0387

>  <SCORE.INTER.norm>
-1.68615

>  <SCORE.INTRA>
-0.453623

>  <SCORE.INTRA.DIHEDRAL>
2.87127

>  <SCORE.INTRA.DIHEDRAL.0>
1.88407

>  <SCORE.INTRA.POLAR>
0

>  <SCORE.INTRA.POLAR.0>
0

>  <SCORE.INTRA.REPUL>
0

>  <SCORE.INTRA.REPUL.0>
0

>  <SCORE.INTRA.SOLV>
0.229909

>  <SCORE.INTRA.SOLV.lig_0>
-10.2714

>  <SCORE.INTRA.VDW>
-2.00421

>  <SCORE.INTRA.VDW.0>
0.416923

>  <SCORE.INTRA.norm>
-0.0378019

>  <SCORE.RESTR>
0.00066082

>  <SCORE.RESTR.CAVITY>
0.00066082

>  <SCORE.RESTR.norm>
5.50683e-05

>  <SCORE.SYSTEM>
0

>  <SCORE.SYSTEM.CONST>
0

>  <SCORE.SYSTEM.DIHEDRAL>
0

>  <SCORE.SYSTEM.SOLV>
0

>  <SCORE.SYSTEM.norm>
0

>  <SCORE.heavy>
12

>  <SCORE.norm>
-1.7239

>  <RMSD>
43.274

$$$$
ligand
 OpenBabel11021811433D
libRbt.so/2013.1/901 2013/11/27
 12 12  0  0  0  0  0  0  0  0999 V2000
    8.0847   -2.6729   -0.8475 O   0  0  0  0  0  0  0  0  0  0  0  0
    8.7298    1.0072   -1.5167 O   0  0  0  0  0  0  0  0  0  0  0  0
    7.8709   -2.7895    0.5917 C   0  0  0  0  0  0  0  0  0  0  0  0
    9.1818    3.1172   -0.3239 O   0  0  0  0  0  0  0  0  0  0  0  0
    8.8534   -1.8772    1.3820 C   0  0  0  0  0  0  0  0  0  0  0  0
   10.3672    2.0762   -1.5076 O   0  0  0  0  0  0  0  0  0  0  0  0
    9.7227   -1.1312    0.4074 N   0  0  0  0  0  0  0  0  0  0  0  0
   10.4666   -2.0886   -0.4664 C   0  0  0  0  0  0  0  0  0  0  0  0
    9.4576   -3.0263   -1.1882 C   0  0  0  0  0  0  0  0  0  0  0  0
   10.7062   -0.2321    1.1065 C   0  0  0  0  0  0  0  0  0  0  0  0
   10.9686    1.0547    0.2874 C   0  0  0  0  0  0  0  0  0  0  0  0
    9.4405    1.6754   -0.4543 S   0  0  0  0  0  0  0  0  0  0  0  0
  1  3  1  0  0  0  0
  1  9  1  0  0  0  0
  2 12  1  0  0  0  0
  3  5  1  0  0  0  0
  4 12  2  0  0  0  0
  5  7  1  0  0  0  0
  6 12  2  0  0  0  0
  7  8  1  0  0  0  0
  7 10  1  0  0  0  0
  8  9  1  0  0  0  0
 10 11  1  0  0  0  0
 11 12  1  0  0  0  0
M  END
>  <CHROM.1>
-146.14631252,39.88243719,-68.78967307,9.46700294,-0.16143714,-0.26751421
1.82080707,0.78702276,2.84021959

>  <Name>
ligand

>  <RI>
0

>  <Rbt.Current_Directory>
/home/itssahil/PROJECTS/Mol_Feturizer/New_Systems/rnas/2HO6

>  <Rbt.Executable>
rbdock ($Id: //depot/dev/client3/rdock/2013.1/src/exe/rbdock.cxx#4 $)

>  <Rbt.Library>
libRbt.so (2013.1, Build901 2013/11/27)

>  <Rbt.Parameter_File>
/export/apps/rDock/src/rDock_2013.1_src/data/scripts/dock_solv.prm

>  <Rbt.Receptor>
prm/blind_docking_60.prm

>  <SCORE>
-20.9858

>  <SCORE.INTER>
-20.5496

>  <SCORE.INTER.CONST>
1

>  <SCORE.INTER.POLAR>
-2.6642

>  <SCORE.INTER.ROT>
3

>  <SCORE.INTER.SOLV>
11.9032

>  <SCORE.INTER.VDW>
-14.3868

>  <SCORE.INTER.norm>
-1.71247

>  <SCORE.INTRA>
-0.438354

>  <SCORE.INTRA.DIHEDRAL>
2.69073

>  <SCORE.INTRA.DIHEDRAL.0>
1.88407

>  <SCORE.INTRA.POLAR>
0

>  <SCORE.INTRA.POLAR.0>
0

>  <SCORE.INTRA.REPUL>
0

>  <SCORE.INTRA.REPUL.0>
0

>  <SCORE.INTRA.SOLV>
0.240715

>  <SCORE.INTRA.SOLV.lig_0>
-10.2714

>  <SCORE.INTRA.VDW>
-1.90408

>  <SCORE.INTRA.VDW.0>
0.416923

>  <SCORE.INTRA.norm>
-0.0365295

>  <SCORE.RESTR>
0.00220241

>  <SCORE.RESTR.CAVITY>
0.00220241

>  <SCORE.RESTR.norm>
0.000183534

>  <SCORE.SYSTEM>
0

>  <SCORE.SYSTEM.CONST>
0

>  <SCORE.SYSTEM.DIHEDRAL>
0

>  <SCORE.SYSTEM.SOLV>
0

>  <SCORE.SYSTEM.norm>
0

>  <SCORE.heavy>
12

>  <SCORE.norm>
-1.74882

>  <RMSD>
43.279

$$$$
ligand
 OpenBabel11021811433D
libRbt.so/2013.1/901 2013/11/27
 12 12  0  0  0  0  0  0  0  0999 V2000
    8.1198   -2.7016   -0.9142 O   0  0  0  0  0  0  0  0  0  0  0  0
    8.6885    1.0149   -1.4649 O   0  0  0  0  0  0  0  0  0  0  0  0
    7.8242   -2.7353    0.5148 C   0  0  0  0  0  0  0  0  0  0  0  0
    9.2001    3.1133   -0.2757 O   0  0  0  0  0  0  0  0  0  0  0  0
    8.8028   -1.8258    1.3131 C   0  0  0  0  0  0  0  0  0  0  0  0
   10.3363    2.0673   -1.5025 O   0  0  0  0  0  0  0  0  0  0  0  0
    9.7555   -1.1678    0.3532 N   0  0  0  0  0  0  0  0  0  0  0  0
   10.5015   -2.1990   -0.4300 C   0  0  0  0  0  0  0  0  0  0  0  0
    9.4918   -3.1293   -1.1602 C   0  0  0  0  0  0  0  0  0  0  0  0
   10.7394   -0.2762    1.0613 C   0  0  0  0  0  0  0  0  0  0  0  0
   10.9842    1.0294    0.2668 C   0  0  0  0  0  0  0  0  0  0  0  0
    9.4397    1.6697   -0.4223 S   0  0  0  0  0  0  0  0  0  0  0  0
  1  3  1  0  0  0  0
  1  9  1  0  0  0  0
  2 12  1  0  0  0  0
  3  5  1  0  0  0  0
  4 12  2  0  0  0  0
  5  7  1  0  0  0  0
  6 12  2  0  0  0  0
  7  8  1  0  0  0  0
  7 10  1  0  0  0  0
  8  9  1  0  0  0  0
 10 11  1  0  0  0  0
 11 12  1  0  0  0  0
M  END
>  <CHROM.1>
-139.92710103,40.88370615,-67.56597501,9.46916928,-0.18060659,-0.27362635
1.78450676,0.66762040,2.90668253

>  <Name>
ligand

>  <RI>
0

>  <Rbt.Current_Directory>
/home/itssahil/PROJECTS/Mol_Feturizer/New_Systems/rnas/2HO6

>  <Rbt.Executable>
rbdock ($Id: //depot/dev/client3/rdock/2013.1/src/exe/rbdock.cxx#4 $)

>  <Rbt.Library>
libRbt.so (2013.1, Build901 2013/11/27)

>  <Rbt.Parameter_File>
/export/apps/rDock/src/rDock_2013.1_src/data/scripts/dock_solv.prm

>  <Rbt.Receptor>
prm/blind_docking_60.prm

>  <SCORE>
-20.8242

>  <SCORE.INTER>
-20.4336

>  <SCORE.INTER.CONST>
1

>  <SCORE.INTER.POLAR>
-2.68328

>  <SCORE.INTER.ROT>
3

>  <SCORE.INTER.SOLV>
11.7431

>  <SCORE.INTER.VDW>
-14.1925

>  <SCORE.INTER.norm>
-1.7028

>  <SCORE.INTRA>
-0.390614

>  <SCORE.INTRA.DIHEDRAL>
2.93334

>  <SCORE.INTRA.DIHEDRAL.0>
1.88407

>  <SCORE.INTRA.POLAR>
0

>  <SCORE.INTRA.POLAR.0>
0

>  <SCORE.INTRA.REPUL>
0

>  <SCORE.INTRA.REPUL.0>
0

>  <SCORE.INTRA.SOLV>
0.232147

>  <SCORE.INTRA.SOLV.lig_0>
-10.2714

>  <SCORE.INTRA.VDW>
-1.97336

>  <SCORE.INTRA.VDW.0>
0.416923

>  <SCORE.INTRA.norm>
-0.0325512

>  <SCORE.RESTR>
0

>  <SCORE.RESTR.CAVITY>
0

>  <SCORE.RESTR.norm>
0

>  <SCORE.SYSTEM>
0

>  <SCORE.SYSTEM.CONST>
0

>  <SCORE.SYSTEM.DIHEDRAL>
0

>  <SCORE.SYSTEM.SOLV>
0

>  <SCORE.SYSTEM.norm>
0

>  <SCORE.heavy>
12

>  <SCORE.norm>
-1.73535

>  <RMSD>
43.285

$$$$
ligand
 OpenBabel11021811433D
libRbt.so/2013.1/901 2013/11/27
 12 12  0  0  0  0  0  0  0  0999 V2000
   10.0266    1.5560   -2.3869 O   0  0  0  0  0  0  0  0  0  0  0  0
    7.4508   -3.8119    0.3291 O   0  0  0  0  0  0  0  0  0  0  0  0
   11.2806    0.8404   -2.1722 C   0  0  0  0  0  0  0  0  0  0  0  0
    7.0211   -1.3887    0.1784 O   0  0  0  0  0  0  0  0  0  0  0  0
   11.2475    0.0345   -0.8412 C   0  0  0  0  0  0  0  0  0  0  0  0
    8.3543   -2.4800   -0.7817 O   0  0  0  0  0  0  0  0  0  0  0  0
    9.9091    0.2281   -0.1830 N   0  0  0  0  0  0  0  0  0  0  0  0
    9.6546    1.6799    0.0638 C   0  0  0  0  0  0  0  0  0  0  0  0
    9.7613    2.4622   -1.2759 C   0  0  0  0  0  0  0  0  0  0  0  0
    9.8102   -0.5202    1.1188 C   0  0  0  0  0  0  0  0  0  0  0  0
    9.6485   -2.0409    0.8795 C   0  0  0  0  0  0  0  0  0  0  0  0
    7.9139   -2.4751    0.6093 S   0  0  0  0  0  0  0  0  0  0  0  0
  1  3  1  0  0  0  0
  1  9  1  0  0  0  0
  2 12  1  0  0  0  0
  3  5  1  0  0  0  0
  4 12  2  0  0  0  0
  5  7  1  0  0  0  0
  6 12  2  0  0  0  0
  7  8  1  0  0  0  0
  7 10  1  0  0  0  0
  8  9  1  0  0  0  0
 10 11  1  0  0  0  0
 11 12  1  0  0  0  0
M  END
>  <CHROM.1>
-74.15986059,-84.94432628,178.51503990,9.16164998,-0.71925486,-0.29265999
1.05740520,-0.03048119,-0.42054703

>  <Name>
ligand

>  <RI>
0

>  <Rbt.Current_Directory>
/home/itssahil/PROJECTS/Mol_Feturizer/New_Systems/rnas/2HO6

>  <Rbt.Executable>
rbdock ($Id: //depot/dev/client3/rdock/2013.1/src/exe/rbdock.cxx#4 $)

>  <Rbt.Library>
libRbt.so (2013.1, Build901 2013/11/27)

>  <Rbt.Parameter_File>
/export/apps/rDock/src/rDock_2013.1_src/data/scripts/dock_solv.prm

>  <Rbt.Receptor>
prm/blind_docking_60.prm

>  <SCORE>
-21.5838

>  <SCORE.INTER>
-22.0732

>  <SCORE.INTER.CONST>
1

>  <SCORE.INTER.POLAR>
-2.2307

>  <SCORE.INTER.ROT>
3

>  <SCORE.INTER.SOLV>
9.99771

>  <SCORE.INTER.VDW>
-16.2124

>  <SCORE.INTER.norm>
-1.83943

>  <SCORE.INTRA>
0.489425

>  <SCORE.INTRA.DIHEDRAL>
2.31794

>  <SCORE.INTRA.DIHEDRAL.0>
1.88407

>  <SCORE.INTRA.POLAR>
0

>  <SCORE.INTRA.POLAR.0>
0

>  <SCORE.INTRA.REPUL>
0

>  <SCORE.INTRA.REPUL.0>
0

>  <SCORE.INTRA.SOLV>
0.995816

>  <SCORE.INTRA.SOLV.lig_0>
-10.2714

>  <SCORE.INTRA.VDW>
-1.16745

>  <SCORE.INTRA.VDW.0>
0.416923

>  <SCORE.INTRA.norm>
0.0407854

>  <SCORE.RESTR>
0

>  <SCORE.RESTR.CAVITY>
0

>  <SCORE.RESTR.norm>
0

>  <SCORE.SYSTEM>
0

>  <SCORE.SYSTEM.CONST>
0

>  <SCORE.SYSTEM.DIHEDRAL>
0

>  <SCORE.SYSTEM.SOLV>
0

>  <SCORE.SYSTEM.norm>
0

>  <SCORE.heavy>
12

>  <SCORE.norm>
-1.79865

>  <RMSD>
43.289

$$$$
ligand
 OpenBabel11021811433D
libRbt.so/2013.1/901 2013/11/27
 12 12  0  0  0  0  0  0  0  0999 V2000
    9.9909    1.5200   -2.3664 O   0  0  0  0  0  0  0  0  0  0  0  0
    7.6368   -3.7655    0.2345 O   0  0  0  0  0  0  0  0  0  0  0  0
   11.1932    0.7492   -2.0651 C   0  0  0  0  0  0  0  0  0  0  0  0
    6.9617   -1.3951    0.1674 O   0  0  0  0  0  0  0  0  0  0  0  0
   11.0787    0.0468   -0.6810 C   0  0  0  0  0  0  0  0  0  0  0  0
    8.5132   -2.2733   -0.6761 O   0  0  0  0  0  0  0  0  0  0  0  0
    9.7392    0.3671   -0.0769 N   0  0  0  0  0  0  0  0  0  0  0  0
    9.5680    1.8457    0.0574 C   0  0  0  0  0  0  0  0  0  0  0  0
    9.7547    2.5196   -1.3316 C   0  0  0  0  0  0  0  0  0  0  0  0
    9.5633   -0.2762    1.2720 C   0  0  0  0  0  0  0  0  0  0  0  0
    9.5422   -1.8197    1.1577 C   0  0  0  0  0  0  0  0  0  0  0  0
    7.9115   -2.4108    0.6460 S   0  0  0  0  0  0  0  0  0  0  0  0
  1  3  1  0  0  0  0
  1  9  1  0  0  0  0
  2 12  1  0  0  0  0
  3  5  1  0  0  0  0
  4 12  2  0  0  0  0
  5  7  1  0  0  0  0
  6 12  2  0  0  0  0
  7  8  1  0  0  0  0
  7 10  1  0  0  0  0
  8  9  1  0  0  0  0
 10 11  1  0  0  0  0
 11 12  1  0  0  0  0
M  END
>  <CHROM.1>
-65.04812648,-80.85006210,169.02965034,9.11881924,-0.63725400,-0.23130571
-0.18373123,-1.07170526,-2.18342783

>  <Name>
ligand

>  <RI>
0

>  <Rbt.Current_Directory>
/home/itssahil/PROJECTS/Mol_Feturizer/New_Systems/rnas/2HO6

>  <Rbt.Executable>
rbdock ($Id: //depot/dev/client3/rdock/2013.1/src/exe/rbdock.cxx#4 $)

>  <Rbt.Library>
libRbt.so (2013.1, Build901 2013/11/27)

>  <Rbt.Parameter_File>
/export/apps/rDock/src/rDock_2013.1_src/data/scripts/dock_solv.prm

>  <Rbt.Receptor>
prm/blind_docking_100.prm

>  <SCORE>
-21.778

>  <SCORE.INTER>
-22.275

>  <SCORE.INTER.CONST>
1

>  <SCORE.INTER.POLAR>
-2.22322

>  <SCORE.INTER.ROT>
3

>  <SCORE.INTER.SOLV>
10.1533

>  <SCORE.INTER.VDW>
-16.4237

>  <SCORE.INTER.norm>
-1.85625

>  <SCORE.INTRA>
0.497004

>  <SCORE.INTRA.DIHEDRAL>
1.49908

>  <SCORE.INTRA.DIHEDRAL.0>
1.88407

>  <SCORE.INTRA.POLAR>
0

>  <SCORE.INTRA.POLAR.0>
0

>  <SCORE.INTRA.REPUL>
0

>  <SCORE.INTRA.REPUL.0>
0

>  <SCORE.INTRA.SOLV>
1.16832

>  <SCORE.INTRA.SOLV.lig_0>
-10.2714

>  <SCORE.INTRA.VDW>
-0.836698

>  <SCORE.INTRA.VDW.0>
0.416923

>  <SCORE.INTRA.norm>
0.041417

>  <SCORE.RESTR>
0

>  <SCORE.RESTR.CAVITY>
0

>  <SCORE.RESTR.norm>
0

>  <SCORE.SYSTEM>
0

>  <SCORE.SYSTEM.CONST>
0

>  <SCORE.SYSTEM.DIHEDRAL>
0

>  <SCORE.SYSTEM.SOLV>
0

>  <SCORE.SYSTEM.norm>
0

>  <SCORE.heavy>
12

>  <SCORE.norm>
-1.81483

>  <RMSD>
43.293

$$$$
ligand
 OpenBabel11021811433D
libRbt.so/2013.1/901 2013/11/27
 12 12  0  0  0  0  0  0  0  0999 V2000
    9.2381   -3.4882   -0.9084 O   0  0  0  0  0  0  0  0  0  0  0  0
   11.0391    2.1284   -1.7097 O   0  0  0  0  0  0  0  0  0  0  0  0
    8.2100   -3.3572    0.1194 C   0  0  0  0  0  0  0  0  0  0  0  0
    9.1294    0.7019   -2.3399 O   0  0  0  0  0  0  0  0  0  0  0  0
    8.4058   -2.0544    0.9479 C   0  0  0  0  0  0  0  0  0  0  0  0
    9.1367    2.4120   -1.3572 O   0  0  0  0  0  0  0  0  0  0  0  0
    9.6002   -1.3099    0.4177 N   0  0  0  0  0  0  0  0  0  0  0  0
   10.8202   -2.1711    0.4780 C   0  0  0  0  0  0  0  0  0  0  0  0
   10.5648   -3.4910   -0.3036 C   0  0  0  0  0  0  0  0  0  0  0  0
    9.8535   -0.0383    1.1813 C   0  0  0  0  0  0  0  0  0  0  0  0
    9.3296    1.1944    0.4056 C   0  0  0  0  0  0  0  0  0  0  0  0
    9.9940    1.2342   -1.2759 S   0  0  0  0  0  0  0  0  0  0  0  0
  1  3  1  0  0  0  0
  1  9  1  0  0  0  0
  2 12  1  0  0  0  0
  3  5  1  0  0  0  0
  4 12  2  0  0  0  0
  5  7  1  0  0  0  0
  6 12  2  0  0  0  0
  7  8  1  0  0  0  0
  7 10  1  0  0  0  0
  8  9  1  0  0  0  0
 10 11  1  0  0  0  0
 11 12  1  0  0  0  0
M  END
>  <CHROM.1>
-101.13743755,-53.19415646,-104.85061871,9.64678870,-0.46248649,-0.49643030
-2.12825680,1.38119229,0.25625588

>  <Name>
ligand

>  <RI>
0

>  <Rbt.Current_Directory>
/home/itssahil/PROJECTS/Mol_Feturizer/New_Systems/rnas/2HO6

>  <Rbt.Executable>
rbdock ($Id: //depot/dev/client3/rdock/2013.1/src/exe/rbdock.cxx#4 $)

>  <Rbt.Library>
libRbt.so (2013.1, Build901 2013/11/27)

>  <Rbt.Parameter_File>
/export/apps/rDock/src/rDock_2013.1_src/data/scripts/dock_solv.prm

>  <Rbt.Receptor>
prm/blind_docking_60.prm

>  <SCORE>
-13.4481

>  <SCORE.INTER>
-12.9187

>  <SCORE.INTER.CONST>
1

>  <SCORE.INTER.POLAR>
-1.3405

>  <SCORE.INTER.ROT>
3

>  <SCORE.INTER.SOLV>
8.55246

>  <SCORE.INTER.VDW>
-12.595

>  <SCORE.INTER.norm>
-1.07656

>  <SCORE.INTRA>
-0.52935

>  <SCORE.INTRA.DIHEDRAL>
2.07721

>  <SCORE.INTRA.DIHEDRAL.0>
1.88407

>  <SCORE.INTRA.POLAR>
0

>  <SCORE.INTRA.POLAR.0>
0

>  <SCORE.INTRA.REPUL>
0

>  <SCORE.INTRA.REPUL.0>
0

>  <SCORE.INTRA.SOLV>
0.543593

>  <SCORE.INTRA.SOLV.lig_0>
-10.2714

>  <SCORE.INTRA.VDW>
-1.83975

>  <SCORE.INTRA.VDW.0>
0.416923

>  <SCORE.INTRA.norm>
-0.0441125

>  <SCORE.RESTR>
0

>  <SCORE.RESTR.CAVITY>
0

>  <SCORE.RESTR.norm>
0

>  <SCORE.SYSTEM>
0

>  <SCORE.SYSTEM.CONST>
0

>  <SCORE.SYSTEM.DIHEDRAL>
0

>  <SCORE.SYSTEM.SOLV>
0

>  <SCORE.SYSTEM.norm>
0

>  <SCORE.heavy>
12

>  <SCORE.norm>
-1.12067

>  <RMSD>
43.300

$$$$
ligand
 OpenBabel11021811433D
libRbt.so/2013.1/901 2013/11/27
 12 12  0  0  0  0  0  0  0  0999 V2000
    9.9958    1.5664   -2.3301 O   0  0  0  0  0  0  0  0  0  0  0  0
    7.3792   -3.7949    0.3544 O   0  0  0  0  0  0  0  0  0  0  0  0
   11.2770    0.9010   -2.1147 C   0  0  0  0  0  0  0  0  0  0  0  0
    7.0192   -1.3613    0.1902 O   0  0  0  0  0  0  0  0  0  0  0  0
   11.2660    0.0728   -0.7970 C   0  0  0  0  0  0  0  0  0  0  0  0
    8.3119   -2.4976   -0.7729 O   0  0  0  0  0  0  0  0  0  0  0  0
    9.9148    0.1989   -0.1488 N   0  0  0  0  0  0  0  0  0  0  0  0
    9.5967    1.6344    0.1186 C   0  0  0  0  0  0  0  0  0  0  0  0
    9.6823    2.4423   -1.2074 C   0  0  0  0  0  0  0  0  0  0  0  0
    9.8359   -0.5741    1.1398 C   0  0  0  0  0  0  0  0  0  0  0  0
    9.6322   -2.0854    0.8746 C   0  0  0  0  0  0  0  0  0  0  0  0
    7.8834   -2.4704    0.6215 S   0  0  0  0  0  0  0  0  0  0  0  0
  1  3  1  0  0  0  0
  1  9  1  0  0  0  0
  2 12  1  0  0  0  0
  3  5  1  0  0  0  0
  4 12  2  0  0  0  0
  5  7  1  0  0  0  0
  6 12  2  0  0  0  0
  7  8  1  0  0  0  0
  7 10  1  0  0  0  0
  8  9  1  0  0  0  0
 10 11  1  0  0  0  0
 11 12  1  0  0  0  0
M  END
>  <CHROM.1>
-78.50429264,-84.08172148,-179.95553497,9.13680405,-0.72221264,-0.26233196
1.05004970,-0.10021805,-0.45311130

>  <Name>
ligand

>  <RI>
0

>  <Rbt.Current_Directory>
/home/itssahil/PROJECTS/Mol_Feturizer/New_Systems/rnas/2HO6

>  <Rbt.Executable>
rbdock ($Id: //depot/dev/client3/rdock/2013.1/src/exe/rbdock.cxx#4 $)

>  <Rbt.Library>
libRbt.so (2013.1, Build901 2013/11/27)

>  <Rbt.Parameter_File>
/export/apps/rDock/src/rDock_2013.1_src/data/scripts/dock_solv.prm

>  <Rbt.Receptor>
prm/blind_docking_60.prm

>  <SCORE>
-21.4822

>  <SCORE.INTER>
-21.8821

>  <SCORE.INTER.CONST>
1

>  <SCORE.INTER.POLAR>
-2.23216

>  <SCORE.INTER.ROT>
3

>  <SCORE.INTER.SOLV>
10.0121

>  <SCORE.INTER.VDW>
-16.0849

>  <SCORE.INTER.norm>
-1.82351

>  <SCORE.INTRA>
0.399908

>  <SCORE.INTRA.DIHEDRAL>
2.40906

>  <SCORE.INTRA.DIHEDRAL.0>
1.88407

>  <SCORE.INTRA.POLAR>
0

>  <SCORE.INTRA.POLAR.0>
0

>  <SCORE.INTRA.REPUL>
0

>  <SCORE.INTRA.REPUL.0>
0

>  <SCORE.INTRA.SOLV>
0.998441

>  <SCORE.INTRA.SOLV.lig_0>
-10.2714

>  <SCORE.INTRA.VDW>
-1.30384

>  <SCORE.INTRA.VDW.0>
0.416923

>  <SCORE.INTRA.norm>
0.0333257

>  <SCORE.RESTR>
0

>  <SCORE.RESTR.CAVITY>
0

>  <SCORE.RESTR.norm>
0

>  <SCORE.SYSTEM>
0

>  <SCORE.SYSTEM.CONST>
0

>  <SCORE.SYSTEM.DIHEDRAL>
0

>  <SCORE.SYSTEM.SOLV>
0

>  <SCORE.SYSTEM.norm>
0

>  <SCORE.heavy>
12

>  <SCORE.norm>
-1.79018

>  <RMSD>
43.303

$$$$
ligand
 OpenBabel11021811433D
libRbt.so/2013.1/901 2013/11/27
 12 12  0  0  0  0  0  0  0  0999 V2000
   10.0077    1.4461   -2.3609 O   0  0  0  0  0  0  0  0  0  0  0  0
    7.4536   -3.7806    0.2606 O   0  0  0  0  0  0  0  0  0  0  0  0
   11.2657    0.7552   -2.0949 C   0  0  0  0  0  0  0  0  0  0  0  0
    7.0121   -1.3560    0.1875 O   0  0  0  0  0  0  0  0  0  0  0  0
   11.2167    0.0021   -0.7337 C   0  0  0  0  0  0  0  0  0  0  0  0
    8.4179   -2.3948   -0.7260 O   0  0  0  0  0  0  0  0  0  0  0  0
    9.8640    0.2049   -0.1085 N   0  0  0  0  0  0  0  0  0  0  0  0
    9.5880    1.6621    0.0757 C   0  0  0  0  0  0  0  0  0  0  0  0
    9.7109    2.3921   -1.2918 C   0  0  0  0  0  0  0  0  0  0  0  0
    9.7492   -0.4926    1.2198 C   0  0  0  0  0  0  0  0  0  0  0  0
    9.5917   -2.0216    1.0376 C   0  0  0  0  0  0  0  0  0  0  0  0
    7.8837   -2.4546    0.6304 S   0  0  0  0  0  0  0  0  0  0  0  0
  1  3  1  0  0  0  0
  1  9  1  0  0  0  0
  2 12  1  0  0  0  0
  3  5  1  0  0  0  0
  4 12  2  0  0  0  0
  5  7  1  0  0  0  0
  6 12  2  0  0  0  0
  7  8  1  0  0  0  0
  7 10  1  0  0  0  0
  8  9  1  0  0  0  0
 10 11  1  0  0  0  0
 11 12  1  0  0  0  0
M  END
>  <CHROM.1>
-74.88556262,-80.36417063,173.03058883,9.13632003,-0.72576825,-0.25023525
1.00352231,-0.40273325,-0.65367930

>  <Name>
ligand

>  <RI>
0

>  <Rbt.Current_Directory>
/home/itssahil/PROJECTS/Mol_Feturizer/New_Systems/rnas/2HO6

>  <Rbt.Executable>
rbdock ($Id: //depot/dev/client3/rdock/2013.1/src/exe/rbdock.cxx#4 $)

>  <Rbt.Library>
libRbt.so (2013.1, Build901 2013/11/27)

>  <Rbt.Parameter_File>
/export/apps/rDock/src/rDock_2013.1_src/data/scripts/dock_solv.prm

>  <Rbt.Receptor>
prm/blind_docking_80.prm

>  <SCORE>
-21.6468

>  <SCORE.INTER>
-21.859

>  <SCORE.INTER.CONST>
1

>  <SCORE.INTER.POLAR>
-2.22553

>  <SCORE.INTER.ROT>
3

>  <SCORE.INTER.SOLV>
9.86567

>  <SCORE.INTER.VDW>
-16.0428

>  <SCORE.INTER.norm>
-1.82159

>  <SCORE.INTRA>
0.212245

>  <SCORE.INTRA.DIHEDRAL>
1.76088

>  <SCORE.INTRA.DIHEDRAL.0>
1.88407

>  <SCORE.INTRA.POLAR>
0

>  <SCORE.INTRA.POLAR.0>
0

>  <SCORE.INTRA.REPUL>
0

>  <SCORE.INTRA.REPUL.0>
0

>  <SCORE.INTRA.SOLV>
1.12675

>  <SCORE.INTRA.SOLV.lig_0>
-10.2714

>  <SCORE.INTRA.VDW>
-1.23157

>  <SCORE.INTRA.VDW.0>
0.416923

>  <SCORE.INTRA.norm>
0.0176871

>  <SCORE.RESTR>
0

>  <SCORE.RESTR.CAVITY>
0

>  <SCORE.RESTR.norm>
0

>  <SCORE.SYSTEM>
0

>  <SCORE.SYSTEM.CONST>
0

>  <SCORE.SYSTEM.DIHEDRAL>
0

>  <SCORE.SYSTEM.SOLV>
0

>  <SCORE.SYSTEM.norm>
0

>  <SCORE.heavy>
12

>  <SCORE.norm>
-1.8039

>  <RMSD>
43.303

$$$$
ligand
 OpenBabel11021811433D
libRbt.so/2013.1/901 2013/11/27
 12 12  0  0  0  0  0  0  0  0999 V2000
    9.9766    1.5156   -2.2986 O   0  0  0  0  0  0  0  0  0  0  0  0
    7.4354   -3.7862    0.2842 O   0  0  0  0  0  0  0  0  0  0  0  0
   11.2322    0.8213   -2.0303 C   0  0  0  0  0  0  0  0  0  0  0  0
    6.9701   -1.3670    0.1842 O   0  0  0  0  0  0  0  0  0  0  0  0
   11.1713    0.0507   -0.6795 C   0  0  0  0  0  0  0  0  0  0  0  0
    8.3901   -2.4010   -0.7127 O   0  0  0  0  0  0  0  0  0  0  0  0
    9.8130    0.2453   -0.0638 N   0  0  0  0  0  0  0  0  0  0  0  0
    9.5351    1.7000    0.1367 C   0  0  0  0  0  0  0  0  0  0  0  0
    9.6701    2.4476   -1.2201 C   0  0  0  0  0  0  0  0  0  0  0  0
    9.6865   -0.4693    1.2543 C   0  0  0  0  0  0  0  0  0  0  0  0
    9.5525   -1.9980    1.0518 C   0  0  0  0  0  0  0  0  0  0  0  0
    7.8507   -2.4522    0.6420 S   0  0  0  0  0  0  0  0  0  0  0  0
  1  3  1  0  0  0  0
  1  9  1  0  0  0  0
  2 12  1  0  0  0  0
  3  5  1  0  0  0  0
  4 12  2  0  0  0  0
  5  7  1  0  0  0  0
  6 12  2  0  0  0  0
  7  8  1  0  0  0  0
  7 10  1  0  0  0  0
  8  9  1  0  0  0  0
 10 11  1  0  0  0  0
 11 12  1  0  0  0  0
M  END
>  <CHROM.1>
-74.01737060,-81.40796778,174.47276079,9.09755816,-0.70021290,-0.21550009
1.01410122,-0.38525036,-0.62177745

>  <Name>
ligand

>  <RI>
0

>  <Rbt.Current_Directory>
/home/itssahil/PROJECTS/Mol_Feturizer/New_Systems/rnas/2HO6

>  <Rbt.Executable>
rbdock ($Id: //depot/dev/client3/rdock/2013.1/src/exe/rbdock.cxx#4 $)

>  <Rbt.Library>
libRbt.so (2013.1, Build901 2013/11/27)

>  <Rbt.Parameter_File>
/export/apps/rDock/src/rDock_2013.1_src/data/scripts/dock_solv.prm

>  <Rbt.Receptor>
prm/blind_docking_80.prm

>  <SCORE>
-21.7734

>  <SCORE.INTER>
-22.0368

>  <SCORE.INTER.CONST>
1

>  <SCORE.INTER.POLAR>
-2.22947

>  <SCORE.INTER.ROT>
3

>  <SCORE.INTER.SOLV>
10.0337

>  <SCORE.INTER.VDW>
-16.2042

>  <SCORE.INTER.norm>
-1.8364

>  <SCORE.INTRA>
0.263437

>  <SCORE.INTRA.DIHEDRAL>
1.84929

>  <SCORE.INTRA.DIHEDRAL.0>
1.88407

>  <SCORE.INTRA.POLAR>
0

>  <SCORE.INTRA.POLAR.0>
0

>  <SCORE.INTRA.REPUL>
0

>  <SCORE.INTRA.REPUL.0>
0

>  <SCORE.INTRA.SOLV>
1.09607

>  <SCORE.INTRA.SOLV.lig_0>
-10.2714

>  <SCORE.INTRA.VDW>
-1.20924

>  <SCORE.INTRA.VDW.0>
0.416923

>  <SCORE.INTRA.norm>
0.0219531

>  <SCORE.RESTR>
0

>  <SCORE.RESTR.CAVITY>
0

>  <SCORE.RESTR.norm>
0

>  <SCORE.SYSTEM>
0

>  <SCORE.SYSTEM.CONST>
0

>  <SCORE.SYSTEM.DIHEDRAL>
0

>  <SCORE.SYSTEM.SOLV>
0

>  <SCORE.SYSTEM.norm>
0

>  <SCORE.heavy>
12

>  <SCORE.norm>
-1.81445

>  <RMSD>
43.320

$$$$
ligand
 OpenBabel11021811433D
libRbt.so/2013.1/901 2013/11/27
 12 12  0  0  0  0  0  0  0  0999 V2000
    9.9769    1.5567   -2.3510 O   0  0  0  0  0  0  0  0  0  0  0  0
    7.4762   -3.8484    0.2747 O   0  0  0  0  0  0  0  0  0  0  0  0
   11.2615    0.9154   -2.0877 C   0  0  0  0  0  0  0  0  0  0  0  0
    6.9980   -1.4319    0.1694 O   0  0  0  0  0  0  0  0  0  0  0  0
   11.2262    0.1117   -0.7555 C   0  0  0  0  0  0  0  0  0  0  0  0
    8.3740   -2.4728   -0.7862 O   0  0  0  0  0  0  0  0  0  0  0  0
    9.8556    0.2287   -0.1474 N   0  0  0  0  0  0  0  0  0  0  0  0
    9.5087    1.6639    0.0839 C   0  0  0  0  0  0  0  0  0  0  0  0
    9.6191    2.4483   -1.2543 C   0  0  0  0  0  0  0  0  0  0  0  0
    9.7525   -0.5214    1.1530 C   0  0  0  0  0  0  0  0  0  0  0  0
    9.6234   -2.0449    0.9118 C   0  0  0  0  0  0  0  0  0  0  0  0
    7.9046   -2.5090    0.5948 S   0  0  0  0  0  0  0  0  0  0  0  0
  1  3  1  0  0  0  0
  1  9  1  0  0  0  0
  2 12  1  0  0  0  0
  3  5  1  0  0  0  0
  4 12  2  0  0  0  0
  5  7  1  0  0  0  0
  6 12  2  0  0  0  0
  7  8  1  0  0  0  0
  7 10  1  0  0  0  0
  8  9  1  0  0  0  0
 10 11  1  0  0  0  0
 11 12  1  0  0  0  0
M  END
>  <CHROM.1>
-76.72784089,-84.17555772,177.07038658,9.12427205,-0.72228267,-0.27504149
1.06769510,-0.10976047,-0.44738402

>  <Name>
ligand

>  <RI>
0

>  <Rbt.Current_Directory>
/home/itssahil/PROJECTS/Mol_Feturizer/New_Systems/rnas/2HO6

>  <Rbt.Executable>
rbdock ($Id: //depot/dev/client3/rdock/2013.1/src/exe/rbdock.cxx#4 $)

>  <Rbt.Library>
libRbt.so (2013.1, Build901 2013/11/27)

>  <Rbt.Parameter_File>
/export/apps/rDock/src/rDock_2013.1_src/data/scripts/dock_solv.prm

>  <Rbt.Receptor>
prm/blind_docking_20.prm

>  <SCORE>
-21.542

>  <SCORE.INTER>
-21.9666

>  <SCORE.INTER.CONST>
1

>  <SCORE.INTER.POLAR>
-2.2337

>  <SCORE.INTER.ROT>
3

>  <SCORE.INTER.SOLV>
10.0737

>  <SCORE.INTER.VDW>
-16.1566

>  <SCORE.INTER.norm>
-1.83055

>  <SCORE.INTRA>
0.424647

>  <SCORE.INTRA.DIHEDRAL>
2.34055

>  <SCORE.INTRA.DIHEDRAL.0>
1.88407

>  <SCORE.INTRA.POLAR>
0

>  <SCORE.INTRA.POLAR.0>
0

>  <SCORE.INTRA.REPUL>
0

>  <SCORE.INTRA.REPUL.0>
0

>  <SCORE.INTRA.SOLV>
1.01955

>  <SCORE.INTRA.SOLV.lig_0>
-10.2714

>  <SCORE.INTRA.VDW>
-1.2554

>  <SCORE.INTRA.VDW.0>
0.416923

>  <SCORE.INTRA.norm>
0.0353873

>  <SCORE.RESTR>
0

>  <SCORE.RESTR.CAVITY>
0

>  <SCORE.RESTR.norm>
0

>  <SCORE.SYSTEM>
0

>  <SCORE.SYSTEM.CONST>
0

>  <SCORE.SYSTEM.DIHEDRAL>
0

>  <SCORE.SYSTEM.SOLV>
0

>  <SCORE.SYSTEM.norm>
0

>  <SCORE.heavy>
12

>  <SCORE.norm>
-1.79516

>  <RMSD>
43.321

$$$$
ligand
 OpenBabel11021811433D
libRbt.so/2013.1/901 2013/11/27
 12 12  0  0  0  0  0  0  0  0999 V2000
    9.0538    1.4480   -0.2612 O   0  0  0  0  0  0  0  0  0  0  0  0
   10.1327   -6.1221   -0.9951 O   0  0  0  0  0  0  0  0  0  0  0  0
    9.6095    1.6814   -1.5907 C   0  0  0  0  0  0  0  0  0  0  0  0
   11.8350   -4.6571   -2.0126 O   0  0  0  0  0  0  0  0  0  0  0  0
    9.9732    0.3402   -2.2915 C   0  0  0  0  0  0  0  0  0  0  0  0
   11.0761   -4.6088   -0.1928 O   0  0  0  0  0  0  0  0  0  0  0  0
    9.6200   -0.8022   -1.3793 N   0  0  0  0  0  0  0  0  0  0  0  0
   10.3366   -0.6684   -0.0747 C   0  0  0  0  0  0  0  0  0  0  0  0
   10.0021    0.7094    0.5641 C   0  0  0  0  0  0  0  0  0  0  0  0
    9.9539   -2.1348   -1.9933 C   0  0  0  0  0  0  0  0  0  0  0  0
    9.5944   -3.2977   -1.0371 C   0  0  0  0  0  0  0  0  0  0  0  0
   10.4648   -4.8132   -1.5017 S   0  0  0  0  0  0  0  0  0  0  0  0
  1  3  1  0  0  0  0
  1  9  1  0  0  0  0
  2 12  1  0  0  0  0
  3  5  1  0  0  0  0
  4 12  2  0  0  0  0
  5  7  1  0  0  0  0
  6 12  2  0  0  0  0
  7  8  1  0  0  0  0
  7 10  1  0  0  0  0
  8  9  1  0  0  0  0
 10 11  1  0  0  0  0
 11 12  1  0  0  0  0
M  END
>  <CHROM.1>
179.55389429,-161.25031264,-166.24673512,10.18379917,-2.24405304,-1.09637555
2.89692432,1.39133958,-1.24896570

>  <Name>
ligand

>  <RI>
0

>  <Rbt.Current_Directory>
/home/itssahil/PROJECTS/Mol_Feturizer/New_Systems/rnas/2HO6

>  <Rbt.Executable>
rbdock ($Id: //depot/dev/client3/rdock/2013.1/src/exe/rbdock.cxx#4 $)

>  <Rbt.Library>
libRbt.so (2013.1, Build901 2013/11/27)

>  <Rbt.Parameter_File>
/export/apps/rDock/src/rDock_2013.1_src/data/scripts/dock_solv.prm

>  <Rbt.Receptor>
prm/blind_docking_60.prm

>  <SCORE>
-11.6027

>  <SCORE.INTER>
-12.7184

>  <SCORE.INTER.CONST>
1

>  <SCORE.INTER.POLAR>
-1.33145

>  <SCORE.INTER.ROT>
3

>  <SCORE.INTER.SOLV>
10.5556

>  <SCORE.INTER.VDW>
-13.1593

>  <SCORE.INTER.norm>
-1.05987

>  <SCORE.INTRA>
1.11568

>  <SCORE.INTRA.DIHEDRAL>
1.09031

>  <SCORE.INTRA.DIHEDRAL.0>
1.88407

>  <SCORE.INTRA.POLAR>
0

>  <SCORE.INTRA.POLAR.0>
0

>  <SCORE.INTRA.REPUL>
0

>  <SCORE.INTRA.REPUL.0>
0

>  <SCORE.INTRA.SOLV>
0.24303

>  <SCORE.INTRA.SOLV.lig_0>
-10.2714

>  <SCORE.INTRA.VDW>
0.449003

>  <SCORE.INTRA.VDW.0>
0.416923

>  <SCORE.INTRA.norm>
0.092973

>  <SCORE.RESTR>
0

>  <SCORE.RESTR.CAVITY>
0

>  <SCORE.RESTR.norm>
0

>  <SCORE.SYSTEM>
0

>  <SCORE.SYSTEM.CONST>
0

>  <SCORE.SYSTEM.DIHEDRAL>
0

>  <SCORE.SYSTEM.SOLV>
0

>  <SCORE.SYSTEM.norm>
0

>  <SCORE.heavy>
12

>  <SCORE.norm>
-0.966893

>  <RMSD>
43.327

$$$$
ligand
 OpenBabel11021811433D
libRbt.so/2013.1/901 2013/11/27
 12 12  0  0  0  0  0  0  0  0999 V2000
    9.9238    1.4262   -2.3734 O   0  0  0  0  0  0  0  0  0  0  0  0
    7.4285   -3.7750    0.2649 O   0  0  0  0  0  0  0  0  0  0  0  0
   11.1547    0.6641   -2.1867 C   0  0  0  0  0  0  0  0  0  0  0  0
    7.0205   -1.3445    0.1923 O   0  0  0  0  0  0  0  0  0  0  0  0
   11.1460   -0.0940   -0.8275 C   0  0  0  0  0  0  0  0  0  0  0  0
    8.4078   -2.4032   -0.7267 O   0  0  0  0  0  0  0  0  0  0  0  0
    9.8473    0.1801   -0.1204 N   0  0  0  0  0  0  0  0  0  0  0  0
    9.6654    1.6493    0.0849 C   0  0  0  0  0  0  0  0  0  0  0  0
    9.7461    2.3803   -1.2853 C   0  0  0  0  0  0  0  0  0  0  0  0
    9.7741   -0.5186    1.2102 C   0  0  0  0  0  0  0  0  0  0  0  0
    9.5942   -2.0455    1.0317 C   0  0  0  0  0  0  0  0  0  0  0  0
    7.8786   -2.4549    0.6321 S   0  0  0  0  0  0  0  0  0  0  0  0
  1  3  1  0  0  0  0
  1  9  1  0  0  0  0
  2 12  1  0  0  0  0
  3  5  1  0  0  0  0
  4 12  2  0  0  0  0
  5  7  1  0  0  0  0
  6 12  2  0  0  0  0
  7  8  1  0  0  0  0
  7 10  1  0  0  0  0
  8  9  1  0  0  0  0
 10 11  1  0  0  0  0
 11 12  1  0  0  0  0
M  END
>  <CHROM.1>
-71.91177449,-78.45821231,172.94310940,9.12215308,-0.74743822,-0.26453699
0.75706982,-0.83218352,-1.08153855

>  <Name>
ligand

>  <RI>
0

>  <Rbt.Current_Directory>
/home/itssahil/PROJECTS/Mol_Feturizer/New_Systems/rnas/2HO6

>  <Rbt.Executable>
rbdock ($Id: //depot/dev/client3/rdock/2013.1/src/exe/rbdock.cxx#4 $)

>  <Rbt.Library>
libRbt.so (2013.1, Build901 2013/11/27)

>  <Rbt.Parameter_File>
/export/apps/rDock/src/rDock_2013.1_src/data/scripts/dock_solv.prm

>  <Rbt.Receptor>
prm/blind_docking_100.prm

>  <SCORE>
-21.7188

>  <SCORE.INTER>
-21.8077

>  <SCORE.INTER.CONST>
1

>  <SCORE.INTER.POLAR>
-2.22372

>  <SCORE.INTER.ROT>
3

>  <SCORE.INTER.SOLV>
9.84682

>  <SCORE.INTER.VDW>
-16.0084

>  <SCORE.INTER.norm>
-1.81731

>  <SCORE.INTRA>
0.0889715

>  <SCORE.INTRA.DIHEDRAL>
1.39767

>  <SCORE.INTRA.DIHEDRAL.0>
1.88407

>  <SCORE.INTRA.POLAR>
0

>  <SCORE.INTRA.POLAR.0>
0

>  <SCORE.INTRA.REPUL>
0

>  <SCORE.INTRA.REPUL.0>
0

>  <SCORE.INTRA.SOLV>
1.17011

>  <SCORE.INTRA.SOLV.lig_0>
-10.2714

>  <SCORE.INTRA.VDW>
-1.19491

>  <SCORE.INTRA.VDW.0>
0.416923

>  <SCORE.INTRA.norm>
0.00741429

>  <SCORE.RESTR>
0

>  <SCORE.RESTR.CAVITY>
0

>  <SCORE.RESTR.norm>
0

>  <SCORE.SYSTEM>
0

>  <SCORE.SYSTEM.CONST>
0

>  <SCORE.SYSTEM.DIHEDRAL>
0

>  <SCORE.SYSTEM.SOLV>
0

>  <SCORE.SYSTEM.norm>
0

>  <SCORE.heavy>
12

>  <SCORE.norm>
-1.8099

>  <RMSD>
43.329

$$$$
ligand
 OpenBabel11021811433D
libRbt.so/2013.1/901 2013/11/27
 12 12  0  0  0  0  0  0  0  0999 V2000
    9.9871    1.5532   -2.3190 O   0  0  0  0  0  0  0  0  0  0  0  0
    7.4650   -3.8425    0.2702 O   0  0  0  0  0  0  0  0  0  0  0  0
   11.2423    0.8586   -2.0496 C   0  0  0  0  0  0  0  0  0  0  0  0
    6.9579   -1.4325    0.1527 O   0  0  0  0  0  0  0  0  0  0  0  0
   11.1716    0.0684   -0.7107 C   0  0  0  0  0  0  0  0  0  0  0  0
    8.3776   -2.4532   -0.7598 O   0  0  0  0  0  0  0  0  0  0  0  0
    9.8073    0.2504   -0.1044 N   0  0  0  0  0  0  0  0  0  0  0  0
    9.5235    1.7013    0.1146 C   0  0  0  0  0  0  0  0  0  0  0  0
    9.6684    2.4688   -1.2300 C   0  0  0  0  0  0  0  0  0  0  0  0
    9.6711   -0.4835    1.2022 C   0  0  0  0  0  0  0  0  0  0  0  0
    9.5664   -2.0114    0.9778 C   0  0  0  0  0  0  0  0  0  0  0  0
    7.8649   -2.4980    0.6055 S   0  0  0  0  0  0  0  0  0  0  0  0
  1  3  1  0  0  0  0
  1  9  1  0  0  0  0
  2 12  1  0  0  0  0
  3  5  1  0  0  0  0
  4 12  2  0  0  0  0
  5  7  1  0  0  0  0
  6 12  2  0  0  0  0
  7  8  1  0  0  0  0
  7 10  1  0  0  0  0
  8  9  1  0  0  0  0
 10 11  1  0  0  0  0
 11 12  1  0  0  0  0
M  END
>  <CHROM.1>
-73.10225117,-83.91299498,176.14479916,9.10043828,-0.71501905,-0.24882535
1.06207928,-0.11971824,-0.44837808

>  <Name>
ligand

>  <RI>
0

>  <Rbt.Current_Directory>
/home/itssahil/PROJECTS/Mol_Feturizer/New_Systems/rnas/2HO6

>  <Rbt.Executable>
rbdock ($Id: //depot/dev/client3/rdock/2013.1/src/exe/rbdock.cxx#4 $)

>  <Rbt.Library>
libRbt.so (2013.1, Build901 2013/11/27)

>  <Rbt.Parameter_File>
/export/apps/rDock/src/rDock_2013.1_src/data/scripts/dock_solv.prm

>  <Rbt.Receptor>
prm/blind_docking_20.prm

>  <SCORE>
-21.6852

>  <SCORE.INTER>
-22.1246

>  <SCORE.INTER.CONST>
1

>  <SCORE.INTER.POLAR>
-2.22432

>  <SCORE.INTER.ROT>
3

>  <SCORE.INTER.SOLV>
10.1592

>  <SCORE.INTER.VDW>
-16.3218

>  <SCORE.INTER.norm>
-1.84372

>  <SCORE.INTRA>
0.439468

>  <SCORE.INTRA.DIHEDRAL>
2.13786

>  <SCORE.INTRA.DIHEDRAL.0>
1.88407

>  <SCORE.INTRA.POLAR>
0

>  <SCORE.INTRA.POLAR.0>
0

>  <SCORE.INTRA.REPUL>
0

>  <SCORE.INTRA.REPUL.0>
0

>  <SCORE.INTRA.SOLV>
1.03467

>  <SCORE.INTRA.SOLV.lig_0>
-10.2714

>  <SCORE.INTRA.VDW>
-1.14679

>  <SCORE.INTRA.VDW.0>
0.416923

>  <SCORE.INTRA.norm>
0.0366224

>  <SCORE.RESTR>
0

>  <SCORE.RESTR.CAVITY>
0

>  <SCORE.RESTR.norm>
0

>  <SCORE.SYSTEM>
0

>  <SCORE.SYSTEM.CONST>
0

>  <SCORE.SYSTEM.DIHEDRAL>
0

>  <SCORE.SYSTEM.SOLV>
0

>  <SCORE.SYSTEM.norm>
0

>  <SCORE.heavy>
12

>  <SCORE.norm>
-1.8071

>  <RMSD>
43.331

$$$$
ligand
 OpenBabel11021811433D
libRbt.so/2013.1/901 2013/11/27
 12 12  0  0  0  0  0  0  0  0999 V2000
    9.8976    1.5173   -2.3095 O   0  0  0  0  0  0  0  0  0  0  0  0
    7.4112   -3.8126    0.2740 O   0  0  0  0  0  0  0  0  0  0  0  0
   11.2077    0.9312   -2.0433 C   0  0  0  0  0  0  0  0  0  0  0  0
    6.9994   -1.3835    0.1780 O   0  0  0  0  0  0  0  0  0  0  0  0
   11.2057    0.1332   -0.7071 C   0  0  0  0  0  0  0  0  0  0  0  0
    8.3672   -2.4535   -0.7570 O   0  0  0  0  0  0  0  0  0  0  0  0
    9.8314    0.1963   -0.0993 N   0  0  0  0  0  0  0  0  0  0  0  0
    9.4253    1.6170    0.1249 C   0  0  0  0  0  0  0  0  0  0  0  0
    9.5031    2.3987   -1.2171 C   0  0  0  0  0  0  0  0  0  0  0  0
    9.7595   -0.5510    1.2047 C   0  0  0  0  0  0  0  0  0  0  0  0
    9.5915   -2.0717    0.9700 C   0  0  0  0  0  0  0  0  0  0  0  0
    7.8681   -2.4874    0.6136 S   0  0  0  0  0  0  0  0  0  0  0  0
  1  3  1  0  0  0  0
  1  9  1  0  0  0  0
  2 12  1  0  0  0  0
  3  5  1  0  0  0  0
  4 12  2  0  0  0  0
  5  7  1  0  0  0  0
  6 12  2  0  0  0  0
  7  8  1  0  0  0  0
  7 10  1  0  0  0  0
  8  9  1  0  0  0  0
 10 11  1  0  0  0  0
 11 12  1  0  0  0  0
M  END
>  <CHROM.1>
-80.79836550,-80.67862607,176.20604885,9.08259252,-0.72410651,-0.24171522
1.05617810,-0.23497688,-0.51876842

>  <Name>
ligand

>  <RI>
0

>  <Rbt.Current_Directory>
/home/itssahil/PROJECTS/Mol_Feturizer/New_Systems/rnas/2HO6

>  <Rbt.Executable>
rbdock ($Id: //depot/dev/client3/rdock/2013.1/src/exe/rbdock.cxx#4 $)

>  <Rbt.Library>
libRbt.so (2013.1, Build901 2013/11/27)

>  <Rbt.Parameter_File>
/export/apps/rDock/src/rDock_2013.1_src/data/scripts/dock_solv.prm

>  <Rbt.Receptor>
prm/blind_docking_100.prm

>  <SCORE>
-21.5387

>  <SCORE.INTER>
-21.7241

>  <SCORE.INTER.CONST>
1

>  <SCORE.INTER.POLAR>
-2.23243

>  <SCORE.INTER.ROT>
3

>  <SCORE.INTER.SOLV>
10.0652

>  <SCORE.INTER.VDW>
-15.9964

>  <SCORE.INTER.norm>
-1.81034

>  <SCORE.INTRA>
0.185334

>  <SCORE.INTRA.DIHEDRAL>
2.09934

>  <SCORE.INTRA.DIHEDRAL.0>
1.88407

>  <SCORE.INTRA.POLAR>
0

>  <SCORE.INTRA.POLAR.0>
0

>  <SCORE.INTRA.REPUL>
0

>  <SCORE.INTRA.REPUL.0>
0

>  <SCORE.INTRA.SOLV>
1.08535

>  <SCORE.INTRA.SOLV.lig_0>
-10.2714

>  <SCORE.INTRA.VDW>
-1.40701

>  <SCORE.INTRA.VDW.0>
0.416923

>  <SCORE.INTRA.norm>
0.0154445

>  <SCORE.RESTR>
0

>  <SCORE.RESTR.CAVITY>
0

>  <SCORE.RESTR.norm>
0

>  <SCORE.SYSTEM>
0

>  <SCORE.SYSTEM.CONST>
0

>  <SCORE.SYSTEM.DIHEDRAL>
0

>  <SCORE.SYSTEM.SOLV>
0

>  <SCORE.SYSTEM.norm>
0

>  <SCORE.heavy>
12

>  <SCORE.norm>
-1.7949

>  <RMSD>
43.352

$$$$
ligand
 OpenBabel11021811433D
libRbt.so/2013.1/901 2013/11/27
 12 12  0  0  0  0  0  0  0  0999 V2000
    9.2972   -3.4448   -0.9494 O   0  0  0  0  0  0  0  0  0  0  0  0
    9.4928    2.8011   -1.6864 O   0  0  0  0  0  0  0  0  0  0  0  0
    8.2252   -3.3808    0.0392 C   0  0  0  0  0  0  0  0  0  0  0  0
   10.6070    0.6029   -1.6107 O   0  0  0  0  0  0  0  0  0  0  0  0
    8.3476   -2.1031    0.9193 C   0  0  0  0  0  0  0  0  0  0  0  0
    8.6846    1.0302   -1.5008 O   0  0  0  0  0  0  0  0  0  0  0  0
    9.5387   -1.3055    0.4645 N   0  0  0  0  0  0  0  0  0  0  0  0
   10.7812   -2.1321    0.5452 C   0  0  0  0  0  0  0  0  0  0  0  0
   10.5981   -3.4302   -0.2911 C   0  0  0  0  0  0  0  0  0  0  0  0
    9.7221   -0.0550    1.2811 C   0  0  0  0  0  0  0  0  0  0  0  0
    9.0146    1.1533    0.6212 C   0  0  0  0  0  0  0  0  0  0  0  0
    9.8598    1.6504   -0.8982 S   0  0  0  0  0  0  0  0  0  0  0  0
  1  3  1  0  0  0  0
  1  9  1  0  0  0  0
  2 12  1  0  0  0  0
  3  5  1  0  0  0  0
  4 12  2  0  0  0  0
  5  7  1  0  0  0  0
  6 12  2  0  0  0  0
  7  8  1  0  0  0  0
  7 10  1  0  0  0  0
  8  9  1  0  0  0  0
 10 11  1  0  0  0  0
 11 12  1  0  0  0  0
M  END
>  <CHROM.1>
-93.04515139,-69.79553665,-175.52897232,9.54642195,-0.45865142,-0.36325654
-1.65832833,1.12108395,-0.15505531

>  <Name>
ligand

>  <RI>
0

>  <Rbt.Current_Directory>
/home/itssahil/PROJECTS/Mol_Feturizer/New_Systems/rnas/2HO6

>  <Rbt.Executable>
rbdock ($Id: //depot/dev/client3/rdock/2013.1/src/exe/rbdock.cxx#4 $)

>  <Rbt.Library>
libRbt.so (2013.1, Build901 2013/11/27)

>  <Rbt.Parameter_File>
/export/apps/rDock/src/rDock_2013.1_src/data/scripts/dock_solv.prm

>  <Rbt.Receptor>
prm/blind_docking_60.prm

>  <SCORE>
-14.3164

>  <SCORE.INTER>
-13.9023

>  <SCORE.INTER.CONST>
1

>  <SCORE.INTER.POLAR>
-1.34164

>  <SCORE.INTER.ROT>
3

>  <SCORE.INTER.SOLV>
7.31546

>  <SCORE.INTER.VDW>
-12.8345

>  <SCORE.INTER.norm>
-1.15852

>  <SCORE.INTRA>
-0.414136

>  <SCORE.INTRA.DIHEDRAL>
1.70849

>  <SCORE.INTRA.DIHEDRAL.0>
1.88407

>  <SCORE.INTRA.POLAR>
0

>  <SCORE.INTRA.POLAR.0>
0

>  <SCORE.INTRA.REPUL>
0

>  <SCORE.INTRA.REPUL.0>
0

>  <SCORE.INTRA.SOLV>
1.22953

>  <SCORE.INTRA.SOLV.lig_0>
-10.2714

>  <SCORE.INTRA.VDW>
-1.88315

>  <SCORE.INTRA.VDW.0>
0.416923

>  <SCORE.INTRA.norm>
-0.0345114

>  <SCORE.RESTR>
0

>  <SCORE.RESTR.CAVITY>
0

>  <SCORE.RESTR.norm>
0

>  <SCORE.SYSTEM>
0

>  <SCORE.SYSTEM.CONST>
0

>  <SCORE.SYSTEM.DIHEDRAL>
0

>  <SCORE.SYSTEM.SOLV>
0

>  <SCORE.SYSTEM.norm>
0

>  <SCORE.heavy>
12

>  <SCORE.norm>
-1.19304

>  <RMSD>
43.355

$$$$
ligand
 OpenBabel11021811433D
libRbt.so/2013.1/901 2013/11/27
 12 12  0  0  0  0  0  0  0  0999 V2000
    7.6979   -1.0859    0.2196 O   0  0  0  0  0  0  0  0  0  0  0  0
   11.0573    1.1397   -4.4288 O   0  0  0  0  0  0  0  0  0  0  0  0
    8.7185   -0.2909    0.8957 C   0  0  0  0  0  0  0  0  0  0  0  0
    9.2932   -0.0388   -3.1725 O   0  0  0  0  0  0  0  0  0  0  0  0
   10.1219   -0.5233    0.2644 C   0  0  0  0  0  0  0  0  0  0  0  0
   10.6506    1.2338   -2.5184 O   0  0  0  0  0  0  0  0  0  0  0  0
    9.9928   -1.4956   -0.8758 N   0  0  0  0  0  0  0  0  0  0  0  0
    9.4005   -2.7823   -0.3992 C   0  0  0  0  0  0  0  0  0  0  0  0
    8.0317   -2.5037    0.2842 C   0  0  0  0  0  0  0  0  0  0  0  0
   11.3192   -1.7733   -1.5298 C   0  0  0  0  0  0  0  0  0  0  0  0
   11.8801   -0.5057   -2.2186 C   0  0  0  0  0  0  0  0  0  0  0  0
   10.7262    0.1227   -3.4611 S   0  0  0  0  0  0  0  0  0  0  0  0
  1  3  1  0  0  0  0
  1  9  1  0  0  0  0
  2 12  1  0  0  0  0
  3  5  1  0  0  0  0
  4 12  2  0  0  0  0
  5  7  1  0  0  0  0
  6 12  2  0  0  0  0
  7  8  1  0  0  0  0
  7 10  1  0  0  0  0
  8  9  1  0  0  0  0
 10 11  1  0  0  0  0
 11 12  1  0  0  0  0
M  END
>  <CHROM.1>
-65.54440609,-58.24790589,-168.59169334,9.97405196,-0.58985670,-1.64525934
2.13260321,-0.54998985,2.40299216

>  <Name>
ligand

>  <RI>
0

>  <Rbt.Current_Directory>
/home/itssahil/PROJECTS/Mol_Feturizer/New_Systems/rnas/2HO6

>  <Rbt.Executable>
rbdock ($Id: //depot/dev/client3/rdock/2013.1/src/exe/rbdock.cxx#4 $)

>  <Rbt.Library>
libRbt.so (2013.1, Build901 2013/11/27)

>  <Rbt.Parameter_File>
/export/apps/rDock/src/rDock_2013.1_src/data/scripts/dock_solv.prm

>  <Rbt.Receptor>
prm/blind_docking_20.prm

>  <SCORE>
-17.5138

>  <SCORE.INTER>
-16.8675

>  <SCORE.INTER.CONST>
1

>  <SCORE.INTER.POLAR>
-2.68328

>  <SCORE.INTER.ROT>
3

>  <SCORE.INTER.SOLV>
12.3664

>  <SCORE.INTER.VDW>
-12.0229

>  <SCORE.INTER.norm>
-1.40563

>  <SCORE.INTRA>
-0.646332

>  <SCORE.INTRA.DIHEDRAL>
-0.0478451

>  <SCORE.INTRA.DIHEDRAL.0>
1.88407

>  <SCORE.INTRA.POLAR>
0

>  <SCORE.INTRA.POLAR.0>
0

>  <SCORE.INTRA.REPUL>
0

>  <SCORE.INTRA.REPUL.0>
0

>  <SCORE.INTRA.SOLV>
1.48221

>  <SCORE.INTRA.SOLV.lig_0>
-10.2714

>  <SCORE.INTRA.VDW>
-1.36352

>  <SCORE.INTRA.VDW.0>
0.416923

>  <SCORE.INTRA.norm>
-0.053861

>  <SCORE.RESTR>
0

>  <SCORE.RESTR.CAVITY>
0

>  <SCORE.RESTR.norm>
0

>  <SCORE.SYSTEM>
0

>  <SCORE.SYSTEM.CONST>
0

>  <SCORE.SYSTEM.DIHEDRAL>
0

>  <SCORE.SYSTEM.SOLV>
0

>  <SCORE.SYSTEM.norm>
0

>  <SCORE.heavy>
12

>  <SCORE.norm>
-1.45949

>  <RMSD>
43.357

$$$$
ligand
 OpenBabel11021811433D
libRbt.so/2013.1/901 2013/11/27
 12 12  0  0  0  0  0  0  0  0999 V2000
    8.4267   -1.0969    1.1804 O   0  0  0  0  0  0  0  0  0  0  0  0
    9.7619   -0.9458   -5.0557 O   0  0  0  0  0  0  0  0  0  0  0  0
    9.5791   -0.4682    1.8188 C   0  0  0  0  0  0  0  0  0  0  0  0
    9.0971   -2.1185   -2.9912 O   0  0  0  0  0  0  0  0  0  0  0  0
   10.8204   -0.4847    0.8802 C   0  0  0  0  0  0  0  0  0  0  0  0
    9.2565   -0.1817   -3.3281 O   0  0  0  0  0  0  0  0  0  0  0  0
   10.4432   -1.1364   -0.4217 N   0  0  0  0  0  0  0  0  0  0  0  0
    9.9340   -2.5211   -0.1832 C   0  0  0  0  0  0  0  0  0  0  0  0
    8.7380   -2.4722    0.8096 C   0  0  0  0  0  0  0  0  0  0  0  0
   11.6036   -1.1934   -1.3779 C   0  0  0  0  0  0  0  0  0  0  0  0
   11.2943   -0.4168   -2.6806 C   0  0  0  0  0  0  0  0  0  0  0  0
   10.1003   -1.3117   -3.7022 S   0  0  0  0  0  0  0  0  0  0  0  0
  1  3  1  0  0  0  0
  1  9  1  0  0  0  0
  2 12  1  0  0  0  0
  3  5  1  0  0  0  0
  4 12  2  0  0  0  0
  5  7  1  0  0  0  0
  6 12  2  0  0  0  0
  7  8  1  0  0  0  0
  7 10  1  0  0  0  0
  8  9  1  0  0  0  0
 10 11  1  0  0  0  0
 11 12  1  0  0  0  0
M  END
>  <CHROM.1>
-119.52558008,-72.52290388,-170.53913632,9.90591908,-1.20193963,-1.53423619
1.66643661,0.48341539,1.56580968

>  <Name>
ligand

>  <RI>
0

>  <Rbt.Current_Directory>
/home/itssahil/PROJECTS/Mol_Feturizer/New_Systems/rnas/2HO6

>  <Rbt.Executable>
rbdock ($Id: //depot/dev/client3/rdock/2013.1/src/exe/rbdock.cxx#4 $)

>  <Rbt.Library>
libRbt.so (2013.1, Build901 2013/11/27)

>  <Rbt.Parameter_File>
/export/apps/rDock/src/rDock_2013.1_src/data/scripts/dock_solv.prm

>  <Rbt.Receptor>
prm/blind_docking_20.prm

>  <SCORE>
-13.3872

>  <SCORE.INTER>
-13.6386

>  <SCORE.INTER.CONST>
1

>  <SCORE.INTER.POLAR>
-2.22122

>  <SCORE.INTER.ROT>
3

>  <SCORE.INTER.SOLV>
10.1642

>  <SCORE.INTER.VDW>
-10.6764

>  <SCORE.INTER.norm>
-1.13655

>  <SCORE.INTRA>
0.25145

>  <SCORE.INTRA.DIHEDRAL>
2.83636

>  <SCORE.INTRA.DIHEDRAL.0>
1.88407

>  <SCORE.INTRA.POLAR>
0

>  <SCORE.INTRA.POLAR.0>
0

>  <SCORE.INTRA.REPUL>
0

>  <SCORE.INTRA.REPUL.0>
0

>  <SCORE.INTRA.SOLV>
1.24766

>  <SCORE.INTRA.SOLV.lig_0>
-10.2714

>  <SCORE.INTRA.VDW>
-1.79056

>  <SCORE.INTRA.VDW.0>
0.416923

>  <SCORE.INTRA.norm>
0.0209541

>  <SCORE.RESTR>
0

>  <SCORE.RESTR.CAVITY>
0

>  <SCORE.RESTR.norm>
0

>  <SCORE.SYSTEM>
0

>  <SCORE.SYSTEM.CONST>
0

>  <SCORE.SYSTEM.DIHEDRAL>
0

>  <SCORE.SYSTEM.SOLV>
0

>  <SCORE.SYSTEM.norm>
0

>  <SCORE.heavy>
12

>  <SCORE.norm>
-1.1156

>  <RMSD>
43.397

$$$$
ligand
 OpenBabel11021811433D
libRbt.so/2013.1/901 2013/11/27
 12 12  0  0  0  0  0  0  0  0999 V2000
    8.1816   -1.7692    0.9503 O   0  0  0  0  0  0  0  0  0  0  0  0
    9.2290    0.5302   -2.5207 O   0  0  0  0  0  0  0  0  0  0  0  0
    9.3866   -1.6417    1.7640 C   0  0  0  0  0  0  0  0  0  0  0  0
   11.2962    1.0609   -3.7553 O   0  0  0  0  0  0  0  0  0  0  0  0
   10.6696   -1.7517    0.8900 C   0  0  0  0  0  0  0  0  0  0  0  0
    9.9353   -0.3149   -4.1365 O   0  0  0  0  0  0  0  0  0  0  0  0
   10.2700   -1.9408   -0.5475 N   0  0  0  0  0  0  0  0  0  0  0  0
    9.4156   -3.1581   -0.6953 C   0  0  0  0  0  0  0  0  0  0  0  0
    8.1792   -3.0430    0.2408 C   0  0  0  0  0  0  0  0  0  0  0  0
   11.4667   -2.0631   -1.4515 C   0  0  0  0  0  0  0  0  0  0  0  0
   11.1336   -1.5927   -2.8880 C   0  0  0  0  0  0  0  0  0  0  0  0
   10.5614    0.1228   -2.8934 S   0  0  0  0  0  0  0  0  0  0  0  0
  1  3  1  0  0  0  0
  1  9  1  0  0  0  0
  2 12  1  0  0  0  0
  3  5  1  0  0  0  0
  4 12  2  0  0  0  0
  5  7  1  0  0  0  0
  6 12  2  0  0  0  0
  7  8  1  0  0  0  0
  7 10  1  0  0  0  0
  8  9  1  0  0  0  0
 10 11  1  0  0  0  0
 11 12  1  0  0  0  0
M  END
>  <CHROM.1>
-153.05821330,58.32671809,-78.35963163,10.01842721,-1.11722546,-1.45111292
1.91367025,-0.54328592,2.28880249

>  <Name>
ligand

>  <RI>
0

>  <Rbt.Current_Directory>
/home/itssahil/PROJECTS/Mol_Feturizer/New_Systems/rnas/2HO6

>  <Rbt.Executable>
rbdock ($Id: //depot/dev/client3/rdock/2013.1/src/exe/rbdock.cxx#4 $)

>  <Rbt.Library>
libRbt.so (2013.1, Build901 2013/11/27)

>  <Rbt.Parameter_File>
/export/apps/rDock/src/rDock_2013.1_src/data/scripts/dock_solv.prm

>  <Rbt.Receptor>
prm/blind_docking_100.prm

>  <SCORE>
-12.316

>  <SCORE.INTER>
-11.3308

>  <SCORE.INTER.CONST>
1

>  <SCORE.INTER.POLAR>
-1.34164

>  <SCORE.INTER.ROT>
3

>  <SCORE.INTER.SOLV>
8.72446

>  <SCORE.INTER.VDW>
-11.5899

>  <SCORE.INTER.norm>
-0.944232

>  <SCORE.INTRA>
-0.985211

>  <SCORE.INTRA.DIHEDRAL>
0.908612

>  <SCORE.INTRA.DIHEDRAL.0>
1.88407

>  <SCORE.INTRA.POLAR>
0

>  <SCORE.INTRA.POLAR.0>
0

>  <SCORE.INTRA.REPUL>
0

>  <SCORE.INTRA.REPUL.0>
0

>  <SCORE.INTRA.SOLV>
0.249987

>  <SCORE.INTRA.SOLV.lig_0>
-10.2714

>  <SCORE.INTRA.VDW>
-1.56451

>  <SCORE.INTRA.VDW.0>
0.416923

>  <SCORE.INTRA.norm>
-0.0821009

>  <SCORE.RESTR>
0

>  <SCORE.RESTR.CAVITY>
0

>  <SCORE.RESTR.norm>
0

>  <SCORE.SYSTEM>
0

>  <SCORE.SYSTEM.CONST>
0

>  <SCORE.SYSTEM.DIHEDRAL>
0

>  <SCORE.SYSTEM.SOLV>
0

>  <SCORE.SYSTEM.norm>
0

>  <SCORE.heavy>
12

>  <SCORE.norm>
-1.02633

>  <RMSD>
43.438

$$$$
ligand
 OpenBabel11021811433D
libRbt.so/2013.1/901 2013/11/27
 12 12  0  0  0  0  0  0  0  0999 V2000
    8.7300    1.0228   -1.5837 O   0  0  0  0  0  0  0  0  0  0  0  0
   11.3034   -5.5631    0.2186 O   0  0  0  0  0  0  0  0  0  0  0  0
    9.9986    0.6000   -2.1690 C   0  0  0  0  0  0  0  0  0  0  0  0
   10.4014   -6.4301   -1.9060 O   0  0  0  0  0  0  0  0  0  0  0  0
   10.3717   -0.8429   -1.7206 C   0  0  0  0  0  0  0  0  0  0  0  0
   11.7048   -4.9809   -1.6045 O   0  0  0  0  0  0  0  0  0  0  0  0
    9.2879   -1.3741   -0.8233 N   0  0  0  0  0  0  0  0  0  0  0  0
    9.1030   -0.4774    0.3580 C   0  0  0  0  0  0  0  0  0  0  0  0
    8.7978    0.9678   -0.1283 C   0  0  0  0  0  0  0  0  0  0  0  0
    9.5889   -2.7684   -0.3442 C   0  0  0  0  0  0  0  0  0  0  0  0
    9.9849   -3.6917   -1.5217 C   0  0  0  0  0  0  0  0  0  0  0  0
   10.4605   -5.3326   -0.9288 S   0  0  0  0  0  0  0  0  0  0  0  0
  1  3  1  0  0  0  0
  1  9  1  0  0  0  0
  2 12  1  0  0  0  0
  3  5  1  0  0  0  0
  4 12  2  0  0  0  0
  5  7  1  0  0  0  0
  6 12  2  0  0  0  0
  7  8  1  0  0  0  0
  7 10  1  0  0  0  0
  8  9  1  0  0  0  0
 10 11  1  0  0  0  0
 11 12  1  0  0  0  0
M  END
>  <CHROM.1>
-49.43606161,175.91638192,-43.47605498,10.04526446,-2.74202269,-1.01337665
-2.29186655,-1.16903679,2.46900008

>  <Name>
ligand

>  <RI>
0

>  <Rbt.Current_Directory>
/home/itssahil/PROJECTS/Mol_Feturizer/New_Systems/rnas/2HO6

>  <Rbt.Executable>
rbdock ($Id: //depot/dev/client3/rdock/2013.1/src/exe/rbdock.cxx#4 $)

>  <Rbt.Library>
libRbt.so (2013.1, Build901 2013/11/27)

>  <Rbt.Parameter_File>
/export/apps/rDock/src/rDock_2013.1_src/data/scripts/dock_solv.prm

>  <Rbt.Receptor>
prm/blind_docking_80.prm

>  <SCORE>
-14.6384

>  <SCORE.INTER>
-15.2869

>  <SCORE.INTER.CONST>
1

>  <SCORE.INTER.POLAR>
-2.40185

>  <SCORE.INTER.ROT>
3

>  <SCORE.INTER.SOLV>
16.2942

>  <SCORE.INTER.VDW>
-13.2165

>  <SCORE.INTER.norm>
-1.27391

>  <SCORE.INTRA>
0.648481

>  <SCORE.INTRA.DIHEDRAL>
0.0543179

>  <SCORE.INTRA.DIHEDRAL.0>
1.88407

>  <SCORE.INTRA.POLAR>
0

>  <SCORE.INTRA.POLAR.0>
0

>  <SCORE.INTRA.REPUL>
0

>  <SCORE.INTRA.REPUL.0>
0

>  <SCORE.INTRA.SOLV>
-0.0263269

>  <SCORE.INTRA.SOLV.lig_0>
-10.2714

>  <SCORE.INTRA.VDW>
0.634486

>  <SCORE.INTRA.VDW.0>
0.416923

>  <SCORE.INTRA.norm>
0.0540401

>  <SCORE.RESTR>
0

>  <SCORE.RESTR.CAVITY>
0

>  <SCORE.RESTR.norm>
0

>  <SCORE.SYSTEM>
0

>  <SCORE.SYSTEM.CONST>
0

>  <SCORE.SYSTEM.DIHEDRAL>
0

>  <SCORE.SYSTEM.SOLV>
0

>  <SCORE.SYSTEM.norm>
0

>  <SCORE.heavy>
12

>  <SCORE.norm>
-1.21987

>  <RMSD>
43.653

$$$$
ligand
 OpenBabel11021811433D
libRbt.so/2013.1/901 2013/11/27
 12 12  0  0  0  0  0  0  0  0999 V2000
    8.9763    0.8563   -2.4423 O   0  0  0  0  0  0  0  0  0  0  0  0
    7.2684   -3.8830    0.2263 O   0  0  0  0  0  0  0  0  0  0  0  0
   10.1058    0.0168   -2.8297 C   0  0  0  0  0  0  0  0  0  0  0  0
    7.3605   -1.4194    0.1911 O   0  0  0  0  0  0  0  0  0  0  0  0
   10.6560   -0.7823   -1.6128 C   0  0  0  0  0  0  0  0  0  0  0  0
    8.4381   -2.7214   -0.8255 O   0  0  0  0  0  0  0  0  0  0  0  0
    9.8335   -0.4541   -0.3972 N   0  0  0  0  0  0  0  0  0  0  0  0
    9.8625    1.0159   -0.1295 C   0  0  0  0  0  0  0  0  0  0  0  0
    9.3697    1.7841   -1.3886 C   0  0  0  0  0  0  0  0  0  0  0  0
   10.3175   -1.1892    0.8233 C   0  0  0  0  0  0  0  0  0  0  0  0
    9.7875   -2.6433    0.8478 C   0  0  0  0  0  0  0  0  0  0  0  0
    8.0018   -2.6886    0.5663 S   0  0  0  0  0  0  0  0  0  0  0  0
  1  3  1  0  0  0  0
  1  9  1  0  0  0  0
  2 12  1  0  0  0  0
  3  5  1  0  0  0  0
  4 12  2  0  0  0  0
  5  7  1  0  0  0  0
  6 12  2  0  0  0  0
  7  8  1  0  0  0  0
  7 10  1  0  0  0  0
  8  9  1  0  0  0  0
 10 11  1  0  0  0  0
 11 12  1  0  0  0  0
M  END
>  <CHROM.1>
-80.69308148,-49.80651956,165.07182267,9.00986994,-1.19681168,-0.47976311
1.09272064,-0.58773618,-0.78847568

>  <Name>
ligand

>  <RI>
0

>  <Rbt.Current_Directory>
/home/itssahil/PROJECTS/Mol_Feturizer/New_Systems/rnas/2HO6

>  <Rbt.Executable>
rbdock ($Id: //depot/dev/client3/rdock/2013.1/src/exe/rbdock.cxx#4 $)

>  <Rbt.Library>
libRbt.so (2013.1, Build901 2013/11/27)

>  <Rbt.Parameter_File>
/export/apps/rDock/src/rDock_2013.1_src/data/scripts/dock_solv.prm

>  <Rbt.Receptor>
prm/blind_docking_20.prm

>  <SCORE>
-19.4381

>  <SCORE.INTER>
-19.4718

>  <SCORE.INTER.CONST>
1

>  <SCORE.INTER.POLAR>
-3.08838

>  <SCORE.INTER.ROT>
3

>  <SCORE.INTER.SOLV>
14.5317

>  <SCORE.INTER.VDW>
-13.1305

>  <SCORE.INTER.norm>
-1.62265

>  <SCORE.INTRA>
0.0337571

>  <SCORE.INTRA.DIHEDRAL>
1.0528

>  <SCORE.INTRA.DIHEDRAL.0>
1.88407

>  <SCORE.INTRA.POLAR>
0

>  <SCORE.INTRA.POLAR.0>
0

>  <SCORE.INTRA.REPUL>
0

>  <SCORE.INTRA.REPUL.0>
0

>  <SCORE.INTRA.SOLV>
1.8923

>  <SCORE.INTRA.SOLV.lig_0>
-10.2714

>  <SCORE.INTRA.VDW>
-1.43879

>  <SCORE.INTRA.VDW.0>
0.416923

>  <SCORE.INTRA.norm>
0.00281309

>  <SCORE.RESTR>
0

>  <SCORE.RESTR.CAVITY>
0

>  <SCORE.RESTR.norm>
0

>  <SCORE.SYSTEM>
0

>  <SCORE.SYSTEM.CONST>
0

>  <SCORE.SYSTEM.DIHEDRAL>
0

>  <SCORE.SYSTEM.SOLV>
0

>  <SCORE.SYSTEM.norm>
0

>  <SCORE.heavy>
12

>  <SCORE.norm>
-1.61984

>  <RMSD>
43.684

$$$$
ligand
 OpenBabel11021811433D
libRbt.so/2013.1/901 2013/11/27
 12 12  0  0  0  0  0  0  0  0999 V2000
    8.9948    0.8730   -2.3784 O   0  0  0  0  0  0  0  0  0  0  0  0
    7.2246   -3.8587    0.2273 O   0  0  0  0  0  0  0  0  0  0  0  0
   10.1367    0.0200   -2.6930 C   0  0  0  0  0  0  0  0  0  0  0  0
    7.2627   -1.3936    0.1986 O   0  0  0  0  0  0  0  0  0  0  0  0
   10.6259   -0.7520   -1.4334 C   0  0  0  0  0  0  0  0  0  0  0  0
    8.4324   -2.6691   -0.7475 O   0  0  0  0  0  0  0  0  0  0  0  0
    9.7498   -0.3917   -0.2653 N   0  0  0  0  0  0  0  0  0  0  0  0
    9.7738    1.0842   -0.0314 C   0  0  0  0  0  0  0  0  0  0  0  0
    9.3438    1.8241   -1.3299 C   0  0  0  0  0  0  0  0  0  0  0  0
   10.1729   -1.0994    0.9934 C   0  0  0  0  0  0  0  0  0  0  0  0
    9.6701   -2.5632    1.0087 C   0  0  0  0  0  0  0  0  0  0  0  0
    7.9074   -2.6485    0.6137 S   0  0  0  0  0  0  0  0  0  0  0  0
  1  3  1  0  0  0  0
  1  9  1  0  0  0  0
  2 12  1  0  0  0  0
  3  5  1  0  0  0  0
  4 12  2  0  0  0  0
  5  7  1  0  0  0  0
  6 12  2  0  0  0  0
  7  8  1  0  0  0  0
  7 10  1  0  0  0  0
  8  9  1  0  0  0  0
 10 11  1  0  0  0  0
 11 12  1  0  0  0  0
M  END
>  <CHROM.1>
-79.02945154,-49.54841853,164.05311362,8.95048883,-1.15337285,-0.39196820
1.04325005,-0.66885738,-0.84352176

>  <Name>
ligand

>  <RI>
0

>  <Rbt.Current_Directory>
/home/itssahil/PROJECTS/Mol_Feturizer/New_Systems/rnas/2HO6

>  <Rbt.Executable>
rbdock ($Id: //depot/dev/client3/rdock/2013.1/src/exe/rbdock.cxx#4 $)

>  <Rbt.Library>
libRbt.so (2013.1, Build901 2013/11/27)

>  <Rbt.Parameter_File>
/export/apps/rDock/src/rDock_2013.1_src/data/scripts/dock_solv.prm

>  <Rbt.Receptor>
prm/blind_docking_100.prm

>  <SCORE>
-19.7648

>  <SCORE.INTER>
-19.9087

>  <SCORE.INTER.CONST>
1

>  <SCORE.INTER.POLAR>
-3.01747

>  <SCORE.INTER.ROT>
3

>  <SCORE.INTER.SOLV>
14.479

>  <SCORE.INTER.VDW>
-13.6406

>  <SCORE.INTER.norm>
-1.65906

>  <SCORE.INTRA>
0.14393

>  <SCORE.INTRA.DIHEDRAL>
0.982035

>  <SCORE.INTRA.DIHEDRAL.0>
1.88407

>  <SCORE.INTRA.POLAR>
0

>  <SCORE.INTRA.POLAR.0>
0

>  <SCORE.INTRA.REPUL>
0

>  <SCORE.INTRA.REPUL.0>
0

>  <SCORE.INTRA.SOLV>
1.9108

>  <SCORE.INTRA.SOLV.lig_0>
-10.2714

>  <SCORE.INTRA.VDW>
-1.30249

>  <SCORE.INTRA.VDW.0>
0.416923

>  <SCORE.INTRA.norm>
0.0119942

>  <SCORE.RESTR>
0

>  <SCORE.RESTR.CAVITY>
0

>  <SCORE.RESTR.norm>
0

>  <SCORE.SYSTEM>
0

>  <SCORE.SYSTEM.CONST>
0

>  <SCORE.SYSTEM.DIHEDRAL>
0

>  <SCORE.SYSTEM.SOLV>
0

>  <SCORE.SYSTEM.norm>
0

>  <SCORE.heavy>
12

>  <SCORE.norm>
-1.64707

>  <RMSD>
43.692

$$$$
ligand
 OpenBabel11021811433D
libRbt.so/2013.1/901 2013/11/27
 12 12  0  0  0  0  0  0  0  0999 V2000
    9.1214    0.7113   -2.4574 O   0  0  0  0  0  0  0  0  0  0  0  0
    8.6021   -2.6526   -1.3415 O   0  0  0  0  0  0  0  0  0  0  0  0
   10.3373   -0.0756   -2.6396 C   0  0  0  0  0  0  0  0  0  0  0  0
    7.1949   -3.9184    0.2385 O   0  0  0  0  0  0  0  0  0  0  0  0
   10.7436   -0.7963   -1.3214 C   0  0  0  0  0  0  0  0  0  0  0  0
    7.3905   -1.9667    0.0316 O   0  0  0  0  0  0  0  0  0  0  0  0
    9.7360   -0.4713   -0.2532 N   0  0  0  0  0  0  0  0  0  0  0  0
    9.6495    1.0069   -0.0504 C   0  0  0  0  0  0  0  0  0  0  0  0
    9.3078    1.6984   -1.4007 C   0  0  0  0  0  0  0  0  0  0  0  0
   10.0730   -1.1318    1.0561 C   0  0  0  0  0  0  0  0  0  0  0  0
    8.9840   -2.1532    1.4645 C   0  0  0  0  0  0  0  0  0  0  0  0
    8.3645   -3.0531    0.0235 S   0  0  0  0  0  0  0  0  0  0  0  0
  1  3  1  0  0  0  0
  1  9  1  0  0  0  0
  2 12  1  0  0  0  0
  3  5  1  0  0  0  0
  4 12  2  0  0  0  0
  5  7  1  0  0  0  0
  6 12  2  0  0  0  0
  7  8  1  0  0  0  0
  7 10  1  0  0  0  0
  8  9  1  0  0  0  0
 10 11  1  0  0  0  0
 11 12  1  0  0  0  0
M  END
>  <CHROM.1>
-116.15086919,38.43303038,-14.21090865,9.01208364,-1.28748335,-0.51389554
0.66819847,-1.04484463,-1.27826998

>  <Name>
ligand

>  <RI>
0

>  <Rbt.Current_Directory>
/home/itssahil/PROJECTS/Mol_Feturizer/New_Systems/rnas/2HO6

>  <Rbt.Executable>
rbdock ($Id: //depot/dev/client3/rdock/2013.1/src/exe/rbdock.cxx#4 $)

>  <Rbt.Library>
libRbt.so (2013.1, Build901 2013/11/27)

>  <Rbt.Parameter_File>
/export/apps/rDock/src/rDock_2013.1_src/data/scripts/dock_solv.prm

>  <Rbt.Receptor>
prm/blind_docking_40.prm

>  <SCORE>
-19.7167

>  <SCORE.INTER>
-20.3551

>  <SCORE.INTER.CONST>
1

>  <SCORE.INTER.POLAR>
-3.38975

>  <SCORE.INTER.ROT>
3

>  <SCORE.INTER.SOLV>
16.7203

>  <SCORE.INTER.VDW>
-13.4444

>  <SCORE.INTER.norm>
-1.69626

>  <SCORE.INTRA>
0.638461

>  <SCORE.INTRA.DIHEDRAL>
3.84399

>  <SCORE.INTRA.DIHEDRAL.0>
1.88407

>  <SCORE.INTRA.POLAR>
0

>  <SCORE.INTRA.POLAR.0>
0

>  <SCORE.INTRA.REPUL>
0

>  <SCORE.INTRA.REPUL.0>
0

>  <SCORE.INTRA.SOLV>
0.585311

>  <SCORE.INTRA.SOLV.lig_0>
-10.2714

>  <SCORE.INTRA.VDW>
-1.57619

>  <SCORE.INTRA.VDW.0>
0.416923

>  <SCORE.INTRA.norm>
0.0532051

>  <SCORE.RESTR>
0

>  <SCORE.RESTR.CAVITY>
0

>  <SCORE.RESTR.norm>
0

>  <SCORE.SYSTEM>
0

>  <SCORE.SYSTEM.CONST>
0

>  <SCORE.SYSTEM.DIHEDRAL>
0

>  <SCORE.SYSTEM.SOLV>
0

>  <SCORE.SYSTEM.norm>
0

>  <SCORE.heavy>
12

>  <SCORE.norm>
-1.64306

>  <RMSD>
43.724

$$$$
ligand
 OpenBabel11021811433D
libRbt.so/2013.1/901 2013/11/27
 12 12  0  0  0  0  0  0  0  0999 V2000
    9.1130    0.7418   -2.4600 O   0  0  0  0  0  0  0  0  0  0  0  0
    8.5918   -2.6649   -1.3566 O   0  0  0  0  0  0  0  0  0  0  0  0
   10.3207   -0.0556   -2.6505 C   0  0  0  0  0  0  0  0  0  0  0  0
    7.1762   -3.9191    0.2253 O   0  0  0  0  0  0  0  0  0  0  0  0
   10.7235   -0.7884   -1.3379 C   0  0  0  0  0  0  0  0  0  0  0  0
    7.3707   -1.9690    0.0030 O   0  0  0  0  0  0  0  0  0  0  0  0
    9.7219   -0.4603   -0.2649 N   0  0  0  0  0  0  0  0  0  0  0  0
    9.6504    1.0173   -0.0528 C   0  0  0  0  0  0  0  0  0  0  0  0
    9.3118    1.7205   -1.3978 C   0  0  0  0  0  0  0  0  0  0  0  0
   10.0560   -1.1322    1.0394 C   0  0  0  0  0  0  0  0  0  0  0  0
    8.9554   -2.1411    1.4474 C   0  0  0  0  0  0  0  0  0  0  0  0
    8.3460   -3.0541    0.0103 S   0  0  0  0  0  0  0  0  0  0  0  0
  1  3  1  0  0  0  0
  1  9  1  0  0  0  0
  2 12  1  0  0  0  0
  3  5  1  0  0  0  0
  4 12  2  0  0  0  0
  5  7  1  0  0  0  0
  6 12  2  0  0  0  0
  7  8  1  0  0  0  0
  7 10  1  0  0  0  0
  8  9  1  0  0  0  0
 10 11  1  0  0  0  0
 11 12  1  0  0  0  0
M  END
>  <CHROM.1>
-116.39103097,39.83408176,-14.79972019,8.99771822,-1.28040991,-0.52620238
0.65490345,-1.04920083,-1.28699223

>  <Name>
ligand

>  <RI>
0

>  <Rbt.Current_Directory>
/home/itssahil/PROJECTS/Mol_Feturizer/New_Systems/rnas/2HO6

>  <Rbt.Executable>
rbdock ($Id: //depot/dev/client3/rdock/2013.1/src/exe/rbdock.cxx#4 $)

>  <Rbt.Library>
libRbt.so (2013.1, Build901 2013/11/27)

>  <Rbt.Parameter_File>
/export/apps/rDock/src/rDock_2013.1_src/data/scripts/dock_solv.prm

>  <Rbt.Receptor>
prm/blind_docking_40.prm

>  <SCORE>
-19.7162

>  <SCORE.INTER>
-20.2097

>  <SCORE.INTER.CONST>
1

>  <SCORE.INTER.POLAR>
-3.40317

>  <SCORE.INTER.ROT>
3

>  <SCORE.INTER.SOLV>
16.8601

>  <SCORE.INTER.VDW>
-13.3493

>  <SCORE.INTER.norm>
-1.68414

>  <SCORE.INTRA>
0.493538

>  <SCORE.INTRA.DIHEDRAL>
3.66424

>  <SCORE.INTRA.DIHEDRAL.0>
1.88407

>  <SCORE.INTRA.POLAR>
0

>  <SCORE.INTRA.POLAR.0>
0

>  <SCORE.INTRA.REPUL>
0

>  <SCORE.INTRA.REPUL.0>
0

>  <SCORE.INTRA.SOLV>
0.579108

>  <SCORE.INTRA.SOLV.lig_0>
-10.2714

>  <SCORE.INTRA.VDW>
-1.62814

>  <SCORE.INTRA.VDW.0>
0.416923

>  <SCORE.INTRA.norm>
0.0411281

>  <SCORE.RESTR>
0

>  <SCORE.RESTR.CAVITY>
0

>  <SCORE.RESTR.norm>
0

>  <SCORE.SYSTEM>
0

>  <SCORE.SYSTEM.CONST>
0

>  <SCORE.SYSTEM.DIHEDRAL>
0

>  <SCORE.SYSTEM.SOLV>
0

>  <SCORE.SYSTEM.norm>
0

>  <SCORE.heavy>
12

>  <SCORE.norm>
-1.64301

>  <RMSD>
43.737

$$$$
ligand
 OpenBabel11021811433D
libRbt.so/2013.1/901 2013/11/27
 12 12  0  0  0  0  0  0  0  0999 V2000
    7.5728   -0.9068    0.2517 O   0  0  0  0  0  0  0  0  0  0  0  0
    9.6293   -0.9216   -5.1185 O   0  0  0  0  0  0  0  0  0  0  0  0
    8.3663    0.2222    0.7276 C   0  0  0  0  0  0  0  0  0  0  0  0
    9.0253   -2.1550   -3.0708 O   0  0  0  0  0  0  0  0  0  0  0  0
    9.8066    0.1850    0.1391 C   0  0  0  0  0  0  0  0  0  0  0  0
    9.2722   -0.2155   -3.3303 O   0  0  0  0  0  0  0  0  0  0  0  0
    9.9368   -1.0090   -0.7660 N   0  0  0  0  0  0  0  0  0  0  0  0
    9.6317   -2.2662   -0.0176 C   0  0  0  0  0  0  0  0  0  0  0  0
    8.2131   -2.1663    0.6114 C   0  0  0  0  0  0  0  0  0  0  0  0
   11.3130   -1.1114   -1.3658 C   0  0  0  0  0  0  0  0  0  0  0  0
   11.3289   -0.5892   -2.8229 C   0  0  0  0  0  0  0  0  0  0  0  0
   10.0275   -1.3694   -3.8066 S   0  0  0  0  0  0  0  0  0  0  0  0
  1  3  1  0  0  0  0
  1  9  1  0  0  0  0
  2 12  1  0  0  0  0
  3  5  1  0  0  0  0
  4 12  2  0  0  0  0
  5  7  1  0  0  0  0
  6 12  2  0  0  0  0
  7  8  1  0  0  0  0
  7 10  1  0  0  0  0
  8  9  1  0  0  0  0
 10 11  1  0  0  0  0
 11 12  1  0  0  0  0
M  END
>  <CHROM.1>
-100.97047994,-51.48092047,168.21209135,9.53245234,-1.05822458,-1.80881818
1.87062389,0.30158733,1.44650164

>  <Name>
ligand

>  <RI>
0

>  <Rbt.Current_Directory>
/home/itssahil/PROJECTS/Mol_Feturizer/New_Systems/rnas/2HO6

>  <Rbt.Executable>
rbdock ($Id: //depot/dev/client3/rdock/2013.1/src/exe/rbdock.cxx#4 $)

>  <Rbt.Library>
libRbt.so (2013.1, Build901 2013/11/27)

>  <Rbt.Parameter_File>
/export/apps/rDock/src/rDock_2013.1_src/data/scripts/dock_solv.prm

>  <Rbt.Receptor>
prm/blind_docking_100.prm

>  <SCORE>
-18.5715

>  <SCORE.INTER>
-18.7213

>  <SCORE.INTER.CONST>
1

>  <SCORE.INTER.POLAR>
-3.54762

>  <SCORE.INTER.ROT>
3

>  <SCORE.INTER.SOLV>
16.5473

>  <SCORE.INTER.VDW>
-11.7712

>  <SCORE.INTER.norm>
-1.56011

>  <SCORE.INTRA>
0.149785

>  <SCORE.INTRA.DIHEDRAL>
2.13304

>  <SCORE.INTRA.DIHEDRAL.0>
1.88407

>  <SCORE.INTRA.POLAR>
0

>  <SCORE.INTRA.POLAR.0>
0

>  <SCORE.INTRA.REPUL>
0

>  <SCORE.INTRA.REPUL.0>
0

>  <SCORE.INTRA.SOLV>
1.82032

>  <SCORE.INTRA.SOLV.lig_0>
-10.2714

>  <SCORE.INTRA.VDW>
-1.82689

>  <SCORE.INTRA.VDW.0>
0.416923

>  <SCORE.INTRA.norm>
0.0124821

>  <SCORE.RESTR>
0

>  <SCORE.RESTR.CAVITY>
0

>  <SCORE.RESTR.norm>
0

>  <SCORE.SYSTEM>
0

>  <SCORE.SYSTEM.CONST>
0

>  <SCORE.SYSTEM.DIHEDRAL>
0

>  <SCORE.SYSTEM.SOLV>
0

>  <SCORE.SYSTEM.norm>
0

>  <SCORE.heavy>
12

>  <SCORE.norm>
-1.54762

>  <RMSD>
43.799

$$$$
ligand
 OpenBabel11021811433D
libRbt.so/2013.1/901 2013/11/27
 12 12  0  0  0  0  0  0  0  0999 V2000
    7.7644   -2.7307   -0.7765 O   0  0  0  0  0  0  0  0  0  0  0  0
   10.3581    0.6112   -4.6754 O   0  0  0  0  0  0  0  0  0  0  0  0
    7.3872   -1.9281    0.3829 C   0  0  0  0  0  0  0  0  0  0  0  0
   11.0681   -1.0371   -2.9847 O   0  0  0  0  0  0  0  0  0  0  0  0
    8.2783   -0.6577    0.5013 C   0  0  0  0  0  0  0  0  0  0  0  0
    9.3177   -0.1560   -3.2080 O   0  0  0  0  0  0  0  0  0  0  0  0
    9.2572   -0.6361   -0.6403 N   0  0  0  0  0  0  0  0  0  0  0  0
   10.0905   -1.8767   -0.6360 C   0  0  0  0  0  0  0  0  0  0  0  0
    9.1652   -3.1255   -0.6881 C   0  0  0  0  0  0  0  0  0  0  0  0
   10.1596    0.5667   -0.5835 C   0  0  0  0  0  0  0  0  0  0  0  0
   10.1158    1.3626   -1.9103 C   0  0  0  0  0  0  0  0  0  0  0  0
   10.6841    0.3482   -3.2952 S   0  0  0  0  0  0  0  0  0  0  0  0
  1  3  1  0  0  0  0
  1  9  1  0  0  0  0
  2 12  1  0  0  0  0
  3  5  1  0  0  0  0
  4 12  2  0  0  0  0
  5  7  1  0  0  0  0
  6 12  2  0  0  0  0
  7  8  1  0  0  0  0
  7 10  1  0  0  0  0
  8  9  1  0  0  0  0
 10 11  1  0  0  0  0
 11 12  1  0  0  0  0
M  END
>  <CHROM.1>
-125.69236105,-61.23282995,158.44969967,9.58957392,-0.66994012,-1.76121539
-3.07059476,1.08371896,0.53857237

>  <Name>
ligand

>  <RI>
0

>  <Rbt.Current_Directory>
/home/itssahil/PROJECTS/Mol_Feturizer/New_Systems/rnas/2HO6

>  <Rbt.Executable>
rbdock ($Id: //depot/dev/client3/rdock/2013.1/src/exe/rbdock.cxx#4 $)

>  <Rbt.Library>
libRbt.so (2013.1, Build901 2013/11/27)

>  <Rbt.Parameter_File>
/export/apps/rDock/src/rDock_2013.1_src/data/scripts/dock_solv.prm

>  <Rbt.Receptor>
prm/blind_docking_80.prm

>  <SCORE>
-14.66

>  <SCORE.INTER>
-16.462

>  <SCORE.INTER.CONST>
1

>  <SCORE.INTER.POLAR>
-3.594

>  <SCORE.INTER.ROT>
3

>  <SCORE.INTER.SOLV>
16.8063

>  <SCORE.INTER.VDW>
-10.1968

>  <SCORE.INTER.norm>
-1.37184

>  <SCORE.INTRA>
1.80201

>  <SCORE.INTRA.DIHEDRAL>
2.30024

>  <SCORE.INTRA.DIHEDRAL.0>
1.88407

>  <SCORE.INTRA.POLAR>
0

>  <SCORE.INTRA.POLAR.0>
0

>  <SCORE.INTRA.REPUL>
0

>  <SCORE.INTRA.REPUL.0>
0

>  <SCORE.INTRA.SOLV>
1.84987

>  <SCORE.INTRA.SOLV.lig_0>
-10.2714

>  <SCORE.INTRA.VDW>
-0.27305

>  <SCORE.INTRA.VDW.0>
0.416923

>  <SCORE.INTRA.norm>
0.150167

>  <SCORE.RESTR>
0

>  <SCORE.RESTR.CAVITY>
0

>  <SCORE.RESTR.norm>
0

>  <SCORE.SYSTEM>
0

>  <SCORE.SYSTEM.CONST>
0

>  <SCORE.SYSTEM.DIHEDRAL>
0

>  <SCORE.SYSTEM.SOLV>
0

>  <SCORE.SYSTEM.norm>
0

>  <SCORE.heavy>
12

>  <SCORE.norm>
-1.22167

>  <RMSD>
43.807

$$$$
ligand
 OpenBabel11021811433D
libRbt.so/2013.1/901 2013/11/27
 12 12  0  0  0  0  0  0  0  0999 V2000
    9.1715    0.2927   -3.1001 O   0  0  0  0  0  0  0  0  0  0  0  0
    8.3733   -2.7574    2.1496 O   0  0  0  0  0  0  0  0  0  0  0  0
   10.0386   -0.4899   -3.9755 C   0  0  0  0  0  0  0  0  0  0  0  0
    7.5176   -1.7781    0.0548 O   0  0  0  0  0  0  0  0  0  0  0  0
   10.6430   -1.7108   -3.2231 C   0  0  0  0  0  0  0  0  0  0  0  0
    7.6037   -3.6712    0.6015 O   0  0  0  0  0  0  0  0  0  0  0  0
   10.1282   -1.7210   -1.8100 N   0  0  0  0  0  0  0  0  0  0  0  0
   10.4748   -0.4416   -1.1197 C   0  0  0  0  0  0  0  0  0  0  0  0
    9.9126    0.7581   -1.9339 C   0  0  0  0  0  0  0  0  0  0  0  0
   10.6810   -2.8757   -1.0194 C   0  0  0  0  0  0  0  0  0  0  0  0
    9.5507   -3.6626   -0.3128 C   0  0  0  0  0  0  0  0  0  0  0  0
    8.5546   -2.5722    0.7308 S   0  0  0  0  0  0  0  0  0  0  0  0
  1  3  1  0  0  0  0
  1  9  1  0  0  0  0
  2 12  1  0  0  0  0
  3  5  1  0  0  0  0
  4 12  2  0  0  0  0
  5  7  1  0  0  0  0
  6 12  2  0  0  0  0
  7  8  1  0  0  0  0
  7 10  1  0  0  0  0
  8  9  1  0  0  0  0
 10 11  1  0  0  0  0
 11 12  1  0  0  0  0
M  END
>  <CHROM.1>
-129.25595167,-55.58581184,-121.58641521,9.26046118,-1.80887917,-0.87074245
1.02273573,0.82219525,-0.56508086

>  <Name>
ligand

>  <RI>
0

>  <Rbt.Current_Directory>
/home/itssahil/PROJECTS/Mol_Feturizer/New_Systems/rnas/2HO6

>  <Rbt.Executable>
rbdock ($Id: //depot/dev/client3/rdock/2013.1/src/exe/rbdock.cxx#4 $)

>  <Rbt.Library>
libRbt.so (2013.1, Build901 2013/11/27)

>  <Rbt.Parameter_File>
/export/apps/rDock/src/rDock_2013.1_src/data/scripts/dock_solv.prm

>  <Rbt.Receptor>
prm/blind_docking_80.prm

>  <SCORE>
-16.5091

>  <SCORE.INTER>
-16.0252

>  <SCORE.INTER.CONST>
1

>  <SCORE.INTER.POLAR>
-2.68222

>  <SCORE.INTER.ROT>
3

>  <SCORE.INTER.SOLV>
15.7011

>  <SCORE.INTER.VDW>
-12.5764

>  <SCORE.INTER.norm>
-1.33543

>  <SCORE.INTRA>
-0.483951

>  <SCORE.INTRA.DIHEDRAL>
2.21763

>  <SCORE.INTRA.DIHEDRAL.0>
1.88407

>  <SCORE.INTRA.POLAR>
0

>  <SCORE.INTRA.POLAR.0>
0

>  <SCORE.INTRA.REPUL>
0

>  <SCORE.INTRA.REPUL.0>
0

>  <SCORE.INTRA.SOLV>
0.842898

>  <SCORE.INTRA.SOLV.lig_0>
-10.2714

>  <SCORE.INTRA.VDW>
-2.01421

>  <SCORE.INTRA.VDW.0>
0.416923

>  <SCORE.INTRA.norm>
-0.0403292

>  <SCORE.RESTR>
0

>  <SCORE.RESTR.CAVITY>
0

>  <SCORE.RESTR.norm>
0

>  <SCORE.SYSTEM>
0

>  <SCORE.SYSTEM.CONST>
0

>  <SCORE.SYSTEM.DIHEDRAL>
0

>  <SCORE.SYSTEM.SOLV>
0

>  <SCORE.SYSTEM.norm>
0

>  <SCORE.heavy>
12

>  <SCORE.norm>
-1.37576

>  <RMSD>
43.875

$$$$
ligand
 OpenBabel11021811433D
libRbt.so/2013.1/901 2013/11/27
 12 12  0  0  0  0  0  0  0  0999 V2000
    7.6218   -0.9832    0.2438 O   0  0  0  0  0  0  0  0  0  0  0  0
    9.2893    0.1568   -3.0058 O   0  0  0  0  0  0  0  0  0  0  0  0
    8.6451   -0.2071    0.9374 C   0  0  0  0  0  0  0  0  0  0  0  0
    9.7524   -1.0140   -5.1258 O   0  0  0  0  0  0  0  0  0  0  0  0
   10.0575   -0.4816    0.3442 C   0  0  0  0  0  0  0  0  0  0  0  0
    9.0632   -1.7395   -3.4262 O   0  0  0  0  0  0  0  0  0  0  0  0
    9.9322   -1.4625   -0.7890 N   0  0  0  0  0  0  0  0  0  0  0  0
    9.2956   -2.7286   -0.3145 C   0  0  0  0  0  0  0  0  0  0  0  0
    7.9176   -2.4082    0.3312 C   0  0  0  0  0  0  0  0  0  0  0  0
   11.2671   -1.7807   -1.4063 C   0  0  0  0  0  0  0  0  0  0  0  0
   11.1319   -2.0494   -2.9247 C   0  0  0  0  0  0  0  0  0  0  0  0
   10.1211   -0.7791   -3.7215 S   0  0  0  0  0  0  0  0  0  0  0  0
  1  3  1  0  0  0  0
  1  9  1  0  0  0  0
  2 12  1  0  0  0  0
  3  5  1  0  0  0  0
  4 12  2  0  0  0  0
  5  7  1  0  0  0  0
  6 12  2  0  0  0  0
  7  8  1  0  0  0  0
  7 10  1  0  0  0  0
  8  9  1  0  0  0  0
 10 11  1  0  0  0  0
 11 12  1  0  0  0  0
M  END
>  <CHROM.1>
-146.90165142,46.99256615,-14.16135874,9.54136263,-1.22630066,-1.82221494
1.90237100,-0.47133459,1.78752354

>  <Name>
ligand

>  <RI>
0

>  <Rbt.Current_Directory>
/home/itssahil/PROJECTS/Mol_Feturizer/New_Systems/rnas/2HO6

>  <Rbt.Executable>
rbdock ($Id: //depot/dev/client3/rdock/2013.1/src/exe/rbdock.cxx#4 $)

>  <Rbt.Library>
libRbt.so (2013.1, Build901 2013/11/27)

>  <Rbt.Parameter_File>
/export/apps/rDock/src/rDock_2013.1_src/data/scripts/dock_solv.prm

>  <Rbt.Receptor>
prm/blind_docking_80.prm

>  <SCORE>
-19.8402

>  <SCORE.INTER>
-19.1559

>  <SCORE.INTER.CONST>
1

>  <SCORE.INTER.POLAR>
-3.57798

>  <SCORE.INTER.ROT>
3

>  <SCORE.INTER.SOLV>
17.0643

>  <SCORE.INTER.VDW>
-12.1321

>  <SCORE.INTER.norm>
-1.59633

>  <SCORE.INTRA>
-0.684255

>  <SCORE.INTRA.DIHEDRAL>
1.80651

>  <SCORE.INTRA.DIHEDRAL.0>
1.88407

>  <SCORE.INTRA.POLAR>
0

>  <SCORE.INTRA.POLAR.0>
0

>  <SCORE.INTRA.REPUL>
0

>  <SCORE.INTRA.REPUL.0>
0

>  <SCORE.INTRA.SOLV>
0.694494

>  <SCORE.INTRA.SOLV.lig_0>
-10.2714

>  <SCORE.INTRA.VDW>
-1.93476

>  <SCORE.INTRA.VDW.0>
0.416923

>  <SCORE.INTRA.norm>
-0.0570213

>  <SCORE.RESTR>
0

>  <SCORE.RESTR.CAVITY>
0

>  <SCORE.RESTR.norm>
0

>  <SCORE.SYSTEM>
0

>  <SCORE.SYSTEM.CONST>
0

>  <SCORE.SYSTEM.DIHEDRAL>
0

>  <SCORE.SYSTEM.SOLV>
0

>  <SCORE.SYSTEM.norm>
0

>  <SCORE.heavy>
12

>  <SCORE.norm>
-1.65335

>  <RMSD>
43.912

$$$$
ligand
 OpenBabel11021811433D
libRbt.so/2013.1/901 2013/11/27
 12 12  0  0  0  0  0  0  0  0999 V2000
    7.4018   -0.8988    0.2482 O   0  0  0  0  0  0  0  0  0  0  0  0
    8.8832   -0.4858   -3.8654 O   0  0  0  0  0  0  0  0  0  0  0  0
    8.6287   -0.2208    0.6551 C   0  0  0  0  0  0  0  0  0  0  0  0
   10.9033    0.8196   -4.4078 O   0  0  0  0  0  0  0  0  0  0  0  0
    9.8570   -0.7587   -0.1349 C   0  0  0  0  0  0  0  0  0  0  0  0
   10.5799   -1.1159   -4.6057 O   0  0  0  0  0  0  0  0  0  0  0  0
    9.3954   -1.8146   -1.1014 N   0  0  0  0  0  0  0  0  0  0  0  0
    8.7012   -2.9199   -0.3735 C   0  0  0  0  0  0  0  0  0  0  0  0
    7.5222   -2.3369    0.4562 C   0  0  0  0  0  0  0  0  0  0  0  0
   10.5380   -2.3862   -1.8962 C   0  0  0  0  0  0  0  0  0  0  0  0
   11.3444   -1.2685   -2.6008 C   0  0  0  0  0  0  0  0  0  0  0  0
   10.2533   -0.1742   -3.5402 S   0  0  0  0  0  0  0  0  0  0  0  0
  1  3  1  0  0  0  0
  1  9  1  0  0  0  0
  2 12  1  0  0  0  0
  3  5  1  0  0  0  0
  4 12  2  0  0  0  0
  5  7  1  0  0  0  0
  6 12  2  0  0  0  0
  7  8  1  0  0  0  0
  7 10  1  0  0  0  0
  8  9  1  0  0  0  0
 10 11  1  0  0  0  0
 11 12  1  0  0  0  0
M  END
>  <CHROM.1>
-53.92962841,-51.34274628,-14.40650481,9.56819630,-1.01241327,-1.98548551
2.34767707,-0.86804508,2.51261531

>  <Name>
ligand

>  <RI>
0

>  <Rbt.Current_Directory>
/home/itssahil/PROJECTS/Mol_Feturizer/New_Systems/rnas/2HO6

>  <Rbt.Executable>
rbdock ($Id: //depot/dev/client3/rdock/2013.1/src/exe/rbdock.cxx#4 $)

>  <Rbt.Library>
libRbt.so (2013.1, Build901 2013/11/27)

>  <Rbt.Parameter_File>
/export/apps/rDock/src/rDock_2013.1_src/data/scripts/dock_solv.prm

>  <Rbt.Receptor>
prm/blind_docking_40.prm

>  <SCORE>
-18.1233

>  <SCORE.INTER>
-18.0328

>  <SCORE.INTER.CONST>
1

>  <SCORE.INTER.POLAR>
-3.45918

>  <SCORE.INTER.ROT>
3

>  <SCORE.INTER.SOLV>
18.4369

>  <SCORE.INTER.VDW>
-12.2369

>  <SCORE.INTER.norm>
-1.50273

>  <SCORE.INTRA>
-0.090469

>  <SCORE.INTRA.DIHEDRAL>
0.19516

>  <SCORE.INTRA.DIHEDRAL.0>
1.88407

>  <SCORE.INTRA.POLAR>
0

>  <SCORE.INTRA.POLAR.0>
0

>  <SCORE.INTRA.REPUL>
0

>  <SCORE.INTRA.REPUL.0>
0

>  <SCORE.INTRA.SOLV>
0.30327

>  <SCORE.INTRA.SOLV.lig_0>
-10.2714

>  <SCORE.INTRA.VDW>
-0.339684

>  <SCORE.INTRA.VDW.0>
0.416923

>  <SCORE.INTRA.norm>
-0.00753909

>  <SCORE.RESTR>
0

>  <SCORE.RESTR.CAVITY>
0

>  <SCORE.RESTR.norm>
0

>  <SCORE.SYSTEM>
0

>  <SCORE.SYSTEM.CONST>
0

>  <SCORE.SYSTEM.DIHEDRAL>
0

>  <SCORE.SYSTEM.SOLV>
0

>  <SCORE.SYSTEM.norm>
0

>  <SCORE.heavy>
12

>  <SCORE.norm>
-1.51027

>  <RMSD>
43.962

$$$$
ligand
 OpenBabel11021811433D
libRbt.so/2013.1/901 2013/11/27
 12 12  0  0  0  0  0  0  0  0999 V2000
    7.5901   -0.9905    0.2455 O   0  0  0  0  0  0  0  0  0  0  0  0
    9.3130    0.1084   -3.0023 O   0  0  0  0  0  0  0  0  0  0  0  0
    8.6460   -0.1942    0.8634 C   0  0  0  0  0  0  0  0  0  0  0  0
    9.7805   -1.0003   -5.1544 O   0  0  0  0  0  0  0  0  0  0  0  0
   10.0373   -0.5376    0.2565 C   0  0  0  0  0  0  0  0  0  0  0  0
    8.9941   -1.7530   -3.5097 O   0  0  0  0  0  0  0  0  0  0  0  0
    9.8640   -1.5863   -0.8075 N   0  0  0  0  0  0  0  0  0  0  0  0
    9.2132   -2.8048   -0.2373 C   0  0  0  0  0  0  0  0  0  0  0  0
    7.8585   -2.4132    0.4181 C   0  0  0  0  0  0  0  0  0  0  0  0
   11.1764   -1.9729   -1.4338 C   0  0  0  0  0  0  0  0  0  0  0  0
   11.0238   -2.2026   -2.9569 C   0  0  0  0  0  0  0  0  0  0  0  0
   10.1142   -0.8445   -3.7306 S   0  0  0  0  0  0  0  0  0  0  0  0
  1  3  1  0  0  0  0
  1  9  1  0  0  0  0
  2 12  1  0  0  0  0
  3  5  1  0  0  0  0
  4 12  2  0  0  0  0
  5  7  1  0  0  0  0
  6 12  2  0  0  0  0
  7  8  1  0  0  0  0
  7 10  1  0  0  0  0
  8  9  1  0  0  0  0
 10 11  1  0  0  0  0
 11 12  1  0  0  0  0
M  END
>  <CHROM.1>
-141.40286306,47.88517453,-16.65600136,9.50529735,-1.28450151,-1.83798707
1.94336470,-0.62591031,1.86013214

>  <Name>
ligand

>  <RI>
0

>  <Rbt.Current_Directory>
/home/itssahil/PROJECTS/Mol_Feturizer/New_Systems/rnas/2HO6

>  <Rbt.Executable>
rbdock ($Id: //depot/dev/client3/rdock/2013.1/src/exe/rbdock.cxx#4 $)

>  <Rbt.Library>
libRbt.so (2013.1, Build901 2013/11/27)

>  <Rbt.Parameter_File>
/export/apps/rDock/src/rDock_2013.1_src/data/scripts/dock_solv.prm

>  <Rbt.Receptor>
prm/blind_docking_100.prm

>  <SCORE>
-20.1151

>  <SCORE.INTER>
-19.4096

>  <SCORE.INTER.CONST>
1

>  <SCORE.INTER.POLAR>
-3.57214

>  <SCORE.INTER.ROT>
3

>  <SCORE.INTER.SOLV>
17.4547

>  <SCORE.INTER.VDW>
-12.4508

>  <SCORE.INTER.norm>
-1.61746

>  <SCORE.INTRA>
-0.705502

>  <SCORE.INTRA.DIHEDRAL>
2.05337

>  <SCORE.INTRA.DIHEDRAL.0>
1.88407

>  <SCORE.INTRA.POLAR>
0

>  <SCORE.INTRA.POLAR.0>
0

>  <SCORE.INTRA.REPUL>
0

>  <SCORE.INTRA.REPUL.0>
0

>  <SCORE.INTRA.SOLV>
0.6309

>  <SCORE.INTRA.SOLV.lig_0>
-10.2714

>  <SCORE.INTRA.VDW>
-2.04764

>  <SCORE.INTRA.VDW.0>
0.416923

>  <SCORE.INTRA.norm>
-0.0587918

>  <SCORE.RESTR>
0

>  <SCORE.RESTR.CAVITY>
0

>  <SCORE.RESTR.norm>
0

>  <SCORE.SYSTEM>
0

>  <SCORE.SYSTEM.CONST>
0

>  <SCORE.SYSTEM.DIHEDRAL>
0

>  <SCORE.SYSTEM.SOLV>
0

>  <SCORE.SYSTEM.norm>
0

>  <SCORE.heavy>
12

>  <SCORE.norm>
-1.67626

>  <RMSD>
43.972

$$$$
ligand
 OpenBabel11021811433D
libRbt.so/2013.1/901 2013/11/27
 12 12  0  0  0  0  0  0  0  0999 V2000
    9.1211    0.4211   -3.0388 O   0  0  0  0  0  0  0  0  0  0  0  0
    8.4100   -2.3774    2.1976 O   0  0  0  0  0  0  0  0  0  0  0  0
    9.8650   -0.4126   -3.9780 C   0  0  0  0  0  0  0  0  0  0  0  0
    7.3460   -1.4159    0.1919 O   0  0  0  0  0  0  0  0  0  0  0  0
   10.2918   -1.7571   -3.3205 C   0  0  0  0  0  0  0  0  0  0  0  0
    7.2657   -3.2620    0.8815 O   0  0  0  0  0  0  0  0  0  0  0  0
    9.7854   -1.7941   -1.9048 N   0  0  0  0  0  0  0  0  0  0  0  0
   10.3129   -0.6289   -1.1318 C   0  0  0  0  0  0  0  0  0  0  0  0
    9.9246    0.6930   -1.8529 C   0  0  0  0  0  0  0  0  0  0  0  0
   10.1707   -3.0687   -1.2039 C   0  0  0  0  0  0  0  0  0  0  0  0
    9.0071   -3.6032   -0.3343 C   0  0  0  0  0  0  0  0  0  0  0  0
    8.3660   -2.3119    0.7574 S   0  0  0  0  0  0  0  0  0  0  0  0
  1  3  1  0  0  0  0
  1  9  1  0  0  0  0
  2 12  1  0  0  0  0
  3  5  1  0  0  0  0
  4 12  2  0  0  0  0
  5  7  1  0  0  0  0
  6 12  2  0  0  0  0
  7  8  1  0  0  0  0
  7 10  1  0  0  0  0
  8  9  1  0  0  0  0
 10 11  1  0  0  0  0
 11 12  1  0  0  0  0
M  END
>  <CHROM.1>
-139.27578536,-51.27956385,-117.13444666,9.03667274,-1.69140074,-0.84694199
0.82798402,0.99492534,-0.40575742

>  <Name>
ligand

>  <RI>
0

>  <Rbt.Current_Directory>
/home/itssahil/PROJECTS/Mol_Feturizer/New_Systems/rnas/2HO6

>  <Rbt.Executable>
rbdock ($Id: //depot/dev/client3/rdock/2013.1/src/exe/rbdock.cxx#4 $)

>  <Rbt.Library>
libRbt.so (2013.1, Build901 2013/11/27)

>  <Rbt.Parameter_File>
/export/apps/rDock/src/rDock_2013.1_src/data/scripts/dock_solv.prm

>  <Rbt.Receptor>
prm/blind_docking_100.prm

>  <SCORE>
-16.8918

>  <SCORE.INTER>
-16.5029

>  <SCORE.INTER.CONST>
1

>  <SCORE.INTER.POLAR>
-3.02835

>  <SCORE.INTER.ROT>
3

>  <SCORE.INTER.SOLV>
18.5388

>  <SCORE.INTER.VDW>
-12.687

>  <SCORE.INTER.norm>
-1.37524

>  <SCORE.INTRA>
-0.38889

>  <SCORE.INTRA.DIHEDRAL>
1.99248

>  <SCORE.INTRA.DIHEDRAL.0>
1.88407

>  <SCORE.INTRA.POLAR>
0

>  <SCORE.INTRA.POLAR.0>
0

>  <SCORE.INTRA.REPUL>
0

>  <SCORE.INTRA.REPUL.0>
0

>  <SCORE.INTRA.SOLV>
0.837109

>  <SCORE.INTRA.SOLV.lig_0>
-10.2714

>  <SCORE.INTRA.VDW>
-1.80368

>  <SCORE.INTRA.VDW.0>
0.416923

>  <SCORE.INTRA.norm>
-0.0324075

>  <SCORE.RESTR>
0

>  <SCORE.RESTR.CAVITY>
0

>  <SCORE.RESTR.norm>
0

>  <SCORE.SYSTEM>
0

>  <SCORE.SYSTEM.CONST>
0

>  <SCORE.SYSTEM.DIHEDRAL>
0

>  <SCORE.SYSTEM.SOLV>
0

>  <SCORE.SYSTEM.norm>
0

>  <SCORE.heavy>
12

>  <SCORE.norm>
-1.40765

>  <RMSD>
44.046

$$$$
