@<TRIPOS>MOLECULE
2HO6_rdock.pdb
 3089 3438 0 0 0
SMALL
GASTEIGER

@<TRIPOS>ATOM
      1  C5'       42.5430   12.1540   18.3480 C.3     1  G1          0.0000
      2  O5'       42.3370   13.1490   17.3420 O.3     1  G1          0.0000
      3  C4'       43.8030   12.4430   19.1220 C.3     1  G1          0.0000
      4  O4'       44.8020   12.9340   18.1940 O.3     1  G1          0.0000
      5  C3'       43.5770   13.5730   20.1220 C.3     1  G1          0.0000
      6  O3'       44.0910   13.3510   21.4190 O.3     1  G1          0.0000
      7  C2'       44.1030   14.8400   19.4780 C.3     1  G1          0.0000
      8  O2'       44.8610   15.5700   20.4140 O.3     1  G1          0.0000
      9  C1'       45.0960   14.2800   18.4710 C.3     1  G1          0.0000
     10  N1        47.9080   14.8560   14.3220 N.ar    1  G1          0.0000
     11  C2        48.0410   13.9530   15.3380 C.ar    1  G1          0.0000
     12  N2        49.0670   13.1120   15.2400 N.pl3   1  G1          0.0000
     13  N3        47.2250   13.8840   16.3700 N.ar    1  G1          0.0000
     14  C4        46.2440   14.8200   16.3040 C.ar    1  G1          0.0000
     15  C5        46.0270   15.7670   15.3340 C.ar    1  G1          0.0000
     16  C6        46.9070   15.8200   14.2290 C.ar    1  G1          0.0000
     17  O6        46.8730   16.5820   13.2590 O.2     1  G1          0.0000
     18  N7        44.9130   16.5400   15.6390 N.ar    1  G1          0.0000
     19  C8        44.4830   16.0530   16.7680 C.ar    1  G1          0.0000
     20  N9        45.2510   15.0170   17.2300 N.ar    1  G1          0.0000
     21  P         43.4670   12.2070   22.3350 P.3     2  C2          0.0000
     22  C5'       45.3930   10.6400   21.5300 C.3     2  C2          0.0000
     23  O5'       44.0000   10.8740   21.6550 O.3     2  C2          0.0000
     24  C4'       45.6500    9.1700   21.3710 C.3     2  C2          0.0000
     25  O4'       45.1070    8.7240   20.1030 O.3     2  C2          0.0000
     26  C3'       47.1090    8.7770   21.3250 C.3     2  C2          0.0000
     27  O3'       47.5560    8.5740   22.6470 O.3     2  C2          0.0000
     28  C2'       47.0640    7.4680   20.5520 C.3     2  C2          0.0000
     29  O2'       46.6560    6.3910   21.3660 O.3     2  C2          0.0000
     30  C1'       45.9760    7.7710   19.5210 C.3     2  C2          0.0000
     31  N1        46.5080    8.3470   18.2830 N.ar    2  C2          0.0000
     32  C2        47.3260    7.5680   17.5090 C.ar    2  C2          0.0000
     33  O2        47.5710    6.4330   17.8910 O.2     2  C2          0.0000
     34  N3        47.8370    8.0670   16.3610 N.ar    2  C2          0.0000
     35  C4        47.5450    9.3160   15.9890 C.ar    2  C2          0.0000
     36  N4        48.0690    9.7660   14.8470 N.pl3   2  C2          0.0000
     37  C5        46.7020   10.1520   16.7740 C.ar    2  C2          0.0000
     38  C6        46.2050    9.6290   17.9030 C.ar    2  C2          0.0000
     39  OP1       41.9850   12.2610   22.2070 O.2     2  C2          0.0000
     40  OP2       44.0990   12.3630   23.6730 O.co2   2  C2         -1.0000
     41  P         49.1210    8.6020   22.9660 P.3     3  G3          0.0000
     42  C5'       49.6150    6.0170   22.9810 C.3     3  G3          0.0000
     43  O5'       49.6860    7.2660   22.2950 O.3     3  G3          0.0000
     44  C4'       50.5650    5.0170   22.3590 C.3     3  G3          0.0000
     45  O4'       50.1680    4.7670   20.9830 O.3     3  G3          0.0000
     46  C3'       52.0130    5.4610   22.2480 C.3     3  G3          0.0000
     47  O3'       52.7280    5.2260   23.4500 O.3     3  G3          0.0000
     48  C2'       52.5260    4.6000   21.1000 C.3     3  G3          0.0000
     49  O2'       52.8020    3.2700   21.4780 O.3     3  G3          0.0000
     50  C1'       51.3180    4.6110   20.1680 C.3     3  G3          0.0000
     51  N1        53.5720    6.5270   16.0740 N.ar    3  G3          0.0000
     52  C2        53.8100    5.3520   16.7380 C.ar    3  G3          0.0000
     53  N2        54.7830    4.5830   16.2420 N.pl3   3  G3          0.0000
     54  N3        53.1480    4.9600   17.8100 N.ar    3  G3          0.0000
     55  C4        52.2150    5.8530   18.1760 C.ar    3  G3          0.0000
     56  C5        51.8990    7.0600   17.5910 C.ar    3  G3          0.0000
     57  C6        52.6160    7.4660   16.4360 C.ar    3  G3          0.0000
     58  O6        52.4820    8.4950   15.7670 O.2     3  G3          0.0000
     59  N7        50.8720    7.6880   18.2810 N.ar    3  G3          0.0000
     60  C8        50.5900    6.8630   19.2530 C.ar    3  G3          0.0000
     61  N9        51.3690    5.7310   19.2390 N.ar    3  G3          0.0000
     62  OP1       49.2580    8.4830   24.4380 O.3     3  G3         -0.5000
     63  OP2       49.6890    9.7820   22.2670 O.co2   3  G3         -0.5000
     64  P         54.0500    6.0780   23.7540 P.3     4  C4          0.0000
     65  C5'       55.4580    4.1550   22.6920 C.3     4  C4          0.0000
     66  O5'       55.1060    5.5230   22.7090 O.3     4  C4          0.0000
     67  C4'       56.4500    3.9050   21.5930 C.3     4  C4          0.0000
     68  O4'       55.8130    4.1480   20.3130 O.3     4  C4          0.0000
     69  C3'       57.6540    4.8300   21.5910 C.3     4  C4          0.0000
     70  O3'       58.6450    4.3270   22.4720 O.3     4  C4          0.0000
     71  C2'       58.0920    4.7600   20.1370 C.3     4  C4          0.0000
     72  O2'       58.7660    3.5500   19.8570 O.3     4  C4          0.0000
     73  C1'       56.7370    4.7560   19.4260 C.3     4  C4          0.0000
     74  N1        56.2240    6.0950   19.1070 N.ar    4  C4          0.0000
     75  C2        56.6490    6.7190   17.9420 C.ar    4  C4          0.0000
     76  O2        57.4690    6.1360   17.2180 O.2     4  C4          0.0000
     77  N3        56.1540    7.9410   17.6300 N.ar    4  C4          0.0000
     78  C4        55.2670    8.5280   18.4370 C.ar    4  C4          0.0000
     79  N4        54.7840    9.7160   18.0800 N.pl3   4  C4          0.0000
     80  C5        54.8310    7.9190   19.6400 C.ar    4  C4          0.0000
     81  C6        55.3300    6.7140   19.9360 C.ar    4  C4          0.0000
     82  OP1       54.5270    5.7550   25.1150 O.3     4  C4         -0.5000
     83  OP2       53.7590    7.4890   23.3940 O.co2   4  C4         -0.5000
     84  P         59.8900    5.2470   22.8850 P.3     5  C5          0.0000
     85  C5'       61.6980    6.3870   21.4220 C.3     5  C5          0.0000
     86  O5'       60.6510    5.4550   21.5080 O.3     5  C5          0.0000
     87  C4'       62.4000    6.2600   20.1070 C.3     5  C5          0.0000
     88  O4'       61.4660    6.5580   19.0390 O.3     5  C5          0.0000
     89  C3'       63.4920    7.2880   19.9670 C.3     5  C5          0.0000
     90  O3'       64.8260    7.0390   20.3810 O.3     5  C5          0.0000
     91  C2'       62.9360    8.4660   19.1870 C.3     5  C5          0.0000
     92  O2'       63.8580    8.9890   18.2470 O.3     5  C5          0.0000
     93  C1'       61.7390    7.8340   18.4700 C.3     5  C5          0.0000
     94  N1        60.5200    8.6550   18.5840 N.ar    5  C5          0.0000
     95  C2        60.2500    9.6100   17.6060 C.ar    5  C5          0.0000
     96  O2        61.0250    9.7250   16.6530 O.2     5  C5          0.0000
     97  N3        59.1490   10.3840   17.7200 N.ar    5  C5          0.0000
     98  C4        58.3300   10.2250   18.7580 C.ar    5  C5          0.0000
     99  N4        57.2560   11.0190   18.8410 N.pl3   5  C5          0.0000
    100  C5        58.5730    9.2480   19.7620 C.ar    5  C5          0.0000
    101  C6        59.6700    8.4930   19.6380 C.ar    5  C5          0.0000
    102  OP1       60.7720    4.4480   23.7690 O.3     5  C5         -0.5000
    103  OP2       59.3910    6.5690   23.3460 O.co2   5  C5         -0.5000
    104  P         65.8280    6.2460   19.4160 P.3     6  U6          0.0000
    105  C5'       68.2610    6.8780   18.6310 C.3     6  U6          0.0000
    106  O5'       67.0110    7.2900   19.1790 O.3     6  U6          0.0000
    107  C4'       68.3960    7.3740   17.2090 C.3     6  U6          0.0000
    108  O4'       67.4930    6.6340   16.3370 O.3     6  U6          0.0000
    109  C3'       68.0160    8.8310   16.9940 C.3     6  U6          0.0000
    110  O3'       69.0890    9.7000   17.3370 O.3     6  U6          0.0000
    111  C2'       67.6810    8.8550   15.5040 C.3     6  U6          0.0000
    112  O2'       68.8270    8.9150   14.6750 O.3     6  U6          0.0000
    113  C1'       66.9880    7.4990   15.3280 C.3     6  U6          0.0000
    114  OP1       65.1470    5.9700   18.1180 O.2     6  U6         -0.5000
    115  OP2       66.3240    5.1100   20.2360 O.co2   6  U6         -0.5000
    116  P         68.7810   11.2220   17.7530 P.3     7  G7          0.0000
    117  C5'       69.1680   12.0000   15.2810 C.3     7  G7          0.0000
    118  O5'       68.2950   11.9020   16.3970 O.3     7  G7          0.0000
    119  C4'       68.6610   13.0330   14.3060 C.3     7  G7          0.0000
    120  O4'       67.3550   12.6280   13.8130 O.3     7  G7          0.0000
    121  C3'       68.4150   14.4160   14.8800 C.3     7  G7          0.0000
    122  O3'       69.6100   15.1790   14.9430 O.3     7  G7          0.0000
    123  C2'       67.4330   14.9910   13.8720 C.3     7  G7          0.0000
    124  O2'       68.0570   15.3840   12.6690 O.3     7  G7          0.0000
    125  C1'       66.5460   13.7760   13.6090 C.3     7  G7          0.0000
    126  N1        62.2450   16.0000   15.1460 N.ar    7  G7          0.0000
    127  C2        63.1150   16.3740   14.1550 C.ar    7  G7          0.0000
    128  N2        62.8000   17.4890   13.4900 N.pl3   7  G7          0.0000
    129  N3        64.2140   15.7050   13.8390 N.ar    7  G7          0.0000
    130  C4        64.3790   14.6100   14.6120 C.ar    7  G7          0.0000
    131  C5        63.5740   14.1500   15.6300 C.ar    7  G7          0.0000
    132  C6        62.3920   14.8820   15.9550 C.ar    7  G7          0.0000
    133  O6        61.5460   14.6410   16.8200 O.2     7  G7          0.0000
    134  N7        64.0950   12.9880   16.1790 N.ar    7  G7          0.0000
    135  C8        65.1850   12.7660   15.4960 C.ar    7  G7          0.0000
    136  N9        65.4180   13.7140   14.5330 N.ar    7  G7          0.0000
    137  OP1       70.0720   11.8550   18.1220 O.2     7  G7         -0.5000
    138  OP2       67.6550   11.2440   18.7230 O.co2   7  G7         -0.5000
    139  P         69.7630   16.3150   16.0680 P.3     8  G8          0.0000
    140  C5'       68.4400   18.0890   14.6440 C.3     8  G8          0.0000
    141  O5'       68.5210   17.2790   15.8150 O.3     8  G8          0.0000
    142  C4'       67.2010   18.9470   14.6940 C.3     8  G8          0.0000
    143  O4'       66.0250   18.0920   14.6730 O.3     8  G8          0.0000
    144  C3'       67.0460   19.7640   15.9620 C.3     8  G8          0.0000
    145  O3'       67.7630   20.9800   15.8560 O.3     8  G8          0.0000
    146  C2'       65.5420   19.9860   16.0130 C.3     8  G8          0.0000
    147  O2'       65.0960   21.0010   15.1340 O.3     8  G8          0.0000
    148  C1'       65.0290   18.6290   15.5280 C.3     8  G8          0.0000
    149  N1        62.0710   17.2620   19.4280 N.ar    8  G8          0.0000
    150  C2        61.8980   18.2740   18.5230 C.ar    8  G8          0.0000
    151  N2        60.8010   19.0240   18.6900 N.pl3   8  G8          0.0000
    152  N3        62.7340   18.5310   17.5310 N.ar    8  G8          0.0000
    153  C4        63.7790   17.6780   17.5200 C.ar    8  G8          0.0000
    154  C5        64.0430   16.6340   18.3780 C.ar    8  G8          0.0000
    155  C6        63.1340   16.3690   19.4380 C.ar    8  G8          0.0000
    156  O6        63.1890   15.4820   20.3110 O.2     8  G8          0.0000
    157  N7        65.2230   15.9970   18.0250 N.ar    8  G8          0.0000
    158  C8        65.6470   16.6530   16.9820 C.ar    8  G8          0.0000
    159  N9        64.8240   17.6900   16.6260 N.ar    8  G8          0.0000
    160  OP1       71.0100   17.0800   15.8220 O.2     8  G8         -0.5000
    161  OP2       69.5520   15.6640   17.3870 O.co2   8  G8         -0.5000
    162  P         68.5020   21.5880   17.1490 P.3     9  A9          0.0000
    163  C5'       66.4660   23.0160   17.9280 C.3     9  A9          0.0000
    164  O5'       67.3230   21.9090   18.1660 O.3     9  A9          0.0000
    165  C4'       65.3040   22.9870   18.8760 C.3     9  A9          0.0000
    166  O4'       64.5750   21.7430   18.7070 O.3     9  A9          0.0000
    167  C3'       65.6840   22.9860   20.3420 C.3     9  A9          0.0000
    168  O3'       65.9370   24.3060   20.7920 O.3     9  A9          0.0000
    169  C2'       64.4350   22.4000   20.9700 C.3     9  A9          0.0000
    170  O2'       63.3900   23.3460   20.9750 O.3     9  A9          0.0000
    171  C1'       64.1040   21.2950   19.9680 C.3     9  A9          0.0000
    172  N1        64.3900   17.3070   23.2080 N.ar    9  A9          0.0000
    173  C2        63.6220   18.4060   23.1930 C.ar    9  A9          0.0000
    174  N3        63.5990   19.4120   22.3190 N.ar    9  A9          0.0000
    175  C4        64.5060   19.2150   21.3500 C.ar    9  A9          0.0000
    176  C5        65.3670   18.1390   21.2290 C.ar    9  A9          0.0000
    177  C6        65.2890   17.1400   22.2200 C.ar    9  A9          0.0000
    178  N6        66.0480   16.0450   22.2340 N.pl3   9  A9          0.0000
    179  N7        66.1640   18.2760   20.1010 N.ar    9  A9          0.0000
    180  C8        65.7720   19.4120   19.5760 C.ar    9  A9          0.0000
    181  N9        64.7700   20.0310   20.2790 N.ar    9  A9          0.0000
    182  OP1       69.0860   22.8970   16.7630 O.2     9  A9         -0.5000
    183  OP2       69.3730   20.5320   17.7280 O.co2   9  A9         -0.5000
    184  P         67.2950   24.6190   21.5900 P.3    10  C10         0.0000
    185  C5'       65.9670   24.7930   23.8380 C.3    10  C10         0.0000
    186  O5'       66.9780   24.1490   23.0770 O.3    10  C10         0.0000
    187  C4'       65.4840   23.8850   24.9370 C.3    10  C10         0.0000
    188  O4'       64.9920   22.6420   24.3620 O.3    10  C10         0.0000
    189  C3'       66.5340   23.3940   25.9090 C.3    10  C10         0.0000
    190  O3'       66.8600   24.3840   26.8680 O.3    10  C10         0.0000
    191  C2'       65.8130   22.2090   26.5300 C.3    10  C10         0.0000
    192  O2'       64.7890   22.6050   27.4270 O.3    10  C10         0.0000
    193  C1'       65.1860   21.5820   25.2860 C.3    10  C10         0.0000
    194  N1        66.0970   20.6010   24.6870 N.ar   10  C10         0.0000
    195  C2        66.2650   19.3720   25.3240 C.ar   10  C10         0.0000
    196  O2        65.6080   19.1330   26.3420 O.2    10  C10         0.0000
    197  N3        67.1390   18.4780   24.8190 N.ar   10  C10         0.0000
    198  C4        67.8270   18.7690   23.7210 C.ar   10  C10         0.0000
    199  N4        68.6990   17.8660   23.2810 N.pl3  10  C10         0.0000
    200  C5        67.6570   20.0040   23.0320 C.ar   10  C10         0.0000
    201  C6        66.7880   20.8840   23.5440 C.ar   10  C10         0.0000
    202  OP1       67.5190   26.0880   21.6010 O.3    10  C10        -0.5000
    203  OP2       68.3410   23.7160   21.0350 O.co2  10  C10        -0.5000
    204  P         68.3220   24.3850   27.5330 P.3    11  U11         0.0000
    205  C5'       67.2530   23.3950   29.7170 C.3    11  U11         0.0000
    206  O5'       68.2230   23.2900   28.6850 O.3    11  U11         0.0000
    207  C4'       67.3740   22.2200   30.6450 C.3    11  U11         0.0000
    208  O4'       67.1100   21.0060   29.8940 O.3    11  U11         0.0000
    209  C3'       68.7660   22.0090   31.2180 C.3    11  U11         0.0000
    210  O3'       68.9350   22.8010   32.3890 O.3    11  U11         0.0000
    211  C2'       68.7680   20.5160   31.5290 C.3    11  U11         0.0000
    212  O2'       68.1060   20.2230   32.7450 O.3    11  U11         0.0000
    213  C1'       67.9470   19.9630   30.3620 C.3    11  U11         0.0000
    214  N1        68.7440   19.4750   29.2290 N.ar   11  U11         0.0000
    215  C2        69.3430   18.2460   29.3660 C.ar   11  U11         0.0000
    216  O2        69.2540   17.5890   30.3840 O.2    11  U11         0.0000
    217  N3        70.0430   17.8110   28.2690 N.ar   11  U11         0.0000
    218  C4        70.1980   18.4750   27.0730 C.ar   11  U11         0.0000
    219  O4        70.8370   17.9420   26.1650 O.2    11  U11         0.0000
    220  C5        69.5550   19.7560   27.0130 C.ar   11  U11         0.0000
    221  C6        68.8710   20.2020   28.0700 C.ar   11  U11         0.0000
    222  OP1       68.5600   25.7170   28.1450 O.3    11  U11        -0.5000
    223  OP2       69.2610   23.8690   26.4990 O.co2  11  U11        -0.5000
    224  P         70.3970   23.3430   32.7850 P.3    12  U12         0.0000
    225  C5'       70.7100   21.3680   34.4830 C.3    12  U12         0.0000
    226  O5'       71.1660   22.0580   33.3260 O.3    12  U12         0.0000
    227  C4'       71.4190   20.0470   34.6070 C.3    12  U12         0.0000
    228  O4'       71.0510   19.2020   33.4890 O.3    12  U12         0.0000
    229  C3'       72.9300   20.1210   34.4930 C.3    12  U12         0.0000
    230  O3'       73.5350   20.5250   35.7100 O.3    12  U12         0.0000
    231  C2'       73.2880   18.6940   34.1070 C.3    12  U12         0.0000
    232  O2'       73.2430   17.8000   35.1990 O.3    12  U12         0.0000
    233  C1'       72.1450   18.3600   33.1540 C.3    12  U12         0.0000
    234  N1        72.4880   18.5620   31.7400 N.ar   12  U12         0.0000
    235  C2        73.2060   17.5660   31.1280 C.ar   12  U12         0.0000
    236  O2        73.5670   16.5690   31.7090 O.2    12  U12         0.0000
    237  N3        73.4840   17.7740   29.8080 N.ar   12  U12         0.0000
    238  C4        73.1270   18.8520   29.0530 C.ar   12  U12         0.0000
    239  O4        73.4570   18.8860   27.8690 O.2    12  U12         0.0000
    240  C5        72.3860   19.8550   29.7570 C.ar   12  U12         0.0000
    241  C6        72.1010   19.6800   31.0480 C.ar   12  U12         0.0000
    242  OP1       70.1950   24.3010   33.8910 O.3    12  U12        -0.5000
    243  OP2       71.0920   23.7800   31.5540 O.co2  12  U12        -0.5000
    244  P         74.9050   21.3620   35.6640 P.3    13  A13         0.0000
    245  C5'       76.0730   19.0910   36.1740 C.3    13  A13         0.0000
    246  O5'       76.0100   20.2510   35.3640 O.3    13  A13         0.0000
    247  C4'       77.0660   18.0980   35.6320 C.3    13  A13         0.0000
    248  O4'       76.5850   17.4320   34.4380 O.3    13  A13         0.0000
    249  C3'       78.4160   18.6070   35.1820 C.3    13  A13         0.0000
    250  O3'       79.2340   18.9380   36.2930 O.3    13  A13         0.0000
    251  C2'       78.9640   17.3860   34.4430 C.3    13  A13         0.0000
    252  O2'       79.5040   16.4140   35.3140 O.3    13  A13         0.0000
    253  C1'       77.6960   16.7980   33.8190 C.3    13  A13         0.0000
    254  N1        76.3450   19.5640   29.6360 N.ar   13  A13         0.0000
    255  C2        76.1750   19.8030   30.9500 C.ar   13  A13         0.0000
    256  N3        76.5260   19.0550   31.9940 N.ar   13  A13         0.0000
    257  C4        77.1260   17.9250   31.5800 C.ar   13  A13         0.0000
    258  C5        77.3680   17.5450   30.2640 C.ar   13  A13         0.0000
    259  C6        76.9530   18.4160   29.2610 C.ar   13  A13         0.0000
    260  N6        77.1290   18.1690   27.9630 N.pl3  13  A13         0.0000
    261  N7        78.0060   16.3170   30.2110 N.ar   13  A13         0.0000
    262  C8        78.1350   15.9810   31.4710 C.ar   13  A13         0.0000
    263  N9        77.6320   16.9130   32.3570 N.ar   13  A13         0.0000
    264  OP1       75.1080   21.9270   37.0240 O.3    13  A13        -0.5000
    265  OP2       74.8270   22.2720   34.4910 O.co2  13  A13        -0.5000
    266  P         80.4580   19.9620   36.0990 P.3    14  A14         0.0000
    267  C5'       82.2050   18.1260   35.4590 C.3    14  A14         0.0000
    268  O5'       81.4090   19.2290   35.0570 O.3    14  A14         0.0000
    269  C4'       82.9610   17.5790   34.2790 C.3    14  A14         0.0000
    270  O4'       82.0040   17.1060   33.2930 O.3    14  A14         0.0000
    271  C3'       83.7940   18.5970   33.5170 C.3    14  A14         0.0000
    272  O3'       85.0690   18.8080   34.1160 O.3    14  A14         0.0000
    273  C2'       83.9010   17.9420   32.1490 C.3    14  A14         0.0000
    274  O2'       84.8510   16.8900   32.1200 O.3    14  A14         0.0000
    275  C1'       82.4840   17.3840   31.9870 C.3    14  A14         0.0000
    276  N1        80.4880   19.0690   27.5670 N.ar   14  A14         0.0000
    277  C2        81.3230   18.0650   27.8510 C.ar   14  A14         0.0000
    278  N3        81.7950   17.6700   29.0310 N.ar   14  A14         0.0000
    279  C4        81.3100   18.4450   30.0160 C.ar   14  A14         0.0000
    280  C5        80.4410   19.5110   29.8800 C.ar   14  A14         0.0000
    281  C6        80.0200   19.8260   28.5820 C.ar   14  A14         0.0000
    282  N6        79.1870   20.8260   28.3000 N.pl3  14  A14         0.0000
    283  N7        80.1540   20.0730   31.1150 N.ar   14  A14         0.0000
    284  C8        80.8500   19.3490   31.9590 C.ar   14  A14         0.0000
    285  N9        81.5800   18.3500   31.3600 N.ar   14  A14         0.0000
    286  OP1       81.1710   20.0620   37.3960 O.3    14  A14        -0.5000
    287  OP2       79.9410   21.1930   35.4520 O.co2  14  A14        -0.5000
    288  P         85.8430   20.1990   33.8660 P.3    15  A15         0.0000
    289  C5'       87.1690   19.0780   31.9100 C.3    15  A15         0.0000
    290  O5'       86.2890   20.1090   32.3390 O.3    15  A15         0.0000
    291  C4'       87.3160   19.0990   30.4110 C.3    15  A15         0.0000
    292  O4'       86.0540   18.7430   29.7880 O.3    15  A15         0.0000
    293  C3'       87.6440   20.4480   29.8020 C.3    15  A15         0.0000
    294  O3'       89.0290   20.7410   29.9080 O.3    15  A15         0.0000
    295  C2'       87.2110   20.2430   28.3570 C.3    15  A15         0.0000
    296  O2'       88.1560   19.5210   27.5910 O.3    15  A15         0.0000
    297  C1'       85.9360   19.4160   28.5440 C.3    15  A15         0.0000
    298  N1        82.3620   21.8360   25.7770 N.ar   15  A15         0.0000
    299  C2        83.3520   21.0020   25.4390 C.ar   15  A15         0.0000
    300  N3        84.2390   20.3870   26.2200 N.ar   15  A15         0.0000
    301  C4        84.0370   20.7070   27.5100 C.ar   15  A15         0.0000
    302  C5        83.0620   21.5470   28.0130 C.ar   15  A15         0.0000
    303  C6        82.1870   22.1360   27.0840 C.ar   15  A15         0.0000
    304  N6        81.2010   22.9690   27.4220 N.pl3  15  A15         0.0000
    305  N7        83.1570   21.6360   29.3950 N.ar   15  A15         0.0000
    306  C8        84.1730   20.8620   29.6900 C.ar   15  A15         0.0000
    307  N9        84.7610   20.2810   28.5940 N.ar   15  A15         0.0000
    308  OP1       87.0650   20.1840   34.7110 O.3    15  A15        -0.5000
    309  OP2       84.8730   21.3200   33.9990 O.co2  15  A15        -0.5000
    310  P         89.5230   22.2720   29.8990 P.3    16  G16         0.0000
    311  C5'       89.8360   22.2560   27.3070 C.3    16  G16         0.0000
    312  O5'       89.1510   22.7790   28.4360 O.3    16  G16         0.0000
    313  C4'       89.2160   22.7650   26.0330 C.3    16  G16         0.0000
    314  O4'       87.8290   22.3490   25.9870 O.3    16  G16         0.0000
    315  C3'       89.1330   24.2730   25.8660 C.3    16  G16         0.0000
    316  O3'       90.3650   24.8130   25.3970 O.3    16  G16         0.0000
    317  C2'       88.0530   24.3950   24.8010 C.3    16  G16         0.0000
    318  O2'       88.5500   24.1250   23.5070 O.3    16  G16         0.0000
    319  C1'       87.0880   23.2840   25.2230 C.3    16  G16         0.0000
    320  N1        82.6630   25.7370   25.1440 N.ar   16  G16         0.0000
    321  C2        83.4690   25.3460   24.1050 C.ar   16  G16         0.0000
    322  N2        83.0490   25.6670   22.8760 N.pl3  16  G16         0.0000
    323  N3        84.6020   24.6870   24.2570 N.ar   16  G16         0.0000
    324  C4        84.8760   24.4440   25.5550 C.ar   16  G16         0.0000
    325  C5        84.1430   24.7850   26.6680 C.ar   16  G16         0.0000
    326  C6        82.9210   25.4960   26.4900 C.ar   16  G16         0.0000
    327  O6        82.1240   25.8930   27.3490 O.2    16  G16         0.0000
    328  N7        84.7710   24.3440   27.8260 N.ar   16  G16         0.0000
    329  C8        85.8580   23.7570   27.4000 C.ar   16  G16         0.0000
    330  N9        85.9870   23.7950   26.0330 N.ar   16  G16         0.0000
    331  OP1       91.0060   22.2400   29.9770 O.2    16  G16        -0.5000
    332  OP2       88.7530   23.0490   30.9060 O.co2  16  G16        -0.5000
    333  P         90.7270   26.3570   25.6890 P.3    17  C17         0.0000
    334  C5'       90.2320   27.1030   23.2210 C.3    17  C17         0.0000
    335  O5'       89.8920   27.1720   24.6020 O.3    17  C17         0.0000
    336  C4'       89.1430   27.7270   22.3810 C.3    17  C17         0.0000
    337  O4'       87.8950   27.0210   22.6320 O.3    17  C17         0.0000
    338  C3'       88.7880   29.1730   22.6940 C.3    17  C17         0.0000
    339  O3'       89.6790   30.1140   22.1040 O.3    17  C17         0.0000
    340  C2'       87.3880   29.2710   22.1070 C.3    17  C17         0.0000
    341  O2'       87.3860   29.3500   20.6960 O.3    17  C17         0.0000
    342  C1'       86.8020   27.9310   22.5470 C.3    17  C17         0.0000
    343  N1        86.1730   28.0480   23.8760 N.ar   17  C17         0.0000
    344  C2        84.8550   28.5150   23.9550 C.ar   17  C17         0.0000
    345  O2        84.2470   28.7760   22.9050 O.2    17  C17         0.0000
    346  N3        84.2800   28.6710   25.1700 N.ar   17  C17         0.0000
    347  C4        84.9680   28.3790   26.2760 C.ar   17  C17         0.0000
    348  N4        84.3650   28.5670   27.4530 N.pl3  17  C17         0.0000
    349  C5        86.3050   27.8850   26.2240 C.ar   17  C17         0.0000
    350  C6        86.8620   27.7330   25.0160 C.ar   17  C17         0.0000
    351  OP1       92.1730   26.5350   25.3980 O.2    17  C17        -0.5000
    352  OP2       90.2010   26.7070   27.0350 O.co2  17  C17        -0.5000
    353  P         89.8310   31.5780   22.7610 P.3    18  C18         0.0000
    354  C5'       88.0810   32.6150   21.0980 C.3    18  C18         0.0000
    355  O5'       88.4450   32.3000   22.4400 O.3    18  C18         0.0000
    356  C4'       86.7130   33.2610   21.0540 C.3    18  C18         0.0000
    357  O4'       85.7240   32.3330   21.5810 O.3    18  C18         0.0000
    358  C3'       86.5160   34.5040   21.9080 C.3    18  C18         0.0000
    359  O3'       87.0210   35.6810   21.2860 O.3    18  C18         0.0000
    360  C2'       85.0000   34.5420   22.0390 C.3    18  C18         0.0000
    361  O2'       84.3540   35.0090   20.8700 O.3    18  C18         0.0000
    362  C1'       84.6940   33.0580   22.2380 C.3    18  C18         0.0000
    363  N1        84.6990   32.6900   23.6620 N.ar   18  C18         0.0000
    364  C2        83.5720   32.9890   24.4350 C.ar   18  C18         0.0000
    365  O2        82.6100   33.5580   23.8960 O.2    18  C18         0.0000
    366  N3        83.5600   32.6520   25.7460 N.ar   18  C18         0.0000
    367  C4        84.6180   32.0440   26.2890 C.ar   18  C18         0.0000
    368  N4        84.5590   31.7260   27.5860 N.pl3  18  C18         0.0000
    369  C5        85.7830   31.7330   25.5250 C.ar   18  C18         0.0000
    370  C6        85.7800   32.0710   24.2270 C.ar   18  C18         0.0000
    371  OP1       90.9090   32.3010   22.0410 O.2    18  C18        -0.5000
    372  OP2       89.9210   31.4020   24.2330 O.co2  18  C18        -0.5000
    373  P         87.6070   36.8730   22.1980 P.3    19  A19         0.0000
    374  C5'       85.3870   38.2650   21.9210 C.3    19  A19         0.0000
    375  O5'       86.3120   37.6030   22.7840 O.3    19  A19         0.0000
    376  C4'       84.1020   38.5820   22.6590 C.3    19  A19         0.0000
    377  O4'       83.5440   37.3560   23.2070 O.3    19  A19         0.0000
    378  C3'       84.2090   39.4780   23.8820 C.3    19  A19         0.0000
    379  O3'       84.2710   40.8580   23.5480 O.3    19  A19         0.0000
    380  C2'       82.9130   39.1590   24.6170 C.3    19  A19         0.0000
    381  O2'       81.7780   39.8130   24.0830 O.3    19  A19         0.0000
    382  C1'       82.8070   37.6540   24.3860 C.3    19  A19         0.0000
    383  N1        82.1430   36.2710   29.2770 N.ar   19  A19         0.0000
    384  C2        81.3950   36.9900   28.4290 C.ar   19  A19         0.0000
    385  N3        81.6330   37.3090   27.1560 N.ar   19  A19         0.0000
    386  C4        82.8100   36.7950   26.7490 C.ar   19  A19         0.0000
    387  C5        83.6910   36.0380   27.5010 C.ar   19  A19         0.0000
    388  C6        83.3220   35.7700   28.8370 C.ar   19  A19         0.0000
    389  N6        84.0690   35.0550   29.6850 N.pl3  19  A19         0.0000
    390  N7        84.8050   35.6880   26.7450 N.ar   19  A19         0.0000
    391  C8        84.5740   36.2310   25.5730 C.ar   19  A19         0.0000
    392  N9        83.3860   36.9170   25.5060 N.ar   19  A19         0.0000
    393  OP1       88.3250   37.8220   21.3060 O.2    19  A19        -0.5000
    394  OP2       88.3310   36.2380   23.3330 O.co2  19  A19        -0.5000
    395  P         84.7580   41.9190   24.6570 P.3    20  U20         0.0000
    396  C5'       82.4140   42.3430   25.7840 C.3    20  U20         0.0000
    397  O5'       83.7110   41.7510   25.8480 O.3    20  U20         0.0000
    398  C4'       81.7790   42.3360   27.1530 C.3    20  U20         0.0000
    399  O4'       81.6200   40.9590   27.5910 O.3    20  U20         0.0000
    400  C3'       82.6120   42.9920   28.2450 C.3    20  U20         0.0000
    401  O3'       82.3760   44.3950   28.3000 O.3    20  U20         0.0000
    402  C2'       82.1180   42.2800   29.4990 C.3    20  U20         0.0000
    403  O2'       80.8890   42.7900   29.9810 O.3    20  U20         0.0000
    404  C1'       81.9200   40.8570   28.9740 C.3    20  U20         0.0000
    405  N1        83.1190   40.0170   29.1110 N.ar   20  U20         0.0000
    406  C2        83.3560   39.4090   30.3380 C.ar   20  U20         0.0000
    407  O2        82.6210   39.5480   31.3080 O.2    20  U20         0.0000
    408  N3        84.4880   38.6290   30.3840 N.ar   20  U20         0.0000
    409  C4        85.3890   38.4030   29.3550 C.ar   20  U20         0.0000
    410  O4        86.3590   37.6660   29.5490 O.2    20  U20         0.0000
    411  C5        85.0760   39.0720   28.1270 C.ar   20  U20         0.0000
    412  C6        83.9800   39.8360   28.0500 C.ar   20  U20         0.0000
    413  OP1       84.5820   43.2810   24.0830 O.2    20  U20        -0.5000
    414  OP2       86.0980   41.4930   25.1500 O.co2  20  U20        -0.5000
    415  P         75.1550   33.1600   33.1550 P.3    23  G23         0.0000
    416  C5'       74.2290   34.6710   31.2230 C.3    23  G23         0.0000
    417  O5'       75.0430   33.5780   31.6240 O.3    23  G23         0.0000
    418  C4'       74.6840   35.1800   29.8790 C.3    23  G23         0.0000
    419  O4'       75.9660   35.8530   30.0120 O.3    23  G23         0.0000
    420  C3'       74.9500   34.0990   28.8470 C.3    23  G23         0.0000
    421  O3'       73.7450   33.6450   28.2430 O.3    23  G23         0.0000
    422  C2'       75.8810   34.8170   27.8780 C.3    23  G23         0.0000
    423  O2'       75.2040   35.6880   26.9910 O.3    23  G23         0.0000
    424  C1'       76.7510   35.6210   28.8500 C.3    23  G23         0.0000
    425  N1        81.1730   33.6410   27.3300 N.ar   23  G23         0.0000
    426  C2        80.2480   34.3590   26.6130 C.ar   23  G23         0.0000
    427  N2        80.5300   34.5640   25.3180 N.pl3  23  G23         0.0000
    428  N3        79.1280   34.8410   27.1270 N.ar   23  G23         0.0000
    429  C4        79.0050   34.5430   28.4400 C.ar   23  G23         0.0000
    430  C5        79.8720   33.8360   29.2480 C.ar   23  G23         0.0000
    431  C6        81.0690   33.3210   28.6810 C.ar   23  G23         0.0000
    432  O6        81.9620   32.6630   29.2290 O.2    23  G23         0.0000
    433  N7        79.3800   33.7520   30.5440 N.ar   23  G23         0.0000
    434  C8        78.2430   34.3940   30.5010 C.ar   23  G23         0.0000
    435  N9        77.9500   34.8900   29.2520 N.ar   23  G23         0.0000
    436  OP1       73.8890   32.4880   33.5480 O.3    23  G23         0.0000
    437  OP2       76.4490   32.4530   33.3370 O.co2  23  G23        -1.0000
    438  P         73.6400   32.1270   27.7230 P.3    24  G24         0.0000
    439  C5'       74.0170   33.0840   25.3120 C.3    24  G24         0.0000
    440  O5'       74.4120   32.1670   26.3310 O.3    24  G24         0.0000
    441  C4'       74.9820   33.0200   24.1540 C.3    24  G24         0.0000
    442  O4'       76.2660   33.5710   24.5520 O.3    24  G24         0.0000
    443  C3'       75.3080   31.6170   23.6770 C.3    24  G24         0.0000
    444  O3'       74.3270   31.1450   22.7700 O.3    24  G24         0.0000
    445  C2'       76.6570   31.8160   23.0040 C.3    24  G24         0.0000
    446  O2'       76.5340   32.3790   21.7110 O.3    24  G24         0.0000
    447  C1'       77.3120   32.8170   23.9590 C.3    24  G24         0.0000
    448  N1        81.5610   30.3300   25.2070 N.ar   24  G24         0.0000
    449  C2        81.1480   30.7910   23.9820 C.ar   24  G24         0.0000
    450  N2        81.9800   30.5680   22.9560 N.pl3  24  G24         0.0000
    451  N3        80.0050   31.4240   23.7760 N.ar   24  G24         0.0000
    452  C4        79.2920   31.5610   24.9150 C.ar   24  G24         0.0000
    453  C5        79.6120   31.1350   26.1880 C.ar   24  G24         0.0000
    454  C6        80.8490   30.4580   26.3930 C.ar   24  G24         0.0000
    455  O6        81.3200   30.0060   27.4460 O.2    24  G24         0.0000
    456  N7        78.6030   31.4680   27.0870 N.ar   24  G24         0.0000
    457  C8        77.7090   32.0800   26.3570 C.ar   24  G24         0.0000
    458  N9        78.0680   32.1770   25.0320 N.ar   24  G24         0.0000
    459  OP1       72.2090   31.8510   27.4420 O.2    24  G24        -0.5000
    460  OP2       74.3860   31.2400   28.6570 O.co2  24  G24        -0.5000
    461  P         74.1130   29.5660   22.5930 P.3    25  C25         0.0000
    462  C5'       75.8090   29.5750   20.5820 C.3    25  C25         0.0000
    463  O5'       75.4490   29.0830   21.8720 O.3    25  C25         0.0000
    464  C4'       77.1430   29.0070   20.1720 C.3    25  C25         0.0000
    465  O4'       78.1750   29.5110   21.0610 O.3    25  C25         0.0000
    466  C3'       77.2540   27.4990   20.3100 C.3    25  C25         0.0000
    467  O3'       76.7210   26.8300   19.1820 O.3    25  C25         0.0000
    468  C2'       78.7550   27.2930   20.4390 C.3    25  C25         0.0000
    469  O2'       79.4370   27.3410   19.1980 O.3    25  C25         0.0000
    470  C1'       79.1400   28.4970   21.2980 C.3    25  C25         0.0000
    471  N1        79.1440   28.1930   22.7350 N.ar   25  C25         0.0000
    472  C2        80.1890   27.4310   23.2560 C.ar   25  C25         0.0000
    473  O2        81.0600   27.0140   22.4870 O.2    25  C25         0.0000
    474  N3        80.2220   27.1660   24.5810 N.ar   25  C25         0.0000
    475  C4        79.2540   27.6280   25.3750 C.ar   25  C25         0.0000
    476  N4        79.3270   27.3510   26.6780 N.pl3  25  C25         0.0000
    477  C5        78.1670   28.3970   24.8680 C.ar   25  C25         0.0000
    478  C6        78.1510   28.6530   23.5530 C.ar   25  C25         0.0000
    479  OP1       72.9700   29.3550   21.6640 O.2    25  C25        -0.5000
    480  OP2       74.0820   28.9630   23.9530 O.co2  25  C25        -0.5000
    481  P         76.3100   25.2870   19.3090 P.3    26  U26         0.0000
    482  C5'       78.5490   24.5600   18.1680 C.3    26  U26         0.0000
    483  O5'       77.7030   24.5180   19.3080 O.3    26  U26         0.0000
    484  C4'       79.7990   23.7660   18.4230 C.3    26  U26         0.0000
    485  O4'       80.5560   24.4020   19.4830 O.3    26  U26         0.0000
    486  C3'       79.5680   22.3570   18.9340 C.3    26  U26         0.0000
    487  O3'       79.3150   21.4570   17.8660 O.3    26  U26         0.0000
    488  C2'       80.8870   22.0590   19.6260 C.3    26  U26         0.0000
    489  O2'       81.9060   21.7330   18.7050 O.3    26  U26         0.0000
    490  C1'       81.1960   23.4120   20.2670 C.3    26  U26         0.0000
    491  N1        80.7010   23.5290   21.6440 N.ar   26  U26         0.0000
    492  C2        81.3500   22.8050   22.6230 C.ar   26  U26         0.0000
    493  O2        82.2970   22.0790   22.3900 O.2    26  U26         0.0000
    494  N3        80.8460   22.9620   23.8890 N.ar   26  U26         0.0000
    495  C4        79.7830   23.7500   24.2670 C.ar   26  U26         0.0000
    496  O4        79.4500   23.7880   25.4520 O.2    26  U26         0.0000
    497  C5        79.1610   24.4640   23.1960 C.ar   26  U26         0.0000
    498  C6        79.6300   24.3320   21.9510 C.ar   26  U26         0.0000
    499  OP1       75.5490   24.9100   18.0920 O.2    26  U26        -0.5000
    500  OP2       75.6980   25.1080   20.6500 O.co2  26  U26        -0.5000
    501  P         78.5300   20.0870   18.1560 P.3    27  U27         0.0000
    502  C5'       80.8020   18.8420   18.4640 C.3    27  U27         0.0000
    503  O5'       79.5660   19.2520   19.0180 O.3    27  U27         0.0000
    504  C4'       81.5580   18.0400   19.4820 C.3    27  U27         0.0000
    505  O4'       81.9030   18.8980   20.6040 O.3    27  U27         0.0000
    506  C3'       80.7360   16.9420   20.1220 C.3    27  U27         0.0000
    507  O3'       80.6810   15.7950   19.2860 O.3    27  U27         0.0000
    508  C2'       81.4780   16.7170   21.4340 C.3    27  U27         0.0000
    509  O2'       82.6530   15.9460   21.2810 O.3    27  U27         0.0000
    510  C1'       81.8650   18.1510   21.8070 C.3    27  U27         0.0000
    511  N1        80.9420   18.8210   22.7350 N.ar   27  U27         0.0000
    512  C2        81.0750   18.5570   24.0880 C.ar   27  U27         0.0000
    513  O2        81.9020   17.7830   24.5310 O.2    27  U27         0.0000
    514  N3        80.2030   19.2350   24.9030 N.ar   27  U27         0.0000
    515  C4        79.2300   20.1280   24.5120 C.ar   27  U27         0.0000
    516  O4        78.5320   20.6760   25.3650 O.2    27  U27         0.0000
    517  C5        79.1470   20.3370   23.0980 C.ar   27  U27         0.0000
    518  C6        79.9840   19.6900   22.2790 C.ar   27  U27         0.0000
    519  OP1       78.3330   19.3770   16.8690 O.2    27  U27        -0.5000
    520  OP2       77.3610   20.3850   19.0170 O.co2  27  U27        -0.5000
    521  P         79.4490   14.7730   19.4260 P.3    28  U28         0.0000
    522  C5'       80.9600   13.2510   20.9210 C.3    28  U28         0.0000
    523  O5'       79.7630   14.0090   20.7860 O.3    28  U28         0.0000
    524  C4'       81.1710   12.8580   22.3600 C.3    28  U28         0.0000
    525  O4'       81.4270   14.0440   23.1550 O.3    28  U28         0.0000
    526  C3'       79.9770   12.2080   23.0330 C.3    28  U28         0.0000
    527  O3'       79.9310   10.8170   22.7430 O.3    28  U28         0.0000
    528  C2'       80.2610   12.4810   24.5030 C.3    28  U28         0.0000
    529  O2'       81.2430   11.6080   25.0220 O.3    28  U28         0.0000
    530  C1'       80.8350   13.8980   24.4340 C.3    28  U28         0.0000
    531  N1        79.8270   14.9550   24.5870 N.ar   28  U28         0.0000
    532  C2        79.4430   15.3030   25.8690 C.ar   28  U28         0.0000
    533  O2        79.8880   14.7580   26.8630 O.2    28  U28         0.0000
    534  N3        78.5150   16.3140   25.9420 N.ar   28  U28         0.0000
    535  C4        77.9440   16.9940   24.8820 C.ar   28  U28         0.0000
    536  O4        77.1300   17.8920   25.1030 O.2    28  U28         0.0000
    537  C5        78.3890   16.5640   23.5900 C.ar   28  U28         0.0000
    538  C6        79.2910   15.5840   23.4910 C.ar   28  U28         0.0000
    539  OP1       79.5530   13.7740   18.3320 O.2    28  U28        -0.5000
    540  OP2       78.2000   15.5580   19.5900 O.co2  28  U28        -0.5000
    541  P         78.5220   10.0500   22.7760 P.3    29  A29         0.0000
    542  C5'       78.9500    9.4270   25.2750 C.3    29  A29         0.0000
    543  O5'       78.1360   10.0910   24.3180 O.3    29  A29         0.0000
    544  C4'       78.4350    9.6750   26.6660 C.3    29  A29         0.0000
    545  O4'       78.6540   11.0570   27.0430 O.3    29  A29         0.0000
    546  C3'       76.9440    9.4880   26.8570 C.3    29  A29         0.0000
    547  O3'       76.6310    8.1160   27.0140 O.3    29  A29         0.0000
    548  C2'       76.6950   10.2710   28.1360 C.3    29  A29         0.0000
    549  O2'       77.0600    9.5340   29.2840 O.3    29  A29         0.0000
    550  C1'       77.6420   11.4600   27.9520 C.3    29  A29         0.0000
    551  N1        74.8940   15.6600   29.0060 N.ar   29  A29         0.0000
    552  C2        75.4140   14.7040   29.7860 C.ar   29  A29         0.0000
    553  N3        76.1270   13.6350   29.4460 N.ar   29  A29         0.0000
    554  C4        76.3010   13.5920   28.1170 C.ar   29  A29         0.0000
    555  C5        75.8290   14.5010   27.1870 C.ar   29  A29         0.0000
    556  C6        75.0890   15.5840   27.6740 C.ar   29  A29         0.0000
    557  N6        74.5700   16.5350   26.8960 N.pl3  29  A29         0.0000
    558  N7        76.2040   14.1300   25.9040 N.ar   29  A29         0.0000
    559  C8        76.8820   13.0210   26.0840 C.ar   29  A29         0.0000
    560  N9        76.9760   12.6370   27.4000 N.ar   29  A29         0.0000
    561  OP1       78.7500    8.6270   22.4100 O.3    29  A29        -0.5000
    562  OP2       77.5440   10.8600   22.0050 O.co2  29  A29        -0.5000
    563  P         75.1430    7.6060   26.7090 P.3    30  A30         0.0000
    564  C5'       74.5750    7.8580   29.2550 C.3    30  A30         0.0000
    565  O5'       74.2950    8.2290   27.9050 O.3    30  A30         0.0000
    566  C4'       73.7790    8.7070   30.2150 C.3    30  A30         0.0000
    567  O4'       74.2070   10.0910   30.1140 O.3    30  A30         0.0000
    568  C3'       72.2880    8.7760   29.9480 C.3    30  A30         0.0000
    569  O3'       71.6030    7.6420   30.4660 O.3    30  A30         0.0000
    570  C2'       71.8970   10.0560   30.6730 C.3    30  A30         0.0000
    571  O2'       71.7450    9.8680   32.0640 O.3    30  A30         0.0000
    572  C1'       73.1080   10.9480   30.3850 C.3    30  A30         0.0000
    573  N1        71.3150   15.4680   28.6840 N.ar   30  A30         0.0000
    574  C2        71.4270   14.9530   29.9170 C.ar   30  A30         0.0000
    575  N3        71.9200   13.7760   30.2980 N.ar   30  A30         0.0000
    576  C4        72.3420   13.0690   29.2300 C.ar   30  A30         0.0000
    577  C5        72.2940   13.4640   27.9050 C.ar   30  A30         0.0000
    578  C6        71.7480   14.7320   27.6340 C.ar   30  A30         0.0000
    579  N6        71.6340   15.2400   26.4040 N.pl3  30  A30         0.0000
    580  N7        72.8140   12.4780   27.0820 N.ar   30  A30         0.0000
    581  C8        73.1580   11.5230   27.9100 C.ar   30  A30         0.0000
    582  N9        72.8910   11.8060   29.2220 N.ar   30  A30         0.0000
    583  OP1       75.1330    6.1280   26.8480 O.3    30  A30        -0.5000
    584  OP2       74.7080    8.2240   25.4290 O.co2  30  A30        -0.5000
    585  P         70.0670    7.3970   30.0610 P.3    31  G31         0.0000
    586  C5'       68.1980    9.2350   30.0440 C.3    31  G31         0.0000
    587  O5'       69.3530    8.6870   30.6550 O.3    31  G31         0.0000
    588  C4'       67.9100   10.5750   30.6490 C.3    31  G31         0.0000
    589  O4'       68.9650   11.4970   30.2780 O.3    31  G31         0.0000
    590  C3'       66.6480   11.2500   30.1670 C.3    31  G31         0.0000
    591  O3'       65.5590   10.7690   30.9260 O.3    31  G31         0.0000
    592  C2'       66.9550   12.7020   30.4840 C.3    31  G31         0.0000
    593  O2'       66.8850   12.9570   31.8700 O.3    31  G31         0.0000
    594  C1'       68.4150   12.7810   30.0500 C.3    31  G31         0.0000
    595  N1        67.6910   16.2260   26.4070 N.ar   31  G31         0.0000
    596  C2        67.3680   16.2760   27.7390 C.ar   31  G31         0.0000
    597  N2        66.7810   17.4020   28.1570 N.pl3  31  G31         0.0000
    598  N3        67.6000   15.2980   28.5960 N.ar   31  G31         0.0000
    599  C4        68.1880   14.2410   28.0070 C.ar   31  G31         0.0000
    600  C5        68.5510   14.0800   26.6850 C.ar   31  G31         0.0000
    601  C6        68.3000   15.1500   25.7700 C.ar   31  G31         0.0000
    602  O6        68.5530   15.2160   24.5550 O.2    31  G31         0.0000
    603  N7        69.1290   12.8320   26.4820 N.ar   31  G31         0.0000
    604  C8        69.1100   12.2750   27.6620 C.ar   31  G31         0.0000
    605  N9        68.5610   13.0820   28.6310 N.ar   31  G31         0.0000
    606  OP1       69.5510    6.1910   30.7700 O.3    31  G31        -0.5000
    607  OP2       69.9500    7.4880   28.5780 O.co2  31  G31        -0.5000
    608  P         64.1380   10.5460   30.2220 P.3    32  U32         0.0000
    609  C5'       63.3050   12.8640   31.0630 C.3    32  U32         0.0000
    610  O5'       63.6000   12.0200   29.9720 O.3    32  U32         0.0000
    611  C4'       62.8220   14.1930   30.5680 C.3    32  U32         0.0000
    612  O4'       63.9180   14.9080   29.9420 O.3    32  U32         0.0000
    613  C3'       61.7570   14.1450   29.4900 C.3    32  U32         0.0000
    614  O3'       60.4740   13.9230   30.0620 O.3    32  U32         0.0000
    615  C2'       61.8930   15.5390   28.8990 C.3    32  U32         0.0000
    616  O2'       61.3240   16.5140   29.7550 O.3    32  U32         0.0000
    617  C1'       63.4180   15.6980   28.8750 C.3    32  U32         0.0000
    618  N1        64.0300   15.2090   27.6300 N.ar   32  U32         0.0000
    619  C2        63.8990   15.9860   26.4980 C.ar   32  U32         0.0000
    620  O2        63.3160   17.0510   26.5000 O.2    32  U32         0.0000
    621  N3        64.4700   15.4670   25.3650 N.ar   32  U32         0.0000
    622  C4        65.1450   14.2730   25.2550 C.ar   32  U32         0.0000
    623  O4        65.5920   13.9260   24.1590 O.2    32  U32         0.0000
    624  C5        65.2480   13.5310   26.4740 C.ar   32  U32         0.0000
    625  C6        64.7030   14.0130   27.5900 C.ar   32  U32         0.0000
    626  OP1       63.2620    9.8820   31.2240 O.3    32  U32        -0.5000
    627  OP2       64.3570    9.9190   28.8930 O.co2  32  U32        -0.5000
    628  P         59.3440   13.1370   29.2260 P.3    33  U33         0.0000
    629  C5'       58.4900   15.4620   28.4000 C.3    33  U33         0.0000
    630  O5'       58.9560   14.1590   28.0720 O.3    33  U33         0.0000
    631  C4'       58.5140   16.3460   27.1800 C.3    33  U33         0.0000
    632  O4'       59.8760   16.4840   26.6960 O.3    33  U33         0.0000
    633  C3'       57.7550   15.8170   25.9760 C.3    33  U33         0.0000
    634  O3'       56.3720   16.1200   26.0940 O.3    33  U33         0.0000
    635  C2'       58.3930   16.5970   24.8360 C.3    33  U33         0.0000
    636  O2'       57.8610   17.9010   24.7340 O.3    33  U33         0.0000
    637  C1'       59.8560   16.6650   25.2910 C.3    33  U33         0.0000
    638  N1        60.6880   15.6280   24.6680 N.ar   33  U33         0.0000
    639  C2        61.0590   15.8260   23.3500 C.ar   33  U33         0.0000
    640  O2        60.7440   16.8150   22.7260 O.2    33  U33         0.0000
    641  N3        61.8080   14.8250   22.7950 N.ar   33  U33         0.0000
    642  C4        62.2200   13.6710   23.4100 C.ar   33  U33         0.0000
    643  O4        62.8900   12.8590   22.7730 O.2    33  U33         0.0000
    644  C5        61.8080   13.5380   24.7790 C.ar   33  U33         0.0000
    645  C6        61.0750   14.5000   25.3470 C.ar   33  U33         0.0000
    646  OP1       58.1520   12.9990   30.0920 O.3    33  U33        -0.5000
    647  OP2       59.9500   11.9250   28.6220 O.co2  33  U33        -0.5000
    648  P         55.2800   15.0700   25.5660 P.3    34  G34         0.0000
    649  C5'       55.3640   16.3220   23.2740 C.3    34  G34         0.0000
    650  O5'       55.4700   15.0960   23.9860 O.3    34  G34         0.0000
    651  C4'       55.9220   16.1680   21.8820 C.3    34  G34         0.0000
    652  O4'       57.3480   15.9030   21.9480 O.3    34  G34         0.0000
    653  C3'       55.3450   15.0110   21.0860 C.3    34  G34         0.0000
    654  O3'       54.1590   15.4540   20.4340 O.3    34  G34         0.0000
    655  C2'       56.4560   14.7440   20.0780 C.3    34  G34         0.0000
    656  O2'       56.4240   15.6520   19.0020 O.3    34  G34         0.0000
    657  C1'       57.7100   15.0120   20.9120 C.3    34  G34         0.0000
    658  N1        61.2920   11.4250   20.7000 N.ar   34  G34         0.0000
    659  C2        61.0740   12.4900   19.8670 C.ar   34  G34         0.0000
    660  N2        61.9180   12.6140   18.8450 N.pl3  34  G34         0.0000
    661  N3        60.1000   13.3680   20.0240 N.ar   34  G34         0.0000
    662  C4        59.3440   13.0920   21.1030 C.ar   34  G34         0.0000
    663  C5        59.4740   12.0590   22.0020 C.ar   34  G34         0.0000
    664  C6        60.5270   11.1200   21.8190 C.ar   34  G34         0.0000
    665  O6        60.8090   10.1280   22.5040 O.2    34  G34         0.0000
    666  N7        58.4910   12.1310   22.9800 N.ar   34  G34         0.0000
    667  C8        57.7920   13.1860   22.6590 C.ar   34  G34         0.0000
    668  N9        58.2570   13.8140   21.5310 N.ar   34  G34         0.0000
    669  OP1       53.9240   15.5970   25.8570 O.2    34  G34        -0.5000
    670  OP2       55.6690   13.7350   26.0830 O.co2  34  G34        -0.5000
    671  P         52.7710   14.6600   20.6330 P.3    35  A35         0.0000
    672  C5'       51.2870   16.6650   21.5370 C.3    35  A35         0.0000
    673  O5'       51.6530   15.7930   20.4590 O.3    35  A35         0.0000
    674  C4'       49.7780   16.6980   21.6860 C.3    35  A35         0.0000
    675  O4'       49.2030   17.2140   20.4710 O.3    35  A35         0.0000
    676  C3'       49.1780   15.3130   21.8800 C.3    35  A35         0.0000
    677  O3'       48.1550   15.2560   22.8700 O.3    35  A35         0.0000
    678  C2'       48.7370   14.8540   20.4920 C.3    35  A35         0.0000
    679  O2'       47.4890   14.1910   20.5220 O.3    35  A35         0.0000
    680  C1'       48.5550   16.1840   19.7540 C.3    35  A35         0.0000
    681  N1        48.1520   18.6630   15.3100 N.ar   35  A35         0.0000
    682  C2        47.4450   18.7230   16.4390 C.ar   35  A35         0.0000
    683  N3        47.5760   18.0030   17.5510 N.ar   35  A35         0.0000
    684  C4        48.5850   17.1190   17.4310 C.ar   35  A35         0.0000
    685  C5        49.3950   16.9360   16.3330 C.ar   35  A35         0.0000
    686  C6        49.1570   17.7620   15.2240 C.ar   35  A35         0.0000
    687  N6        49.8710   17.7030   14.1010 N.pl3  35  A35         0.0000
    688  N7        50.3270   15.9370   16.5730 N.ar   35  A35         0.0000
    689  C8        50.0690   15.5540   17.7980 C.ar   35  A35         0.0000
    690  N9        49.0490   16.2490   18.3850 N.ar   35  A35         0.0000
    691  OP1       52.7030   14.1140   22.0130 O.3    35  A35        -0.5000
    692  OP2       52.6730   13.7390   19.4780 O.co2  35  A35        -0.5000
    693  P         48.4380   15.7640   24.3670 P.3    36  C36         0.0000
    694  C5'       47.7420   17.9310   25.6770 C.3    36  C36         0.0000
    695  O5'       47.8530   17.2440   24.4240 O.3    36  C36         0.0000
    696  C4'       46.3780   18.5720   25.8130 C.3    36  C36         0.0000
    697  O4'       46.2570   19.6320   24.8350 O.3    36  C36         0.0000
    698  C3'       45.1830   17.6590   25.5660 C.3    36  C36         0.0000
    699  O3'       44.8300   16.9930   26.7830 O.3    36  C36         0.0000
    700  C2'       44.1100   18.6480   25.1120 C.3    36  C36         0.0000
    701  O2'       43.5120   19.3310   26.1840 O.3    36  C36         0.0000
    702  C1'       44.9350   19.6750   24.3370 C.3    36  C36         0.0000
    703  N1        44.9810   19.4550   22.8890 N.ar   36  C36         0.0000
    704  C2        43.8810   19.8230   22.1280 C.ar   36  C36         0.0000
    705  O2        42.9110   20.3290   22.7010 O.2    36  C36         0.0000
    706  N3        43.8980   19.6190   20.7890 N.ar   36  C36         0.0000
    707  C4        44.9700   19.0690   20.2130 C.ar   36  C36         0.0000
    708  N4        44.9440   18.8800   18.8900 N.pl3  36  C36         0.0000
    709  C5        46.1180   18.6870   20.9690 C.ar   36  C36         0.0000
    710  C6        46.0810   18.8980   22.2930 C.ar   36  C36         0.0000
    711  OP1       49.8990   15.8390   24.6000 O.3    36  C36         0.0000
    712  OP2       47.5850   14.9420   25.2660 O.co2  36  C36        -1.0000
    713  P         44.2600   15.4840   26.7580 P.3    37  G37         0.0000
    714  C5'       41.6940   15.1760   26.2770 C.3    37  G37         0.0000
    715  O5'       42.7230   15.6610   27.1260 O.3    37  G37         0.0000
    716  C4'       40.6670   16.2590   26.0360 C.3    37  G37         0.0000
    717  O4'       41.2740   17.3430   25.2830 O.3    37  G37         0.0000
    718  C3'       39.4720   15.8360   25.2030 C.3    37  G37         0.0000
    719  O3'       38.4830   15.3170   26.0750 O.3    37  G37         0.0000
    720  C2'       39.0240   17.1580   24.6090 C.3    37  G37         0.0000
    721  O2'       38.3630   17.9140   25.5950 O.3    37  G37         0.0000
    722  C1'       40.3680   17.8190   24.3070 C.3    37  G37         0.0000
    723  N1        39.9570   18.1400   19.2320 N.ar   37  G37         0.0000
    724  C2        39.1200   18.6310   20.1900 C.ar   37  G37         0.0000
    725  N2        38.0440   19.2850   19.7410 N.pl3  37  G37         0.0000
    726  N3        39.3180   18.4890   21.4940 N.ar   37  G37         0.0000
    727  C4        40.4420   17.7980   21.7580 C.ar   37  G37         0.0000
    728  C5        41.3430   17.2600   20.8670 C.ar   37  G37         0.0000
    729  C6        41.1160   17.4210   19.4780 C.ar   37  G37         0.0000
    730  O6        41.7990   17.0060   18.5300 O.2    37  G37         0.0000
    731  N7        42.3730   16.6120   21.5370 N.ar   37  G37         0.0000
    732  C8        42.0860   16.7650   22.7990 C.ar   37  G37         0.0000
    733  N9        40.9320   17.4780   23.0070 N.ar   37  G37         0.0000
    734  OP1       44.8770   14.7600   27.8860 O.2    37  G37         0.0000
    735  OP2       44.3650   14.9300   25.3920 O.co2  37  G37        -1.0000
    736  P         37.3640   14.3140   25.5160 P.3    38  A38         0.0000
    737  C5'       35.5430   16.0550   24.8010 C.3    38  A38         0.0000
    738  O5'       36.5850   15.1700   24.4210 O.3    38  A38         0.0000
    739  C4'       34.8630   16.6120   23.5780 C.3    38  A38         0.0000
    740  O4'       35.8420   17.3180   22.7690 O.3    38  A38         0.0000
    741  C3'       34.2880   15.5950   22.6130 C.3    38  A38         0.0000
    742  O3'       33.0060   15.1530   23.0040 O.3    38  A38         0.0000
    743  C2'       34.2110   16.4050   21.3320 C.3    38  A38         0.0000
    744  O2'       33.1410   17.3300   21.3470 O.3    38  A38         0.0000
    745  C1'       35.5410   17.1480   21.3930 C.3    38  A38         0.0000
    746  N1        37.6240   15.5320   16.9810 N.ar   38  A38         0.0000
    747  C2        36.5400   16.2660   17.2510 C.ar   38  A38         0.0000
    748  N3        36.0510   16.6480   18.4310 N.ar   38  A38         0.0000
    749  C4        36.8140   16.1830   19.4380 C.ar   38  A38         0.0000
    750  C5        37.9590   15.4160   19.3230 C.ar   38  A38         0.0000
    751  C6        38.3750   15.0820   18.0080 C.ar   38  A38         0.0000
    752  N6        39.4560   14.3520   17.7240 N.pl3  38  A38         0.0000
    753  N7        38.4770   15.1220   20.5810 N.ar   38  A38         0.0000
    754  C8        37.6470   15.7070   21.4110 C.ar   38  A38         0.0000
    755  N9        36.6220   16.3750   20.7860 N.ar   38  A38         0.0000
    756  OP1       36.4470   14.0430   26.6500 O.3    38  A38        -0.5000
    757  OP2       38.0290   13.1790   24.8210 O.co2  38  A38        -0.5000
    758  P         32.5630   13.6500   22.6730 P.3    39  G39         0.0000
    759  C5'       31.6760   14.3820   20.3170 C.3    39  G39         0.0000
    760  O5'       32.5570   13.5750   21.0830 O.3    39  G39         0.0000
    761  C4'       31.9530   14.1930   18.8450 C.3    39  G39         0.0000
    762  O4'       33.2960   14.6450   18.5380 O.3    39  G39         0.0000
    763  C3'       31.9360   12.7550   18.3610 C.3    39  G39         0.0000
    764  O3'       30.6110   12.3500   18.0670 O.3    39  G39         0.0000
    765  C2'       32.7700   12.8370   17.0930 C.3    39  G39         0.0000
    766  O2'       32.0440   13.3730   16.0100 O.3    39  G39         0.0000
    767  C1'       33.8450   13.8370   17.5060 C.3    39  G39         0.0000
    768  N1        38.1770   11.4610   16.3250 N.ar   39  G39         0.0000
    769  C2        37.2070   11.9680   15.4940 C.ar   39  G39         0.0000
    770  N2        37.4250   11.8230   14.1760 N.pl3  39  G39         0.0000
    771  N3        36.1050   12.5700   15.9230 N.ar   39  G39         0.0000
    772  C4        36.0480   12.6170   17.2720 C.ar   39  G39         0.0000
    773  C5        36.9570   12.1370   18.1870 C.ar   39  G39         0.0000
    774  C6        38.1360   11.5030   17.7160 C.ar   39  G39         0.0000
    775  O6        39.0650   11.0200   18.3730 O.2    39  G39         0.0000
    776  N7        36.5240   12.3790   19.4840 N.ar   39  G39         0.0000
    777  C8        35.3830   12.9930   19.3350 C.ar   39  G39         0.0000
    778  N9        35.0390   13.1760   18.0190 N.ar   39  G39         0.0000
    779  OP1       31.1790   13.4350   23.1580 O.2    39  G39        -0.5000
    780  OP2       33.6660   12.7880   23.1720 O.co2  39  G39        -0.5000
    781  P         30.2090   10.8020   18.1810 P.3    40  G40         0.0000
    782  C5'       30.6370   10.4020   15.6280 C.3    40  G40         0.0000
    783  O5'       30.9780   10.1110   16.9730 O.3    40  G40         0.0000
    784  C4'       31.5980    9.7130   14.6950 C.3    40  G40         0.0000
    785  O4'       32.9330   10.2400   14.9010 O.3    40  G40         0.0000
    786  C3'       31.7560    8.2180   14.9070 C.3    40  G40         0.0000
    787  O3'       30.7750    7.5150   14.1620 O.3    40  G40         0.0000
    788  C2'       33.1150    7.9510   14.2890 C.3    40  G40         0.0000
    789  O2'       33.0010    7.8400   12.8870 O.3    40  G40         0.0000
    790  C1'       33.8830    9.2210   14.6620 C.3    40  G40         0.0000
    791  N1        38.4720    8.0900   16.4310 N.ar   40  G40         0.0000
    792  C2        38.0350    8.1940   15.1330 C.ar   40  G40         0.0000
    793  N2        38.9410    7.9610   14.1780 N.pl3  40  G40         0.0000
    794  N3        36.8000    8.5060   14.7960 N.ar   40  G40         0.0000
    795  C4        36.0240    8.7180   15.8790 C.ar   40  G40         0.0000
    796  C5        36.3640    8.6450   17.2100 C.ar   40  G40         0.0000
    797  C6        37.6880    8.3020   17.5570 C.ar   40  G40         0.0000
    798  O6        38.1820    8.1810   18.6780 O.2    40  G40         0.0000
    799  N7        35.2740    8.9390   18.0110 N.ar   40  G40         0.0000
    800  C8        34.3100    9.1790   17.1670 C.ar   40  G40         0.0000
    801  N9        34.7000    9.0540   15.8580 N.ar   40  G40         0.0000
    802  OP1       28.7470   10.7580   17.9210 O.2    40  G40        -0.5000
    803  OP2       30.7490   10.2100   19.4340 O.co2  40  G40        -0.5000
    804  P         30.1800    6.1400   14.7330 P.3    41  G41         0.0000
    805  C5'       31.7530    4.8670   13.0700 C.3    41  G41         0.0000
    806  O5'       31.2950    5.0510   14.4000 O.3    41  G41         0.0000
    807  C4'       32.2000    3.4390   12.8600 C.3    41  G41         0.0000
    808  O4'       33.3050    3.1390   13.7520 O.3    41  G41         0.0000
    809  C3'       31.0780    2.4650   13.2320 C.3    41  G41         0.0000
    810  O3'       31.0390    1.3810   12.3090 O.3    41  G41         0.0000
    811  C2'       31.3780    2.0140   14.6600 C.3    41  G41         0.0000
    812  O2'       31.1140    0.6460   14.8720 O.3    41  G41         0.0000
    813  C1'       32.8920    2.1760   14.6890 C.3    41  G41         0.0000
    814  N1        37.4200    1.6430   16.7850 N.ar   41  G41         0.0000
    815  C2        37.0390    1.5410   15.4720 C.ar   41  G41         0.0000
    816  N2        37.9990    1.2260   14.5970 N.pl3  41  G41         0.0000
    817  N3        35.8090    1.7370   15.0490 N.ar   41  G41         0.0000
    818  C4        34.9730    2.0550   16.0570 C.ar   41  G41         0.0000
    819  C5        35.2480    2.1890   17.3970 C.ar   41  G41         0.0000
    820  C6        36.5780    1.9730   17.8420 C.ar   41  G41         0.0000
    821  O6        37.0330    2.0470   18.9940 O.2    41  G41         0.0000
    822  N7        34.1020    2.5360   18.1000 N.ar   41  G41         0.0000
    823  C8        33.1700    2.6020   17.1860 C.ar   41  G41         0.0000
    824  N9        33.6340    2.2990   15.9320 N.ar   41  G41         0.0000
    825  OP1       28.9570    5.8200   13.9460 O.2    41  G41        -0.5000
    826  OP2       30.0820    6.2930   16.2070 O.co2  41  G41        -0.5000
    827  P         29.7310    1.0880   11.4470 P.3    42  C42         0.0000
    828  C5'       29.0440   -1.2000   12.5550 C.3    42  C42         0.0000
    829  O5'       29.6230   -0.5020   11.4550 O.3    42  C42         0.0000
    830  C4'       28.5850   -2.5760   12.1200 C.3    42  C42         0.0000
    831  O4'       27.4990   -2.4530   11.1630 O.3    42  C42         0.0000
    832  C3'       29.6260   -3.4130   11.4020 C.3    42  C42         0.0000
    833  O3'       30.3970   -4.1270   12.3450 O.3    42  C42         0.0000
    834  C2'       28.7630   -4.3720   10.6020 C.3    42  C42         0.0000
    835  O2'       28.2750   -5.4250   11.4080 O.3    42  C42         0.0000
    836  C1'       27.6200   -3.4530   10.1660 C.3    42  C42         0.0000
    837  N1        27.8550   -2.7800    8.8750 N.ar   42  C42         0.0000
    838  C2        27.8820   -3.5410    7.6970 C.ar   42  C42         0.0000
    839  O2        27.7060   -4.7630    7.7650 O.2    42  C42         0.0000
    840  N3        28.1030   -2.9230    6.5140 N.ar   42  C42         0.0000
    841  C4        28.3020   -1.6050    6.4790 C.ar   42  C42         0.0000
    842  N4        28.5330   -1.0400    5.2950 N.pl3  42  C42         0.0000
    843  C5        28.2760   -0.8070    7.6600 C.ar   42  C42         0.0000
    844  C6        28.0480   -1.4290    8.8230 C.ar   42  C42         0.0000
    845  OP1       30.0620    1.5100   10.0640 O.2    42  C42        -0.5000
    846  OP2       28.5550    1.6840   12.1440 O.co2  42  C42        -0.5000
    847  P         31.9680   -4.3280   12.1010 P.3    43  A43         0.0000
    848  C5'       31.6120   -6.7320   11.1350 C.3    43  A43         0.0000
    849  O5'       32.0380   -5.3950   10.9230 O.3    43  A43         0.0000
    850  C4'       31.7920   -7.5370    9.8760 C.3    43  A43         0.0000
    851  O4'       30.7790   -7.1800    8.9000 O.3    43  A43         0.0000
    852  C3'       33.0970   -7.2800    9.1590 C.3    43  A43         0.0000
    853  O3'       34.1440   -8.0420    9.7240 O.3    43  A43         0.0000
    854  C2'       32.7670   -7.7150    7.7410 C.3    43  A43         0.0000
    855  O2'       32.7780   -9.1170    7.5990 O.3    43  A43         0.0000
    856  C1'       31.3380   -7.1930    7.5990 C.3    43  A43         0.0000
    857  N1        31.4240   -4.0480    3.5110 N.ar   43  A43         0.0000
    858  C2        31.4500   -5.3850    3.6060 C.ar   43  A43         0.0000
    859  N3        31.4200   -6.1530    4.6920 N.ar   43  A43         0.0000
    860  C4        31.3560   -5.3960    5.8010 C.ar   43  A43         0.0000
    861  C5        31.3270   -4.0150    5.8610 C.ar   43  A43         0.0000
    862  C6        31.3630   -3.3210    4.6480 C.ar   43  A43         0.0000
    863  N6        31.3380   -1.9870    4.5640 N.pl3  43  A43         0.0000
    864  N7        31.2610   -3.5830    7.1760 N.ar   43  A43         0.0000
    865  C8        31.2510   -4.6900    7.8710 C.ar   43  A43         0.0000
    866  N9        31.3120   -5.8230    7.1070 N.ar   43  A43         0.0000
    867  OP1       32.5160   -4.9510   13.3350 O.3    43  A43        -0.5000
    868  OP2       32.5100   -3.0250   11.6200 O.co2  43  A43        -0.5000
    869  P         35.6550   -7.6780    9.3540 P.3    44  G44         0.0000
    870  C5'       35.8690   -9.4050    7.4080 C.3    44  G44         0.0000
    871  O5'       35.7450   -8.0530    7.8140 O.3    44  G44         0.0000
    872  C4'       36.1870   -9.4620    5.9450 C.3    44  G44         0.0000
    873  O4'       35.0590   -8.9090    5.2170 O.3    44  G44         0.0000
    874  C3'       37.3440   -8.5760    5.5160 C.3    44  G44         0.0000
    875  O3'       38.6080   -9.2000    5.7030 O.3    44  G44         0.0000
    876  C2'       37.0380   -8.3960    4.0440 C.3    44  G44         0.0000
    877  O2'       37.3350   -9.5790    3.3400 O.3    44  G44         0.0000
    878  C1'       35.5250   -8.1930    4.0880 C.3    44  G44         0.0000
    879  N1        34.6380   -3.8100    1.6880 N.ar   44  G44         0.0000
    880  C2        34.9110   -5.0490    1.1700 C.ar   44  G44         0.0000
    881  N2        34.9730   -5.1250   -0.1570 N.pl3  44  G44         0.0000
    882  N3        35.1090   -6.1320    1.9020 N.ar   44  G44         0.0000
    883  C4        35.0080   -5.8710    3.2270 C.ar   44  G44         0.0000
    884  C5        34.7350   -4.6700    3.8500 C.ar   44  G44         0.0000
    885  C6        34.5270   -3.5130    3.0420 C.ar   44  G44         0.0000
    886  O6        34.2770   -2.3540    3.3950 O.2    44  G44         0.0000
    887  N7        34.7140   -4.8250    5.2300 N.ar   44  G44         0.0000
    888  C8        34.9750   -6.0930    5.4200 C.ar   44  G44         0.0000
    889  N9        35.1750   -6.7830    4.2480 N.ar   44  G44         0.0000
    890  OP1       36.5400   -8.5940   10.1060 O.3    44  G44        -0.5000
    891  OP2       35.8360   -6.2060    9.4840 O.co2  44  G44        -0.5000
    892  P         39.9490   -8.3050    5.6870 P.3    45  G45         0.0000
    893  C5'       40.3980   -8.5710    3.1140 C.3    45  G45         0.0000
    894  O5'       40.0370   -7.7300    4.2030 O.3    45  G45         0.0000
    895  C4'       40.3680   -7.7930    1.8190 C.3    45  G45         0.0000
    896  O4'       39.0270   -7.2760    1.6020 O.3    45  G45         0.0000
    897  C3'       41.2300   -6.5480    1.7630 C.3    45  G45         0.0000
    898  O3'       42.5890   -6.8400    1.4600 O.3    45  G45         0.0000
    899  C2'       40.5750   -5.7880    0.6230 C.3    45  G45         0.0000
    900  O2'       40.9330   -6.3180   -0.6330 O.3    45  G45         0.0000
    901  C1'       39.0940   -6.0480    0.8970 C.3    45  G45         0.0000
    902  N1        37.4190   -1.2680    1.0280 N.ar   45  G45         0.0000
    903  C2        37.7720   -2.0390   -0.0450 C.ar   45  G45         0.0000
    904  N2        37.7180   -1.4400   -1.2330 N.pl3  45  G45         0.0000
    905  N3        38.1510   -3.3000    0.0400 N.ar   45  G45         0.0000
    906  C4        38.1510   -3.7380    1.3120 C.ar   45  G45         0.0000
    907  C5        37.8110   -3.0530    2.4560 C.ar   45  G45         0.0000
    908  C6        37.4090   -1.6940    2.3460 C.ar   45  G45         0.0000
    909  O6        37.0810   -0.9050    3.2400 O.2    45  G45         0.0000
    910  N7        37.9340   -3.8690    3.5720 N.ar   45  G45         0.0000
    911  C8        38.3540   -5.0110    3.0930 C.ar   45  G45         0.0000
    912  N9        38.5380   -4.9890    1.7340 N.ar   45  G45         0.0000
    913  OP1       41.0900   -9.2290    5.8990 O.2    45  G45        -0.5000
    914  OP2       39.7700   -7.1300    6.5880 O.co2  45  G45        -0.5000
    915  P         43.7350   -5.7770    1.8580 P.3    46  G46         0.0000
    916  C5'       43.5360   -4.6800   -0.5210 C.3    46  G46         0.0000
    917  O5'       43.4720   -4.5360    0.8910 O.3    46  G46         0.0000
    918  C4'       43.1620   -3.3810   -1.1920 C.3    46  G46         0.0000
    919  O4'       41.7690   -3.0640   -0.9300 O.3    46  G46         0.0000
    920  C3'       43.9020   -2.1500   -0.7060 C.3    46  G46         0.0000
    921  O3'       45.1610   -2.0490   -1.3480 O.3    46  G46         0.0000
    922  C2'       42.9720   -1.0500   -1.1820 C.3    46  G46         0.0000
    923  O2'       43.0900   -0.8880   -2.5760 O.3    46  G46         0.0000
    924  C1'       41.6060   -1.6530   -0.8520 C.3    46  G46         0.0000
    925  N1        39.5740    1.9240    2.1620 N.ar   46  G46         0.0000
    926  C2        39.8070    1.9540    0.8160 C.ar   46  G46         0.0000
    927  N2        39.4730    3.0890    0.1950 N.pl3  46  G46         0.0000
    928  N3        40.3290    0.9480    0.1260 N.ar   46  G46         0.0000
    929  C4        40.6090   -0.1120    0.9110 C.ar   46  G46         0.0000
    930  C5        40.4180   -0.2440    2.2710 C.ar   46  G46         0.0000
    931  C6        39.8530    0.8520    2.9960 C.ar   46  G46         0.0000
    932  O6        39.6110    0.9390    4.2070 O.2    46  G46         0.0000
    933  N7        40.8370   -1.4960    2.7070 N.ar   46  G46         0.0000
    934  C8        41.2700   -2.0900    1.6260 C.ar   46  G46         0.0000
    935  N9        41.1720   -1.3060    0.5010 N.ar   46  G46         0.0000
    936  OP1       45.0860   -6.3270    1.5330 O.2    46  G46        -0.5000
    937  OP2       43.4370   -5.3430    3.2570 O.co2  46  G46        -0.5000
    938  P         46.3340   -1.1640   -0.6920 P.3    47  U47         0.0000
    939  C5'       45.4030    1.0130   -1.7910 C.3    47  U47         0.0000
    940  O5'       45.7160    0.2960   -0.6080 O.3    47  U47         0.0000
    941  C4'       44.8030    2.3500   -1.4400 C.3    47  U47         0.0000
    942  O4'       43.5390    2.1560   -0.7550 O.3    47  U47         0.0000
    943  C3'       45.6150    3.1920   -0.4760 C.3    47  U47         0.0000
    944  O3'       46.6190    3.8850   -1.2060 O.3    47  U47         0.0000
    945  C2'       44.5500    4.1320    0.0740 C.3    47  U47         0.0000
    946  O2'       44.2020    5.1390   -0.8580 O.3    47  U47         0.0000
    947  C1'       43.3570    3.1850    0.2020 C.3    47  U47         0.0000
    948  N1        43.2220    2.5550    1.5200 N.ar   47  U47         0.0000
    949  C2        42.5440    3.2490    2.5080 C.ar   47  U47         0.0000
    950  O2        42.0820    4.3680    2.3430 O.2    47  U47         0.0000
    951  N3        42.4260    2.5810    3.6980 N.ar   47  U47         0.0000
    952  C4        42.9120    1.3250    3.9960 C.ar   47  U47         0.0000
    953  O4        42.7170    0.8540    5.1140 O.2    47  U47         0.0000
    954  C5        43.6090    0.6830    2.9280 C.ar   47  U47         0.0000
    955  C6        43.7400    1.3060    1.7570 C.ar   47  U47         0.0000
    956  OP1       47.4400   -1.1170   -1.6860 O.2    47  U47        -0.5000
    957  OP2       46.6060   -1.6330    0.6930 O.co2  47  U47        -0.5000
    958  P         47.9780    4.3360   -0.4740 P.3    48  U48         0.0000
    959  C5'       46.8160    6.6790   -0.2820 C.3    48  U48         0.0000
    960  O5'       47.5440    5.6300    0.3530 O.3    48  U48         0.0000
    961  C4'       46.3780    7.7280    0.7200 C.3    48  U48         0.0000
    962  O4'       45.4320    7.1610    1.6730 O.3    48  U48         0.0000
    963  C3'       47.5720    8.2060    1.5510 C.3    48  U48         0.0000
    964  O3'       47.6120    9.6370    1.5900 O.3    48  U48         0.0000
    965  C2'       47.5000    7.4320    2.8750 C.3    48  U48         0.0000
    966  O2'       47.8570    8.1720    4.0200 O.3    48  U48         0.0000
    967  C1'       46.0000    7.1790    2.9580 C.3    48  U48         0.0000
    968  N1        45.3810    6.1970    3.8590 N.ar   48  U48         0.0000
    969  C2        44.3130    6.6710    4.5990 C.ar   48  U48         0.0000
    970  O2        43.8680    7.7950    4.4520 O.2    48  U48         0.0000
    971  N3        43.7830    5.7870    5.5070 N.ar   48  U48         0.0000
    972  C4        44.1940    4.4980    5.7410 C.ar   48  U48         0.0000
    973  O4        43.6280    3.8360    6.6160 O.2    48  U48         0.0000
    974  C5        45.2890    4.0600    4.9140 C.ar   48  U48         0.0000
    975  C6        45.8290    4.9060    4.0150 C.ar   48  U48         0.0000
    976  OP1       48.9110    4.7610   -1.5530 O.2    48  U48        -0.5000
    977  OP2       48.3990    3.2810    0.4930 O.co2  48  U48        -0.5000
    978  P         48.9670   10.4080    1.9710 P.3    49  U49         0.0000
    979  C5'       48.5200   10.9050    4.5260 C.3    49  U49         0.0000
    980  O5'       48.5540   11.3850    3.1740 O.3    49  U49         0.0000
    981  C4'       47.9410   11.9390    5.4870 C.3    49  U49         0.0000
    982  O4'       48.8960   13.0080    5.7110 O.3    49  U49         0.0000
    983  C3'       46.6810   12.6100    4.9550 C.3    49  U49         0.0000
    984  O3'       45.5970   12.6420    5.8770 O.3    49  U49         0.0000
    985  C2'       47.1230   13.9580    4.3880 C.3    49  U49         0.0000
    986  O2'       46.2420   14.9970    4.7540 O.3    49  U49         0.0000
    987  C1'       48.4100   14.2140    5.1660 C.3    49  U49         0.0000
    988  N1        49.5000   14.9400    4.5030 N.ar   49  U49         0.0000
    989  C2        49.6200   16.2870    4.8030 C.ar   49  U49         0.0000
    990  O2        48.8490   16.8650    5.5530 O.2    49  U49         0.0000
    991  N3        50.6730   16.9280    4.1990 N.ar   49  U49         0.0000
    992  C4        51.5960   16.3720    3.3380 C.ar   49  U49         0.0000
    993  O4        52.4970   17.0760    2.8860 O.2    49  U49         0.0000
    994  C5        51.3960   14.9760    3.0620 C.ar   49  U49         0.0000
    995  C6        50.3760   14.3240    3.6400 C.ar   49  U49         0.0000
    996  OP1       49.3010   11.2340    0.7840 O.2    49  U49        -0.5000
    997  OP2       49.9510    9.4080    2.4830 O.co2  49  U49        -0.5000
    998  P         44.9180   11.2710    6.3690 P.3    50  A50         0.0000
    999  C5'       42.6550   12.4310    5.6870 C.3    50  A50         0.0000
   1000  O5'       43.4030   11.6840    6.6470 O.3    50  A50         0.0000
   1001  C4'       41.2040   12.4710    6.0920 C.3    50  A50         0.0000
   1002  O4'       40.6820   11.1230    6.1040 O.3    50  A50         0.0000
   1003  C3'       41.0400   13.0040    7.5050 C.3    50  A50         0.0000
   1004  O3'       39.9440   13.9100    7.5860 O.3    50  A50         0.0000
   1005  C2'       40.9410   11.7730    8.4010 C.3    50  A50         0.0000
   1006  O2'       39.9420   11.9130    9.3780 O.3    50  A50         0.0000
   1007  C1'       40.4360   10.7120    7.4270 C.3    50  A50         0.0000
   1008  N1        39.7810    6.3640   10.0380 N.ar   50  A50         0.0000
   1009  C2        39.2590    7.5850   10.1800 C.ar   50  A50         0.0000
   1010  N3        39.5000    8.6870    9.4810 N.ar   50  A50         0.0000
   1011  C4        40.4070    8.4460    8.5220 C.ar   50  A50         0.0000
   1012  C5        41.0340    7.2470    8.2570 C.ar   50  A50         0.0000
   1013  C6        40.6900    6.1590    9.0650 C.ar   50  A50         0.0000
   1014  N6        41.2090    4.9400    8.9230 N.pl3  50  A50         0.0000
   1015  N7        41.9160    7.3780    7.1960 N.ar   50  A50         0.0000
   1016  C8        41.7990    8.6340    6.8450 C.ar   50  A50         0.0000
   1017  N9        40.8850    9.3320    7.5910 N.ar   50  A50         0.0000
   1018  OP1       45.5200   10.8480    7.6660 O.3    50  A50        -0.5000
   1019  OP2       44.9510   10.3440    5.2070 O.co2  50  A50        -0.5000
   1020  P         40.1630   15.4190    8.0730 P.3    51  U51         0.0000
   1021  C5'       37.5870   15.8410    8.1510 C.3    51  U51         0.0000
   1022  O5'       38.8160   15.7460    8.8510 O.3    51  U51         0.0000
   1023  C4'       36.4810   16.2350    9.0990 C.3    51  U51         0.0000
   1024  O4'       36.2360   15.1530   10.0350 O.3    51  U51         0.0000
   1025  C3'       36.7960   17.4220    9.9900 C.3    51  U51         0.0000
   1026  O3'       36.5380   18.6470    9.3290 O.3    51  U51         0.0000
   1027  C2'       35.8440   17.2040   11.1470 C.3    51  U51         0.0000
   1028  O2'       34.5290   17.5700   10.8010 O.3    51  U51         0.0000
   1029  C1'       35.9210   15.6880   11.3090 C.3    51  U51         0.0000
   1030  N1        36.9600   15.2640   12.2540 N.ar   51  U51         0.0000
   1031  C2        36.7490   15.5280   13.5860 C.ar   51  U51         0.0000
   1032  O2        35.7520   16.0910   13.9900 O.2    51  U51         0.0000
   1033  N3        37.7490   15.1090   14.4290 N.ar   51  U51         0.0000
   1034  C4        38.9190   14.4620   14.0750 C.ar   51  U51         0.0000
   1035  O4        39.7310   14.1360   14.9550 O.2    51  U51         0.0000
   1036  C5        39.0600   14.2240   12.6660 C.ar   51  U51         0.0000
   1037  C6        38.1000   14.6250   11.8270 C.ar   51  U51         0.0000
   1038  OP1       40.2090   16.2980    6.8730 O.2    51  U51        -0.5000
   1039  OP2       41.2930   15.4170    9.0370 O.co2  51  U51        -0.5000
   1040  P         37.4270   19.9330    9.6840 P.3    52  C52         0.0000
   1041  C5'       35.5590   20.5970   11.3960 C.3    52  C52         0.0000
   1042  O5'       36.9360   20.2960   11.1560 O.3    52  C52         0.0000
   1043  C4'       35.3130   20.8400   12.8640 C.3    52  C52         0.0000
   1044  O4'       35.4920   19.5970   13.5830 O.3    52  C52         0.0000
   1045  C3'       36.2610   21.7960   13.5740 C.3    52  C52         0.0000
   1046  O3'       35.9340   23.1590   13.3600 O.3    52  C52         0.0000
   1047  C2'       36.0580   21.3910   15.0250 C.3    52  C52         0.0000
   1048  O2'       34.8310   21.8560   15.5570 O.3    52  C52         0.0000
   1049  C1'       35.9840   19.8730   14.8860 C.3    52  C52         0.0000
   1050  N1        37.2960   19.2360   15.0420 N.ar   52  C52         0.0000
   1051  C2        37.8130   19.0950   16.3300 C.ar   52  C52         0.0000
   1052  O2        37.1550   19.5230   17.2840 O.2    52  C52         0.0000
   1053  N3        39.0150   18.4960   16.5020 N.ar   52  C52         0.0000
   1054  C4        39.6920   18.0510   15.4440 C.ar   52  C52         0.0000
   1055  N4        40.8660   17.4650   15.6630 N.pl3  52  C52         0.0000
   1056  C5        39.1920   18.1890   14.1150 C.ar   52  C52         0.0000
   1057  C6        38.0000   18.7850   13.9610 C.ar   52  C52         0.0000
   1058  OP1       37.0320   21.0210    8.7540 O.2    52  C52        -0.5000
   1059  OP2       38.8460   19.5040    9.7430 O.co2  52  C52        -0.5000
   1060  P         37.0340   24.1370   12.7290 P.3    53  G53         0.0000
   1061  C5'       36.8090   25.6910   14.8240 C.3    53  G53         0.0000
   1062  O5'       37.6470   24.9330   13.9690 O.3    53  G53         0.0000
   1063  C4'       37.0040   25.2810   16.2700 C.3    53  G53         0.0000
   1064  O4'       37.1690   23.8420   16.3570 O.3    53  G53         0.0000
   1065  C3'       38.2250   25.7850   17.0160 C.3    53  G53         0.0000
   1066  O3'       38.0000   27.1060   17.4760 O.3    53  G53         0.0000
   1067  C2'       38.2510   24.8390   18.2110 C.3    53  G53         0.0000
   1068  O2'       37.2810   25.1570   19.1920 O.3    53  G53         0.0000
   1069  C1'       37.8500   23.5230   17.5560 C.3    53  G53         0.0000
   1070  N1        41.7450   20.8950   19.4450 N.ar   53  G53         0.0000
   1071  C2        40.7960   21.6440   20.0990 C.ar   53  G53         0.0000
   1072  N2        40.8870   21.6890   21.4340 N.pl3  53  G53         0.0000
   1073  N3        39.8260   22.3020   19.4870 N.ar   53  G53         0.0000
   1074  C4        39.8780   22.1490   18.1440 C.ar   53  G53         0.0000
   1075  C5        40.7780   21.4230   17.3940 C.ar   53  G53         0.0000
   1076  C6        41.8160   20.7190   18.0640 C.ar   53  G53         0.0000
   1077  O6        42.7110   20.0130   17.5730 O.2    53  G53         0.0000
   1078  N7        40.4790   21.5170   16.0410 N.ar   53  G53         0.0000
   1079  C8        39.4230   22.2870   15.9960 C.ar   53  G53         0.0000
   1080  N9        39.0030   22.6940   17.2370 N.ar   53  G53         0.0000
   1081  OP1       36.3550   25.0890   11.8140 O.2    53  G53        -0.5000
   1082  OP2       38.1130   23.2690   12.2170 O.co2  53  G53        -0.5000
   1083  P         39.2410   28.0340   17.8750 P.3    54  A54         0.0000
   1084  C5'       39.1290   27.5420   20.4440 C.3    54  A54         0.0000
   1085  O5'       39.8160   27.3840   19.2110 O.3    54  A54         0.0000
   1086  C4'       40.0350   27.1880   21.5920 C.3    54  A54         0.0000
   1087  O4'       40.2710   25.7590   21.6140 O.3    54  A54         0.0000
   1088  C3'       41.4210   27.8040   21.5500 C.3    54  A54         0.0000
   1089  O3'       41.3550   29.1330   22.0640 O.3    54  A54         0.0000
   1090  C2'       42.1960   26.8510   22.4550 C.3    54  A54         0.0000
   1091  O2'       41.9360   27.0670   23.8250 O.3    54  A54         0.0000
   1092  C1'       41.5840   25.5060   22.0630 C.3    54  A54         0.0000
   1093  N1        45.7020   22.7350   20.8390 N.ar   54  A54         0.0000
   1094  C2        45.2610   23.2350   21.9970 C.ar   54  A54         0.0000
   1095  N3        44.1720   23.9560   22.2410 N.ar   54  A54         0.0000
   1096  C4        43.4800   24.1610   21.1110 C.ar   54  A54         0.0000
   1097  C5        43.8010   23.7130   19.8460 C.ar   54  A54         0.0000
   1098  C6        44.9820   22.9610   19.7220 C.ar   54  A54         0.0000
   1099  N6        45.4320   22.4640   18.5750 N.pl3  54  A54         0.0000
   1100  N7        42.8460   24.1220   18.9250 N.ar   54  A54         0.0000
   1101  C8        41.9840   24.7980   19.6440 C.ar   54  A54         0.0000
   1102  N9        42.3080   24.8570   20.9770 N.ar   54  A54         0.0000
   1103  OP1       38.7000   29.3790   18.2050 O.3    54  A54        -0.5000
   1104  OP2       40.2750   27.8900   16.8190 O.co2  54  A54        -0.5000
   1105  P         42.5770   30.1570   21.8380 P.3    55  G55         0.0000
   1106  C5'       44.7270   30.5440   23.3550 C.3    55  G55         0.0000
   1107  O5'       43.3700   30.0820   23.2340 O.3    55  G55         0.0000
   1108  C4'       45.0870   30.7810   24.8140 C.3    55  G55         0.0000
   1109  O4'       43.9830   31.4300   25.4440 O.3    55  G55         0.0000
   1110  C3'       45.4100   29.5480   25.6580 C.3    55  G55         0.0000
   1111  O3'       46.8100   29.5550   26.0040 O.3    55  G55         0.0000
   1112  C2'       44.6890   29.7680   27.0020 C.3    55  G55         0.0000
   1113  O2'       45.5690   29.8520   28.0950 O.3    55  G55         0.0000
   1114  C1'       44.0030   31.1200   26.8060 C.3    55  G55         0.0000
   1115  N1        39.0070   30.2570   26.5710 N.ar   55  G55         0.0000
   1116  C2        40.0310   29.5650   25.9710 C.ar   55  G55         0.0000
   1117  N2        39.6680   28.5720   25.1470 N.pl3  55  G55         0.0000
   1118  N3        41.3140   29.8320   26.1570 N.ar   55  G55         0.0000
   1119  C4        41.4930   30.8670   27.0020 C.ar   55  G55         0.0000
   1120  C5        40.5400   31.6240   27.6510 C.ar   55  G55         0.0000
   1121  C6        39.1730   31.3320   27.4400 C.ar   55  G55         0.0000
   1122  O6        38.1860   31.9070   27.9140 O.2    55  G55         0.0000
   1123  N7        41.1360   32.6000   28.4380 N.ar   55  G55         0.0000
   1124  C8        42.4110   32.4290   28.2460 C.ar   55  G55         0.0000
   1125  N9        42.6910   31.4270   27.3500 N.ar   55  G55         0.0000
   1126  OP1       41.9540   31.4940   21.7090 O.3    55  G55        -0.5000
   1127  OP2       43.4560   29.6600   20.7450 O.co2  55  G55        -0.5000
   1128  P         47.9700   29.6730   24.8730 P.3    56  A56         0.0000
   1129  C5'       48.9390   27.3180   25.4670 C.3    56  A56         0.0000
   1130  O5'       48.2710   28.1550   24.5350 O.3    56  A56         0.0000
   1131  C4'       49.5650   26.1890   24.7220 C.3    56  A56         0.0000
   1132  O4'       48.5160   25.3260   24.2270 O.3    56  A56         0.0000
   1133  C3'       50.2970   26.7040   23.4980 C.3    56  A56         0.0000
   1134  O3'       51.6570   26.9330   23.8610 O.3    56  A56         0.0000
   1135  C2'       50.1020   25.5830   22.4840 C.3    56  A56         0.0000
   1136  O2'       51.0250   24.5290   22.6410 O.3    56  A56         0.0000
   1137  C1'       48.7070   25.0750   22.8510 C.3    56  A56         0.0000
   1138  N1        46.3200   25.8190   18.3340 N.ar   56  A56         0.0000
   1139  C2        47.4440   25.1610   18.6530 C.ar   56  A56         0.0000
   1140  N3        48.0250   25.0110   19.8410 N.ar   56  A56         0.0000
   1141  C4        47.3150   25.6360   20.7960 C.ar   56  A56         0.0000
   1142  C5        46.1410   26.3530   20.6230 C.ar   56  A56         0.0000
   1143  C6        45.6330   26.4420   19.3170 C.ar   56  A56         0.0000
   1144  N6        44.5190   27.1060   19.0000 N.pl3  56  A56         0.0000
   1145  N7        45.6900   26.8590   21.8340 N.ar   56  A56         0.0000
   1146  C8        46.5850   26.4440   22.6960 C.ar   56  A56         0.0000
   1147  N9        47.5930   25.6930   22.1380 N.ar   56  A56         0.0000
   1148  OP1       49.1830   30.1650   25.5670 O.3    56  A56        -0.5000
   1149  OP2       47.5280   30.3470   23.6230 O.co2  56  A56        -0.5000
   1150  P         52.4530   28.1990   23.2750 P.3    57  C57         0.0000
   1151  C5'       53.1040   26.3750   21.5700 C.3    57  C57         0.0000
   1152  O5'       52.7670   27.7300   21.7930 O.3    57  C57         0.0000
   1153  C4'       53.3630   26.1290   20.1170 C.3    57  C57         0.0000
   1154  O4'       52.1060   26.1160   19.3960 O.3    57  C57         0.0000
   1155  C3'       54.1810   27.2270   19.4840 C.3    57  C57         0.0000
   1156  O3'       55.6060   27.1020   19.3590 O.3    57  C57         0.0000
   1157  C2'       53.2050   28.1700   18.7770 C.3    57  C57         0.0000
   1158  O2'       53.6500   28.6020   17.5080 O.3    57  C57         0.0000
   1159  C1'       51.9780   27.2680   18.5860 C.3    57  C57         0.0000
   1160  N1        50.6650   27.8680   18.8710 N.ar   57  C57         0.0000
   1161  C2        49.6910   27.8570   17.8650 C.ar   57  C57         0.0000
   1162  O2        49.9670   27.3450   16.7740 O.2    57  C57         0.0000
   1163  N3        48.4730   28.3980   18.1130 N.ar   57  C57         0.0000
   1164  C4        48.2130   28.9340   19.3110 C.ar   57  C57         0.0000
   1165  N4        46.9900   29.4540   19.5210 N.pl3  57  C57         0.0000
   1166  C5        49.1910   28.9600   20.3520 C.ar   57  C57         0.0000
   1167  C6        50.3910   28.4220   20.0900 C.ar   57  C57         0.0000
   1168  OP1       53.7340   28.2360   24.0070 O.3    57  C57        -0.5000
   1169  OP2       51.5840   29.4070   23.2660 O.co2  57  C57        -0.5000
   1170  P         56.2530   26.2580   18.1460 P.3    58  A58         0.0000
   1171  C5'       55.1660   23.9280   17.7020 C.3    58  A58         0.0000
   1172  O5'       56.0080   24.7300   18.5210 O.3    58  A58         0.0000
   1173  C4'       55.8100   22.5880   17.3990 C.3    58  A58         0.0000
   1174  O4'       57.1170   22.7770   16.8040 O.3    58  A58         0.0000
   1175  C3'       56.0470   21.7680   18.6630 C.3    58  A58         0.0000
   1176  O3'       55.6970   20.4190   18.4130 O.3    58  A58         0.0000
   1177  C2'       57.5040   21.9810   19.0420 C.3    58  A58         0.0000
   1178  O2'       58.0990   20.7900   19.5000 O.3    58  A58         0.0000
   1179  C1'       58.1050   22.2930   17.6780 C.3    58  A58         0.0000
   1180  N1        62.7550   22.1830   15.6680 N.ar   58  A58         0.0000
   1181  C2        61.7350   21.3150   15.6700 C.ar   58  A58         0.0000
   1182  N3        60.5370   21.4280   16.2320 N.ar   58  A58         0.0000
   1183  C4        60.4210   22.6090   16.8640 C.ar   58  A58         0.0000
   1184  C5        61.3700   23.6010   16.9530 C.ar   58  A58         0.0000
   1185  C6        62.6000   23.3600   16.3140 C.ar   58  A58         0.0000
   1186  N6        63.6130   24.2250   16.3130 N.pl3  58  A58         0.0000
   1187  N7        60.8890   24.6720   17.6920 N.ar   58  A58         0.0000
   1188  C8        59.6750   24.3060   18.0250 C.ar   58  A58         0.0000
   1189  N9        59.3300   23.0710   17.5540 N.ar   58  A58         0.0000
   1190  OP1       57.7050   26.5080   18.1960 O.3    58  A58        -0.5000
   1191  OP2       55.5080   26.5290   16.8890 O.co2  58  A58        -0.5000
   1192  P         55.4050   19.4150   19.6210 P.3    59  U59         0.0000
   1193  C5'       53.5200   18.0960   18.3360 C.3    59  U59         0.0000
   1194  O5'       53.8730   19.0310   19.3600 O.3    59  U59         0.0000
   1195  C4'       52.3980   18.6150   17.4450 C.3    59  U59         0.0000
   1196  O4'       51.1760   18.7920   18.2170 O.3    59  U59         0.0000
   1197  C3'       52.7230   19.9930   16.8660 C.3    59  U59         0.0000
   1198  O3'       52.4180   20.1060   15.4820 O.3    59  U59         0.0000
   1199  C2'       51.9790   21.0030   17.7370 C.3    59  U59         0.0000
   1200  O2'       51.4040   22.0530   16.9940 O.3    59  U59         0.0000
   1201  C1'       50.8200   20.1530   18.2390 C.3    59  U59         0.0000
   1202  N1        50.1330   20.5020   19.4860 N.ar   59  U59         0.0000
   1203  C2        48.8930   21.1020   19.3520 C.ar   59  U59         0.0000
   1204  O2        48.3830   21.3380   18.2650 O.2    59  U59         0.0000
   1205  N3        48.2680   21.4060   20.5310 N.ar   59  U59         0.0000
   1206  C4        48.7410   21.1780   21.7930 C.ar   59  U59         0.0000
   1207  O4        48.0480   21.4900   22.7520 O.2    59  U59         0.0000
   1208  C5        50.0280   20.5620   21.8520 C.ar   59  U59         0.0000
   1209  C6        50.6670   20.2530   20.7210 C.ar   59  U59         0.0000
   1210  OP1       55.5230   20.1540   20.9000 O.3    59  U59        -0.5000
   1211  OP2       56.2730   18.2370   19.3760 O.co2  59  U59        -0.5000
   1212  P         53.4090   19.4990   14.3820 P.3    60  C60         0.0000
   1213  C5'       54.9600   21.4900   13.7430 C.3    60  C60         0.0000
   1214  O5'       54.7350   20.3520   14.5550 O.3    60  C60         0.0000
   1215  C4'       56.2710   21.3450   13.0180 C.3    60  C60         0.0000
   1216  O4'       57.3520   21.3890   13.9860 O.3    60  C60         0.0000
   1217  C3'       56.4590   20.0140   12.3160 C.3    60  C60         0.0000
   1218  O3'       55.8870   20.0050   11.0190 O.3    60  C60         0.0000
   1219  C2'       57.9690   19.9190   12.2310 C.3    60  C60         0.0000
   1220  O2'       58.4410   20.7030   11.1640 O.3    60  C60         0.0000
   1221  C1'       58.3860   20.5120   13.5800 C.3    60  C60         0.0000
   1222  N1        58.5260   19.4680   14.6010 N.ar   60  C60         0.0000
   1223  C2        59.6700   18.6860   14.5890 C.ar   60  C60         0.0000
   1224  O2        60.5410   18.9340   13.7530 O.2    60  C60         0.0000
   1225  N3        59.7990   17.6820   15.4840 N.ar   60  C60         0.0000
   1226  C4        58.8300   17.4570   16.3750 C.ar   60  C60         0.0000
   1227  N4        58.9910   16.4480   17.2330 N.pl3  60  C60         0.0000
   1228  C5        57.6510   18.2580   16.4240 C.ar   60  C60         0.0000
   1229  C6        57.5440   19.2490   15.5290 C.ar   60  C60         0.0000
   1230  OP1       52.8230   19.8190   13.0580 O.2    60  C60        -0.5000
   1231  OP2       53.6930   18.0870   14.7300 O.co2  60  C60        -0.5000
   1232  P         55.5300   18.6000   10.3290 P.3    61  G61         0.0000
   1233  C5'       57.9760   17.9910    9.5960 C.3    61  G61         0.0000
   1234  O5'       56.8760   17.7630   10.4650 O.3    61  G61         0.0000
   1235  C4'       58.9910   16.8900    9.7590 C.3    61  G61         0.0000
   1236  O4'       59.5440   16.9450   11.1030 O.3    61  G61         0.0000
   1237  C3'       58.4260   15.4870    9.6640 C.3    61  G61         0.0000
   1238  O3'       58.2760   15.0920    8.3090 O.3    61  G61         0.0000
   1239  C2'       59.4770   14.6740   10.4090 C.3    61  G61         0.0000
   1240  O2'       60.6200   14.3770    9.6320 O.3    61  G61         0.0000
   1241  C1'       59.8510   15.6320   11.5470 C.3    61  G61         0.0000
   1242  N1        59.3150   12.6110   15.6070 N.ar   61  G61         0.0000
   1243  C2        60.2880   12.6050   14.6400 C.ar   61  G61         0.0000
   1244  N2        61.2210   11.6520   14.7490 N.pl3  61  G61         0.0000
   1245  N3        60.3440   13.4700   13.6370 N.ar   61  G61         0.0000
   1246  C4        59.3290   14.3590   13.6780 C.ar   61  G61         0.0000
   1247  C5        58.3090   14.4560   14.6010 C.ar   61  G61         0.0000
   1248  C6        58.2610   13.5200   15.6730 C.ar   61  G61         0.0000
   1249  O6        57.4340   13.4410   16.5900 O.2    61  G61         0.0000
   1250  N7        57.4660   15.5140   14.2940 N.ar   61  G61         0.0000
   1251  C8        57.9750   16.0290   13.2060 C.ar   61  G61         0.0000
   1252  N9        59.0910   15.3630   12.7660 N.ar   61  G61         0.0000
   1253  OP1       55.2680   18.8280    8.8890 O.2    61  G61        -0.5000
   1254  OP2       54.5040   17.9190   11.1640 O.co2  61  G61        -0.5000
   1255  P         57.2060   13.9540    7.9240 P.3    62  G62         0.0000
   1256  C5'       59.0980   12.1610    7.8490 C.3    62  G62         0.0000
   1257  O5'       57.8860   12.6110    8.4270 O.3    62  G62         0.0000
   1258  C4'       59.6300   10.9890    8.6220 C.3    62  G62         0.0000
   1259  O4'       59.9200   11.4030    9.9830 O.3    62  G62         0.0000
   1260  C3'       58.6520    9.8500    8.8160 C.3    62  G62         0.0000
   1261  O3'       58.6010    9.0190    7.6740 O.3    62  G62         0.0000
   1262  C2'       59.2580    9.1270   10.0070 C.3    62  G62         0.0000
   1263  O2'       60.3640    8.3360    9.6270 O.3    62  G62         0.0000
   1264  C1'       59.7160   10.3080   10.8670 C.3    62  G62         0.0000
   1265  N1        57.3330    9.0720   15.1710 N.ar   62  G62         0.0000
   1266  C2        58.3610    8.4300   14.5360 C.ar   62  G62         0.0000
   1267  N2        58.7840    7.3010   15.1090 N.pl3  62  G62         0.0000
   1268  N3        58.9270    8.8630   13.4220 N.ar   62  G62         0.0000
   1269  C4        58.3630   10.0070   12.9870 C.ar   62  G62         0.0000
   1270  C5        57.3310   10.7270   13.5520 C.ar   62  G62         0.0000
   1271  C6        56.7400   10.2500   14.7450 C.ar   62  G62         0.0000
   1272  O6        55.8140   10.7400   15.3940 O.2    62  G62         0.0000
   1273  N7        57.0430   11.8530   12.7970 N.ar   62  G62         0.0000
   1274  C8        57.8860   11.7970   11.8000 C.ar   62  G62         0.0000
   1275  N9        58.7050   10.6950   11.8470 N.ar   62  G62         0.0000
   1276  OP1       57.1180   13.9190    6.4460 O.2    62  G62        -0.5000
   1277  OP2       55.9790   14.1460    8.7270 O.co2  62  G62        -0.5000
   1278  P         57.2310    8.2750    7.3090 P.3    63  C63         0.0000
   1279  C5'       58.0520    5.9960    8.2790 C.3    63  C63         0.0000
   1280  O5'       57.1510    7.0840    8.3590 O.3    63  C63         0.0000
   1281  C4'       57.9030    5.1120    9.4840 C.3    63  C63         0.0000
   1282  O4'       58.1250    5.9060   10.6790 O.3    63  C63         0.0000
   1283  C3'       56.5220    4.5350    9.7180 C.3    63  C63         0.0000
   1284  O3'       56.2650    3.4070    8.8940 O.3    63  C63         0.0000
   1285  C2'       56.5930    4.1800   11.1950 C.3    63  C63         0.0000
   1286  O2'       57.3630    3.0270   11.4540 O.3    63  C63         0.0000
   1287  C1'       57.3290    5.4000   11.7410 C.3    63  C63         0.0000
   1288  N1        56.3720    6.4380   12.1440 N.ar   63  C63         0.0000
   1289  C2        55.8050    6.3470   13.4000 C.ar   63  C63         0.0000
   1290  O2        56.1480    5.4180   14.1340 O.2    63  C63         0.0000
   1291  N3        54.8970    7.2690   13.7860 N.ar   63  C63         0.0000
   1292  C4        54.5560    8.2570   12.9560 C.ar   63  C63         0.0000
   1293  N4        53.6450    9.1320   13.3720 N.pl3  63  C63         0.0000
   1294  C5        55.1330    8.3830   11.6640 C.ar   63  C63         0.0000
   1295  C6        56.0320    7.4610   11.3020 C.ar   63  C63         0.0000
   1296  OP1       57.3680    7.6890    5.9590 O.2    63  C63        -0.5000
   1297  OP2       56.1190    9.2200    7.5900 O.co2  63  C63        -0.5000
   1298  P         54.7640    3.1360    8.3750 P.3    64  G64         0.0000
   1299  C5'       54.3580    1.4510   10.3250 C.3    64  G64         0.0000
   1300  O5'       53.9830    2.6530    9.6780 O.3    64  G64         0.0000
   1301  C4'       53.6760    1.3390   11.6550 C.3    64  G64         0.0000
   1302  O4'       54.0020    2.5070   12.4500 O.3    64  G64         0.0000
   1303  C3'       52.1620    1.3680   11.6450 C.3    64  G64         0.0000
   1304  O3'       51.5990    0.1210   11.2800 O.3    64  G64         0.0000
   1305  C2'       51.8750    1.7080   13.0980 C.3    64  G64         0.0000
   1306  O2'       52.0700    0.6100   13.9660 O.3    64  G64         0.0000
   1307  C1'       52.9410    2.7700   13.3550 C.3    64  G64         0.0000
   1308  N1        49.8150    6.4220   14.9280 N.ar   64  G64         0.0000
   1309  C2        50.1110    5.2130   15.5030 C.ar   64  G64         0.0000
   1310  N2        49.4810    4.9250   16.6520 N.pl3  64  G64         0.0000
   1311  N3        50.9640    4.3430   14.9920 N.ar   64  G64         0.0000
   1312  C4        51.5050    4.7800   13.8380 C.ar   64  G64         0.0000
   1313  C5        51.2810    5.9640   13.1750 C.ar   64  G64         0.0000
   1314  C6        50.3610    6.8990   13.7380 C.ar   64  G64         0.0000
   1315  O6        50.0220    8.0160   13.3040 O.2    64  G64         0.0000
   1316  N7        52.0370    6.0260   12.0110 N.ar   64  G64         0.0000
   1317  C8        52.6940    4.8980   11.9920 C.ar   64  G64         0.0000
   1318  N9        52.4120    4.0960   13.0700 N.ar   64  G64         0.0000
   1319  OP1       54.8160    2.0090    7.4010 O.2    64  G64        -0.5000
   1320  OP2       54.1860    4.4470    7.9570 O.co2  64  G64        -0.5000
   1321  P         50.2160    0.0890   10.4560 P.3    65  G65         0.0000
   1322  C5'       48.9900   -0.2100   12.7500 C.3    65  G65         0.0000
   1323  O5'       49.1130    0.5010   11.5300 O.3    65  G65         0.0000
   1324  C4'       48.1370    0.5670   13.7130 C.3    65  G65         0.0000
   1325  O4'       48.7830    1.8300   13.9980 O.3    65  G65         0.0000
   1326  C3'       46.7750    0.9810   13.1890 C.3    65  G65         0.0000
   1327  O3'       45.8210   -0.0730   13.2950 O.3    65  G65         0.0000
   1328  C2'       46.4340    2.1620   14.0880 C.3    65  G65         0.0000
   1329  O2'       45.9410    1.7920   15.3530 O.3    65  G65         0.0000
   1330  C1'       47.8020    2.8230   14.2400 C.3    65  G65         0.0000
   1331  N1        46.3610    7.4790   12.8950 N.ar   65  G65         0.0000
   1332  C2        46.0420    6.7470   14.0130 C.ar   65  G65         0.0000
   1333  N2        45.2130    7.3290   14.8790 N.pl3  65  G65         0.0000
   1334  N3        46.5050    5.5330   14.2640 N.ar   65  G65         0.0000
   1335  C4        47.3350    5.1020   13.2910 C.ar   65  G65         0.0000
   1336  C5        47.7250    5.7510   12.1370 C.ar   65  G65         0.0000
   1337  C6        47.2110    7.0580   11.8800 C.ar   65  G65         0.0000
   1338  O6        47.4310    7.8020   10.9140 O.2    65  G65         0.0000
   1339  N7        48.6010    4.9610   11.4010 N.ar   65  G65         0.0000
   1340  C8        48.7170    3.8660   12.1060 C.ar   65  G65         0.0000
   1341  N9        47.9620    3.8840   13.2550 N.ar   65  G65         0.0000
   1342  OP1       49.9590   -1.3090   10.0270 O.3    65  G65        -0.5000
   1343  OP2       50.2830    1.1750    9.4380 O.co2  65  G65        -0.5000
   1344  P         44.5890   -0.1220   12.2690 P.3    66  G66         0.0000
   1345  C5'       43.2110    1.5580   13.7110 C.3    66  G66         0.0000
   1346  O5'       43.8750    1.2780   12.4960 O.3    66  G66         0.0000
   1347  C4'       42.5070    2.8760   13.6020 C.3    66  G66         0.0000
   1348  O4'       43.4830    3.9480   13.5360 O.3    66  G66         0.0000
   1349  C3'       41.7010    3.0440   12.3320 C.3    66  G66         0.0000
   1350  O3'       40.4470    2.3910   12.4800 O.3    66  G66         0.0000
   1351  C2'       41.5930    4.5590   12.2510 C.3    66  G66         0.0000
   1352  O2'       40.6280    5.0740   13.1440 O.3    66  G66         0.0000
   1353  C1'       42.9940    4.9830   12.7080 C.3    66  G66         0.0000
   1354  N1        44.5550    8.0420    8.9710 N.ar   66  G66         0.0000
   1355  C2        43.6510    8.2800    9.9790 C.ar   66  G66         0.0000
   1356  N2        43.0610    9.4790    9.9780 N.pl3  66  G66         0.0000
   1357  N3        43.3460    7.4040   10.9200 N.ar   66  G66         0.0000
   1358  C4        44.0300    6.2470   10.7800 C.ar   66  G66         0.0000
   1359  C5        44.9560    5.9050    9.8180 C.ar   66  G66         0.0000
   1360  C6        45.2730    6.8580    8.8010 C.ar   66  G66         0.0000
   1361  O6        46.0650    6.7450    7.8470 O.2    66  G66         0.0000
   1362  N7        45.4330    4.6170   10.0300 N.ar   66  G66         0.0000
   1363  C8        44.7940    4.2080   11.0930 C.ar   66  G66         0.0000
   1364  N9        43.9120    5.1400   11.5850 N.ar   66  G66         0.0000
   1365  OP1       43.6540   -1.1790   12.7010 O.3    66  G66        -0.5000
   1366  OP2       45.1400   -0.1430   10.8880 O.co2  66  G66        -0.5000
   1367  P         39.5420    2.0690   11.1830 P.3    67  U67         0.0000
   1368  C5'       37.0990    3.0400   10.7670 C.3    67  U67         0.0000
   1369  O5'       38.4340    3.2300   11.2330 O.3    67  U67         0.0000
   1370  C4'       36.1730    4.0200   11.4570 C.3    67  U67         0.0000
   1371  O4'       36.2610    3.7800   12.8670 O.3    67  U67         0.0000
   1372  C3'       36.5700    5.4740   11.2610 C.3    67  U67         0.0000
   1373  O3'       35.7880    6.1250   10.2350 O.3    67  U67         0.0000
   1374  C2'       36.2830    6.1570   12.6060 C.3    67  U67         0.0000
   1375  O2'       35.1450    6.9840   12.6160 O.3    67  U67         0.0000
   1376  C1'       36.0900    4.9820   13.5620 C.3    67  U67         0.0000
   1377  N1        36.9340    4.9400   14.7570 N.ar   67  U67         0.0000
   1378  C2        36.3320    5.2750   15.9400 C.ar   67  U67         0.0000
   1379  O2        35.1780    5.6530   15.9990 O.2    67  U67         0.0000
   1380  N3        37.1220    5.1470   17.0520 N.ar   67  U67         0.0000
   1381  C4        38.4300    4.7360   17.0880 C.ar   67  U67         0.0000
   1382  O4        38.9960    4.6340   18.1740 O.2    67  U67         0.0000
   1383  C5        38.9990    4.4350   15.8070 C.ar   67  U67         0.0000
   1384  C6        38.2470    4.5500   14.7100 C.ar   67  U67         0.0000
   1385  OP1       38.9140    0.7350   11.3970 O.3    67  U67        -0.5000
   1386  OP2       40.3990    2.2880    9.9880 O.co2  67  U67        -0.5000
   1387  P         34.3570    5.5170    9.7470 P.3    68  G68         0.0000
   1388  C5'       33.9420    7.9540    8.8960 C.3    68  G68         0.0000
   1389  O5'       33.9530    6.5540    8.6160 O.3    68  G68         0.0000
   1390  C4'       34.8370    8.7040    7.9310 C.3    68  G68         0.0000
   1391  O4'       36.2330    8.4480    8.2240 O.3    68  G68         0.0000
   1392  C3'       34.7090    8.3330    6.4680 C.3    68  G68         0.0000
   1393  O3'       33.5820    8.9600    5.8890 O.3    68  G68         0.0000
   1394  C2'       36.0210    8.8460    5.8910 C.3    68  G68         0.0000
   1395  O2'       36.0210   10.2390    5.6810 O.3    68  G68         0.0000
   1396  C1'       36.9940    8.5200    7.0250 C.3    68  G68         0.0000
   1397  N1        40.5180    5.9490    4.3990 N.ar   68  G68         0.0000
   1398  C2        40.0850    7.2460    4.2360 C.ar   68  G68         0.0000
   1399  N2        40.6710    7.9470    3.2410 N.pl3  68  G68         0.0000
   1400  N3        39.1500    7.8140    4.9860 N.ar   68  G68         0.0000
   1401  C4        38.6750    6.9670    5.9240 C.ar   68  G68         0.0000
   1402  C5        39.0390    5.6610    6.1680 C.ar   68  G68         0.0000
   1403  C6        40.0430    5.0640    5.3610 C.ar   68  G68         0.0000
   1404  O6        40.5030    3.9120    5.4230 O.2    68  G68         0.0000
   1405  N7        38.3070    5.1350    7.2220 N.ar   68  G68         0.0000
   1406  C8        37.5260    6.1100    7.5940 C.ar   68  G68         0.0000
   1407  N9        37.6980    7.2520    6.8530 N.ar   68  G68         0.0000
   1408  OP1       33.3620    5.6710   10.8200 O.3    68  G68        -0.5000
   1409  OP2       34.5360    4.1810    9.1140 O.co2  68  G68        -0.5000
   1410  P         32.6800    8.1400    4.8570 P.3    69  C69         0.0000
   1411  C5'       33.9630    9.2110    2.8360 C.3    69  C69         0.0000
   1412  O5'       33.6160    8.0400    3.5690 O.3    69  C69         0.0000
   1413  C4'       35.0230    8.9040    1.8010 C.3    69  C69         0.0000
   1414  O4'       36.2590    8.5350    2.4600 O.3    69  C69         0.0000
   1415  C3'       34.7360    7.7420    0.8680 C.3    69  C69         0.0000
   1416  O3'       33.9610    8.1540   -0.2360 O.3    69  C69         0.0000
   1417  C2'       36.1250    7.3500    0.4060 C.3    69  C69         0.0000
   1418  O2'       36.6000    8.1990   -0.6140 O.3    69  C69         0.0000
   1419  C1'       36.9330    7.5580    1.6860 C.3    69  C69         0.0000
   1420  N1        37.0210    6.3310    2.4820 N.ar   69  C69         0.0000
   1421  C2        38.0190    5.4120    2.1820 C.ar   69  C69         0.0000
   1422  O2        38.7870    5.6550    1.2390 O.2    69  C69         0.0000
   1423  N3        38.1270    4.2860    2.9280 N.ar   69  C69         0.0000
   1424  C4        37.2870    4.0770    3.9400 C.ar   69  C69         0.0000
   1425  N4        37.4460    2.9790    4.6660 N.pl3  69  C69         0.0000
   1426  C5        36.2500    4.9930    4.2580 C.ar   69  C69         0.0000
   1427  C6        36.1510    6.0970    3.5080 C.ar   69  C69         0.0000
   1428  OP1       31.4830    8.9540    4.5200 O.2    69  C69        -0.5000
   1429  OP2       32.4990    6.7780    5.4220 O.co2  69  C69        -0.5000
   1430  P         32.8210    7.1840   -0.7950 P.3    70  C70         0.0000
   1431  C5'       34.3480    6.5080   -2.8010 C.3    70  C70         0.0000
   1432  O5'       33.6230    6.1200   -1.6520 O.3    70  C70         0.0000
   1433  C4'       35.1040    5.3250   -3.3260 C.3    70  C70         0.0000
   1434  O4'       36.1360    4.9650   -2.3740 O.3    70  C70         0.0000
   1435  C3'       34.2780    4.0570   -3.4410 C.3    70  C70         0.0000
   1436  O3'       33.5150    4.0480   -4.6400 O.3    70  C70         0.0000
   1437  C2'       35.3590    2.9800   -3.4160 C.3    70  C70         0.0000
   1438  O2'       36.0370    2.8020   -4.6430 O.3    70  C70         0.0000
   1439  C1'       36.3380    3.5650   -2.4020 C.3    70  C70         0.0000
   1440  N1        36.1110    3.0250   -1.0620 N.ar   70  C70         0.0000
   1441  C2        36.6470    1.7780   -0.7650 C.ar   70  C70         0.0000
   1442  O2        37.2970    1.1890   -1.6420 O.2    70  C70         0.0000
   1443  N3        36.4500    1.2450    0.4590 N.ar   70  C70         0.0000
   1444  C4        35.7480    1.9170    1.3680 C.ar   70  C70         0.0000
   1445  N4        35.5780    1.3490    2.5610 N.pl3  70  C70         0.0000
   1446  C5        35.1890    3.1990    1.0930 C.ar   70  C70         0.0000
   1447  C6        35.3920    3.7100   -0.1250 C.ar   70  C70         0.0000
   1448  OP1       31.9490    7.9860   -1.6870 O.2    70  C70        -0.5000
   1449  OP2       32.2200    6.4300    0.3400 O.co2  70  C70        -0.5000
   1450  P         32.1560    3.1940   -4.7170 P.3    71  C71         0.0000
   1451  C5'       33.1940    1.1390   -5.9410 C.3    71  C71         0.0000
   1452  O5'       32.6320    1.6750   -4.7560 O.3    71  C71         0.0000
   1453  C4'       33.6680   -0.2660   -5.7110 C.3    71  C71         0.0000
   1454  O4'       34.6790   -0.2720   -4.6690 O.3    71  C71         0.0000
   1455  C3'       32.6380   -1.2350   -5.1800 C.3    71  C71         0.0000
   1456  O3'       31.7940   -1.7120   -6.2040 O.3    71  C71         0.0000
   1457  C2'       33.5240   -2.3340   -4.6200 C.3    71  C71         0.0000
   1458  O2'       34.0850   -3.1680   -5.6190 O.3    71  C71         0.0000
   1459  C1'       34.6240   -1.5020   -3.9640 C.3    71  C71         0.0000
   1460  N1        34.3210   -1.2240   -2.5510 N.ar   71  C71         0.0000
   1461  C2        34.5990   -2.2170   -1.6110 C.ar   71  C71         0.0000
   1462  O2        35.0880   -3.2800   -1.9990 O.2    71  C71         0.0000
   1463  N3        34.3300   -1.9950   -0.3070 N.ar   71  C71         0.0000
   1464  C4        33.8070   -0.8320    0.0760 C.ar   71  C71         0.0000
   1465  N4        33.5690   -0.6660    1.3780 N.pl3  71  C71         0.0000
   1466  C5        33.5080    0.2080   -0.8610 C.ar   71  C71         0.0000
   1467  C6        33.7790   -0.0290   -2.1540 C.ar   71  C71         0.0000
   1468  OP1       31.5320    3.5190   -6.0270 O.2    71  C71        -0.5000
   1469  OP2       31.3940    3.4020   -3.4630 O.co2  71  C71        -0.5000
   1470  P         30.2450   -1.9580   -5.8810 P.3    72  U72         0.0000
   1471  C5'       30.6630   -4.5300   -5.6920 C.3    72  U72         0.0000
   1472  O5'       30.2300   -3.3310   -5.0740 O.3    72  U72         0.0000
   1473  C4'       30.9560   -5.5750   -4.6540 C.3    72  U72         0.0000
   1474  O4'       31.9300   -5.0510   -3.7200 O.3    72  U72         0.0000
   1475  C3'       29.8080   -5.9630   -3.7480 C.3    72  U72         0.0000
   1476  O3'       28.9800   -6.9140   -4.3870 O.3    72  U72         0.0000
   1477  C2'       30.5560   -6.6050   -2.5930 C.3    72  U72         0.0000
   1478  O2'       31.0650   -7.8770   -2.9420 O.3    72  U72         0.0000
   1479  C1'       31.7300   -5.6430   -2.4440 C.3    72  U72         0.0000
   1480  N1        31.4640   -4.5840   -1.4590 N.ar   72  U72         0.0000
   1481  C2        31.6480   -4.8940   -0.1200 C.ar   72  U72         0.0000
   1482  O2        32.0370   -5.9860    0.2620 O.2    72  U72         0.0000
   1483  N3        31.3650   -3.8760    0.7540 N.ar   72  U72         0.0000
   1484  C4        30.9390   -2.6070    0.4340 C.ar   72  U72         0.0000
   1485  O4        30.7390   -1.7980    1.3350 O.2    72  U72         0.0000
   1486  C5        30.7830   -2.3580   -0.9680 C.ar   72  U72         0.0000
   1487  C6        31.0430   -3.3300   -1.8440 C.ar   72  U72         0.0000
   1488  OP1       29.5060   -2.1630   -7.1490 O.2    72  U72        -0.5000
   1489  OP2       29.8580   -0.8460   -4.9710 O.co2  72  U72        -0.5000
   1490  P         27.3970   -6.9180   -4.0960 P.3    73  G73         0.0000
   1491  C5'       27.6400   -9.0500   -2.5870 C.3    73  G73         0.0000
   1492  O5'       27.2400   -7.6950   -2.7110 O.3    73  G73         0.0000
   1493  C4'       27.6390   -9.4620   -1.1380 C.3    73  G73         0.0000
   1494  O4'       28.6870   -8.7690   -0.4110 O.3    73  G73         0.0000
   1495  C3'       26.3830   -9.1020   -0.3780 C.3    73  G73         0.0000
   1496  O3'       25.3690  -10.0550   -0.6150 O.3    73  G73         0.0000
   1497  C2'       26.8690   -9.1340    1.0600 C.3    73  G73         0.0000
   1498  O2'       26.9960  -10.4500    1.5410 O.3    73  G73         0.0000
   1499  C1'       28.2490   -8.5000    0.9120 C.3    73  G73         0.0000
   1500  N1        28.2930   -4.6330    4.2030 N.ar   73  G73         0.0000
   1501  C2        28.3240   -5.9870    4.4520 C.ar   73  G73         0.0000
   1502  N2        28.3940   -6.3490    5.7460 N.pl3  73  G73         0.0000
   1503  N3        28.2940   -6.9100    3.5050 N.ar   73  G73         0.0000
   1504  C4        28.2380   -6.3630    2.2730 C.ar   73  G73         0.0000
   1505  C5        28.2040   -5.0260    1.9220 C.ar   73  G73         0.0000
   1506  C6        28.2300   -4.0510    2.9430 C.ar   73  G73         0.0000
   1507  O6        28.2010   -2.8230    2.8300 O.2    73  G73         0.0000
   1508  N7        28.1420   -4.8780    0.5420 N.ar   73  G73         0.0000
   1509  C8        28.1460   -6.1030    0.0860 C.ar   73  G73         0.0000
   1510  N9        28.2100   -7.0520    1.0820 N.ar   73  G73         0.0000
   1511  OP1       26.7720   -7.7200   -5.1760 O.2    73  G73        -0.5000
   1512  OP2       26.9730   -5.5070   -3.8850 O.co2  73  G73        -0.5000
   1513  P         23.8400   -9.5850   -0.6270 P.3    74  C74         0.0000
   1514  C5'       23.5470  -10.4320    1.8210 C.3    74  C74         0.0000
   1515  O5'       23.4870   -9.3520    0.9060 O.3    74  C74         0.0000
   1516  C4'       23.5130   -9.9190    3.2310 C.3    74  C74         0.0000
   1517  O4'       24.7060   -9.1370    3.4900 O.3    74  C74         0.0000
   1518  C3'       22.3990   -8.9440    3.5430 C.3    74  C74         0.0000
   1519  O3'       21.1680   -9.6070    3.7750 O.3    74  C74         0.0000
   1520  C2'       22.9400   -8.2880    4.7990 C.3    74  C74         0.0000
   1521  O2'       22.8690   -9.1730    5.9020 O.3    74  C74         0.0000
   1522  C1'       24.4010   -8.0880    4.3970 C.3    74  C74         0.0000
   1523  N1        24.6250   -6.8030    3.7120 N.ar   74  C74         0.0000
   1524  C2        24.7880   -5.6510    4.4800 C.ar   74  C74         0.0000
   1525  O2        24.7680   -5.7440    5.7110 O.2    74  C74         0.0000
   1526  N3        24.9640   -4.4650    3.8650 N.ar   74  C74         0.0000
   1527  C4        24.9850   -4.4030    2.5360 C.ar   74  C74         0.0000
   1528  N4        25.1560   -3.2080    1.9740 N.pl3  74  C74         0.0000
   1529  C5        24.8330   -5.5640    1.7250 C.ar   74  C74         0.0000
   1530  C6        24.6590   -6.7330    2.3500 C.ar   74  C74         0.0000
   1531  OP1       23.0430  -10.7320   -1.1290 O.3    74  C74        -0.5000
   1532  OP2       23.7870   -8.2710   -1.3260 O.co2  74  C74        -0.5000
   1533  P         19.8000   -8.9010    3.3240 P.3    75  G75         0.0000
   1534  C5'       19.5630   -7.9330    5.7370 C.3    75  G75         0.0000
   1535  O5'       19.6680   -7.6830    4.3410 O.3    75  G75         0.0000
   1536  C4'       19.6350   -6.6470    6.5150 C.3    75  G75         0.0000
   1537  O4'       20.9580   -6.0720    6.3690 O.3    75  G75         0.0000
   1538  C3'       18.7070   -5.5290    6.0780 C.3    75  G75         0.0000
   1539  O3'       17.4010   -5.6870    6.6180 O.3    75  G75         0.0000
   1540  C2'       19.3960   -4.3280    6.6980 C.3    75  G75         0.0000
   1541  O2'       19.1700   -4.2900    8.0910 O.3    75  G75         0.0000
   1542  C1'       20.8640   -4.6610    6.4260 C.3    75  G75         0.0000
   1543  N1        22.2480   -0.5010    3.8940 N.ar   75  G75         0.0000
   1544  C2        21.9420   -0.6530    5.2200 C.ar   75  G75         0.0000
   1545  N2        21.9950    0.4490    5.9610 N.pl3  75  G75         0.0000
   1546  N3        21.6130   -1.8040    5.7760 N.ar   75  G75         0.0000
   1547  C4        21.6170   -2.8140    4.8800 C.ar   75  G75         0.0000
   1548  C5        21.9140   -2.7720    3.5350 C.ar   75  G75         0.0000
   1549  C6        22.2620   -1.5250    2.9520 C.ar   75  G75         0.0000
   1550  O6        22.5530   -1.2760    1.7770 O.2    75  G75         0.0000
   1551  N7        21.8090   -4.0360    2.9660 N.ar   75  G75         0.0000
   1552  C8        21.4470   -4.8070    3.9570 C.ar   75  G75         0.0000
   1553  N9        21.3000   -4.1240    5.1430 N.ar   75  G75         0.0000
   1554  OP1       18.7020   -9.8700    3.5760 O.3    75  G75        -0.5000
   1555  OP2       20.0050   -8.3550    1.9550 O.co2  75  G75        -0.5000
   1556  P         16.1300   -5.0980    5.8170 P.3    76  G76         0.0000
   1557  C5'       15.9170   -3.0370    7.4310 C.3    76  G76         0.0000
   1558  O5'       16.1490   -3.5310    6.1180 O.3    76  G76         0.0000
   1559  C4'       16.0610   -1.5370    7.4600 C.3    76  G76         0.0000
   1560  O4'       17.4410   -1.1670    7.2010 O.3    76  G76         0.0000
   1561  C3'       15.2730   -0.7810    6.4050 C.3    76  G76         0.0000
   1562  O3'       13.9170   -0.6080    6.8130 O.3    76  G76         0.0000
   1563  C2'       16.0350    0.5390    6.3460 C.3    76  G76         0.0000
   1564  O2'       15.7290    1.3940    7.4300 O.3    76  G76         0.0000
   1565  C1'       17.4790    0.0510    6.4710 C.3    76  G76         0.0000
   1566  N1        19.7510    2.0150    2.3530 N.ar   76  G76         0.0000
   1567  C2        19.2690    2.6590    3.4730 C.ar   76  G76         0.0000
   1568  N2        19.4000    3.9960    3.4900 N.pl3  76  G76         0.0000
   1569  N3        18.6980    2.0360    4.4980 N.ar   76  G76         0.0000
   1570  C4        18.6380    0.7020    4.3070 C.ar   76  G76         0.0000
   1571  C5        19.0850   -0.0340    3.2280 C.ar   76  G76         0.0000
   1572  C6        19.7020    0.6390    2.1400 C.ar   76  G76         0.0000
   1573  O6        20.1670    0.1540    1.0950 O.2    76  G76         0.0000
   1574  N7        18.8300   -1.3840    3.4150 N.ar   76  G76         0.0000
   1575  C8        18.2470   -1.4460    4.5800 C.ar   76  G76         0.0000
   1576  N9        18.0960   -0.2180    5.1750 N.ar   76  G76         0.0000
   1577  OP1       14.8860   -5.6550    6.4140 O.3    76  G76        -0.5000
   1578  OP2       16.4070   -5.3020    4.3680 O.co2  76  G76        -0.5000
   1579  P         12.7530   -0.4640    5.7060 P.3    77  U77         0.0000
   1580  C5'       12.8700    2.1280    6.0260 C.3    77  U77         0.0000
   1581  O5'       12.9200    1.0160    5.1460 O.3    77  U77         0.0000
   1582  C4'       13.3210    3.3730    5.3110 C.3    77  U77         0.0000
   1583  O4'       14.7390    3.2920    5.0060 O.3    77  U77         0.0000
   1584  C3'       12.6630    3.6160    3.9650 C.3    77  U77         0.0000
   1585  O3'       11.4010    4.2430    4.1440 O.3    77  U77         0.0000
   1586  C2'       13.6650    4.5460    3.2910 C.3    77  U77         0.0000
   1587  O2'       13.5100    5.8910    3.6970 O.3    77  U77         0.0000
   1588  C1'       15.0000    3.9790    3.7910 C.3    77  U77         0.0000
   1589  N1        15.5840    3.0230    2.8450 N.ar   77  U77         0.0000
   1590  C2        16.3170    3.5260    1.7900 C.ar   77  U77         0.0000
   1591  O2        16.5200    4.7210    1.6340 O.2    77  U77         0.0000
   1592  N3        16.8050    2.5780    0.9230 N.ar   77  U77         0.0000
   1593  C4        16.6320    1.2100    1.0080 C.ar   77  U77         0.0000
   1594  O4        17.1100    0.4830    0.1400 O.2    77  U77         0.0000
   1595  C5        15.8720    0.7740    2.1360 C.ar   77  U77         0.0000
   1596  C6        15.3910    1.6740    2.9960 C.ar   77  U77         0.0000
   1597  OP1       11.4530   -0.5320    6.4190 O.3    77  U77        -0.5000
   1598  OP2       13.0380   -1.4210    4.6080 O.co2  77  U77        -0.5000
   1599  P         10.2210    3.9880    3.0850 P.3    78  C78         0.0000
   1600  C5'       10.7820    6.1540    1.7190 C.3    78  C78         0.0000
   1601  O5'       10.7180    4.7340    1.7630 O.3    78  C78         0.0000
   1602  C4'       11.5260    6.6210    0.4900 C.3    78  C78         0.0000
   1603  O4'       12.8820    6.1020    0.5000 O.3    78  C78         0.0000
   1604  C3'       10.9950    6.1550   -0.8510 C.3    78  C78         0.0000
   1605  O3'        9.8690    6.9240   -1.2630 O.3    78  C78         0.0000
   1606  C2'       12.2040    6.3750   -1.7610 C.3    78  C78         0.0000
   1607  O2'       12.3940    7.6970   -2.2140 O.3    78  C78         0.0000
   1608  C1'       13.3600    6.0090   -0.8340 C.3    78  C78         0.0000
   1609  N1        13.8120    4.6400   -1.0960 N.ar   78  C78         0.0000
   1610  C2        14.5990    4.4060   -2.2330 C.ar   78  C78         0.0000
   1611  O2        14.9080    5.3680   -2.9560 O.2    78  C78         0.0000
   1612  N3        14.9980    3.1460   -2.5160 N.ar   78  C78         0.0000
   1613  C4        14.6460    2.1440   -1.7100 C.ar   78  C78         0.0000
   1614  N4        15.0560    0.9190   -2.0270 N.pl3  78  C78         0.0000
   1615  C5        13.8540    2.3570   -0.5400 C.ar   78  C78         0.0000
   1616  C6        13.4650    3.6090   -0.2720 C.ar   78  C78         0.0000
   1617  OP1        9.0350    4.7160    3.6160 O.3    78  C78        -0.5000
   1618  OP2       10.1240    2.5270    2.8200 O.co2  78  C78        -0.5000
   1619  P          8.9080    6.3660   -2.4260 P.3    79  U79         0.0000
   1620  C5'        7.0380    5.6660   -0.7570 C.3    79  U79         0.0000
   1621  O5'        8.0070    5.2660   -1.7090 O.3    79  U79         0.0000
   1622  C4'        5.7860    4.8300   -0.8690 C.3    79  U79         0.0000
   1623  O4'        5.7020    4.2380   -2.1960 O.3    79  U79         0.0000
   1624  C3'        5.8540    3.6540    0.1000 C.3    79  U79         0.0000
   1625  O3'        4.6870    3.5370    0.9100 O.3    79  U79         0.0000
   1626  C2'        6.2910    2.4440   -0.7190 C.3    79  U79         0.0000
   1627  O2'        5.6250    1.2650   -0.3410 O.3    79  U79         0.0000
   1628  C1'        5.7950    2.8370   -2.1040 C.3    79  U79         0.0000
   1629  N1         6.4400    2.2810   -3.2950 N.ar   79  U79         0.0000
   1630  C2         5.7960    1.2190   -3.9060 C.ar   79  U79         0.0000
   1631  O2         4.7390    0.7690   -3.5070 O.2    79  U79         0.0000
   1632  N3         6.4310    0.7070   -5.0040 N.ar   79  U79         0.0000
   1633  C4         7.6160    1.1410   -5.5470 C.ar   79  U79         0.0000
   1634  O4         8.0700    0.5620   -6.5310 O.2    79  U79         0.0000
   1635  C5         8.2190    2.2520   -4.8670 C.ar   79  U79         0.0000
   1636  C6         7.6200    2.7700   -3.7880 C.ar   79  U79         0.0000
   1637  OP1        9.7560    5.7010   -3.4460 O.2    79  U79        -0.5000
   1638  OP2        8.0190    7.4910   -2.8220 O.co2  79  U79        -0.5000
   1639  P          4.7490    2.7610    2.3100 P.3    80  U80         0.0000
   1640  C5'        2.8670    1.5370    3.6400 C.3    80  U80         0.0000
   1641  O5'        3.3570    1.9970    2.3930 O.3    80  U80         0.0000
   1642  C4'        2.4510    0.0920    3.5390 C.3    80  U80         0.0000
   1643  O4'        1.3840   -0.0320    2.5690 O.3    80  U80         0.0000
   1644  C3'        3.4900   -0.8830    3.0160 C.3    80  U80         0.0000
   1645  O3'        4.3980   -1.2720    4.0370 O.3    80  U80         0.0000
   1646  C2'        2.6200   -2.0600    2.5980 C.3    80  U80         0.0000
   1647  O2'        2.2080   -2.8340    3.7050 O.3    80  U80         0.0000
   1648  C1'        1.4010   -1.3400    2.0250 C.3    80  U80         0.0000
   1649  N1         1.4090   -1.2430    0.5620 N.ar   80  U80         0.0000
   1650  C2         1.1910   -2.4070   -0.1440 C.ar   80  U80         0.0000
   1651  O2         1.0530   -3.4910    0.4020 O.2    80  U80         0.0000
   1652  N3         1.1450   -2.2570   -1.5090 N.ar   80  U80         0.0000
   1653  C4         1.3070   -1.0860   -2.2180 C.ar   80  U80         0.0000
   1654  O4         1.2110   -1.1070   -3.4390 O.2    80  U80         0.0000
   1655  C5         1.5590    0.0730   -1.4150 C.ar   80  U80         0.0000
   1656  C6         1.6020   -0.0430   -0.0840 C.ar   80  U80         0.0000
   1657  OP1        4.7700    3.7850    3.3790 O.3    80  U80        -0.5000
   1658  OP2        5.8180    1.7300    2.2490 O.co2  80  U80        -0.5000
   1659  P          5.9230   -1.5980    3.6550 P.3    81  C81         0.0000
   1660  C5'        5.4870   -4.1580    3.9440 C.3    81  C81         0.0000
   1661  O5'        5.8760   -3.0880    3.1030 O.3    81  C81         0.0000
   1662  C4'        5.2570   -5.3940    3.1170 C.3    81  C81         0.0000
   1663  O4'        4.1310   -5.1800    2.2280 O.3    81  C81         0.0000
   1664  C3'        6.3950   -5.7430    2.1780 C.3    81  C81         0.0000
   1665  O3'        7.3780   -6.4910    2.8660 O.3    81  C81         0.0000
   1666  C2'        5.6930   -6.5900    1.1290 C.3    81  C81         0.0000
   1667  O2'        5.4700   -7.9100    1.5880 O.3    81  C81         0.0000
   1668  C1'        4.3620   -5.8470    0.9970 C.3    81  C81         0.0000
   1669  N1         4.3410   -4.8440   -0.0810 N.ar   81  C81         0.0000
   1670  C2         4.1560   -5.2770   -1.3990 C.ar   81  C81         0.0000
   1671  O2         4.0410   -6.4880   -1.6180 O.2    81  C81         0.0000
   1672  N3         4.1080   -4.3670   -2.4000 N.ar   81  C81         0.0000
   1673  C4         4.2450   -3.0690   -2.1230 C.ar   81  C81         0.0000
   1674  N4         4.1910   -2.2030   -3.1420 N.pl3  81  C81         0.0000
   1675  C5         4.4440   -2.5970   -0.7860 C.ar   81  C81         0.0000
   1676  C6         4.4870   -3.5130    0.1930 C.ar   81  C81         0.0000
   1677  OP1        6.7230   -1.5870    4.9100 O.3    81  C81        -0.5000
   1678  OP2        6.2920   -0.6930    2.5310 O.co2  81  C81        -0.5000
   1679  P          8.8730   -6.5490    2.2920 P.3    82  C82         0.0000
   1680  C5'        8.4540   -8.7590    0.9310 C.3    82  C82         0.0000
   1681  O5'        8.7230   -7.3570    0.9220 O.3    82  C82         0.0000
   1682  C4'        8.4630   -9.3140   -0.4760 C.3    82  C82         0.0000
   1683  O4'        7.3450   -8.7700   -1.2250 O.3    82  C82         0.0000
   1684  C3'        9.6700   -8.9660   -1.3300 C.3    82  C82         0.0000
   1685  O3'       10.7830   -9.8110   -1.0490 O.3    82  C82         0.0000
   1686  C2'        9.1340   -9.1760   -2.7410 C.3    82  C82         0.0000
   1687  O2'        9.1290  -10.5320   -3.1430 O.3    82  C82         0.0000
   1688  C1'        7.7000   -8.6640   -2.5930 C.3    82  C82         0.0000
   1689  N1         7.5520   -7.2610   -2.9980 N.ar   82  C82         0.0000
   1690  C2         7.4870   -6.9670   -4.3640 C.ar   82  C82         0.0000
   1691  O2         7.5960   -7.8990   -5.1750 O.2    82  C82         0.0000
   1692  N3         7.3080   -5.6820   -4.7640 N.ar   82  C82         0.0000
   1693  C4         7.2030   -4.7130   -3.8490 C.ar   82  C82         0.0000
   1694  N4         7.0060   -3.4630   -4.2800 N.pl3  82  C82         0.0000
   1695  C5         7.2920   -4.9840   -2.4460 C.ar   82  C82         0.0000
   1696  C6         7.4660   -6.2600   -2.0700 C.ar   82  C82         0.0000
   1697  OP1        9.6590   -7.3690    3.2560 O.3    82  C82        -0.5000
   1698  OP2        9.2890   -5.1510    2.0030 O.co2  82  C82        -0.5000
   1699  P         12.2780   -9.2860   -1.3520 P.3    83  U83         0.0000
   1700  C5'       12.4590  -10.6570   -3.5650 C.3    83  U83         0.0000
   1701  O5'       12.3970   -9.3910   -2.9350 O.3    83  U83         0.0000
   1702  C4'       12.5410  -10.4850   -5.0510 C.3    83  U83         0.0000
   1703  O4'       11.3310   -9.8350   -5.5070 O.3    83  U83         0.0000
   1704  C3'       13.6340   -9.5460   -5.5200 C.3    83  U83         0.0000
   1705  O3'       14.8950  -10.1940   -5.5820 O.3    83  U83         0.0000
   1706  C2'       13.1220   -9.1370   -6.8920 C.3    83  U83         0.0000
   1707  O2'       13.3140  -10.1390   -7.8700 O.3    83  U83         0.0000
   1708  C1'       11.6290   -8.9910   -6.6070 C.3    83  U83         0.0000
   1709  N1        11.2420   -7.6190   -6.2540 N.ar   83  U83         0.0000
   1710  C2        10.9580   -6.7650   -7.2920 C.ar   83  U83         0.0000
   1711  O2        11.0290   -7.1060   -8.4530 O.2    83  U83         0.0000
   1712  N3        10.5840   -5.4970   -6.9220 N.ar   83  U83         0.0000
   1713  C4        10.4650   -5.0110   -5.6400 C.ar   83  U83         0.0000
   1714  O4        10.1120   -3.8430   -5.4670 O.2    83  U83         0.0000
   1715  C5        10.7820   -5.9600   -4.6100 C.ar   83  U83         0.0000
   1716  C6        11.1550   -7.2020   -4.9470 C.ar   83  U83         0.0000
   1717  OP1       13.2300  -10.2520   -0.7510 O.3    83  U83        -0.5000
   1718  OP2       12.3590   -7.8450   -0.9780 O.co2  83  U83        -0.5000
   1719  P         16.2300   -9.3120   -5.5060 P.3    84  G84         0.0000
   1720  C5'       16.4220   -9.2520   -8.1240 C.3    84  G84         0.0000
   1721  O5'       16.2390   -8.5390   -6.9030 O.3    84  G84         0.0000
   1722  C4'       16.3750   -8.3080   -9.2980 C.3    84  G84         0.0000
   1723  O4'       15.0370   -7.7750   -9.4460 O.3    84  G84         0.0000
   1724  C3'       17.2590   -7.0800   -9.1810 C.3    84  G84         0.0000
   1725  O3'       18.5870   -7.3890   -9.5820 O.3    84  G84         0.0000
   1726  C2'       16.5830   -6.1030  -10.1370 C.3    84  G84         0.0000
   1727  O2'       16.9450   -6.2770  -11.4900 O.3    84  G84         0.0000
   1728  C1'       15.1040   -6.4470   -9.9410 C.3    84  G84         0.0000
   1729  N1        12.9800   -1.9100   -9.1000 N.ar   84  G84         0.0000
   1730  C2        13.4770   -2.4330  -10.2620 C.ar   84  G84         0.0000
   1731  N2        13.4050   -1.6390  -11.3330 N.pl3  84  G84         0.0000
   1732  N3        14.0010   -3.6410  -10.3670 N.ar   84  G84         0.0000
   1733  C4        13.9860   -4.3000   -9.1920 C.ar   84  G84         0.0000
   1734  C5        13.5140   -3.8690   -7.9720 C.ar   84  G84         0.0000
   1735  C6        12.9540   -2.5650   -7.8760 C.ar   84  G84         0.0000
   1736  O6        12.4790   -1.9950   -6.8790 O.2    84  G84         0.0000
   1737  N7        13.6830   -4.8500   -7.0030 N.ar   84  G84         0.0000
   1738  C8        14.2460   -5.8400   -7.6410 C.ar   84  G84         0.0000
   1739  N9        14.4650   -5.5700   -8.9690 N.ar   84  G84         0.0000
   1740  OP1       17.3850  -10.2390   -5.4510 O.2    84  G84        -0.5000
   1741  OP2       16.0340   -8.3260   -4.4110 O.co2  84  G84        -0.5000
   1742  P         19.8230   -6.6190   -8.9070 P.3    85  C85         0.0000
   1743  C5'       19.9760   -4.9690  -10.9340 C.3    85  C85         0.0000
   1744  O5'       19.7340   -5.1590   -9.5450 O.3    85  C85         0.0000
   1745  C4'       19.5470   -3.5900  -11.3690 C.3    85  C85         0.0000
   1746  O4'       18.1100   -3.4570  -11.2410 O.3    85  C85         0.0000
   1747  C3'       20.0940   -2.4150  -10.5760 C.3    85  C85         0.0000
   1748  O3'       21.4000   -2.0850  -11.0290 O.3    85  C85         0.0000
   1749  C2'       19.1000   -1.3220  -10.9430 C.3    85  C85         0.0000
   1750  O2'       19.3240   -0.7990  -12.2340 O.3    85  C85         0.0000
   1751  C1'       17.7870   -2.1050  -10.9510 C.3    85  C85         0.0000
   1752  N1        17.1560   -2.0480   -9.6290 N.ar   85  C85         0.0000
   1753  C2        16.4190   -0.9160   -9.2950 C.ar   85  C85         0.0000
   1754  O2        16.2680   -0.0320  -10.1490 O.2    85  C85         0.0000
   1755  N3        15.8920   -0.8120   -8.0560 N.ar   85  C85         0.0000
   1756  C4        16.0710   -1.7940   -7.1730 C.ar   85  C85         0.0000
   1757  N4        15.5530   -1.6400   -5.9580 N.pl3  85  C85         0.0000
   1758  C5        16.7920   -2.9760   -7.4970 C.ar   85  C85         0.0000
   1759  C6        17.3110   -3.0630   -8.7270 C.ar   85  C85         0.0000
   1760  OP1       21.0770   -7.2610   -9.3780 O.2    85  C85        -0.5000
   1761  OP2       19.5490   -6.5360   -7.4480 O.co2  85  C85        -0.5000
   1762  P         22.4890   -1.5100   -9.9950 P.3    86  G86         0.0000
   1763  C5'       21.8140    0.8840  -10.7710 C.3    86  G86         0.0000
   1764  O5'       21.9850   -0.0330   -9.7060 O.3    86  G86         0.0000
   1765  C4'       21.0430    2.0880  -10.3020 C.3    86  G86         0.0000
   1766  O4'       19.6850    1.7020   -9.9600 O.3    86  G86         0.0000
   1767  C3'       21.5350    2.7570   -9.0330 C.3    86  G86         0.0000
   1768  O3'       22.6630    3.5790   -9.2980 O.3    86  G86         0.0000
   1769  C2'       20.3110    3.5780   -8.6540 C.3    86  G86         0.0000
   1770  O2'       20.1650    4.7110   -9.4830 O.3    86  G86         0.0000
   1771  C1'       19.1840    2.5950   -8.9780 C.3    86  G86         0.0000
   1772  N1        16.7380    2.7190   -4.5300 N.ar   86  G86         0.0000
   1773  C2        16.9570    3.7300   -5.4390 C.ar   86  G86         0.0000
   1774  N2        16.4660    4.9380   -5.1150 N.pl3  86  G86         0.0000
   1775  N3        17.6110    3.5710   -6.5800 N.ar   86  G86         0.0000
   1776  C4        18.0410    2.3000   -6.7430 C.ar   86  G86         0.0000
   1777  C5        17.8810    1.2200   -5.9000 C.ar   86  G86         0.0000
   1778  C6        17.1720    1.4020   -4.6770 C.ar   86  G86         0.0000
   1779  O6        16.9220    0.5620   -3.7930 O.2    86  G86         0.0000
   1780  N7        18.4760    0.0840   -6.4360 N.ar   86  G86         0.0000
   1781  C8        18.9780    0.4870   -7.5740 C.ar   86  G86         0.0000
   1782  N9        18.7530    1.8200   -7.8190 N.ar   86  G86         0.0000
   1783  OP1       23.7750   -1.4360  -10.7330 O.2    86  G86        -0.5000
   1784  OP2       22.4180   -2.2700   -8.7270 O.co2  86  G86        -0.5000
   1785  P         23.7520    3.8440   -8.1420 P.3    87  A87         0.0000
   1786  C5'       22.6330    6.1660   -7.6930 C.3    87  A87         0.0000
   1787  O5'       23.0360    4.8980   -7.1890 O.3    87  A87         0.0000
   1788  C4'       21.8260    6.9090   -6.6590 C.3    87  A87         0.0000
   1789  O4'       20.5760    6.2140   -6.4210 O.3    87  A87         0.0000
   1790  C3'       22.4490    6.9940   -5.2780 C.3    87  A87         0.0000
   1791  O3'       23.4060    8.0390   -5.2250 O.3    87  A87         0.0000
   1792  C2'       21.2310    7.2920   -4.4200 C.3    87  A87         0.0000
   1793  O2'       20.8080    8.6330   -4.5670 O.3    87  A87         0.0000
   1794  C1'       20.1950    6.3740   -5.0660 C.3    87  A87         0.0000
   1795  N1        18.2090    3.4630   -1.3170 N.ar   87  A87         0.0000
   1796  C2        18.0360    4.7510   -1.6420 C.ar   87  A87         0.0000
   1797  N3        18.5860    5.4530   -2.6290 N.ar   87  A87         0.0000
   1798  C4        19.4140    4.6810   -3.3540 C.ar   87  A87         0.0000
   1799  C5        19.6940    3.3420   -3.1450 C.ar   87  A87         0.0000
   1800  C6        19.0510    2.7170   -2.0640 C.ar   87  A87         0.0000
   1801  N6        19.2270    1.4370   -1.7420 N.pl3  87  A87         0.0000
   1802  N7        20.5920    2.8740   -4.0950 N.ar   87  A87         0.0000
   1803  C8        20.8320    3.9230   -4.8450 C.ar   87  A87         0.0000
   1804  N9        20.1530    5.0500   -4.4540 N.ar   87  A87         0.0000
   1805  OP1       24.9130    4.5120   -8.7820 O.2    87  A87        -0.5000
   1806  OP2       23.9590    2.5920   -7.3680 O.co2  87  A87        -0.5000
   1807  P         24.6710    7.9020   -4.2490 P.3    88  C88         0.0000
   1808  C5'       23.4540    9.3330   -2.4460 C.3    88  C88         0.0000
   1809  O5'       24.0450    8.0970   -2.8030 O.3    88  C88         0.0000
   1810  C4'       22.7930    9.2170   -1.1060 C.3    88  C88         0.0000
   1811  O4'       21.6950    8.2720   -1.1830 O.3    88  C88         0.0000
   1812  C3'       23.6650    8.6340   -0.0160 C.3    88  C88         0.0000
   1813  O3'       24.5660    9.6060    0.4940 O.3    88  C88         0.0000
   1814  C2'       22.6150    8.2050    0.9960 C.3    88  C88         0.0000
   1815  O2'       22.0760    9.3060    1.6970 O.3    88  C88         0.0000
   1816  C1'       21.5360    7.6330    0.0740 C.3    88  C88         0.0000
   1817  N1        21.6690    6.1770   -0.1070 N.ar   88  C88         0.0000
   1818  C2        21.1070    5.3320    0.8540 C.ar   88  C88         0.0000
   1819  O2        20.4850    5.8340    1.8010 O.2    88  C88         0.0000
   1820  N3        21.2540    3.9910    0.7300 N.ar   88  C88         0.0000
   1821  C4        21.9220    3.4900   -0.3080 C.ar   88  C88         0.0000
   1822  N4        22.0450    2.1660   -0.3820 N.pl3  88  C88         0.0000
   1823  C5        22.4930    4.3260   -1.3130 C.ar   88  C88         0.0000
   1824  C6        22.3420    5.6520   -1.1760 C.ar   88  C88         0.0000
   1825  OP1       25.5950    9.0400   -4.5260 O.2    88  C88        -0.5000
   1826  OP2       25.1670    6.5040   -4.3450 O.co2  88  C88        -0.5000
   1827  P         25.7270    9.1510    1.5020 P.3    89  C89         0.0000
   1828  C5'       25.4540    8.0260    3.8570 C.3    89  C89         0.0000
   1829  O5'       24.9260    8.8750    2.8470 O.3    89  C89         0.0000
   1830  C4'       24.3280    7.4390    4.6650 C.3    89  C89         0.0000
   1831  O4'       23.4260    6.7590    3.7590 O.3    89  C89         0.0000
   1832  C3'       24.7230    6.3880    5.6900 C.3    89  C89         0.0000
   1833  O3'       25.0250    7.0010    6.9310 O.3    89  C89         0.0000
   1834  C2'       23.4490    5.5740    5.8220 C.3    89  C89         0.0000
   1835  O2'       22.5370    6.2130    6.6920 O.3    89  C89         0.0000
   1836  C1'       22.9220    5.5960    4.3840 C.3    89  C89         0.0000
   1837  N1        23.3460    4.4440    3.5870 N.ar   89  C89         0.0000
   1838  C2        22.7850    3.2050    3.8600 C.ar   89  C89         0.0000
   1839  O2        21.9420    3.1230    4.7570 O.2    89  C89         0.0000
   1840  N3        23.1670    2.1290    3.1420 N.ar   89  C89         0.0000
   1841  C4        24.0700    2.2650    2.1760 C.ar   89  C89         0.0000
   1842  N4        24.4150    1.1760    1.4910 N.pl3  89  C89         0.0000
   1843  C5        24.6580    3.5250    1.8690 C.ar   89  C89         0.0000
   1844  C6        24.2720    4.5790    2.5950 C.ar   89  C89         0.0000
   1845  OP1       26.6450   10.2910    1.7220 O.3    89  C89        -0.5000
   1846  OP2       26.2700    7.8520    1.0210 O.co2  89  C89        -0.5000
   1847  P         26.0860    6.3150    7.9160 P.3    90  G90         0.0000
   1848  C5'       24.2360    5.0230    9.2940 C.3    90  G90         0.0000
   1849  O5'       25.3720    4.9750    8.4250 O.3    90  G90         0.0000
   1850  C4'       23.9050    3.6420    9.8390 C.3    90  G90         0.0000
   1851  O4'       23.6900    2.7240    8.7350 O.3    90  G90         0.0000
   1852  C3'       25.0710    3.0680   10.6380 C.3    90  G90         0.0000
   1853  O3'       24.6800    2.3340   11.7980 O.3    90  G90         0.0000
   1854  C2'       25.8170    2.1520    9.6750 C.3    90  G90         0.0000
   1855  O2'       26.2330    0.9710   10.3120 O.3    90  G90         0.0000
   1856  C1'       24.7060    1.7500    8.7140 C.3    90  G90         0.0000
   1857  N1        25.1020   -1.9970    5.3270 N.ar   90  G90         0.0000
   1858  C2        24.7360   -2.0500    6.6430 C.ar   90  G90         0.0000
   1859  N2        24.4240   -3.2640    7.1010 N.pl3  90  G90         0.0000
   1860  N3        24.6790   -0.9930    7.4420 N.ar   90  G90         0.0000
   1861  C4        25.0200    0.1420    6.7980 C.ar   90  G90         0.0000
   1862  C5        25.3960    0.3020    5.4860 C.ar   90  G90         0.0000
   1863  C6        25.4550   -0.8410    4.6450 C.ar   90  G90         0.0000
   1864  O6        25.7630   -0.9070    3.4520 O.2    90  G90         0.0000
   1865  N7        25.6610    1.6350    5.2100 N.ar   90  G90         0.0000
   1866  C8        25.4460    2.2510    6.3410 C.ar   90  G90         0.0000
   1867  N9        25.0490    1.4050    7.3420 N.ar   90  G90         0.0000
   1868  OP1       26.2760    7.2170    9.0770 O.3    90  G90        -0.5000
   1869  OP2       27.2510    5.9750    7.0620 O.co2  90  G90        -0.5000
   1870  P         24.0320    3.0650   13.0700 P.3    91  U91         0.0000
   1871  C5'       21.4110    2.7560   13.0290 C.3    91  U91         0.0000
   1872  O5'       22.6970    2.2300   13.3620 O.3    91  U91         0.0000
   1873  C4'       20.3210    1.7070   13.2010 C.3    91  U91         0.0000
   1874  O4'       20.4880    0.6520   12.2200 O.3    91  U91         0.0000
   1875  C3'       20.3660    1.0250   14.5680 C.3    91  U91         0.0000
   1876  O3'       19.0580    0.8980   15.1490 O.3    91  U91         0.0000
   1877  C2'       21.1160   -0.2940   14.3400 C.3    91  U91         0.0000
   1878  O2'       20.5830   -1.3890   15.0450 O.3    91  U91         0.0000
   1879  C1'       20.8330   -0.5550   12.8610 C.3    91  U91         0.0000
   1880  N1        21.8150   -1.2930   12.0560 N.ar   91  U91         0.0000
   1881  C2        21.6450   -2.6610   11.9620 C.ar   91  U91         0.0000
   1882  O2        20.7380   -3.2500   12.5130 O.2    91  U91         0.0000
   1883  N3        22.5740   -3.3110   11.1900 N.ar   91  U91         0.0000
   1884  C4        23.6340   -2.7400   10.5160 C.ar   91  U91         0.0000
   1885  O4        24.3950   -3.4580    9.8650 O.2    91  U91         0.0000
   1886  C5        23.7410   -1.3200   10.6640 C.ar   91  U91         0.0000
   1887  C6        22.8520   -0.6620   11.4130 C.ar   91  U91         0.0000
   1888  OP1       23.6740    4.4550   12.7150 O.2    91  U91        -0.5000
   1889  OP2       24.9660    2.8060   14.1930 O.co2  91  U91        -0.5000
   1890  P         18.6150    1.7970   16.4110 P.3    92  U92         0.0000
   1891  C5'       17.1650    3.5720   15.1390 C.3    92  U92         0.0000
   1892  O5'       18.3840    3.2580   15.8110 O.3    92  U92         0.0000
   1893  C4'       16.9960    5.0710   14.9750 C.3    92  U92         0.0000
   1894  O4'       17.0370    5.7010   16.2810 O.3    92  U92         0.0000
   1895  C3'       18.1240    5.7090   14.1710 C.3    92  U92         0.0000
   1896  O3'       17.6870    6.5950   13.1470 O.3    92  U92         0.0000
   1897  C2'       19.0940    6.3070   15.1840 C.3    92  U92         0.0000
   1898  O2'       19.5070    7.5990   14.7840 O.3    92  U92         0.0000
   1899  C1'       18.1950    6.4960   16.4040 C.3    92  U92         0.0000
   1900  N1        18.8050    6.2810   17.7200 N.ar   92  U92         0.0000
   1901  C2        19.2910    7.4020   18.3660 C.ar   92  U92         0.0000
   1902  O2        19.2170    8.5220   17.8870 O.2    92  U92         0.0000
   1903  N3        19.8590    7.1680   19.5920 N.ar   92  U92         0.0000
   1904  C4        19.9840    5.9490   20.2290 C.ar   92  U92         0.0000
   1905  O4        20.5240    5.8980   21.3420 O.2    92  U92         0.0000
   1906  C5        19.4490    4.8320   19.4940 C.ar   92  U92         0.0000
   1907  C6        18.8920    5.0350   18.2920 C.ar   92  U92         0.0000
   1908  OP1       19.7100    1.8180   17.4110 O.3    92  U92        -0.5000
   1909  OP2       17.2800    1.2820   16.8000 O.co2  92  U92        -0.5000
   1910  P         17.1570    6.0110   11.7550 P.3    93  A93         0.0000
   1911  C5'       19.5300    6.0600   10.6350 C.3    93  A93         0.0000
   1912  O5'       18.4280    5.3010   11.1130 O.3    93  A93         0.0000
   1913  C4'       20.2040    5.3190    9.5100 C.3    93  A93         0.0000
   1914  O4'       20.5910    4.0000    9.9790 O.3    93  A93         0.0000
   1915  C3'       19.3100    5.0590    8.3120 C.3    93  A93         0.0000
   1916  O3'       19.3840    6.1760    7.4260 O.3    93  A93         0.0000
   1917  C2'       19.9240    3.8000    7.7030 C.3    93  A93         0.0000
   1918  O2'       21.0330    4.0770    6.8810 O.3    93  A93         0.0000
   1919  C1'       20.4230    3.0550    8.9410 C.3    93  A93         0.0000
   1920  N1        19.6230   -2.0180    9.2930 N.ar   93  A93         0.0000
   1921  C2        20.5860   -1.3010    8.7040 C.ar   93  A93         0.0000
   1922  N3        20.7300    0.0210    8.6350 N.ar   93  A93         0.0000
   1923  C4        19.7220    0.6430    9.2740 C.ar   93  A93         0.0000
   1924  C5        18.6620    0.0420    9.9260 C.ar   93  A93         0.0000
   1925  C6        18.6240   -1.3650    9.9240 C.ar   93  A93         0.0000
   1926  N6        17.6640   -2.0830   10.5030 N.pl3  93  A93         0.0000
   1927  N7        17.8200    0.9990   10.4730 N.ar   93  A93         0.0000
   1928  C8        18.3810    2.1390   10.1460 C.ar   93  A93         0.0000
   1929  N9        19.5390    1.9980    9.4290 N.ar   93  A93         0.0000
   1930  OP1       16.7680    7.1570   10.8920 O.2    93  A93        -0.5000
   1931  OP2       16.1630    4.9560   12.0730 O.co2  93  A93        -0.5000
   1932  P         18.0410    6.7720    6.7800 P.3    94  G94         0.0000
   1933  C5'       19.3400    7.6720    4.6980 C.3    94  G94         0.0000
   1934  O5'       18.5370    7.9580    5.8330 O.3    94  G94         0.0000
   1935  C4'       19.8290    8.9430    4.0260 C.3    94  G94         0.0000
   1936  O4'       18.7530    9.5510    3.2580 O.3    94  G94         0.0000
   1937  C3'       20.2630   10.0020    5.0470 C.3    94  G94         0.0000
   1938  O3'       21.5470   10.5520    4.7550 O.3    94  G94         0.0000
   1939  C2'       19.0980   10.9770    5.1660 C.3    94  G94         0.0000
   1940  O2'       19.4870   12.3270    5.1850 O.3    94  G94         0.0000
   1941  C1'       18.4450   10.8040    3.8090 C.3    94  G94         0.0000
   1942  N1        15.1750   13.0900    0.7300 N.ar   94  G94         0.0000
   1943  C2        16.4740   12.7270    0.5070 C.ar   94  G94         0.0000
   1944  N2        16.9860   13.0780   -0.6800 N.pl3  94  G94         0.0000
   1945  N3        17.2170   12.0700    1.3820 N.ar   94  G94         0.0000
   1946  C4        16.5420   11.8030    2.5210 C.ar   94  G94         0.0000
   1947  C5        15.2440   12.1140    2.8420 C.ar   94  G94         0.0000
   1948  C6        14.4570   12.8200    1.8920 C.ar   94  G94         0.0000
   1949  O6        13.2790   13.1900    1.9890 O.2    94  G94         0.0000
   1950  N7        14.9250   11.6480    4.1130 N.ar   94  G94         0.0000
   1951  C8        16.0230   11.0840    4.5340 C.ar   94  G94         0.0000
   1952  N9        17.0510   11.1780    3.6310 N.ar   94  G94         0.0000
   1953  OP1       17.2310    7.3280    7.8920 O.3    94  G94        -0.5000
   1954  OP2       17.4680    5.7150    5.9120 O.co2  94  G94        -0.5000
   1955  P         22.2710   11.5650    5.7800 P.3    95  A95         0.0000
   1956  C5'       24.1330   11.9200    3.9860 C.3    95  A95         0.0000
   1957  O5'       23.1110   12.4860    4.7920 O.3    95  A95         0.0000
   1958  C4'       24.0800   12.4920    2.5980 C.3    95  A95         0.0000
   1959  O4'       22.7900   12.1920    2.0120 O.3    95  A95         0.0000
   1960  C3'       24.1510   14.0020    2.4970 C.3    95  A95         0.0000
   1961  O3'       25.4870   14.4610    2.5590 O.3    95  A95         0.0000
   1962  C2'       23.5680   14.2490    1.1150 C.3    95  A95         0.0000
   1963  O2'       24.5020   14.0140    0.0790 O.3    95  A95         0.0000
   1964  C1'       22.4550   13.2020    1.0710 C.3    95  A95         0.0000
   1965  N1        18.4430   15.9190   -0.6020 N.ar   95  A95         0.0000
   1966  C2        19.5720   15.5030   -1.2000 C.ar   95  A95         0.0000
   1967  N3        20.5800   14.7890   -0.6980 N.ar   95  A95         0.0000
   1968  C4        20.3480   14.4880    0.5920 C.ar   95  A95         0.0000
   1969  C5        19.2420   14.8420    1.3450 C.ar   95  A95         0.0000
   1970  C6        18.2440   15.5980    0.6980 C.ar   95  A95         0.0000
   1971  N6        17.1200   16.0110    1.2970 N.pl3  95  A95         0.0000
   1972  N7        19.3520   14.3490    2.6380 N.ar   95  A95         0.0000
   1973  C8        20.5040   13.7220    2.6370 C.ar   95  A95         0.0000
   1974  N9        21.1590   13.7700    1.4320 N.ar   95  A95         0.0000
   1975  OP1       23.2340   10.7550    6.5750 O.3    95  A95        -0.5000
   1976  OP2       21.2970   12.4290    6.4840 O.co2  95  A95        -0.5000
   1977  P         25.8020   15.8740    3.2440 P.3    96  G96         0.0000
   1978  C5'       25.1530   17.3210    1.1490 C.3    96  G96         0.0000
   1979  O5'       24.8500   16.8910    2.4730 O.3    96  G96         0.0000
   1980  C4'       24.1150   18.3090    0.6750 C.3    96  G96         0.0000
   1981  O4'       22.8480   17.6250    0.5000 O.3    96  G96         0.0000
   1982  C3'       23.7930   19.4410    1.6410 C.3    96  G96         0.0000
   1983  O3'       24.7110   20.5220    1.5230 O.3    96  G96         0.0000
   1984  C2'       22.3980   19.8430    1.1930 C.3    96  G96         0.0000
   1985  O2'       22.4120   20.6210    0.0180 O.3    96  G96         0.0000
   1986  C1'       21.7870   18.4760    0.9000 C.3    96  G96         0.0000
   1987  N1        17.8570   18.6550    4.0620 N.ar   96  G96         0.0000
   1988  C2        18.0680   19.3360    2.8870 C.ar   96  G96         0.0000
   1989  N2        17.1090   20.2010    2.5150 N.pl3  96  G96         0.0000
   1990  N3        19.1410   19.1850    2.1310 N.ar   96  G96         0.0000
   1991  C4        20.0010   18.2910    2.6540 C.ar   96  G96         0.0000
   1992  C5        19.8880   17.5610    3.8150 C.ar   96  G96         0.0000
   1993  C6        18.7330   17.7280    4.6160 C.ar   96  G96         0.0000
   1994  O6        18.4470   17.1700    5.6800 O.2    96  G96         0.0000
   1995  N7        20.9950   16.7440    3.9920 N.ar   96  G96         0.0000
   1996  C8        21.7450   16.9930    2.9550 C.ar   96  G96         0.0000
   1997  N9        21.2020   17.9310    2.1140 N.ar   96  G96         0.0000
   1998  OP1       27.2140   16.2010    2.9160 O.2    96  G96        -0.5000
   1999  OP2       25.3700   15.8100    4.6660 O.co2  96  G96        -0.5000
   2000  P         24.9750   21.4830    2.7870 P.3    97  G97         0.0000
   2001  C5'       23.1870   23.1390    1.8090 C.3    97  G97         0.0000
   2002  O5'       23.6430   22.3470    2.9000 O.3    97  G97         0.0000
   2003  C4'       21.8770   23.7920    2.1670 C.3    97  G97         0.0000
   2004  O4'       20.8330   22.7810    2.2570 O.3    97  G97         0.0000
   2005  C3'       21.8490   24.4400    3.5380 C.3    97  G97         0.0000
   2006  O3'       22.4720   25.7180    3.5450 O.3    97  G97         0.0000
   2007  C2'       20.3550   24.5040    3.8180 C.3    97  G97         0.0000
   2008  O2'       19.7050   25.5690    3.1570 O.3    97  G97         0.0000
   2009  C1'       19.8890   23.1610    3.2480 C.3    97  G97         0.0000
   2010  N1        17.3520   21.3290    7.2230 N.ar   97  G97         0.0000
   2011  C2        17.0020   22.3340    6.3530 C.ar   97  G97         0.0000
   2012  N2        15.8310   22.9480    6.5920 N.pl3  97  G97         0.0000
   2013  N3        17.7450   22.7080    5.3250 N.ar   97  G97         0.0000
   2014  C4        18.8790   21.9810    5.2350 C.ar   97  G97         0.0000
   2015  C5        19.3150   20.9580    6.0500 C.ar   97  G97         0.0000
   2016  C6        18.5170   20.5740    7.1470 C.ar   97  G97         0.0000
   2017  O6        18.7390   19.6980    7.9870 O.2    97  G97         0.0000
   2018  N7        20.5380   20.4670    5.6150 N.ar   97  G97         0.0000
   2019  C8        20.8210   21.1920    4.5650 C.ar   97  G97         0.0000
   2020  N9        19.8640   22.1420    4.2920 N.ar   97  G97         0.0000
   2021  OP1       26.1090   22.3790    2.4240 O.2    97  G97        -0.5000
   2022  OP2       25.0530   20.6450    4.0160 O.co2  97  G97        -0.5000
   2023  P         23.1000   26.2800    4.9140 P.3    98  A98         0.0000
   2024  C5'       21.0000   27.8270    5.1440 C.3    98  A98         0.0000
   2025  O5'       21.8330   26.8190    5.7100 O.3    98  A98         0.0000
   2026  C4'       19.7540   27.9890    5.9710 C.3    98  A98         0.0000
   2027  O4'       19.0120   26.7470    5.9410 O.3    98  A98         0.0000
   2028  C3'       19.9900   28.2260    7.4510 C.3    98  A98         0.0000
   2029  O3'       20.2380   29.5970    7.7050 O.3    98  A98         0.0000
   2030  C2'       18.6740   27.7690    8.0580 C.3    98  A98         0.0000
   2031  O2'       17.6440   28.7280    7.9430 O.3    98  A98         0.0000
   2032  C1'       18.3490   26.5640    7.1780 C.3    98  A98         0.0000
   2033  N1        17.3620   23.0240   10.7270 N.ar   98  A98         0.0000
   2034  C2        16.6790   24.0930   10.2950 C.ar   98  A98         0.0000
   2035  N3        16.9930   24.9630    9.3380 N.ar   98  A98         0.0000
   2036  C4        18.1770   24.6480    8.7800 C.ar   98  A98         0.0000
   2037  C5        18.9950   23.5810    9.1060 C.ar   98  A98         0.0000
   2038  C6        18.5470   22.7300   10.1440 C.ar   98  A98         0.0000
   2039  N6        19.2230   21.6630   10.5800 N.pl3  98  A98         0.0000
   2040  N7        20.1360   23.5780    8.3090 N.ar   98  A98         0.0000
   2041  C8        19.9850   24.6290    7.5390 C.ar   98  A98         0.0000
   2042  N9        18.8300   25.3290    7.7840 N.ar   98  A98         0.0000
   2043  OP1       23.9630   27.4450    4.5910 O.2    98  A98        -0.5000
   2044  OP2       23.6610   25.1340    5.6670 O.co2  98  A98        -0.5000
   2045  P         21.1740   30.0190    8.9400 P.3    99  C99         0.0000
   2046  C5'       19.2010   30.6770   10.5390 C.3    99  C99         0.0000
   2047  O5'       20.2690   29.7900   10.2340 O.3    99  C99         0.0000
   2048  C4'       18.2730   30.0530   11.5500 C.3    99  C99         0.0000
   2049  O4'       17.9280   28.7260   11.0840 O.3    99  C99         0.0000
   2050  C3'       18.8420   29.7950   12.9350 C.3    99  C99         0.0000
   2051  O3'       18.7550   30.9450   13.7560 O.3    99  C99         0.0000
   2052  C2'       17.9070   28.7220   13.4580 C.3    99  C99         0.0000
   2053  O2'       16.6820   29.2580   13.9030 O.3    99  C99         0.0000
   2054  C1'       17.6970   27.8800   12.1980 C.3    99  C99         0.0000
   2055  N1        18.6420   26.7590   12.1330 N.ar   99  C99         0.0000
   2056  C2        18.4490   25.6730   12.9960 C.ar   99  C99         0.0000
   2057  O2        17.4700   25.6810   13.7590 O.2    99  C99         0.0000
   2058  N3        19.3300   24.6470   12.9760 N.ar   99  C99         0.0000
   2059  C4        20.3640   24.6760   12.1360 C.ar   99  C99         0.0000
   2060  N4        21.2080   23.6450   12.1550 N.pl3  99  C99         0.0000
   2061  C5        20.5770   25.7650   11.2370 C.ar   99  C99         0.0000
   2062  C6        19.6980   26.7750   11.2670 C.ar   99  C99         0.0000
   2063  OP1       21.3940   31.4780    8.7690 O.2    99  C99        -0.5000
   2064  OP2       22.3410   29.1060    9.0330 O.co2  99  C99        -0.5000
   2065  P         19.9070   31.2400   14.8290 P.3   100  U100        0.0000
   2066  C5'       18.4700   30.4200   16.8450 C.3   100  U100        0.0000
   2067  O5'       19.5960   30.2150   16.0060 O.3   100  U100        0.0000
   2068  C4'       18.2420   29.2210   17.7270 C.3   100  U100        0.0000
   2069  O4'       18.1570   28.0370   16.8940 O.3   100  U100        0.0000
   2070  C3'       19.3470   28.8800   18.7120 C.3   100  U100        0.0000
   2071  O3'       19.2390   29.6450   19.9060 O.3   100  U100        0.0000
   2072  C2'       19.0550   27.4190   19.0060 C.3   100  U100        0.0000
   2073  O2'       18.0070   27.2700   19.9440 O.3   100  U100        0.0000
   2074  C1'       18.6170   26.9170   17.6280 C.3   100  U100        0.0000
   2075  N1        19.7080   26.2830   16.8770 N.ar  100  U100        0.0000
   2076  C2        20.1220   25.0230   17.2900 C.ar  100  U100        0.0000
   2077  O2        19.6280   24.4360   18.2440 O.2   100  U100        0.0000
   2078  N3        21.1350   24.4760   16.5460 N.ar  100  U100        0.0000
   2079  C4        21.7610   25.0400   15.4600 C.ar  100  U100        0.0000
   2080  O4        22.6490   24.4110   14.8930 O.2   100  U100        0.0000
   2081  C5        21.2850   26.3420   15.0960 C.ar  100  U100        0.0000
   2082  C6        20.2990   26.9060   15.8010 C.ar  100  U100        0.0000
   2083  OP1       19.6880   32.6040   15.3550 O.3   100  U100       -0.5000
   2084  OP2       21.2040   30.9050   14.1920 O.co2 100  U100       -0.5000
   2085  P         20.5750   30.1250   20.6670 P.3   101  G101        0.0000
   2086  C5'       20.4800   28.0150   22.1930 C.3   101  G101        0.0000
   2087  O5'       21.2000   28.7730   21.2340 O.3   101  G101        0.0000
   2088  C4'       20.9360   26.5770   22.2030 C.3   101  G101        0.0000
   2089  O4'       21.0610   26.0940   20.8450 O.3   101  G101        0.0000
   2090  C3'       22.3000   26.2480   22.7780 C.3   101  G101        0.0000
   2091  O3'       22.2530   26.1930   24.1980 O.3   101  G101        0.0000
   2092  C2'       22.5040   24.8380   22.2430 C.3   101  G101        0.0000
   2093  O2'       21.7490   23.8990   22.9850 O.3   101  G101        0.0000
   2094  C1'       21.8970   24.9500   20.8470 C.3   101  G101        0.0000
   2095  N1        25.4600   22.4750   18.2470 N.ar  101  G101        0.0000
   2096  C2        24.6960   22.0580   19.3090 C.ar  101  G101        0.0000
   2097  N2        24.9020   20.8030   19.7380 N.pl3 101  G101        0.0000
   2098  N3        23.7960   22.8140   19.9130 N.ar  101  G101        0.0000
   2099  C4        23.7230   24.0440   19.3700 C.ar  101  G101        0.0000
   2100  C5        24.4390   24.5650   18.3170 C.ar  101  G101        0.0000
   2101  C6        25.3990   23.7390   17.6690 C.ar  101  G101        0.0000
   2102  O6        26.1310   24.0140   16.7110 O.2   101  G101        0.0000
   2103  N7        24.0670   25.8800   18.0720 N.ar  101  G101        0.0000
   2104  C8        23.1460   26.1270   18.9640 C.ar  101  G101        0.0000
   2105  N9        22.8830   25.0510   19.7760 N.ar  101  G101        0.0000
   2106  OP1       20.1360   30.9570   21.8140 O.3   101  G101       -0.5000
   2107  OP2       21.5100   30.6940   19.6630 O.co2 101  G101       -0.5000
   2108  P         23.5780   26.5080   25.0490 P.3   102  G102        0.0000
   2109  C5'       24.0670   23.9620   24.8000 C.3   102  G102        0.0000
   2110  O5'       24.5540   25.2930   24.7270 O.3   102  G102        0.0000
   2111  C4'       25.0760   22.9890   24.2430 C.3   102  G102        0.0000
   2112  O4'       25.3560   23.2910   22.8510 O.3   102  G102        0.0000
   2113  C3'       26.4070   23.0750   24.9630 C.3   102  G102        0.0000
   2114  O3'       26.8030   21.7960   25.4630 O.3   102  G102        0.0000
   2115  C2'       27.3130   23.9450   24.0860 C.3   102  G102        0.0000
   2116  O2'       28.6390   23.4820   23.9810 O.3   102  G102        0.0000
   2117  C1'       26.6720   23.7740   22.7070 C.3   102  G102        0.0000
   2118  N1        28.1280   25.6500   18.2250 N.ar  102  G102        0.0000
   2119  C2        28.3440   24.4050   18.7510 C.ar  102  G102        0.0000
   2120  N2        29.0440   23.5570   17.9830 N.pl3 102  G102        0.0000
   2121  N3        27.9070   24.0220   19.9430 N.ar  102  G102        0.0000
   2122  C4        27.2260   25.0080   20.5720 C.ar  102  G102        0.0000
   2123  C5        26.9550   26.2830   20.1270 C.ar  102  G102        0.0000
   2124  C6        27.4300   26.6770   18.8560 C.ar  102  G102        0.0000
   2125  O6        27.2980   27.7660   18.2970 O.2   102  G102        0.0000
   2126  N7        26.2230   26.9910   21.0700 N.ar  102  G102        0.0000
   2127  C8        26.0670   26.1510   22.0570 C.ar  102  G102        0.0000
   2128  N9        26.6530   24.9320   21.8230 N.ar  102  G102        0.0000
   2129  OP1       23.2120   26.4280   26.4830 O.3   102  G102       -0.5000
   2130  OP2       24.1680   27.7590   24.5020 O.co2 102  G102       -0.5000
   2131  P         28.1840   21.6230   26.2570 P.3   103  U103        0.0000
   2132  C5'       28.0340   23.6180   27.9780 C.3   103  U103        0.0000
   2133  O5'       28.5520   23.0990   26.7530 O.3   103  U103        0.0000
   2134  C4'       29.1380   23.7410   29.0060 C.3   103  U103        0.0000
   2135  O4'       28.5570   24.1950   30.2560 O.3   103  U103        0.0000
   2136  C3'       29.8060   22.4190   29.3410 C.3   103  U103        0.0000
   2137  O3'       31.1670   22.2010   28.9570 O.3   103  U103        0.0000
   2138  C2'       29.1410   21.8790   30.5990 C.3   103  U103        0.0000
   2139  O2'       30.0290   21.2820   31.5150 O.3   103  U103        0.0000
   2140  C1'       28.5330   23.1430   31.2110 C.3   103  U103        0.0000
   2141  OP1       29.1750   21.1770   25.2370 O.2   103  U103       -0.5000
   2142  OP2       27.9170   20.7610   27.4440 O.co2 103  U103       -0.5000
   2143  P         32.3800   22.4230   30.0140 P.3   104  A104        0.0000
   2144  C5'       33.2060   20.1610   29.0530 C.3   104  A104        0.0000
   2145  O5'       33.5140   21.4840   29.4340 O.3   104  A104        0.0000
   2146  C4'       34.4000   19.5520   28.3990 C.3   104  A104        0.0000
   2147  O4'       34.5570   20.0430   27.0470 O.3   104  A104        0.0000
   2148  C3'       35.7030   19.9240   29.0640 C.3   104  A104        0.0000
   2149  O3'       35.8000   19.1420   30.2490 O.3   104  A104        0.0000
   2150  C2'       36.6950   19.5740   27.9610 C.3   104  A104        0.0000
   2151  O2'       36.8820   18.1800   27.8560 O.3   104  A104        0.0000
   2152  C1'       35.9280   20.0210   26.7100 C.3   104  A104        0.0000
   2153  N1        38.6830   22.5370   23.1900 N.ar  104  A104        0.0000
   2154  C2        38.5540   21.2390   23.4750 C.ar  104  A104        0.0000
   2155  N3        37.8170   20.6510   24.4120 N.ar  104  A104        0.0000
   2156  C4        37.1450   21.5640   25.1290 C.ar  104  A104        0.0000
   2157  C5        37.1750   22.9360   24.9590 C.ar  104  A104        0.0000
   2158  C6        37.9920   23.4320   23.9270 C.ar  104  A104        0.0000
   2159  N6        38.1200   24.7250   23.6380 N.pl3 104  A104        0.0000
   2160  N7        36.3530   23.5620   25.8850 N.ar  104  A104        0.0000
   2161  C8        35.8530   22.5700   26.5830 C.ar  104  A104        0.0000
   2162  N9        36.2870   21.3330   26.1760 N.ar  104  A104        0.0000
   2163  OP1       32.0460   21.8450   31.3430 O.3   104  A104       -0.5000
   2164  OP2       32.9000   23.8190   29.9160 O.co2 104  A104       -0.5000
   2165  P         36.8550   19.5250   31.3970 P.3   105  A105        0.0000
   2166  C5'       39.4120   19.3570   31.0500 C.3   105  A105        0.0000
   2167  O5'       38.1550   18.7820   30.8880 O.3   105  A105        0.0000
   2168  C4'       40.3640   18.7960   30.0430 C.3   105  A105        0.0000
   2169  O4'       39.8440   18.9390   28.6940 O.3   105  A105        0.0000
   2170  C3'       41.6400   19.5960   30.0690 C.3   105  A105        0.0000
   2171  O3'       42.4630   19.0460   31.0640 O.3   105  A105        0.0000
   2172  C2'       42.1600   19.4640   28.6510 C.3   105  A105        0.0000
   2173  O2'       42.8890   18.2610   28.4700 O.3   105  A105        0.0000
   2174  C1'       40.8420   19.5090   27.8600 C.3   105  A105        0.0000
   2175  N1        41.3100   23.7070   24.8970 N.ar  105  A105        0.0000
   2176  C2        41.8430   22.4790   24.7930 C.ar  105  A105        0.0000
   2177  N3        41.6700   21.4180   25.5770 N.ar  105  A105        0.0000
   2178  C4        40.8300   21.7100   26.5800 C.ar  105  A105        0.0000
   2179  C5        40.2030   22.9250   26.8140 C.ar  105  A105        0.0000
   2180  C6        40.4700   23.9600   25.9260 C.ar  105  A105        0.0000
   2181  N6        39.9430   25.1770   26.0470 N.pl3 105  A105        0.0000
   2182  N7        39.4040   22.8590   27.9420 N.ar  105  A105        0.0000
   2183  C8        39.5650   21.6290   28.3660 C.ar  105  A105        0.0000
   2184  N9        40.4280   20.8830   27.5990 N.ar  105  A105        0.0000
   2185  OP1       36.4740   18.8070   32.6280 O.3   105  A105       -0.5000
   2186  OP2       37.0720   20.9840   31.4400 O.co2 105  A105       -0.5000
   2187  P         43.1590   20.0200   32.0990 P.3   106  A106        0.0000
   2188  C5'       45.2590   19.6160   30.5950 C.3   106  A106        0.0000
   2189  O5'       44.4100   20.5460   31.2630 O.3   106  A106        0.0000
   2190  C4'       45.9280   20.2500   29.4020 C.3   106  A106        0.0000
   2191  O4'       44.9280   20.6780   28.4390 O.3   106  A106        0.0000
   2192  C3'       46.7150   21.5200   29.6720 C.3   106  A106        0.0000
   2193  O3'       47.9930   21.2380   30.2150 O.3   106  A106        0.0000
   2194  C2'       46.8210   22.1070   28.2740 C.3   106  A106        0.0000
   2195  O2'       47.7850   21.4370   27.4920 O.3   106  A106        0.0000
   2196  C1'       45.4250   21.8080   27.7230 C.3   106  A106        0.0000
   2197  N1        43.5220   26.1170   25.7250 N.ar  106  A106        0.0000
   2198  C2        44.3830   25.2070   25.2580 C.ar  106  A106        0.0000
   2199  N3        44.8320   24.1050   25.8330 N.ar  106  A106        0.0000
   2200  C4        44.2940   23.9580   27.0470 C.ar  106  A106        0.0000
   2201  C5        43.3980   24.8020   27.6650 C.ar  106  A106        0.0000
   2202  C6        43.0010   25.9400   26.9520 C.ar  106  A106        0.0000
   2203  N6        42.1430   26.8530   27.4160 N.pl3 106  A106        0.0000
   2204  N7        43.0630   24.3250   28.9210 N.ar  106  A106        0.0000
   2205  C8        43.7550   23.2190   29.0310 C.ar  106  A106        0.0000
   2206  N9        44.5240   22.9390   27.9330 N.ar  106  A106        0.0000
   2207  OP1       43.6060   19.2190   33.2640 O.3   106  A106       -0.5000
   2208  OP2       42.2020   21.1350   32.2910 O.co2 106  A106       -0.5000
   2209  P         48.4670   21.9840   31.5570 P.3   107  A107        0.0000
   2210  C5'       49.0060   24.0580   30.0470 C.3   107  A107        0.0000
   2211  O5'       48.3370   23.5330   31.1920 O.3   107  A107        0.0000
   2212  C4'       48.4740   25.4300   29.6770 C.3   107  A107        0.0000
   2213  O4'       47.0680   25.3490   29.3110 O.3   107  A107        0.0000
   2214  C3'       48.4840   26.5270   30.7270 C.3   107  A107        0.0000
   2215  O3'       49.7840   27.0880   30.9010 O.3   107  A107        0.0000
   2216  C2'       47.5430   27.5310   30.0750 C.3   107  A107        0.0000
   2217  O2'       48.1510   28.1440   28.9630 O.3   107  A107        0.0000
   2218  C1'       46.4460   26.6090   29.5440 C.3   107  A107        0.0000
   2219  N1        42.4430   28.8040   31.8910 N.ar  107  A107        0.0000
   2220  C2        43.2110   29.1930   30.8580 C.ar  107  A107        0.0000
   2221  N3        44.2210   28.5470   30.2650 N.ar  107  A107        0.0000
   2222  C4        44.4290   27.3570   30.8520 C.ar  107  A107        0.0000
   2223  C5        43.7250   26.8190   31.9150 C.ar  107  A107        0.0000
   2224  C6        42.6790   27.5930   32.4520 C.ar  107  A107        0.0000
   2225  N6        41.9120   27.1930   33.4770 N.pl3 107  A107        0.0000
   2226  N7        44.2220   25.5710   32.2490 N.ar  107  A107        0.0000
   2227  C8        45.2020   25.3870   31.4010 C.ar  107  A107        0.0000
   2228  N9        45.3970   26.4400   30.5450 N.ar  107  A107        0.0000
   2229  OP1       49.8980   21.6520   31.7330 O.2   107  A107       -0.5000
   2230  OP2       47.5040   21.6710   32.6370 O.co2 107  A107       -0.5000
   2231  P         50.4840   27.0550   32.3550 P.3   108  C108        0.0000
   2232  C5'       49.1800   29.0530   33.4470 C.3   108  C108        0.0000
   2233  O5'       49.3870   27.6570   33.3400 O.3   108  C108        0.0000
   2234  C4'       48.1010   29.3300   34.4530 C.3   108  C108        0.0000
   2235  O4'       46.8760   28.6730   34.0340 O.3   108  C108        0.0000
   2236  C3'       48.3500   28.7390   35.8230 C.3   108  C108        0.0000
   2237  O3'       49.1960   29.5820   36.5740 O.3   108  C108        0.0000
   2238  C2'       46.9430   28.7010   36.3890 C.3   108  C108        0.0000
   2239  O2'       46.4980   30.0020   36.7200 O.3   108  C108        0.0000
   2240  C1'       46.1650   28.2140   35.1700 C.3   108  C108        0.0000
   2241  N1        46.0680   26.7490   35.0850 N.ar  108  C108        0.0000
   2242  C2        45.0490   26.0910   35.7930 C.ar  108  C108        0.0000
   2243  O2        44.2680   26.7560   36.4950 O.2   108  C108        0.0000
   2244  N3        44.9400   24.7500   35.6900 N.ar  108  C108        0.0000
   2245  C4        45.7910   24.0670   34.9270 C.ar  108  C108        0.0000
   2246  N4        45.6290   22.7590   34.8510 N.pl3 108  C108        0.0000
   2247  C5        46.8430   24.7030   34.2090 C.ar  108  C108        0.0000
   2248  C6        46.9460   26.0320   34.3170 C.ar  108  C108        0.0000
   2249  OP1       51.6550   27.9680   32.3400 O.2   108  C108       -0.5000
   2250  OP2       50.6680   25.6300   32.7490 O.co2 108  C108       -0.5000
   2251  P         50.2890   28.9330   37.5450 P.3   109  C109        0.0000
   2252  C5'       48.8050   29.5700   39.5940 C.3   109  C109        0.0000
   2253  O5'       49.4490   28.5650   38.8410 O.3   109  C109        0.0000
   2254  C4'       47.8560   28.9390   40.5750 C.3   109  C109        0.0000
   2255  O4'       46.7880   28.2590   39.8540 O.3   109  C109        0.0000
   2256  C3'       48.4540   27.8340   41.4230 C.3   109  C109        0.0000
   2257  O3'       49.1490   28.3500   42.5340 O.3   109  C109        0.0000
   2258  C2'       47.2090   27.0900   41.8640 C.3   109  C109        0.0000
   2259  O2'       46.5060   27.8120   42.8510 O.3   109  C109        0.0000
   2260  C1'       46.4040   27.0930   40.5670 C.3   109  C109        0.0000
   2261  N1        46.7080   25.9170   39.7380 N.ar  109  C109        0.0000
   2262  C2        46.0610   24.7190   40.0260 C.ar  109  C109        0.0000
   2263  O2        45.2750   24.6860   40.9820 O.2   109  C109        0.0000
   2264  N3        46.3070   23.6290   39.2600 N.ar  109  C109        0.0000
   2265  C4        47.1680   23.7100   38.2460 C.ar  109  C109        0.0000
   2266  N4        47.3720   22.6190   37.5140 N.pl3 109  C109        0.0000
   2267  C5        47.8540   24.9170   37.9380 C.ar  109  C109        0.0000
   2268  C6        47.5970   25.9880   38.7030 C.ar  109  C109        0.0000
   2269  OP1       51.2930   29.9650   37.9060 O.3   109  C109       -0.5000
   2270  OP2       50.7330   27.6720   36.8920 O.co2 109  C109       -0.5000
   2271  P         50.2960   27.4690   43.2240 P.3   110  A110        0.0000
   2272  C5'       48.6160   26.5490   44.9960 C.3   110  A110        0.0000
   2273  O5'       49.5020   26.2840   43.9250 O.3   110  A110        0.0000
   2274  C4'       48.0070   25.2680   45.4810 C.3   110  A110        0.0000
   2275  O4'       47.2150   24.6890   44.4130 O.3   110  A110        0.0000
   2276  C3'       49.0060   24.1820   45.8290 C.3   110  A110        0.0000
   2277  O3'       49.4990   24.3460   47.1560 O.3   110  A110        0.0000
   2278  C2'       48.1560   22.9300   45.6830 C.3   110  A110        0.0000
   2279  O2'       47.2660   22.7850   46.7660 O.3   110  A110        0.0000
   2280  C1'       47.3370   23.2770   44.4420 C.3   110  A110        0.0000
   2281  N1        47.9270   19.4200   41.0670 N.ar  110  A110        0.0000
   2282  C2        47.2910   19.4890   42.2400 C.ar  110  A110        0.0000
   2283  N3        47.1800   20.5190   43.0820 N.ar  110  A110        0.0000
   2284  C4        47.8390   21.5960   42.6030 C.ar  110  A110        0.0000
   2285  C5        48.5400   21.6730   41.4130 C.ar  110  A110        0.0000
   2286  C6        48.5690   20.5200   40.6130 C.ar  110  A110        0.0000
   2287  N6        49.1880   20.4570   39.4350 N.pl3 110  A110        0.0000
   2288  N7        49.0910   22.9370   41.2480 N.ar  110  A110        0.0000
   2289  C8        48.7130   23.5900   42.3220 C.ar  110  A110        0.0000
   2290  N9        47.9440   22.8440   43.1820 N.ar  110  A110        0.0000
   2291  OP1       50.9230   28.3170   44.2770 O.3   110  A110       -0.5000
   2292  OP2       51.1330   26.8700   42.1570 O.co2 110  A110       -0.5000
   2293  P         50.9700   23.8170   47.5230 P.3   111  C111        0.0000
   2294  C5'       49.9600   21.5630   48.3320 C.3   111  C111        0.0000
   2295  O5'       50.8130   22.2410   47.4310 O.3   111  C111        0.0000
   2296  C4'       49.8510   20.1110   47.9580 C.3   111  C111        0.0000
   2297  O4'       49.1160   19.9850   46.7120 O.3   111  C111        0.0000
   2298  C3'       51.1480   19.3870   47.6650 C.3   111  C111        0.0000
   2299  O3'       51.8210   19.0070   48.8480 O.3   111  C111        0.0000
   2300  C2'       50.6330   18.1800   46.8960 C.3   111  C111        0.0000
   2301  O2'       50.0580   17.2150   47.7580 O.3   111  C111        0.0000
   2302  C1'       49.5540   18.8300   46.0210 C.3   111  C111        0.0000
   2303  N1        50.1090   19.2580   44.7340 N.ar  111  C111        0.0000
   2304  C2        50.1780   18.3290   43.6940 C.ar  111  C111        0.0000
   2305  O2        49.6690   17.2070   43.8620 O.2   111  C111        0.0000
   2306  N3        50.7900   18.6800   42.5360 N.ar  111  C111        0.0000
   2307  C4        51.2970   19.9100   42.3960 C.ar  111  C111        0.0000
   2308  N4        51.9110   20.2050   41.2610 N.pl3 111  C111        0.0000
   2309  C5        51.1950   20.8890   43.4230 C.ar  111  C111        0.0000
   2310  C6        50.5930   20.5260   44.5630 C.ar  111  C111        0.0000
   2311  OP1       51.2810   24.1900   48.9290 O.3   111  C111       -0.5000
   2312  OP2       51.8760   24.2450   46.4330 O.co2 111  C111       -0.5000
   2313  P         53.4020   18.7260   48.8050 P.3   112  A112        0.0000
   2314  C5'       53.2130   16.1590   48.3020 C.3   112  A112        0.0000
   2315  O5'       53.5460   17.4620   47.8440 O.3   112  A112        0.0000
   2316  C4'       53.5330   15.1290   47.2430 C.3   112  A112        0.0000
   2317  O4'       52.6790   15.3360   46.0850 O.3   112  A112        0.0000
   2318  C3'       54.9290   15.1630   46.6460 C.3   112  A112        0.0000
   2319  O3'       55.8960   14.5290   47.4550 O.3   112  A112        0.0000
   2320  C2'       54.7110   14.3770   45.3710 C.3   112  A112        0.0000
   2321  O2'       54.5730   13.0020   45.6540 O.3   112  A112        0.0000
   2322  C1'       53.3800   14.9650   44.9090 C.3   112  A112        0.0000
   2323  N1        54.6490   16.7950   40.2830 N.ar  112  A112        0.0000
   2324  C2        54.4110   15.5600   40.7320 C.ar  112  A112        0.0000
   2325  N3        54.0570   15.1560   41.9480 N.ar  112  A112        0.0000
   2326  C4        53.9440   16.2030   42.7820 C.ar  112  A112        0.0000
   2327  C5        54.1470   17.5360   42.4710 C.ar  112  A112        0.0000
   2328  C6        54.5260   17.8280   41.1410 C.ar  112  A112        0.0000
   2329  N6        54.7710   19.0580   40.6860 N.pl3 112  A112        0.0000
   2330  N7        53.9290   18.3410   43.5880 N.ar  112  A112        0.0000
   2331  C8        53.6100   17.4880   44.5360 C.ar  112  A112        0.0000
   2332  N9        53.6190   16.1730   44.1200 N.ar  112  A112        0.0000
   2333  OP1       53.8050   18.3210   50.1730 O.3   112  A112       -0.5000
   2334  OP2       54.1060   19.8500   48.1390 O.co2 112  A112       -0.5000
   2335  P         57.4240   14.9950   47.3540 P.3   113  G113        0.0000
   2336  C5'       58.0720   13.0310   45.7370 C.3   113  G113        0.0000
   2337  O5'       57.9210   14.4300   45.9520 O.3   113  G113        0.0000
   2338  C4'       58.6630   12.7740   44.3730 C.3   113  G113        0.0000
   2339  O4'       57.7460   13.2400   43.3510 O.3   113  G113        0.0000
   2340  C3'       59.9240   13.5470   44.0540 C.3   113  G113        0.0000
   2341  O3'       61.0690   12.9440   44.6240 O.3   113  G113        0.0000
   2342  C2'       59.9560   13.4720   42.5370 C.3   113  G113        0.0000
   2343  O2'       60.4020   12.2190   42.0820 O.3   113  G113        0.0000
   2344  C1'       58.4770   13.6500   42.2020 C.3   113  G113        0.0000
   2345  N1        58.4050   17.3660   38.7320 N.ar  113  G113        0.0000
   2346  C2        58.7000   16.0380   38.5730 C.ar  113  G113        0.0000
   2347  N2        59.0390   15.6600   37.3290 N.pl3 113  G113        0.0000
   2348  N3        58.6620   15.1440   39.5570 N.ar  113  G113        0.0000
   2349  C4        58.2890   15.7000   40.7290 C.ar  113  G113        0.0000
   2350  C5        57.9650   17.0130   40.9890 C.ar  113  G113        0.0000
   2351  C6        58.0200   17.9580   39.9270 C.ar  113  G113        0.0000
   2352  O6        57.7790   19.1670   39.9600 O.2   113  G113        0.0000
   2353  N7        57.6320   17.1810   42.3270 N.ar  113  G113        0.0000
   2354  C8        57.7640   15.9900   42.8450 C.ar  113  G113        0.0000
   2355  N9        58.1760   15.0500   41.9360 N.ar  113  G113        0.0000
   2356  OP1       58.2060   14.3480   48.4280 O.3   113  G113       -0.5000
   2357  OP2       57.3840   16.4730   47.2650 O.co2 113  G113       -0.5000
   2358  P         62.3440   13.8520   44.9750 P.3   114  G114        0.0000
   2359  C5'       63.3420   13.3360   42.6120 C.3   114  G114        0.0000
   2360  O5'       62.8790   14.3030   43.5450 O.3   114  G114        0.0000
   2361  C4'       63.7240   13.9990   41.3160 C.3   114  G114        0.0000
   2362  O4'       62.5430   14.5320   40.6660 O.3   114  G114        0.0000
   2363  C3'       64.6140   15.2260   41.4070 C.3   114  G114        0.0000
   2364  O3'       65.9730   14.8800   41.6260 O.3   114  G114        0.0000
   2365  C2'       64.4290   15.8120   40.0170 C.3   114  G114        0.0000
   2366  O2'       65.1890   15.1200   39.0450 O.3   114  G114        0.0000
   2367  C1'       62.9290   15.5840   39.7970 C.3   114  G114        0.0000
   2368  N1        61.4530   20.1350   38.1870 N.ar  114  G114        0.0000
   2369  C2        61.9830   19.0870   37.4730 C.ar  114  G114        0.0000
   2370  N2        62.2050   19.3110   36.1670 N.pl3 114  G114        0.0000
   2371  N3        62.2720   17.9070   38.0010 N.ar  114  G114        0.0000
   2372  C4        61.9750   17.8580   39.3170 C.ar  114  G114        0.0000
   2373  C5        61.4340   18.8400   40.1160 C.ar  114  G114        0.0000
   2374  C6        61.1400   20.1010   39.5430 C.ar  114  G114        0.0000
   2375  O6        60.6730   21.1010   40.0910 O.2   114  G114        0.0000
   2376  N7        61.2720   18.3840   41.4150 N.ar  114  G114        0.0000
   2377  C8        61.7260   17.1590   41.3840 C.ar  114  G114        0.0000
   2378  N9        62.2090   16.7980   40.1520 N.ar  114  G114        0.0000
   2379  OP1       63.3910   12.9940   45.6110 O.2   114  G114       -0.5000
   2380  OP2       61.8330   15.0540   45.6910 O.co2 114  G114       -0.5000
   2381  P         66.8660   15.7480   42.6420 P.3   115  C115        0.0000
   2382  C5'       67.2930   18.3220   42.7820 C.3   115  C115        0.0000
   2383  O5'       66.9460   17.1960   41.9850 O.3   115  C115        0.0000
   2384  C4'       68.0580   19.3330   41.9700 C.3   115  C115        0.0000
   2385  O4'       69.2820   18.7330   41.4810 O.3   115  C115        0.0000
   2386  C3'       67.3750   19.8460   40.7140 C.3   115  C115        0.0000
   2387  O3'       66.4660   20.8970   41.0260 O.3   115  C115        0.0000
   2388  C2'       68.5570   20.3600   39.8910 C.3   115  C115        0.0000
   2389  O2'       68.9770   21.6720   40.2140 O.3   115  C115        0.0000
   2390  C1'       69.6590   19.3680   40.2720 C.3   115  C115        0.0000
   2391  N1        69.8750   18.3470   39.2460 N.ar  115  C115        0.0000
   2392  C2        70.5900   18.7050   38.1010 C.ar  115  C115        0.0000
   2393  O2        70.9760   19.8800   37.9820 O.2   115  C115        0.0000
   2394  N3        70.8390   17.7720   37.1560 N.ar  115  C115        0.0000
   2395  C4        70.3890   16.5250   37.3190 C.ar  115  C115        0.0000
   2396  N4        70.6670   15.6310   36.3660 N.pl3 115  C115        0.0000
   2397  C5        69.6350   16.1380   38.4710 C.ar  115  C115        0.0000
   2398  C6        69.4040   17.0730   39.4000 C.ar  115  C115        0.0000
   2399  OP1       68.2300   15.1610   42.6120 O.2   115  C115       -0.5000
   2400  OP2       66.1360   15.8570   43.9360 O.co2 115  C115       -0.5000
   2401  P         64.9380   20.8100   40.5230 P.3   116  G116        0.0000
   2402  C5'       65.5290   22.3000   38.4560 C.3   116  G116        0.0000
   2403  O5'       65.0250   21.0720   38.9530 O.3   116  G116        0.0000
   2404  C4'       66.0540   22.1130   37.0630 C.3   116  G116        0.0000
   2405  O4'       67.0120   21.0340   37.0860 O.3   116  G116        0.0000
   2406  C3'       65.0400   21.6870   36.0210 C.3   116  G116        0.0000
   2407  O3'       64.3920   22.8510   35.5170 O.3   116  G116        0.0000
   2408  C2'       65.9270   21.0200   34.9720 C.3   116  G116        0.0000
   2409  O2'       66.5730   21.9310   34.0990 O.3   116  G116        0.0000
   2410  C1'       66.9870   20.3510   35.8510 C.3   116  G116        0.0000
   2411  N1        68.1240   15.5900   34.5890 N.ar  116  G116        0.0000
   2412  C2        68.4940   16.7560   33.9780 C.ar  116  G116        0.0000
   2413  N2        69.2910   16.6330   32.9060 N.pl3 116  G116        0.0000
   2414  N3        68.1110   17.9510   34.3860 N.ar  116  G116        0.0000
   2415  C4        67.3080   17.8770   35.4650 C.ar  116  G116        0.0000
   2416  C5        66.8740   16.7590   36.1380 C.ar  116  G116        0.0000
   2417  C6        67.2950   15.4990   35.6990 C.ar  116  G116        0.0000
   2418  O6        67.0210   14.3990   36.1680 O.2   116  G116        0.0000
   2419  N7        66.0450   17.1080   37.1940 N.ar  116  G116        0.0000
   2420  C8        66.0020   18.4110   37.1510 C.ar  116  G116        0.0000
   2421  N9        66.7640   18.9400   36.1370 N.ar  116  G116        0.0000
   2422  OP1       64.1550   21.9330   41.1200 O.3   116  G116       -0.5000
   2423  OP2       64.4950   19.4040   40.7340 O.co2 116  G116       -0.5000
   2424  P         62.8440   22.7930   35.0930 P.3   117  A117        0.0000
   2425  C5'       63.3350   22.9880   32.5140 C.3   117  A117        0.0000
   2426  O5'       62.9070   22.1880   33.6190 O.3   117  A117        0.0000
   2427  C4'       63.5990   22.1180   31.3060 C.3   117  A117        0.0000
   2428  O4'       64.6280   21.1580   31.6580 O.3   117  A117        0.0000
   2429  C3'       62.4410   21.2600   30.8070 C.3   117  A117        0.0000
   2430  O3'       61.6330   21.9760   29.8740 O.3   117  A117        0.0000
   2431  C2'       63.1840   20.1520   30.0680 C.3   117  A117        0.0000
   2432  O2'       63.6320   20.5700   28.7930 O.3   117  A117        0.0000
   2433  C1'       64.4000   19.9390   30.9740 C.3   117  A117        0.0000
   2434  N1        65.8300   15.2290   32.4670 N.ar  117  A117        0.0000
   2435  C2        66.2210   16.0090   31.4540 C.ar  117  A117        0.0000
   2436  N3        65.8100   17.2340   31.1250 N.ar  117  A117        0.0000
   2437  C4        64.8730   17.6680   31.9870 C.ar  117  A117        0.0000
   2438  C5        64.3710   16.9830   33.0780 C.ar  117  A117        0.0000
   2439  C6        64.8920   15.6950   33.3190 C.ar  117  A117        0.0000
   2440  N6        64.5200   14.9170   34.3370 N.pl3 117  A117        0.0000
   2441  N7        63.4170   17.7470   33.7390 N.ar  117  A117        0.0000
   2442  C8        63.3640   18.8580   33.0430 C.ar  117  A117        0.0000
   2443  N9        64.2160   18.8760   31.9650 N.ar  117  A117        0.0000
   2444  OP1       62.3410   24.1830   34.9940 O.2   117  A117       -0.5000
   2445  OP2       62.1350   21.8270   35.9740 O.co2 117  A117       -0.5000
   2446  P         60.2140   22.5920   30.3250 P.3   118  C118        0.0000
   2447  C5'       59.3020   20.1980   29.7950 C.3   118  C118        0.0000
   2448  O5'       59.2840   21.3370   30.6310 O.3   118  C118        0.0000
   2449  C4'       59.3610   18.9380   30.6270 C.3   118  C118        0.0000
   2450  O4'       60.2140   19.1690   31.7870 O.3   118  C118        0.0000
   2451  C3'       58.0850   18.4220   31.2730 C.3   118  C118        0.0000
   2452  O3'       57.2730   17.7300   30.3320 O.3   118  C118        0.0000
   2453  C2'       58.6700   17.4530   32.2960 C.3   118  C118        0.0000
   2454  O2'       59.2170   16.2740   31.7360 O.3   118  C118        0.0000
   2455  C1'       59.8440   18.2670   32.8240 C.3   118  C118        0.0000
   2456  N1        59.4520   19.0230   34.0150 N.ar  118  C118        0.0000
   2457  C2        59.2990   18.3210   35.2190 C.ar  118  C118        0.0000
   2458  O2        59.5060   17.0980   35.2290 O.2   118  C118        0.0000
   2459  N3        58.9310   18.9890   36.3330 N.ar  118  C118        0.0000
   2460  C4        58.7180   20.3050   36.2770 C.ar  118  C118        0.0000
   2461  N4        58.3580   20.9210   37.3970 N.pl3 118  C118        0.0000
   2462  C5        58.8680   21.0460   35.0630 C.ar  118  C118        0.0000
   2463  C6        59.2320   20.3700   33.9670 C.ar  118  C118        0.0000
   2464  OP1       59.6600   23.3270   29.1590 O.2   118  C118       -0.5000
   2465  OP2       60.4170   23.3030   31.6160 O.co2 118  C118       -0.5000
   2466  P         55.7010   17.5360   30.6180 P.3   119  U119        0.0000
   2467  C5'       56.1300   15.0900   31.4250 C.3   119  U119        0.0000
   2468  O5'       55.6500   16.3890   31.7210 O.3   119  U119        0.0000
   2469  C4'       56.0330   14.2070   32.6420 C.3   119  U119        0.0000
   2470  O4'       56.8640   14.7480   33.7020 O.3   119  U119        0.0000
   2471  C3'       54.6720   14.1020   33.3010 C.3   119  U119        0.0000
   2472  O3'       53.8270   13.1870   32.6200 O.3   119  U119        0.0000
   2473  C2'       55.0690   13.5770   34.6690 C.3   119  U119        0.0000
   2474  O2'       55.5060   12.2360   34.5760 O.3   119  U119        0.0000
   2475  C1'       56.2910   14.4420   34.9590 C.3   119  U119        0.0000
   2476  N1        55.9730   15.7020   35.6440 N.ar  119  U119        0.0000
   2477  C2        55.6940   15.6490   37.0020 C.ar  119  U119        0.0000
   2478  O2        55.6660   14.6130   37.6310 O.2   119  U119        0.0000
   2479  N3        55.4440   16.8630   37.5930 N.ar  119  U119        0.0000
   2480  C4        55.4370   18.0980   36.9790 C.ar  119  U119        0.0000
   2481  O4        55.2060   19.1010   37.6520 O.2   119  U119        0.0000
   2482  C5        55.7180   18.0710   35.5760 C.ar  119  U119        0.0000
   2483  C6        55.9670   16.9040   34.9700 C.ar  119  U119        0.0000
   2484  OP1       55.0550   16.9910   29.4020 O.2   119  U119       -0.5000
   2485  OP2       55.1990   18.8040   31.2130 O.co2 119  U119       -0.5000
   2486  P         52.2330   13.3600   32.7170 P.3   120  G120        0.0000
   2487  C5'       51.9760   11.5130   34.5260 C.3   120  G120        0.0000
   2488  O5'       51.8850   12.8780   34.1870 O.3   120  G120        0.0000
   2489  C4'       51.4430   11.2990   35.9080 C.3   120  G120        0.0000
   2490  O4'       52.2830   12.0000   36.8600 O.3   120  G120        0.0000
   2491  C3'       50.0510   11.8380   36.1680 C.3   120  G120        0.0000
   2492  O3'       49.1020   10.8750   35.7310 O.3   120  G120        0.0000
   2493  C2'       50.0660   11.9740   37.6880 C.3   120  G120        0.0000
   2494  O2'       49.9210   10.7320   38.3490 O.3   120  G120        0.0000
   2495  C1'       51.4910   12.4730   37.9340 C.3   120  G120        0.0000
   2496  N1        51.0890   16.6680   40.7640 N.ar  120  G120        0.0000
   2497  C2        50.8640   15.3560   41.1110 C.ar  120  G120        0.0000
   2498  N2        50.4740   15.1340   42.3710 N.pl3 120  G120        0.0000
   2499  N3        51.0060   14.3370   40.2800 N.ar  120  G120        0.0000
   2500  C4        51.3810   14.7410   39.0500 C.ar  120  G120        0.0000
   2501  C5        51.6240   16.0230   38.6010 C.ar  120  G120        0.0000
   2502  C6        51.4830   17.1030   39.5050 C.ar  120  G120        0.0000
   2503  O6        51.6660   18.2990   39.3000 O.2   120  G120        0.0000
   2504  N7        51.9920   16.0140   37.2630 N.ar  120  G120        0.0000
   2505  C8        51.9660   14.7500   36.9280 C.ar  120  G120        0.0000
   2506  N9        51.6060   13.9260   37.9670 N.ar  120  G120        0.0000
   2507  OP1       51.6430   12.4070   31.7510 O.2   120  G120       -0.5000
   2508  OP2       51.8830   14.7900   32.6270 O.co2 120  G120       -0.5000
   2509  P         47.5730   11.3040   35.4610 P.3   121  U121        0.0000
   2510  C5'       46.6280   10.9260   37.8840 C.3   121  U121        0.0000
   2511  O5'       47.0460   11.8380   36.8710 O.3   121  U121        0.0000
   2512  C4'       46.2590   11.6670   39.1490 C.3   121  U121        0.0000
   2513  O4'       47.3840   12.4790   39.5620 O.3   121  U121        0.0000
   2514  C3'       45.1270   12.6730   39.0470 C.3   121  U121        0.0000
   2515  O3'       43.8670   12.0470   39.1780 O.3   121  U121        0.0000
   2516  C2'       45.3850   13.5580   40.2520 C.3   121  U121        0.0000
   2517  O2'       44.9680   12.9470   41.4570 O.3   121  U121        0.0000
   2518  C1'       46.9090   13.6320   40.2370 C.3   121  U121        0.0000
   2519  N1        47.4120   14.8250   39.5470 N.ar  121  U121        0.0000
   2520  C2        47.5260   15.9750   40.2910 C.ar  121  U121        0.0000
   2521  O2        47.2210   16.0270   41.4650 O.2   121  U121        0.0000
   2522  N3        48.0150   17.0610   39.6120 N.ar  121  U121        0.0000
   2523  C4        48.3970   17.1110   38.2900 C.ar  121  U121        0.0000
   2524  O4        48.8290   18.1680   37.8270 O.2   121  U121        0.0000
   2525  C5        48.2460   15.8770   37.5780 C.ar  121  U121        0.0000
   2526  C6        47.7670   14.8020   38.2150 C.ar  121  U121        0.0000
   2527  OP1       46.8280   10.0540   35.1510 O.3   121  U121       -0.5000
   2528  OP2       47.5670   12.4280   34.4870 O.co2 121  U121       -0.5000
   2529  P         42.5440   12.8660   38.8030 P.3   122  G122        0.0000
   2530  C5'       41.8530   13.7290   41.1870 C.3   122  G122        0.0000
   2531  O5'       42.4500   13.9930   39.9250 O.3   122  G122        0.0000
   2532  C4'       41.8150   14.9870   42.0200 C.3   122  G122        0.0000
   2533  O4'       43.1610   15.5200   42.1260 O.3   122  G122        0.0000
   2534  C3'       41.0280   16.1520   41.4490 C.3   122  G122        0.0000
   2535  O3'       39.6500   16.0460   41.7490 O.3   122  G122        0.0000
   2536  C2'       41.6480   17.3320   42.1760 C.3   122  G122        0.0000
   2537  O2'       41.2090   17.4290   43.5090 O.3   122  G122        0.0000
   2538  C1'       43.1170   16.9330   42.1660 C.3   122  G122        0.0000
   2539  N1        45.2370   20.9630   39.9510 N.ar  122  G122        0.0000
   2540  C2        44.6040   20.8660   41.1670 C.ar  122  G122        0.0000
   2541  N2        44.5410   21.9810   41.9080 N.pl3 122  G122        0.0000
   2542  N3        44.0750   19.7560   41.6290 N.ar  122  G122        0.0000
   2543  C4        44.2340   18.7270   40.7780 C.ar  122  G122        0.0000
   2544  C5        44.8470   18.7150   39.5470 C.ar  122  G122        0.0000
   2545  C6        45.4090   19.9160   39.0540 C.ar  122  G122        0.0000
   2546  O6        45.9960   20.1100   37.9820 O.2   122  G122        0.0000
   2547  N7        44.7940   17.4470   38.9840 N.ar  122  G122        0.0000
   2548  C8        44.1670   16.7220   39.8730 C.ar  122  G122        0.0000
   2549  N9        43.8070   17.4360   40.9870 N.ar  122  G122        0.0000
   2550  OP1       41.3570   11.9880   38.9190 O.3   122  G122       -0.5000
   2551  OP2       42.8560   13.5210   37.5100 O.co2 122  G122       -0.5000
   2552  P         38.5730   16.5960   40.7000 P.3   123  G123        0.0000
   2553  C5'       38.2970   18.8120   42.0800 C.3   123  G123        0.0000
   2554  O5'       38.6350   18.1800   40.8530 O.3   123  G123        0.0000
   2555  C4'       38.7960   20.2410   42.0940 C.3   123  G123        0.0000
   2556  O4'       40.2410   20.2530   41.9260 O.3   123  G123        0.0000
   2557  C3'       38.2920   21.1550   40.9840 C.3   123  G123        0.0000
   2558  O3'       36.9970   21.6930   41.2780 O.3   123  G123        0.0000
   2559  C2'       39.3550   22.2430   40.9850 C.3   123  G123        0.0000
   2560  O2'       39.1820   23.1590   42.0390 O.3   123  G123        0.0000
   2561  C1'       40.6260   21.4330   41.2420 C.3   123  G123        0.0000
   2562  N1        43.4390   23.0490   37.3400 N.ar  123  G123        0.0000
   2563  C2        43.0120   23.7360   38.4400 C.ar  123  G123        0.0000
   2564  N2        43.3720   25.0160   38.4880 N.pl3 123  G123        0.0000
   2565  N3        42.2900   23.2050   39.4140 N.ar  123  G123        0.0000
   2566  C4        42.0250   21.9010   39.1850 C.ar  123  G123        0.0000
   2567  C5        42.4090   21.1240   38.1150 C.ar  123  G123        0.0000
   2568  C6        43.1840   21.7100   37.0890 C.ar  123  G123        0.0000
   2569  O6        43.6300   21.1830   36.0680 O.2   123  G123        0.0000
   2570  N7        41.9380   19.8270   38.2530 N.ar  123  G123        0.0000
   2571  C8        41.2860   19.8360   39.3850 C.ar  123  G123        0.0000
   2572  N9        41.2890   21.0650   39.9960 N.ar  123  G123        0.0000
   2573  OP1       37.2490   16.1110   41.1540 O.3   123  G123       -0.5000
   2574  OP2       39.0570   16.2590   39.3370 O.co2 123  G123       -0.5000
   2575  P         35.9810   22.0540   40.0720 P.3   124  C124        0.0000
   2576  C5'       36.8210   24.5290   40.0790 C.3   124  C124        0.0000
   2577  O5'       36.6430   23.3190   39.3630 O.3   124  C124        0.0000
   2578  C4'       37.5610   25.5330   39.2430 C.3   124  C124        0.0000
   2579  O4'       38.9240   25.1040   39.0280 O.3   124  C124        0.0000
   2580  C3'       37.0480   25.7640   37.8390 C.3   124  C124        0.0000
   2581  O3'       35.9190   26.6190   37.8740 O.3   124  C124        0.0000
   2582  C2'       38.2460   26.4580   37.2050 C.3   124  C124        0.0000
   2583  O2'       38.3380   27.8120   37.5970 O.3   124  C124        0.0000
   2584  C1'       39.4080   25.6770   37.8240 C.3   124  C124        0.0000
   2585  N1        39.8740   24.5920   36.9550 N.ar  124  C124        0.0000
   2586  C2        40.8040   24.8750   35.9460 C.ar  124  C124        0.0000
   2587  O2        41.2470   26.0280   35.8350 O.2   124  C124        0.0000
   2588  N3        41.1930   23.8860   35.1210 N.ar  124  C124        0.0000
   2589  C4        40.6930   22.6530   35.2710 C.ar  124  C124        0.0000
   2590  N4        41.0810   21.7040   34.4130 N.pl3 124  C124        0.0000
   2591  C5        39.7650   22.3350   36.3030 C.ar  124  C124        0.0000
   2592  C6        39.3880   23.3250   37.1150 C.ar  124  C124        0.0000
   2593  OP1       34.6880   22.4750   40.6670 O.3   124  C124       -0.5000
   2594  OP2       36.0020   20.9510   39.0810 O.co2 124  C124       -0.5000
   2595  P         34.9120   26.6570   36.6330 P.3   125  A125        0.0000
   2596  C5'       35.5650   29.0650   35.8260 C.3   125  A125        0.0000
   2597  O5'       35.6070   27.6570   35.6060 O.3   125  A125        0.0000
   2598  C4'       36.0350   29.8120   34.5960 C.3   125  A125        0.0000
   2599  O4'       37.4690   29.6670   34.4360 O.3   125  A125        0.0000
   2600  C3'       35.4630   29.3560   33.2670 C.3   125  A125        0.0000
   2601  O3'       34.1870   29.9280   33.0390 O.3   125  A125        0.0000
   2602  C2'       36.4970   29.8990   32.2910 C.3   125  A125        0.0000
   2603  O2'       36.3540   31.2830   32.0400 O.3   125  A125        0.0000
   2604  C1'       37.7920   29.6390   33.0590 C.3   125  A125        0.0000
   2605  N1        40.5030   26.8760   29.7120 N.ar  125  A125        0.0000
   2606  C2        40.1340   28.1640   29.7320 C.ar  125  A125        0.0000
   2607  N3        39.4240   28.8200   30.6410 N.ar  125  A125        0.0000
   2608  C4        39.0660   27.9980   31.6410 C.ar  125  A125        0.0000
   2609  C5        39.3620   26.6530   31.7600 C.ar  125  A125        0.0000
   2610  C6        40.1260   26.0790   30.7340 C.ar  125  A125        0.0000
   2611  N6        40.4980   24.8000   30.7150 N.pl3 125  A125        0.0000
   2612  N7        38.8190   26.1320   32.9230 N.ar  125  A125        0.0000
   2613  C8        38.2210   27.1590   33.4750 C.ar  125  A125        0.0000
   2614  N9        38.3320   28.3190   32.7520 N.ar  125  A125        0.0000
   2615  OP1       33.6570   27.2690   37.1080 O.3   125  A125       -0.5000
   2616  OP2       34.8830   25.3120   36.0250 O.co2 125  A125       -0.5000
   2617  P         33.1930   29.2590   31.9740 P.3   126  U126        0.0000
   2618  C5'       34.2100   30.5770   29.9430 C.3   126  U126        0.0000
   2619  O5'       33.9790   29.3400   30.5940 O.3   126  U126        0.0000
   2620  C4'       35.0770   30.3600   28.7260 C.3   126  U126        0.0000
   2621  O4'       36.3060   29.7120   29.1440 O.3   126  U126        0.0000
   2622  C3'       34.5130   29.4310   27.6630 C.3   126  U126        0.0000
   2623  O3'       33.6750   30.1580   26.7690 O.3   126  U126        0.0000
   2624  C2'       35.7800   28.9440   26.9700 C.3   126  U126        0.0000
   2625  O2'       36.3050   29.9130   26.0900 O.3   126  U126        0.0000
   2626  C1'       36.7360   28.8020   28.1510 C.3   126  U126        0.0000
   2627  N1        36.7510   27.4660   28.7570 N.ar  126  U126        0.0000
   2628  C2        37.4700   26.4700   28.1290 C.ar  126  U126        0.0000
   2629  O2        38.0530   26.6420   27.0710 O.2   126  U126        0.0000
   2630  N3        37.4790   25.2660   28.7870 N.ar  126  U126        0.0000
   2631  C4        36.8450   24.9670   29.9740 C.ar  126  U126        0.0000
   2632  O4        36.9640   23.8450   30.4620 O.2   126  U126        0.0000
   2633  C5        36.1050   26.0460   30.5420 C.ar  126  U126        0.0000
   2634  C6        36.0830   27.2270   29.9310 C.ar  126  U126        0.0000
   2635  OP1       31.9760   30.0980   31.8920 O.2   126  U126       -0.5000
   2636  OP2       33.0670   27.8200   32.2940 O.co2 126  U126       -0.5000
   2637  P         32.6250   29.3740   25.8400 P.3   127  A127        0.0000
   2638  C5'       32.8920   28.1890   23.5120 C.3   127  A127        0.0000
   2639  O5'       33.5070   28.7670   24.6590 O.3   127  A127        0.0000
   2640  C4'       33.9200   27.9210   22.4320 C.3   127  A127        0.0000
   2641  O4'       34.8970   26.9580   22.9070 O.3   127  A127        0.0000
   2642  C3'       33.3610   27.2980   21.1620 C.3   127  A127        0.0000
   2643  O3'       32.9130   28.3200   20.2900 O.3   127  A127        0.0000
   2644  C2'       34.5630   26.5610   20.5890 C.3   127  A127        0.0000
   2645  O2'       35.4530   27.4230   19.9080 O.3   127  A127        0.0000
   2646  C1'       35.2370   26.0630   21.8620 C.3   127  A127        0.0000
   2647  N1        36.1410   21.0330   21.4710 N.ar  127  A127        0.0000
   2648  C2        36.6120   22.0860   20.7850 C.ar  127  A127        0.0000
   2649  N3        36.3020   23.3700   20.9030 N.ar  127  A127        0.0000
   2650  C4        35.3780   23.5410   21.8610 C.ar  127  A127        0.0000
   2651  C5        34.7930   22.5590   22.6410 C.ar  127  A127        0.0000
   2652  C6        35.2140   21.2430   22.4280 C.ar  127  A127        0.0000
   2653  N6        34.7570   20.1950   23.1180 N.pl3 127  A127        0.0000
   2654  N7        33.8700   23.1120   23.5140 N.ar  127  A127        0.0000
   2655  C8        33.9300   24.3960   23.2600 C.ar  127  A127        0.0000
   2656  N9        34.8460   24.7270   22.2940 N.ar  127  A127        0.0000
   2657  OP1       31.6890   30.3590   25.2470 O.2   127  A127       -0.5000
   2658  OP2       32.1000   28.2740   26.6730 O.co2 127  A127       -0.5000
   2659  P         31.4440   28.2280   19.6700 P.3   128  G128        0.0000
   2660  C5'       32.4770   27.6770   17.3340 C.3   128  G128        0.0000
   2661  O5'       31.6220   27.2930   18.3950 O.3   128  G128        0.0000
   2662  C4'       33.0500   26.4570   16.6720 C.3   128  G128        0.0000
   2663  O4'       33.7970   25.6810   17.6470 O.3   128  G128        0.0000
   2664  C3'       32.0390   25.4580   16.1440 C.3   128  G128        0.0000
   2665  O3'       31.5370   25.8960   14.8860 O.3   128  G128        0.0000
   2666  C2'       32.8990   24.2040   16.0360 C.3   128  G128        0.0000
   2667  O2'       33.7830   24.2730   14.9290 O.3   128  G128        0.0000
   2668  C1'       33.7260   24.3060   17.3180 C.3   128  G128        0.0000
   2669  N1        33.4150   19.9330   19.9160 N.ar  128  G128        0.0000
   2670  C2        34.1300   20.2190   18.7860 C.ar  128  G128        0.0000
   2671  N2        34.8520   19.2100   18.2950 N.pl3 128  G128        0.0000
   2672  N3        34.1390   21.4030   18.1860 N.ar  128  G128        0.0000
   2673  C4        33.3550   22.2980   18.8250 C.ar  128  G128        0.0000
   2674  C5        32.6020   22.1150   19.9640 C.ar  128  G128        0.0000
   2675  C6        32.6090   20.8330   20.5980 C.ar  128  G128        0.0000
   2676  O6        32.0160   20.4670   21.6250 O.2   128  G128        0.0000
   2677  N7        31.9380   23.2850   20.3050 N.ar  128  G128        0.0000
   2678  C8        32.2910   24.1410   19.3850 C.ar  128  G128        0.0000
   2679  N9        33.1470   23.6110   18.4580 N.ar  128  G128        0.0000
   2680  OP1       31.0200   29.5790   19.2060 O.2   128  G128       -0.5000
   2681  OP2       30.6220   27.4780   20.6640 O.co2 128  G128       -0.5000
   2682  P         30.1730   25.2720   14.3130 P.3   129  A129        0.0000
   2683  C5'       31.4000   23.5660   12.7580 C.3   129  A129        0.0000
   2684  O5'       30.5970   23.7960   13.9040 O.3   129  A129        0.0000
   2685  C4'       31.7000   22.0970   12.6280 C.3   129  A129        0.0000
   2686  O4'       32.4360   21.6540   13.7990 O.3   129  A129        0.0000
   2687  C3'       30.5040   21.1690   12.6160 C.3   129  A129        0.0000
   2688  O3'       29.9360   21.0970   11.3260 O.3   129  A129        0.0000
   2689  C2'       31.1510   19.8460   12.9820 C.3   129  A129        0.0000
   2690  O2'       31.8640   19.3010   11.8900 O.3   129  A129        0.0000
   2691  C1'       32.1330   20.2950   14.0640 C.3   129  A129        0.0000
   2692  N1        31.6670   17.4210   18.2910 N.ar  129  A129        0.0000
   2693  C2        32.3000   17.2200   17.1390 C.ar  129  A129        0.0000
   2694  N3        32.3850   18.0140   16.0750 N.ar  129  A129        0.0000
   2695  C4        31.7080   19.1570   16.2780 C.ar  129  A129        0.0000
   2696  C5        31.0070   19.5110   17.4140 C.ar  129  A129        0.0000
   2697  C6        30.9950   18.5790   18.4680 C.ar  129  A129        0.0000
   2698  N6        30.3570   18.7770   19.6240 N.pl3 129  A129        0.0000
   2699  N7        30.4360   20.7700   17.2650 N.ar  129  A129        0.0000
   2700  C8        30.7980   21.1400   16.0610 C.ar  129  A129        0.0000
   2701  N9        31.5690   20.2100   15.4070 N.ar  129  A129        0.0000
   2702  OP1       29.8190   26.0160   13.0820 O.2   129  A129       -0.5000
   2703  OP2       29.1920   25.1790   15.4210 O.co2 129  A129       -0.5000
   2704  P         28.5420   20.3320   11.1180 P.3   130  G130        0.0000
   2705  C5'       27.9620   17.8370   10.5390 C.3   130  G130        0.0000
   2706  O5'       28.9290   18.7840   10.9870 O.3   130  G130        0.0000
   2707  C4'       28.5300   16.4250   10.4520 C.3   130  G130        0.0000
   2708  O4'       29.4830   16.2910    9.3540 O.3   130  G130        0.0000
   2709  C3'       29.3070   16.0530   11.7100 C.3   130  G130        0.0000
   2710  O3'       28.9570   14.7700   12.1830 O.3   130  G130        0.0000
   2711  C2'       30.7890   16.2210   11.3720 C.3   130  G130        0.0000
   2712  O2'       31.5660   15.1700   11.9000 O.3   130  G130        0.0000
   2713  C1'       30.7630   16.0020    9.8680 C.3   130  G130        0.0000
   2714  N1        33.1750   20.0080    7.8540 N.ar  130  G130        0.0000
   2715  C2        32.1420   19.9860    8.7680 C.ar  130  G130        0.0000
   2716  N2        31.6940   21.1820    9.1960 N.pl3 130  G130        0.0000
   2717  N3        31.5900   18.8740    9.2320 N.ar  130  G130        0.0000
   2718  C4        32.1680   17.7730    8.7120 C.ar  130  G130        0.0000
   2719  C5        33.2080   17.6890    7.8020 C.ar  130  G130        0.0000
   2720  C6        33.7830   18.8790    7.3080 C.ar  130  G130        0.0000
   2721  O6        34.7090   19.0030    6.4970 O.2   130  G130        0.0000
   2722  N7        33.5150   16.3660    7.5230 N.ar  130  G130        0.0000
   2723  C8        32.6690   15.6840    8.2460 C.ar  130  G130        0.0000
   2724  N9        31.8200   16.4780    8.9840 N.ar  130  G130        0.0000
   2725  OP1       28.0180   20.8330    9.8200 O.2   130  G130       -0.5000
   2726  OP2       27.7460   20.5060   12.3600 O.co2 130  G130       -0.5000
   2727  P         27.7460   14.6020   13.1970 P.3   131  C131        0.0000
   2728  C5'       28.8180   14.1900   15.5490 C.3   131  C131        0.0000
   2729  O5'       28.3360   15.1100   14.5810 O.3   131  C131        0.0000
   2730  C4'       28.4560   14.6740   16.9240 C.3   131  C131        0.0000
   2731  O4'       29.0730   15.9690   17.1440 O.3   131  C131        0.0000
   2732  C3'       26.9760   14.9380   17.1060 C.3   131  C131        0.0000
   2733  O3'       26.3130   13.7270   17.4560 O.3   131  C131        0.0000
   2734  C2'       26.9770   15.9500   18.2410 C.3   131  C131        0.0000
   2735  O2'       27.2130   15.3270   19.4840 O.3   131  C131        0.0000
   2736  C1'       28.2000   16.7950   17.8860 C.3   131  C131        0.0000
   2737  N1        27.9050   17.9930   17.0840 N.ar  131  C131        0.0000
   2738  C2        27.2670   19.0720   17.7020 C.ar  131  C131        0.0000
   2739  O2        26.9570   18.9750   18.8960 O.2   131  C131        0.0000
   2740  N3        27.0030   20.1880   16.9860 N.ar  131  C131        0.0000
   2741  C4        27.3470   20.2470   15.6980 C.ar  131  C131        0.0000
   2742  N4        27.0620   21.3660   15.0290 N.pl3 131  C131        0.0000
   2743  C5        27.9970   19.1570   15.0380 C.ar  131  C131        0.0000
   2744  C6        28.2520   18.0610   15.7630 C.ar  131  C131        0.0000
   2745  OP1       27.4640   13.1470   13.3180 O.3   131  C131       -0.5000
   2746  OP2       26.6750   15.5340   12.7540 O.co2 131  C131       -0.5000
   2747  P         24.7960   13.4780   16.9850 P.3   132  A132        0.0000
   2748  C5'       23.7490   14.2530   19.2570 C.3   132  A132        0.0000
   2749  O5'       23.9460   14.4980   17.8650 O.3   132  A132        0.0000
   2750  C4'       22.8690   15.3150   19.8600 C.3   132  A132        0.0000
   2751  O4'       23.5580   16.5880   19.8400 O.3   132  A132        0.0000
   2752  C3'       21.5830   15.5960   19.1080 C.3   132  A132        0.0000
   2753  O3'       20.5770   14.6580   19.4620 O.3   132  A132        0.0000
   2754  C2'       21.2360   16.9940   19.5980 C.3   132  A132        0.0000
   2755  O2'       20.6640   16.9920   20.8870 O.3   132  A132        0.0000
   2756  C1'       22.6180   17.6330   19.6790 C.3   132  A132        0.0000
   2757  N1        21.9900   22.0040   17.0720 N.ar  132  A132        0.0000
   2758  C2        21.5040   21.5710   18.2440 C.ar  132  A132        0.0000
   2759  N3        21.6990   20.4060   18.8620 N.ar  132  A132        0.0000
   2760  C4        22.5100   19.6190   18.1380 C.ar  132  A132        0.0000
   2761  C5        23.0850   19.9180   16.9160 C.ar  132  A132        0.0000
   2762  C6        22.7970   21.1850   16.3670 C.ar  132  A132        0.0000
   2763  N6        23.2750   21.6170   15.2000 N.pl3 132  A132        0.0000
   2764  N7        23.8610   18.8560   16.4690 N.ar  132  A132        0.0000
   2765  C8        23.7440   17.9570   17.4200 C.ar  132  A132        0.0000
   2766  N9        22.9480   18.3580   18.4610 N.ar  132  A132        0.0000
   2767  OP1       24.4360   12.1100   17.4190 O.3   132  A132       -0.5000
   2768  OP2       24.6960   13.8480   15.5450 O.co2 132  A132       -0.5000
   2769  P         19.3270   14.4270   18.4810 P.3   133  G133        0.0000
   2770  C5'       17.9130   16.2040   19.7840 C.3   133  G133        0.0000
   2771  O5'       18.5110   15.7910   18.5660 O.3   133  G133        0.0000
   2772  C4'       17.2570   17.5460   19.6030 C.3   133  G133        0.0000
   2773  O4'       18.2670   18.5580   19.3430 O.3   133  G133        0.0000
   2774  C3'       16.3430   17.6390   18.3980 C.3   133  G133        0.0000
   2775  O3'       15.0630   17.0950   18.6720 O.3   133  G133        0.0000
   2776  C2'       16.2870   19.1400   18.1620 C.3   133  G133        0.0000
   2777  O2'       15.3900   19.7850   19.0400 O.3   133  G133        0.0000
   2778  C1'       17.7330   19.5440   18.4710 C.3   133  G133        0.0000
   2779  N1        19.2410   22.4030   14.5590 N.ar  133  G133        0.0000
   2780  C2        18.3580   22.7010   15.5710 C.ar  133  G133        0.0000
   2781  N2        17.8060   23.9230   15.5400 N.pl3 133  G133        0.0000
   2782  N3        18.0390   21.8620   16.5430 N.ar  133  G133        0.0000
   2783  C4        18.6830   20.6810   16.4210 C.ar  133  G133        0.0000
   2784  C5        19.5780   20.2830   15.4490 C.ar  133  G133        0.0000
   2785  C6        19.9120   21.1940   14.4130 C.ar  133  G133        0.0000
   2786  O6        20.6860   21.0270   13.4590 O.2   133  G133        0.0000
   2787  N7        20.0110   18.9850   15.6790 N.ar  133  G133        0.0000
   2788  C8        19.3890   18.6250   16.7700 C.ar  133  G133        0.0000
   2789  N9        18.5690   19.6080   17.2730 N.ar  133  G133        0.0000
   2790  OP1       18.4900   13.3370   19.0500 O.3   133  G133       -0.5000
   2791  OP2       19.8720   14.3010   17.1040 O.co2 133  G133       -0.5000
   2792  P         14.1910   16.4860   17.4680 P.3   134  U134        0.0000
   2793  C5'       12.7410   18.6450   17.2870 C.3   134  U134        0.0000
   2794  O5'       13.6810   17.7720   16.6860 O.3   134  U134        0.0000
   2795  C4'       12.5520   19.8640   16.4320 C.3   134  U134        0.0000
   2796  O4'       13.8200   20.5550   16.3210 O.3   134  U134        0.0000
   2797  C3'       12.1630   19.6110   14.9860 C.3   134  U134        0.0000
   2798  O3'       10.7620   19.4130   14.8610 O.3   134  U134        0.0000
   2799  C2'       12.5850   20.9140   14.3250 C.3   134  U134        0.0000
   2800  O2'       11.6610   21.9470   14.5810 O.3   134  U134        0.0000
   2801  C1'       13.8840   21.2220   15.0720 C.3   134  U134        0.0000
   2802  N1        15.0830   20.7650   14.3590 N.ar  134  U134        0.0000
   2803  C2        15.6400   21.6300   13.4430 C.ar  134  U134        0.0000
   2804  O2        15.1780   22.7290   13.2130 O.2   134  U134        0.0000
   2805  N3        16.7600   21.1610   12.8070 N.ar  134  U134        0.0000
   2806  C4        17.3650   19.9380   12.9880 C.ar  134  U134        0.0000
   2807  O4        18.3750   19.6620   12.3370 O.2   134  U134        0.0000
   2808  C5        16.7270   19.0930   13.9550 C.ar  134  U134        0.0000
   2809  C6        15.6330   19.5270   14.5930 C.ar  134  U134        0.0000
   2810  OP1       13.0160   15.8290   18.0840 O.3   134  U134       -0.5000
   2811  OP2       15.0730   15.7080   16.5650 O.co2 134  U134       -0.5000
   2812  P         10.1860   18.5860   13.6080 P.3   135  C135        0.0000
   2813  C5'        9.6180   20.7010   12.1800 C.3   135  C135        0.0000
   2814  O5'       10.4250   19.5490   12.3620 O.3   135  C135        0.0000
   2815  C4'       10.2300   21.6100   11.1510 C.3   135  C135        0.0000
   2816  O4'       11.6010   21.9010   11.5370 O.3   135  C135        0.0000
   2817  C3'       10.3810   21.0470    9.7490 C.3   135  C135        0.0000
   2818  O3'        9.1600   21.1410    9.0220 O.3   135  C135        0.0000
   2819  C2'       11.4520   21.9670    9.1690 C.3   135  C135        0.0000
   2820  O2'       10.9490   23.2330    8.7760 O.3   135  C135        0.0000
   2821  C1'       12.3810   22.1430   10.3740 C.3   135  C135        0.0000
   2822  N1        13.5020   21.1930   10.3540 N.ar  135  C135        0.0000
   2823  C2        14.5400   21.3910    9.4300 C.ar  135  C135        0.0000
   2824  O2        14.5000   22.3780    8.6830 O.2   135  C135        0.0000
   2825  N3        15.5560   20.5020    9.3790 N.ar  135  C135        0.0000
   2826  C4        15.5650   19.4550   10.2070 C.ar  135  C135        0.0000
   2827  N4        16.5810   18.6000   10.1170 N.pl3 135  C135        0.0000
   2828  C5        14.5310   19.2390   11.1650 C.ar  135  C135        0.0000
   2829  C6        13.5300   20.1250   11.2060 C.ar  135  C135        0.0000
   2830  OP1        8.7170   18.4570   13.8230 O.3   135  C135       -0.5000
   2831  OP2       11.0140   17.3620   13.4170 O.co2 135  C135       -0.5000
   2832  P          8.8060   20.0360    7.9040 P.3   136  C136        0.0000
   2833  C5'        9.3350   21.7520    6.0020 C.3   136  C136        0.0000
   2834  O5'        9.6020   20.4980    6.6060 O.3   136  C136        0.0000
   2835  C4'       10.4400   22.1060    5.0450 C.3   136  C136        0.0000
   2836  O4'       11.6940   22.1740    5.7760 O.3   136  C136        0.0000
   2837  C3'       10.7280   21.0670    3.9790 C.3   136  C136        0.0000
   2838  O3'        9.8200   21.1460    2.8900 O.3   136  C136        0.0000
   2839  C2'       12.1490   21.4280    3.5710 C.3   136  C136        0.0000
   2840  O2'       12.2170   22.5400    2.7010 O.3   136  C136        0.0000
   2841  C1'       12.7600   21.7810    4.9270 C.3   136  C136        0.0000
   2842  N1        13.4470   20.6330    5.5360 N.ar  136  C136        0.0000
   2843  C2        14.6990   20.2610    5.0290 C.ar  136  C136        0.0000
   2844  O2        15.1770   20.9060    4.0860 O.2   136  C136        0.0000
   2845  N3        15.3500   19.2140    5.5730 N.ar  136  C136        0.0000
   2846  C4        14.8000   18.5450    6.5830 C.ar  136  C136        0.0000
   2847  N4        15.4870   17.5230    7.0930 N.pl3 136  C136        0.0000
   2848  C5        13.5200   18.8950    7.1170 C.ar  136  C136        0.0000
   2849  C6        12.8860   19.9380    6.5690 C.ar  136  C136        0.0000
   2850  OP1        7.3550   20.1600    7.6230 O.2   136  C136       -0.5000
   2851  OP2        9.3620   18.7310    8.3300 O.co2 136  C136       -0.5000
   2852  P          9.3040   19.7900    2.1940 P.3   137  G137        0.0000
   2853  C5'       11.4090   19.7060    0.6130 C.3   137  G137        0.0000
   2854  O5'       10.6460   19.1050    1.6640 O.3   137  G137        0.0000
   2855  C4'       12.6870   18.9280    0.3690 C.3   137  G137        0.0000
   2856  O4'       13.5340   19.0110    1.5460 O.3   137  G137        0.0000
   2857  C3'       12.5290   17.4340    0.1090 C.3   137  G137        0.0000
   2858  O3'       12.2790   17.1680   -1.2720 O.3   137  G137        0.0000
   2859  C2'       13.8920   16.9000    0.5270 C.3   137  G137        0.0000
   2860  O2'       14.8740   17.1140   -0.4660 O.3   137  G137        0.0000
   2861  C1'       14.1990   17.7780    1.7400 C.3   137  G137        0.0000
   2862  N1        15.3180   14.7890    5.6840 N.ar  137  G137        0.0000
   2863  C2        16.0710   15.0750    4.5710 C.ar  137  G137        0.0000
   2864  N2        17.2860   14.4950    4.5040 N.pl3 137  G137        0.0000
   2865  N3        15.6640   15.8710    3.5930 N.ar  137  G137        0.0000
   2866  C4        14.4250   16.3590    3.8200 C.ar  137  G137        0.0000
   2867  C5        13.5940   16.1310    4.8950 C.ar  137  G137        0.0000
   2868  C6        14.0420   15.2850    5.9360 C.ar  137  G137        0.0000
   2869  O6        13.4550   14.9720    6.9720 O.2   137  G137        0.0000
   2870  N7        12.4010   16.8230    4.7520 N.ar  137  G137        0.0000
   2871  C8        12.5260   17.4470    3.6130 C.ar  137  G137        0.0000
   2872  N9        13.7320   17.2150    3.0010 N.ar  137  G137        0.0000
   2873  OP1        8.4900   20.1750    1.0060 O.2   137  G137       -0.5000
   2874  OP2        8.7040   18.9330    3.2580 O.co2 137  G137       -0.5000
   2875  P         10.8900   16.4810   -1.7220 P.3   138  G138        0.0000
   2876  C5'       11.8020   14.0170   -1.4750 C.3   138  G138        0.0000
   2877  O5'       11.3110   15.0570   -2.3260 O.3   138  G138        0.0000
   2878  C4'       12.3430   12.8460   -2.2820 C.3   138  G138        0.0000
   2879  O4'       13.1440   12.0220   -1.4010 O.3   138  G138        0.0000
   2880  C3'       11.2410   11.9310   -2.8370 C.3   138  G138        0.0000
   2881  O3'       11.5660   11.4500   -4.1540 O.3   138  G138        0.0000
   2882  C2'       11.0970   10.8080   -1.8120 C.3   138  G138        0.0000
   2883  O2'       10.8390    9.5640   -2.4320 O.3   138  G138        0.0000
   2884  C1'       12.5000   10.7880   -1.1980 C.3   138  G138        0.0000
   2885  N1        15.7780    8.4210    1.7730 N.ar  138  G138        0.0000
   2886  C2        15.8730    8.7720    0.4510 C.ar  138  G138        0.0000
   2887  N2        16.9990    8.4180   -0.1790 N.pl3 138  G138        0.0000
   2888  N3        14.9350    9.4180   -0.2060 N.ar  138  G138        0.0000
   2889  C4        13.8680    9.6860    0.5690 C.ar  138  G138        0.0000
   2890  C5        13.6680    9.3850    1.8930 C.ar  138  G138        0.0000
   2891  C6        14.6910    8.6940    2.5970 C.ar  138  G138        0.0000
   2892  O6        14.7130    8.3400    3.7850 O.2   138  G138        0.0000
   2893  N7        12.4300    9.8470    2.3190 N.ar  138  G138        0.0000
   2894  C8        11.9130   10.4040    1.2570 C.ar  138  G138        0.0000
   2895  N9        12.7330   10.3270    0.1620 N.ar  138  G138        0.0000
   2896  OP1       10.3420   17.3080   -2.8310 O.2   138  G138       -0.5000
   2897  OP2       10.0710   16.2560   -0.4940 O.co2 138  G138       -0.5000
   2898  P         10.4100   11.1420   -5.2300 P.3   139  G139        0.0000
   2899  C5'       11.4000    8.6860   -5.2340 C.3   139  G139        0.0000
   2900  O5'       10.2780    9.5520   -5.3590 O.3   139  G139        0.0000
   2901  C4'       11.9290    8.2570   -6.5970 C.3   139  G139        0.0000
   2902  O4'       13.1470    7.5100   -6.3390 O.3   139  G139        0.0000
   2903  C3'       11.0970    7.3240   -7.4850 C.3   139  G139        0.0000
   2904  O3'       10.2360    8.0440   -8.3720 O.3   139  G139        0.0000
   2905  C2'       12.1780    6.6380   -8.3100 C.3   139  G139        0.0000
   2906  O2'       12.6980    7.4630   -9.3320 O.3   139  G139        0.0000
   2907  C1'       13.2760    6.4590   -7.2720 C.3   139  G139        0.0000
   2908  N1        14.7270    1.6280   -7.2790 N.ar  139  G139        0.0000
   2909  C2        14.9260    2.6090   -8.2190 C.ar  139  G139        0.0000
   2910  N2        15.6330    2.2590   -9.2970 N.pl3 139  G139        0.0000
   2911  N3        14.4680    3.8400   -8.1090 N.ar  139  G139        0.0000
   2912  C4        13.7840    4.0210   -6.9630 C.ar  139  G139        0.0000
   2913  C5        13.5220    3.1130   -5.9590 C.ar  139  G139        0.0000
   2914  C6        14.0210    1.7890   -6.0930 C.ar  139  G139        0.0000
   2915  O6        13.8980    0.8370   -5.3200 O.2   139  G139        0.0000
   2916  N7        12.7770    3.7020   -4.9430 N.ar  139  G139        0.0000
   2917  C8        12.6120    4.9350   -5.3430 C.ar  139  G139        0.0000
   2918  N9        13.2130    5.1930   -6.5540 N.ar  139  G139        0.0000
   2919  OP1       10.8940   11.6690   -6.5330 O.2   139  G139       -0.5000
   2920  OP2        9.1250   11.6320   -4.6670 O.co2 139  G139       -0.5000
   2921  P          9.1120    7.2600   -9.2440 P.3   140  C140        0.0000
   2922  C5'       10.2390    6.5980  -11.5280 C.3   140  C140        0.0000
   2923  O5'        9.9110    6.2490  -10.1850 O.3   140  C140        0.0000
   2924  C4'       10.7760    5.3920  -12.2680 C.3   140  C140        0.0000
   2925  O4'       11.8530    4.7950  -11.4940 O.3   140  C140        0.0000
   2926  C3'        9.8210    4.2260  -12.4620 C.3   140  C140        0.0000
   2927  O3'        8.9520    4.4300  -13.5670 O.3   140  C140        0.0000
   2928  C2'       10.7880    3.0820  -12.7360 C.3   140  C140        0.0000
   2929  O2'       11.3080    3.1160  -14.0490 O.3   140  C140        0.0000
   2930  C1'       11.9050    3.3980  -11.7450 C.3   140  C140        0.0000
   2931  N1        11.7270    2.6780  -10.4750 N.ar  140  C140        0.0000
   2932  C2        12.2910    1.3950  -10.3330 C.ar  140  C140        0.0000
   2933  O2        12.9480    0.9160  -11.2660 O.2   140  C140        0.0000
   2934  N3        12.1070    0.7160   -9.1830 N.ar  140  C140        0.0000
   2935  C4        11.4030    1.2640   -8.1900 C.ar  140  C140        0.0000
   2936  N4        11.2490    0.5520   -7.0700 N.pl3 140  C140        0.0000
   2937  C5        10.8280    2.5690   -8.3010 C.ar  140  C140        0.0000
   2938  C6        11.0150    3.2330   -9.4500 C.ar  140  C140        0.0000
   2939  OP1        8.4900    8.2870  -10.1260 O.2   140  C140       -0.5000
   2940  OP2        8.2540    6.4500   -8.3370 O.co2 140  C140       -0.5000
   2941  P          7.6850    3.4590  -13.7680 P.3   141  A141        0.0000
   2942  C5'        8.9560    1.6350  -15.1510 C.3   141  A141        0.0000
   2943  O5'        8.3270    2.0130  -13.9360 O.3   141  A141        0.0000
   2944  C4'        9.3440    0.1840  -15.0980 C.3   141  A141        0.0000
   2945  O4'       10.2880   -0.0070  -14.0150 O.3   141  A141        0.0000
   2946  C3'        8.2190   -0.7690  -14.7400 C.3   141  A141        0.0000
   2947  O3'        7.4100   -1.0840  -15.8630 O.3   141  A141        0.0000
   2948  C2'        8.9890   -1.9800  -14.2350 C.3   141  A141        0.0000
   2949  O2'        9.5410   -2.7620  -15.2760 O.3   141  A141        0.0000
   2950  C1'       10.1170   -1.3020  -13.4600 C.3   141  A141        0.0000
   2951  N1        10.1720   -3.6740   -8.9230 N.ar  141  A141        0.0000
   2952  C2        10.5410   -4.0570  -10.1500 C.ar  141  A141        0.0000
   2953  N3        10.4990   -3.3790  -11.2940 N.ar  141  A141        0.0000
   2954  C4         9.9980   -2.1480  -11.0970 C.ar  141  A141        0.0000
   2955  C5         9.5710   -1.6090   -9.8980 C.ar  141  A141        0.0000
   2956  C6         9.6740   -2.4300   -8.7590 C.ar  141  A141        0.0000
   2957  N6         9.3130   -2.0500   -7.5350 N.pl3 141  A141        0.0000
   2958  N7         9.1120   -0.3110  -10.0820 N.ar  141  A141        0.0000
   2959  C8         9.2740   -0.0980  -11.3660 C.ar  141  A141        0.0000
   2960  N9         9.8050   -1.1690  -12.0390 N.ar  141  A141        0.0000
   2961  OP1        7.0630    3.8490  -15.0590 O.2   141  A141       -0.5000
   2962  OP2        6.8640    3.4330  -12.5310 O.co2 141  A141       -0.5000
   2963  P          5.8910   -1.5510  -15.6350 P.3   142  G142        0.0000
   2964  C5'        6.4660   -4.1030  -15.5760 C.3   142  G142        0.0000
   2965  O5'        6.0200   -2.9470  -14.8760 O.3   142  G142        0.0000
   2966  C4'        6.5940   -5.2850  -14.6430 C.3   142  G142        0.0000
   2967  O4'        7.5840   -4.9940  -13.6210 O.3   142  G142        0.0000
   2968  C3'        5.3710   -5.6830  -13.8310 C.3   142  G142        0.0000
   2969  O3'        4.4450   -6.4470  -14.5940 O.3   142  G142        0.0000
   2970  C2'        6.0110   -6.5380  -12.7490 C.3   142  G142        0.0000
   2971  O2'        6.3650   -7.8180  -13.2210 O.3   142  G142        0.0000
   2972  C1'        7.2800   -5.7380  -12.4520 C.3   142  G142        0.0000
   2973  N1         7.1650   -5.2900   -7.4120 N.ar  142  G142        0.0000
   2974  C2         7.4800   -6.3750   -8.1920 C.ar  142  G142        0.0000
   2975  N2         7.7870   -7.5010   -7.5440 N.pl3 142  G142        0.0000
   2976  N3         7.4950   -6.3580   -9.5110 N.ar  142  G142        0.0000
   2977  C4         7.1630   -5.1460  -10.0050 C.ar  142  G142        0.0000
   2978  C5         6.8350   -3.9990   -9.3210 C.ar  142  G142        0.0000
   2979  C6         6.8250   -4.0320   -7.8970 C.ar  142  G142        0.0000
   2980  O6         6.5630   -3.1190   -7.1040 O.2   142  G142        0.0000
   2981  N7         6.5580   -2.9620  -10.2040 N.ar  142  G142        0.0000
   2982  C8         6.7170   -3.4920  -11.3860 C.ar  142  G142        0.0000
   2983  N9         7.0710   -4.8190  -11.3360 N.ar  142  G142        0.0000
   2984  OP1        5.3300   -1.8140  -16.9810 O.2   142  G142       -0.5000
   2985  OP2        5.2260   -0.5680  -14.7390 O.co2 142  G142       -0.5000
   2986  P          2.8860   -6.4700  -14.1750 P.3   143  G143        0.0000
   2987  C5'        3.3050   -8.6010  -12.7160 C.3   143  G143        0.0000
   2988  O5'        2.8750   -7.2470  -12.7800 O.3   143  G143        0.0000
   2989  C4'        3.5730   -9.0250  -11.2900 C.3   143  G143        0.0000
   2990  O4'        4.4880   -8.0990  -10.6490 O.3   143  G143        0.0000
   2991  C3'        2.4180   -9.0460  -10.3060 C.3   143  G143        0.0000
   2992  O3'        1.6010  -10.1900  -10.4960 O.3   143  G143        0.0000
   2993  C2'        3.1690   -9.1530   -8.9840 C.3   143  G143        0.0000
   2994  O2'        3.6420  -10.4560   -8.7190 O.3   143  G143        0.0000
   2995  C1'        4.3650   -8.2380   -9.2430 C.3   143  G143        0.0000
   2996  N1         4.0340   -5.7820   -4.8600 N.ar  143  G143        0.0000
   2997  C2         4.2840   -7.1100   -5.1120 C.ar  143  G143        0.0000
   2998  N2         4.4670   -7.8980   -4.0410 N.pl3 143  G143        0.0000
   2999  N3         4.3510   -7.6280   -6.3240 N.ar  143  G143        0.0000
   3000  C4         4.1440   -6.7000   -7.2840 C.ar  143  G143        0.0000
   3001  C5         3.8850   -5.3540   -7.1450 C.ar  143  G143        0.0000
   3002  C6         3.8180   -4.8060   -5.8340 C.ar  143  G143        0.0000
   3003  O6         3.6020   -3.6330   -5.4940 O.2   143  G143        0.0000
   3004  N7         3.7360   -4.7510   -8.3870 N.ar  143  G143        0.0000
   3005  C8         3.9060   -5.7270   -9.2400 C.ar  143  G143        0.0000
   3006  N9         4.1510   -6.9340   -8.6320 N.ar  143  G143        0.0000
   3007  OP1        2.1960   -7.3260  -15.1780 O.2   143  G143       -0.5000
   3008  OP2        2.4070   -5.0760  -13.9470 O.co2 143  G143       -0.5000
   3009  P          0.0890  -10.1930   -9.9480 P.3   144  A144        0.0000
   3010  C5'        0.7930  -11.4200   -7.7390 C.3   144  A144        0.0000
   3011  O5'        0.2310  -10.2720   -8.3640 O.3   144  A144        0.0000
   3012  C4'        1.0000  -11.1620   -6.2640 C.3   144  A144        0.0000
   3013  O4'        1.8210   -9.9740   -6.1100 O.3   144  A144        0.0000
   3014  C3'       -0.2430  -10.8370   -5.4460 C.3   144  A144        0.0000
   3015  O3'       -0.9230  -12.0220   -5.0290 O.3   144  A144        0.0000
   3016  C2'        0.3590  -10.1140   -4.2470 C.3   144  A144        0.0000
   3017  O2'        0.9470  -11.0070   -3.3240 O.3   144  A144        0.0000
   3018  C1'        1.4730   -9.3100   -4.9060 C.3   144  A144        0.0000
   3019  N1         1.0200   -4.5670   -3.0120 N.ar  144  A144        0.0000
   3020  C2         1.2620   -5.7490   -2.4330 C.ar  144  A144        0.0000
   3021  N3         1.3250   -6.9630   -2.9830 N.ar  144  A144        0.0000
   3022  C4         1.0920   -6.8930   -4.3050 C.ar  144  A144        0.0000
   3023  C5         0.8150   -5.7530   -5.0400 C.ar  144  A144        0.0000
   3024  C6         0.7890   -4.5370   -4.3420 C.ar  144  A144        0.0000
   3025  N6         0.5500   -3.3630   -4.9220 N.pl3 144  A144        0.0000
   3026  N7         0.6240   -6.0640   -6.3790 N.ar  144  A144        0.0000
   3027  C8         0.8030   -7.3640   -6.4270 C.ar  144  A144        0.0000
   3028  N9         1.1180   -7.9250   -5.2110 N.ar  144  A144        0.0000
   3029  OP1       -0.4990  -11.4770  -10.4110 O.2   144  A144       -0.5000
   3030  OP2       -0.5700   -8.9050  -10.2890 O.co2 144  A144       -0.5000
   3031  P         -2.4850  -11.9560   -4.6320 P.3   145  A23145      0.0000
   3032  PC        -5.3630   -9.6640    0.7900 P.3   145  A23145      0.0000
   3033  C5'       -1.9030  -10.6150   -2.4290 C.3   145  A23145      0.0000
   3034  O5'       -2.6080  -10.6820   -3.6740 O.3   145  A23145      0.0000
   3035  C4'       -2.6830   -9.7910   -1.4370 C.3   145  A23145      0.0000
   3036  O4'       -2.5300   -8.3720   -1.5920 O.3   145  A23145      0.0000
   3037  C3'       -4.1500  -10.1320   -1.3820 C.3   145  A23145      0.0000
   3038  O3'       -4.2360  -10.5000    0.0060 O.3   145  A23145      0.0000
   3039  C2'       -4.9010   -8.8090   -1.5130 C.3   145  A23145      0.0000
   3040  O2'       -5.8260   -8.7100   -0.4120 O.3   145  A23145      0.0000
   3041  C1'       -3.7940   -7.7440   -1.5980 C.3   145  A23145      0.0000
   3042  N1        -1.6190   -3.5360   -3.3050 N.ar  145  A23145      0.0000
   3043  O1C       -6.4160  -10.6190    1.1620 O.co2 145  A23145     -0.5000
   3044  C2        -1.7810   -4.0380   -2.0790 C.ar  145  A23145      0.0000
   3045  O2C       -4.7480   -8.8470    1.8670 O.3   145  A23145     -0.5000
   3046  N3        -2.4650   -5.1010   -1.6970 N.ar  145  A23145      0.0000
   3047  C4        -3.0490   -5.6890   -2.7540 C.ar  145  A23145      0.0000
   3048  C5        -2.9900   -5.2870   -4.0690 C.ar  145  A23145      0.0000
   3049  C6        -2.2180   -4.1570   -4.3460 C.ar  145  A23145      0.0000
   3050  N6        -2.0280   -3.6740   -5.5760 N.pl3 145  A23145      0.0000
   3051  N7        -3.7430   -6.1330   -4.8750 N.ar  145  A23145      0.0000
   3052  C8        -4.2130   -7.0270   -4.0390 C.ar  145  A23145      0.0000
   3053  N9        -3.7600   -6.8590   -2.7550 N.ar  145  A23145      0.0000
   3054  OP1       -2.7970  -13.1770   -3.8370 O.co2 145  A23145     -0.5000
   3055  OP2       -3.2410  -11.6810   -5.8850 O.3   145  A23145     -0.5000
   3056 MG         45.8290   13.9850   24.4060 Mg    201  MG201       0.0000
   3057 MG          7.2920   -0.8110   -2.1190 Mg    202  MG202       0.0000
   3058 MG         52.8040   23.0260   20.7810 Mg    203  MG203       0.0000
   3059  O1        41.1190    7.7440   23.7940 O.3   402  MES402      0.0000
   3060  O1S       40.9570    7.3110   16.4650 O.2   402  MES402     -0.3300
   3061  C2        42.0870    8.5080   23.0410 C.3   402  MES402      0.0000
   3062  O2S       42.6160    5.8230   17.2480 O.2   402  MES402     -0.3300
   3063  C3        42.2880    7.8510   21.6640 C.3   402  MES402      0.0000
   3064  O3S       43.2230    7.9230   16.3230 O.3   402  MES402     -0.3300
   3065  N4        40.9900    7.8800   20.9390 N.3   402  MES402      0.0000
   3066  C5        39.9660    7.1370   21.7210 C.3   402  MES402      0.0000
   3067  C6        39.8410    7.7820   23.1220 C.3   402  MES402      0.0000
   3068  C7        41.1070    7.2600   19.6020 C.3   402  MES402      0.0000
   3069  C8        42.1390    7.9900   18.7440 C.3   402  MES402      0.0000
   3070  S         42.2430    7.2220   17.1140 S.3   402  MES402      0.0000
   3071  O         45.8210   12.5620   25.6360 O.3   302  HOH302      0.0000
   3072  O         46.7670   12.8640   23.1880 O.3   303  HOH303      0.0000
   3073  O         49.0270    1.8820   18.1540 O.3   301  HOH301      0.0000
   3074  O         45.4920   15.1790   22.9760 O.3   304  HOH304      0.0000
   3075  O         47.4220   22.7990   25.2710 O.3   305  HOH305      0.0000
   3076  O         40.2550    1.1740   16.3150 O.3   306  HOH306      0.0000
   3077  O         35.2200   11.2020   11.9580 O.3   307  HOH307      0.0000
   3078  O         41.3560   11.3490   11.9410 O.3   308  HOH308      0.0000
   3079  O         41.5180    7.8180   13.0590 O.3   309  HOH309      0.0000
   3080  O         45.4400   26.1220   15.3830 O.3   310  HOH310      0.0000
   3081  O         63.7160   11.0250   12.5880 O.3   311  HOH311      0.0000
   3082  O         56.5640   12.1850   38.3710 O.3   312  HOH312      0.0000
   3083  O         42.5870   23.6460   32.9440 O.3   313  HOH313      0.0000
   3084  O         32.5890   19.4300   25.2000 O.3   314  HOH314      0.0000
   3085  O         30.6770   17.3050   22.1550 O.3   315  HOH315      0.0000
   3086  O         16.5070   12.7320    7.5160 O.3   316  HOH316      0.0000
   3087  O         16.7400    7.9270   -6.4350 O.3   317  HOH317      0.0000
   3088  O         15.0550   14.7010   -2.2770 O.3   318  HOH318      0.0000
   3089  O         16.3890    4.0270    7.7840 O.3   319  HOH319      0.0000
@<TRIPOS>BOND
     1    40  3056    1
     2   677  3056    1
     3   712  3056    1
     4   735  3056    1
     5  1136  3058    1
     6  3015  3031    1
     7  3031  3034    1
     8  3031  3054    2
     9  3031  3055    1
    10  3032  3038    1
    11  3032  3040    1
    12  3032  3043    2
    13  3032  3045    1
    14  3033  3035    1
    15  3033  3034    1
    16  3035  3036    1
    17  3035  3037    1
    18  3036  3041    1
    19  3037  3038    1
    20  3037  3039    1
    21  3039  3040    1
    22  3039  3041    1
    23  3041  3053    1
    24  3042  3044   ar
    25  3042  3049   ar
    26  3044  3046   ar
    27  3046  3047   ar
    28  3047  3048   ar
    29  3047  3053   ar
    30  3048  3049   ar
    31  3048  3051   ar
    32  3049  3050    1
    33  3051  3052   ar
    34  3052  3053   ar
    35  3056  3071    1
    36  3056  3072    1
    37  3056  3074    1
    38  3059  3061    1
    39  3059  3067    1
    40  3060  3070    2
    41  3061  3063    1
    42  3062  3070    2
    43  3063  3065    1
    44  3064  3070    1
    45  3065  3066    1
    46  3065  3068    1
    47  3066  3067    1
    48  3068  3069    1
    49  3069  3070    1
    50  2984  2963    2
    51  2947  2963    1
    52  2947  2946    1
    53  2963  2965    1
    54  2963  2985    1
    55  2964  2965    1
    56  2964  2966    1
    57  2949  2948    1
    58  3007  2986    2
    59  2942  2944    1
    60  2942  2943    1
    61  2944  2946    1
    62  2944  2945    1
    63  2961  2941    2
    64  2946  2948    1
    65  2966  2968    1
    66  2966  2967    1
    67  2969  2986    1
    68  2969  2968    1
    69  2948  2950    1
    70  2986  3008    1
    71  2986  2988    1
    72  2929  2928    1
    73  2945  2950    1
    74  2943  2941    1
    75  2968  2970    1
    76  2941  2927    1
    77  2941  2962    1
    78  2967  2972    1
    79  2927  2926    1
    80  2950  2960    1
    81  2971  2970    1
    82  2988  2987    1
    83  2970  2972    1
    84  2928  2926    1
    85  2928  2930    1
    86  2987  2989    1
    87  2926  2924    1
    88  2972  2983    1
    89  2924  2922    1
    90  2924  2925    1
    91  1750  1749    1
    92  2960  2959   ar
    93  2960  2954   ar
    94  2930  2925    1
    95  2930  2931    1
    96  2922  2923    1
    97  1727  1726    1
    98  2982  2983   ar
    99  2982  2981   ar
   100  1745  1746    1
   101  1745  1743    1
   102  1745  1747    1
   103  2959  2958   ar
   104  2983  2977   ar
   105  1731  1730    1
   106  2953  2954   ar
   107  2953  2952   ar
   108  2989  2990    1
   109  2989  2991    1
   110  2933  2932    2
   111  1746  1751    1
   112  2954  2955   ar
   113  1748  1747    1
   114  1748  1762    1
   115  1751  1749    1
   116  1751  1752    1
   117  1749  1747    1
   118  1743  1744    1
   119  1763  1765    1
   120  1763  1764    1
   121  1783  1762    2
   122  2990  2995    1
   123  2992  2991    1
   124  2992  3009    1
   125  2931  2932   ar
   126  2931  2938   ar
   127  3029  3009    2
   128  1732  1730   ar
   129  1732  1733   ar
   130  2932  2934   ar
   131  2991  2993    1
   132  1765  1766    1
   133  1765  1767    1
   134  3030  3009    1
   135  1730  1729   ar
   136  2981  2978   ar
   137  2923  2921    1
   138  2952  2951   ar
   139  1754  1753    2
   140  1726  1728    1
   141  1726  1724    1
   142  2939  2921    2
   143  2958  2955   ar
   144  2977  2976   ar
   145  2977  2978   ar
   146  1762  1764    1
   147  1762  1784    1
   148  1766  1771    1
   149  3009  3011    1
   150  1728  1723    1
   151  1728  1739    1
   152  2955  2956   ar
   153  1752  1753   ar
   154  1752  1759   ar
   155  1725  1724    1
   156  1725  1742    1
   157  1744  1742    1
   158  2976  2974   ar
   159  1770  1769    1
   160  2938  2937   ar
   161  1723  1722    1
   162  1760  1742    2
   163  2906  2905    1
   164  2978  2979   ar
   165  1768  1767    1
   166  1768  1785    1
   167  1722  1724    1
   168  1722  1720    1
   169  2910  2909    1
   170  1753  1755   ar
   171  2921  2904    1
   172  2921  2940    1
   173  2995  2993    1
   174  2995  3006    1
   175  3005  3006   ar
   176  3005  3004   ar
   177  1733  1739   ar
   178  1733  1734   ar
   179  2934  2935   ar
   180  1729  1735   ar
   181  1767  1769    1
   182  2993  2994    1
   183  1771  1769    1
   184  1771  1782    1
   185  1739  1738   ar
   186  2951  2956   ar
   187  1742  1761    1
   188  1805  1785    2
   189  2956  2957    1
   190  1759  1758   ar
   191  3006  3000   ar
   192  1711  1710    2
   193  3004  3001   ar
   194  2904  2903    1
   195  3011  3010    1
   196  2905  2903    1
   197  2905  2907    1
   198  2937  2935   ar
   199  2909  2911   ar
   200  2909  2908   ar
   201  2974  2975    1
   202  2974  2973   ar
   203  2935  2936    1
   204  1785  1806    1
   205  1785  1787    1
   206  1720  1721    1
   207  2911  2912   ar
   208  1755  1756   ar
   209  1734  1735   ar
   210  1734  1737   ar
   211  2979  2973   ar
   212  2979  2980    2
   213  1735  1736    2
   214  1707  1706    1
   215  1782  1781   ar
   216  1782  1776   ar
   217  3010  3012    1
   218  1786  1787    1
   219  1786  1788    1
   220  1738  1737   ar
   221  1781  1780   ar
   222  1758  1756   ar
   223  2903  2901    1
   224  1710  1712   ar
   225  1710  1709   ar
   226  3000  3001   ar
   227  3000  2999   ar
   228  2908  2914   ar
   229  2907  2918    1
   230  2907  2902    1
   231  1756  1757    1
   232  1488  1470    2
   233  3001  3002   ar
   234  2912  2918   ar
   235  2912  2913   ar
   236  1712  1713   ar
   237  1721  1719    1
   238  1706  1708    1
   239  1706  1704    1
   240  1776  1775   ar
   241  1776  1777   ar
   242  1788  1789    1
   243  1788  1790    1
   244  1708  1709    1
   245  1708  1703    1
   246  2901  2902    1
   247  2901  2899    1
   248  1775  1773   ar
   249  2918  2917   ar
   250  2919  2898    2
   251  1634  1633    2
   252  1780  1777   ar
   253  3027  3026   ar
   254  3027  3028   ar
   255  1789  1794    1
   256  3026  3023   ar
   257  2999  2997   ar
   258  3012  3013    1
   259  3012  3014    1
   260  1709  1716   ar
   261  1456  1470    1
   262  1456  1455    1
   263  3013  3018    1
   264  2914  2913   ar
   265  2914  2915    2
   266  1468  1450    2
   267  2913  2916   ar
   268  1451  1453    1
   269  1451  1452    1
   270  1777  1778   ar
   271  1470  1472    1
   272  1470  1489    1
   273  3002  3003    2
   274  3002  2996   ar
   275  1453  1455    1
   276  1453  1454    1
   277  1471  1472    1
   278  1471  1473    1
   279  1713  1714    2
   280  1713  1715   ar
   281  1458  1457    1
   282  1705  1704    1
   283  1705  1719    1
   284  1633  1632   ar
   285  1633  1635   ar
   286  1704  1702    1
   287  1703  1702    1
   288  1719  1740    2
   289  1719  1741    1
   290  3014  3015    1
   291  3014  3016    1
   292  1773  1774    1
   293  1773  1772   ar
   294  2900  2899    1
   295  2900  2898    1
   296  2917  2916   ar
   297  1790  1791    1
   298  1790  1792    1
   299  2898  2920    1
   300  2898  2881    1
   301  1791  1807    1
   302  3028  3018    1
   303  3028  3022   ar
   304  1455  1457    1
   305  1511  1490    2
   306  1691  1690    2
   307  2997  2996   ar
   308  2997  2998    1
   309  1794  1804    1
   310  1794  1792    1
   311  1702  1700    1
   312  3023  3024   ar
   313  3023  3022   ar
   314  1632  1630   ar
   315  1716  1715   ar
   316  3025  3024    1
   317  3018  3016    1
   318  1635  1636   ar
   319  1803  1804   ar
   320  1803  1802   ar
   321  1692  1690   ar
   322  1692  1693   ar
   323  1452  1450    1
   324  1450  1436    1
   325  1450  1469    1
   326  1778  1772   ar
   327  1778  1779    2
   328  1454  1459    1
   329  1473  1475    1
   330  1473  1474    1
   331  1438  1437    1
   332  1436  1435    1
   333  1457  1459    1
   334  1793  1792    1
   335  1825  1807    2
   336  1804  1798   ar
   337  1476  1490    1
   338  1476  1475    1
   339  1690  1689   ar
   340  1826  1807    1
   341  3024  3019   ar
   342  3022  3021   ar
   343  1694  1693    1
   344  1807  1809    1
   345  3016  3017    1
   346  2881  2880    1
   347  1490  1512    1
   348  1490  1492    1
   349  1802  1799   ar
   350  1459  1460    1
   351  1630  1631    2
   352  1630  1629   ar
   353  1693  1695   ar
   354  1636  1629   ar
   355  1475  1477    1
   356  1474  1479    1
   357  1700  1701    1
   358  1637  1619    2
   359  1435  1437    1
   360  1435  1433    1
   361  1654  1653    2
   362  1437  1439    1
   363  1798  1799   ar
   364  1798  1797   ar
   365  1433  1431    1
   366  1433  1434    1
   367  1629  1628    1
   368  1799  1800   ar
   369  1687  1686    1
   370  1674  1673    1
   371  3019  3020   ar
   372  1689  1688    1
   373  1689  1696   ar
   374  3021  3020   ar
   375  1611  1610    2
   376  1478  1477    1
   377  1701  1699    1
   378  2880  2878    1
   379  2880  2882    1
   380  2896  2875    2
   381  1638  1619    1
   382  1809  1808    1
   383  1431  1432    1
   384  1686  1688    1
   385  1686  1684    1
   386  1492  1491    1
   387  1797  1796   ar
   388  1477  1479    1
   389  1688  1683    1
   390  1491  1493    1
   391   923   922    1
   392  1460  1467   ar
   393  1460  1461   ar
   394  1612  1610   ar
   395  1612  1613   ar
   396  1695  1696   ar
   397  1808  1810    1
   398  1479  1480    1
   399  2883  2882    1
   400  1619  1621    1
   401  1619  1605    1
   402  1439  1434    1
   403  1439  1440    1
   404  1672  1673   ar
   405  1672  1670   ar
   406  2877  2875    1
   407  2877  2876    1
   408  2878  2876    1
   409  2878  2879    1
   410  1610  1609   ar
   411  1653  1652   ar
   412  1653  1655   ar
   413  1607  1606    1
   414  1623  1628    1
   415  1623  1622    1
   416  1467  1466   ar
   417  1673  1675   ar
   418  1628  1626    1
   419  1800  1801    1
   420  1800  1795   ar
   421  1614  1613    1
   422  1462  1461    2
   423  1487  1480   ar
   424  1487  1486   ar
   425  2882  2884    1
   426   939   941    1
   427   939   940    1
   428  1606  1604    1
   429  1606  1608    1
   430  2875  2858    1
   431  2875  2897    1
   432  1613  1615   ar
   433  1621  1620    1
   434  1448  1430    2
   435   956   938    2
   436  1432  1430    1
   437  1796  1795   ar
   438  1442  1441    2
   439  1671  1670    2
   440  1461  1463   ar
   441   976   958    2
   442  1652  1650   ar
   443  1480  1481   ar
   444   941   942    1
   445   941   943    1
   446  1655  1656   ar
   447  2879  2884    1
   448  1670  1669   ar
   449  1699  1685    1
   450  1699  1718    2
   451  1699  1717    1
   452   921   920    1
   453   921   938    1
   454  1684  1685    1
   455  1684  1682    1
   456  1532  1513    2
   457  1823  1824   ar
   458  1823  1821   ar
   459  2858  2857    1
   460  1605  1604    1
   461   904   903    1
   462  1683  1682    1
   463   944   943    1
   464   944   958    1
   465  1966  1967   ar
   466  1966  1965   ar
   467  2884  2895    1
   468   918   919    1
   469   918   920    1
   470   918   916    1
   471  1811  1810    1
   472  1811  1816    1
   473   922   924    1
   474   922   920    1
   475  1824  1817   ar
   476  1493  1494    1
   477  1493  1495    1
   478  1531  1513    1
   479  1810  1812    1
   480  1609  1608    1
   481  1609  1616   ar
   482  1440  1441   ar
   483  1440  1447   ar
   484  1486  1484   ar
   485   919   924    1
   486  1622  1620    1
   487  1622  1624    1
   488  1466  1464   ar
   489   946   945    1
   490   924   935    1
   491  1604  1602    1
   492  1608  1603    1
   493  1430  1416    1
   494  1430  1449    1
   495  1675  1676   ar
   496  1441  1443   ar
   497   942   947    1
   498  1626  1627    1
   499  1626  1624    1
   500  1967  1968   ar
   501   938   940    1
   502   938   957    1
   503  1944  1943    1
   504   900   899    1
   505  1513  1496    1
   506  1513  1515    1
   507  1496  1495    1
   508  1418  1417    1
   509  1965  1970   ar
   510  1615  1616   ar
   511   916   917    1
   512  1682  1680    1
   513   943   945    1
   514   958   960    1
   515   958   977    1
   516  2860  2859    1
   517  1494  1499    1
   518  1822  1821    1
   519  1495  1497    1
   520  1821  1820   ar
   521  1463  1464   ar
   522   959   960    1
   523   959   961    1
   524  1416  1415    1
   525  2888  2886   ar
   526  2888  2889   ar
   527  2887  2886    1
   528   881   880    1
   529  1650  1651    2
   530  1650  1649   ar
   531  1447  1446   ar
   532  1481  1482    2
   533  1481  1483   ar
   534  1817  1816    1
   535  1817  1818   ar
   536  1656  1649   ar
   537  1669  1676   ar
   538  1669  1668    1
   539   903   905   ar
   540   903   902   ar
   541  1812  1813    1
   542  1812  1814    1
   543  1985  1984    1
   544   905   906   ar
   545   945   947    1
   546  1816  1814    1
   547  1464  1465    1
   548  1963  1962    1
   549  1509  1508   ar
   550  1509  1510   ar
   551  1624  1625    1
   552  2857  2855    1
   553  2857  2859    1
   554   928   926   ar
   555   928   929   ar
   556  1594  1593    2
   557  2895  2889   ar
   558  2895  2894   ar
   559   927   926    1
   560   947   948    1
   561  2855  2853    1
   562  2855  2856    1
   563  1417  1415    1
   564  1417  1419    1
   565  1484  1483   ar
   566  1484  1485    2
   567  2886  2885   ar
   568  1443  1444   ar
   569  1602  1603    1
   570  1602  1600    1
   571  1813  1827    1
   572  1981  1980    1
   573  1981  1986    1
   574   935   929   ar
   575   935   934   ar
   576  1943  1942   ar
   577  1943  1945   ar
   578  2859  2861    1
   579  1508  1505   ar
   580  1649  1648    1
   581  2889  2890   ar
   582  1968  1969   ar
   583  1968  1974   ar
   584  2853  2854    1
   585   899   901    1
   586   899   897    1
   587  1980  1978    1
   588  1980  1982    1
   589  1970  1971    1
   590  1970  1969   ar
   591   961   963    1
   592   961   962    1
   593  1820  1818   ar
   594  1942  1948   ar
   595   996   978    2
   596   926   925   ar
   597  1818  1819    2
   598  1415  1413    1
   599   917   915    1
   600   901   896    1
   601   901   912    1
   602  1986  1984    1
   603  1986  1997    1
   604  1515  1514    1
   605  1625  1639    1
   606   929   930   ar
   607  1499  1497    1
   608  1499  1510    1
   609  1681  1680    1
   610  1681  1679    1
   611  1592  1593   ar
   612  1592  1590   ar
   613  1814  1815    1
   614  1668  1666    1
   615  1668  1663    1
   616  2873  2852    2
   617  1593  1595   ar
   618  1846  1827    2
   619   902   908   ar
   620  1497  1498    1
   621  1964  1962    1
   622  1964  1974    1
   623  1964  1959    1
   624  1510  1504   ar
   625  1446  1444   ar
   626  1573  1572    2
   627  1962  1960    1
   628  1666  1667    1
   629  1666  1664    1
   630  1978  1979    1
   631   880   879   ar
   632   880   882   ar
   633  1984  1982    1
   634  1422  1421    2
   635  2894  2893   ar
   636   906   912   ar
   637   906   907   ar
   638  1969  1972   ar
   639  1444  1445    1
   640  1945  1946   ar
   641  1974  1973   ar
   642   898   897    1
   643   898   915    1
   644  1842  1841    1
   645  1827  1845    1
   646  1827  1829    1
   647   948   955   ar
   648   948   949   ar
   649  1983  1982    1
   650  1983  2000    1
   651   936   915    2
   652  2856  2861    1
   653   963   964    1
   654   963   965    1
   655   964   978    1
   656   896   895    1
   657   934   933   ar
   658  1591  1590    2
   659  2854  2852    1
   660   962   967    1
   661  1419  1414    1
   662  1419  1420    1
   663   879   885   ar
   664  1600  1601    1
   665  1529  1530   ar
   666  1529  1527   ar
   667   912   911   ar
   668  2861  2872    1
   669   955   954   ar
   670  1601  1599    1
   671   897   895    1
   672  2885  2891   ar
   673  1550  1549    2
   674  1590  1589   ar
   675  1413  1414    1
   676  1413  1411    1
   677  2001  2003    1
   678  2001  2002    1
   679   895   893    1
   680  1514  1516    1
   681   915   937    1
   682  1843  1841   ar
   683  1843  1844   ar
   684  1948  1949    2
   685  1948  1947   ar
   686  2890  2893   ar
   687  2890  2891   ar
   688   882   883   ar
   689  1505  1504   ar
   690  1505  1506   ar
   691  1555  1533    2
   692   978   997    1
   693   978   980    1
   694  1528  1527    1
   695  1698  1679    2
   696  1959  1958    1
   697  1648  1643    1
   698  1648  1646    1
   699  1997  1991   ar
   700  1997  1996   ar
   701  1990  1991   ar
   702  1990  1988   ar
   703  1595  1596   ar
   704  1572  1566   ar
   705  1572  1571   ar
   706   925   931   ar
   707  2003  2004    1
   708  2003  2005    1
   709  1841  1840   ar
   710  1664  1665    1
   711  1664  1662    1
   712  1421  1420   ar
   713  1421  1423   ar
   714  2852  2838    1
   715  2852  2874    1
   716  1663  1662    1
   717  1658  1639    2
   718  2004  2009    1
   719   930   933   ar
   720   930   931   ar
   721  1504  1503   ar
   722  1679  1665    1
   723  1679  1697    1
   724  1639  1641    1
   725  1639  1657    1
   726   950   949    2
   727   908   907   ar
   728   908   909    2
   729  1530  1523   ar
   730  1566  1567   ar
   731  1641  1640    1
   732  2021  2000    2
   733   907   910   ar
   734  1979  1977    1
   735  1420  1427   ar
   736  1960  1961    1
   737  1960  1958    1
   738   949   951   ar
   739  1989  1988    1
   740  1946  1947   ar
   741  1946  1952   ar
   742  1678  1659    2
   743  1527  1526   ar
   744  1961  1977    1
   745  1643  1642    1
   746  1844  1837   ar
   747  2891  2892    2
   748  1646  1644    1
   749  1646  1647    1
   750  1958  1956    1
   751  1973  1972   ar
   752  1991  1992   ar
   753  2840  2839    1
   754  2000  2002    1
   755  2000  2022    1
   756  1618  1599    2
   757  1507  1506    2
   758  1411  1412    1
   759  1947  1950   ar
   760  1589  1596   ar
   761  1589  1588    1
   762  1829  1828    1
   763   965   967    1
   764   965   966    1
   765   993   992    2
   766  1988  1987   ar
   767  2838  2837    1
   768  1998  1977    2
   769  1423  1424   ar
   770   954   952   ar
   771  1506  1500   ar
   772  1549  1548   ar
   773  1549  1543   ar
   774  1996  1995   ar
   775   967   968    1
   776  1551  1548   ar
   777  1551  1552   ar
   778   931   932    2
   779  2872  2871   ar
   780  2872  2866   ar
   781  1644  1642    1
   782  1644  1645    1
   783   885   886    2
   784   885   884   ar
   785   994   992   ar
   786   994   995   ar
   787  1599  1617    1
   788  1599  1585    1
   789   911   910   ar
   790  1661  1659    1
   791  1661  1660    1
   792   893   894    1
   793  1662  1660    1
   794  1840  1838   ar
   795  2008  2007    1
   796   980   979    1
   797   883   884   ar
   798   883   889   ar
   799  1571  1574   ar
   800  1571  1570   ar
   801  1516  1517    1
   802  1516  1518    1
   803  1399  1398    1
   804  1977  1999    1
   805  2009  2007    1
   806  2009  2020    1
   807  1936  1941    1
   808  1936  1935    1
   809  1586  1587    1
   810  1586  1588    1
   811  1586  1584    1
   812  1533  1554    1
   813  1533  1519    1
   814  1533  1535    1
   815   992   991   ar
   816   877   876    1
   817  1574  1575   ar
   818  1864  1863    2
   819  1567  1568    1
   820  1567  1569   ar
   821  1517  1522    1
   822  1503  1501   ar
   823  1427  1426   ar
   824   857   858   ar
   825   857   862   ar
   826  1548  1547   ar
   827  2005  2006    1
   828  2005  2007    1
   829  1642  1640    1
   830  1518  1519    1
   831  1518  1520    1
   832  2006  2023    1
   833  1412  1410    1
   834  2839  2837    1
   835  2839  2841    1
   836  1837  1838   ar
   837  1837  1836    1
   838  2865  2866   ar
   839  2865  2863   ar
   840   858   859   ar
   841  2871  2870   ar
   842  1952  1941    1
   843  1952  1951   ar
   844   995   988   ar
   845  1659  1645    1
   846  1659  1677    1
   847   951   952   ar
   848  1523  1522    1
   849  1523  1524   ar
   850  1831  1836    1
   851  1831  1830    1
   852  1588  1583    1
   853  1941  1939    1
   854  1992  1995   ar
   855  1992  1993   ar
   856  2866  2867   ar
   857   884   887   ar
   858  1828  1830    1
   859   968   975   ar
   860   968   969   ar
   861  1838  1839    2
   862  1526  1524   ar
   863  1543  1544   ar
   864  1424  1426   ar
   865  1424  1425    1
   866  1552  1553   ar
   867  1584  1585    1
   868  1584  1582    1
   869  2837  2835    1
   870  1956  1957    1
   871   952   953    2
   872   975   974   ar
   873  1935  1933    1
   874  1935  1937    1
   875   876   878    1
   876   876   874    1
   877  1987  1993   ar
   878  2844  2843    2
   879   878   889    1
   880   878   873    1
   881  1950  1951   ar
   882   991   989   ar
   883   894   892    1
   884  1500  1501   ar
   885  1398  1397   ar
   886  1398  1400   ar
   887   889   888   ar
   888  2020  2019   ar
   889  2020  2014   ar
   890  1570  1569   ar
   891  1570  1576   ar
   892  1535  1534    1
   893  1578  1556    2
   894  1836  1834    1
   895   985   986    1
   896   985   983    1
   897   985   987    1
   898  1522  1520    1
   899  1397  1403   ar
   900  1501  1502    1
   901   970   969    2
   902  1524  1525    2
   903   988   989   ar
   904   988   987    1
   905  2864  2863    1
   906  1428  1410    2
   907   979   981    1
   908   863   862    1
   909  2019  2018   ar
   910  2863  2862   ar
   911  1575  1576   ar
   912  2043  2023    2
   913   969   971   ar
   914  1598  1579    2
   915  1993  1994    2
   916  1863  1857   ar
   917  1863  1862   ar
   918   862   861   ar
   919  1830  1832    1
   920   859   860   ar
   921  1933  1934    1
   922  2870  2867   ar
   923  1938  1937    1
   924  1938  1955    1
   925  1957  1955    1
   926  1520  1521    1
   927   989   990    2
   928  1410  1429    1
   929  1410  1393    1
   930  1547  1553   ar
   931  1547  1546   ar
   932  2867  2868   ar
   933   974   972   ar
   934  2023  2044    1
   935  2023  2025    1
   936  2841  2842    1
   937  2841  2836    1
   938   983   981    1
   939   983   984    1
   940  1400  1401   ar
   941  1583  1582    1
   942  2843  2842   ar
   943  2843  2845   ar
   944  2835  2836    1
   945  2835  2833    1
   946  1937  1939    1
   947  1553  1542    1
   948  2024  2025    1
   949  2024  2026    1
   950  1581  1579    1
   951  1581  1580    1
   952  1939  1940    1
   953   987   982    1
   954  1576  1565    1
   955  1019   998    2
   956  1865  1862   ar
   957  1865  1866   ar
   958   873   872    1
   959  1544  1546   ar
   960  1544  1545    1
   961   887   888   ar
   962  2014  2013   ar
   963  2014  2015   ar
   964   842   841    1
   965  1582  1580    1
   966  2013  2011   ar
   967  1857  1858   ar
   968  1403  1404    2
   969  1403  1402   ar
   970  1862  1861   ar
   971   981   982    1
   972   971   972   ar
   973   874   875    1
   974   874   872    1
   975  2842  2849   ar
   976  2845  2846   ar
   977  2018  2015   ar
   978  1395  1394    1
   979  2862  2868   ar
   980   892   875    1
   981   892   913    2
   982   892   914    1
   983   999  1001    1
   984   999  1000    1
   985  1832  1834    1
   986  1832  1833    1
   987  1579  1597    1
   988  1579  1562    1
   989  1534  1536    1
   990   972   973    2
   991  1955  1976    2
   992  1955  1975    1
   993   860   861   ar
   994   860   866   ar
   995  1556  1558    1
   996  1556  1577    1
   997  1556  1539    1
   998  1834  1835    1
   999  1934  1932    1
  1000   861   864   ar
  1001   984   998    1
  1002  1393  1392    1
  1003  1394  1392    1
  1004  1394  1396    1
  1005  1954  1932    2
  1006  1401  1402   ar
  1007  1401  1407   ar
  1008  2868  2869    2
  1009  2027  2026    1
  1010  2027  2032    1
  1011   872   870    1
  1012  1296  1278    2
  1013  2026  2028    1
  1014  2833  2834    1
  1015  2015  2016   ar
  1016  1538  1536    1
  1017  1538  1539    1
  1018  1538  1540    1
  1019  1001  1002    1
  1020  1001  1003    1
  1021  1002  1007    1
  1022  1558  1557    1
  1023  1402  1405   ar
  1024  1866  1867   ar
  1025  1563  1561    1
  1026  1563  1565    1
  1027  1563  1564    1
  1028  2011  2012    1
  1029  2011  2010   ar
  1030  1537  1542    1
  1031  1537  1536    1
  1032   998  1000    1
  1033   998  1018    1
  1034  1561  1562    1
  1035  1561  1559    1
  1036  1542  1540    1
  1037  1276  1255    2
  1038  1392  1390    1
  1039  1565  1560    1
  1040   841   840   ar
  1041   841   843   ar
  1042  2721  2720    2
  1043   840   838   ar
  1044  2849  2848   ar
  1045  2846  2847    1
  1046  2846  2848   ar
  1047  2834  2832    1
  1048  1858  1859    1
  1049  1858  1860   ar
  1050  1540  1541    1
  1051  1932  1916    1
  1052  1932  1953    1
  1053  1861  1867   ar
  1054  1861  1860   ar
  1055  1016  1015   ar
  1056  1016  1017   ar
  1057  1407  1396    1
  1058  1407  1406   ar
  1059  1038  1020    2
  1060  1918  1917    1
  1061  1833  1847    1
  1062  1396  1391    1
  1063  1869  1847    2
  1064   866   856    1
  1065   866   865   ar
  1066  2016  2010   ar
  1067  2016  2017    2
  1068   864   865   ar
  1069  2032  2042    1
  1070  2032  2030    1
  1071  1015  1012   ar
  1072  1560  1559    1
  1073  1405  1406   ar
  1074  2720  2719   ar
  1075  2720  2714   ar
  1076  1278  1297    1
  1077  1278  1261    1
  1078  1278  1280    1
  1079  1867  1856    1
  1080  1319  1298    2
  1081   870   871    1
  1082  1916  1915    1
  1083  1007  1017    1
  1084  1007  1005    1
  1085  1557  1559    1
  1086  2028  2029    1
  1087  2028  2030    1
  1088  1003  1004    1
  1089  1003  1005    1
  1090  2722  2719   ar
  1091  2722  2723   ar
  1092  2041  2042   ar
  1093  2041  2040   ar
  1094  1004  1020    1
  1095  1017  1011   ar
  1096   856   854    1
  1097   856   851    1
  1098   855   854    1
  1099  2850  2832    2
  1100   843   844   ar
  1101  1261  1260    1
  1102   838   839    2
  1103   838   837   ar
  1104  1917  1915    1
  1105  1917  1919    1
  1106  2029  2045    1
  1107   854   852    1
  1108  2042  2036   ar
  1109  2719  2718   ar
  1110   871   869    1
  1111  1361  1360    2
  1112  1256  1257    1
  1113  1256  1258    1
  1114  2714  2715   ar
  1115  2832  2851    1
  1116  2832  2818    1
  1117  1847  1849    1
  1118  1847  1868    1
  1119  1255  1238    1
  1120  1255  1257    1
  1121  1255  1277    1
  1122  1390  1391    1
  1123  1390  1388    1
  1124  2031  2030    1
  1125  1320  1298    1
  1126  1020  1022    1
  1127  1020  1039    1
  1128  1021  1022    1
  1129  1021  1023    1
  1130  2723  2724   ar
  1131  1012  1011   ar
  1132  1012  1013   ar
  1133  1279  1280    1
  1134  1279  1281    1
  1135  2040  2037   ar
  1136  1238  1237    1
  1137  1915  1913    1
  1138  1298  1284    1
  1139  1298  1300    1
  1140  1005  1006    1
  1141  1849  1848    1
  1142  1011  1010   ar
  1143  1389  1388    1
  1144  1389  1387    1
  1145  1258  1260    1
  1146  1258  1259    1
  1147  1922  1921   ar
  1148  1922  1923   ar
  1149  2824  2823    2
  1150  1921  1920   ar
  1151  2718  2724   ar
  1152  2718  2717   ar
  1153  1856  1851    1
  1154  1856  1854    1
  1155  1851  1850    1
  1156  1058  1040    2
  1157  2715  2716    1
  1158  2715  2717   ar
  1159  2063  2045    2
  1160  2820  2819    1
  1161  2036  2037   ar
  1162  2036  2035   ar
  1163  1360  1354   ar
  1164  1360  1359   ar
  1165  1260  1262    1
  1166   844   837   ar
  1167   837   836    1
  1168  1253  1232    2
  1169  1284  1283    1
  1170   851   850    1
  1171  1014  1013    1
  1172  2045  2064    1
  1173  2045  2047    1
  1174  1919  1929    1
  1175  1919  1914    1
  1176  1354  1355   ar
  1177  2724  2713    1
  1178  2818  2817    1
  1179  1013  1008   ar
  1180  1023  1025    1
  1181  1023  1024    1
  1182  2037  2038   ar
  1183  1409  1387    2
  1184   852   853    1
  1185   852   850    1
  1186  2819  2817    1
  1187  2819  2821    1
  1188  1923  1929   ar
  1189  1923  1924   ar
  1190  1920  1925   ar
  1191  1848  1850    1
  1192  1026  1040    1
  1193  1026  1025    1
  1194  2035  2034   ar
  1195   869   891    2
  1196   869   853    1
  1197   869   890    1
  1198  2708  2713    1
  1199  2708  2707    1
  1200  2825  2823   ar
  1201  2825  2826   ar
  1202  1929  1928   ar
  1203  2823  2822   ar
  1204  1343  1321    2
  1205  1010  1009   ar
  1206  1281  1283    1
  1207  1281  1282    1
  1208  1913  1914    1
  1209  1913  1911    1
  1210  1233  1235    1
  1211  1233  1234    1
  1212  1263  1262    1
  1213  1240  1239    1
  1214  1237  1235    1
  1215  1237  1239    1
  1216  1854  1855    1
  1217  1854  1852    1
  1218  1300  1299    1
  1219  1040  1059    1
  1220  1040  1042    1
  1221  1283  1285    1
  1222  1387  1373    1
  1223  1387  1408    1
  1224  2817  2815    1
  1225  1235  1236    1
  1226  1359  1362   ar
  1227  1359  1358   ar
  1228  2725  2704    2
  1229  1850  1852    1
  1230  1885  1884    2
  1231  2713  2711    1
  1232   850   848    1
  1233  1925  1924   ar
  1234  1925  1926    1
  1235  1924  1927   ar
  1236  1356  1355    1
  1237  1355  1357   ar
  1238  1259  1264    1
  1239  1386  1367    2
  1240  1025  1027    1
  1241  1262  1264    1
  1242  1342  1321    1
  1243  1362  1363   ar
  1244  1024  1029    1
  1245  1008  1009   ar
  1246   845   827    2
  1247  2827  2826    1
  1248  2038  2039    1
  1249  2038  2033   ar
  1250  1928  1927   ar
  1251   836   834    1
  1252   836   831    1
  1253  2826  2828   ar
  1254  2047  2046    1
  1255  1373  1372    1
  1256  2034  2033   ar
  1257  1299  1301    1
  1258  1232  1234    1
  1259  1232  1218    1
  1260  1232  1254    1
  1261  2822  2821    1
  1262  2822  2829   ar
  1263  2821  2816    1
  1264  1239  1241    1
  1265  2707  2705    1
  1266  2707  2709    1
  1267  1321  1304    1
  1268  1321  1323    1
  1269  1884  1886   ar
  1270  1884  1883   ar
  1271  2046  2048    1
  1272  2705  2706    1
  1273   834   832    1
  1274   834   835    1
  1275  1911  1912    1
  1276  1852  1853    1
  1277  1886  1887   ar
  1278  1282  1287    1
  1279  1368  1369    1
  1280  1368  1370    1
  1281  1358  1357   ar
  1282  1358  1364   ar
  1283  1028  1027    1
  1284  1264  1275    1
  1285  1366  1344    2
  1286  1930  1910    2
  1287  1338  1337    2
  1288   849   848    1
  1289   849   847    1
  1290  2706  2704    1
  1291  1218  1217    1
  1292  2049  2048    1
  1293  2049  2054    1
  1294  1363  1364   ar
  1295  1236  1241    1
  1296  1912  1910    1
  1297  2704  2688    1
  1298  2704  2726    1
  1299  1027  1029    1
  1300  2815  2816    1
  1301  2815  2813    1
  1302  1042  1041    1
  1303   831   830    1
  1304  1220  1219    1
  1305  2828  2829   ar
  1306  1367  1369    1
  1307  1367  1385    1
  1308  1367  1350    1
  1309  1883  1881   ar
  1310  1285  1286    1
  1311  1285  1287    1
  1312  2061  2062   ar
  1313  2061  2059   ar
  1314  1372  1370    1
  1315  1372  1374    1
  1316  2062  2055   ar
  1317  1304  1303    1
  1318  1295  1294   ar
  1319  1295  1288   ar
  1320  1029  1030    1
  1321  2688  2687    1
  1322  2711  2709    1
  1323  2711  2712    1
  1324  1041  1043    1
  1325  1339  1340   ar
  1326  1339  1336   ar
  1327   832   830    1
  1328   832   833    1
  1329  1887  1880   ar
  1330   827   829    1
  1331   827   846    1
  1332   827   810    1
  1333   829   828    1
  1334  1370  1371    1
  1335  1323  1322    1
  1336  1241  1252    1
  1337  2048  2050    1
  1338  1364  1353    1
  1339   868   847    2
  1340  1303  1301    1
  1341  1303  1305    1
  1342  1301  1302    1
  1343  1294  1292   ar
  1344  2709  2710    1
  1345  1287  1288    1
  1346  1910  1931    1
  1347  1910  1896    1
  1348  1853  1870    1
  1349  1274  1275   ar
  1350  1274  1273   ar
  1351  1081  1060    2
  1352  1037  1030   ar
  1353  1037  1036   ar
  1354  1275  1269   ar
  1355  1337  1336   ar
  1356  1337  1331   ar
  1357  2690  2689    1
  1358  1881  1880   ar
  1359  1881  1882    2
  1360  1317  1316   ar
  1361  1317  1318   ar
  1362  1316  1313   ar
  1363  1880  1879    1
  1364   847   833    1
  1365   847   867    1
  1366  1340  1341   ar
  1367   830   828    1
  1368  2055  2054    1
  1369  2055  2056   ar
  1370  2059  2060    1
  1371  2059  2058   ar
  1372  1336  1335   ar
  1373  1288  1289   ar
  1374  2813  2814    1
  1375  2710  2727    1
  1376  2054  2052    1
  1377  1082  1060    1
  1378  1874  1879    1
  1379  1874  1873    1
  1380  1219  1217    1
  1381  1219  1221    1
  1382  1351  1349    1
  1383  1351  1353    1
  1384  1351  1352    1
  1385  1030  1031   ar
  1386  1344  1346    1
  1387  1344  1365    1
  1388  1344  1327    1
  1389   810   809    1
  1390  1217  1215    1
  1391  1349  1350    1
  1392  1349  1347    1
  1393  2807  2806    2
  1394  2814  2812    1
  1395  1302  1307    1
  1396  1346  1345    1
  1397  1374  1375    1
  1398  1374  1376    1
  1399  2687  2685    1
  1400  2687  2689    1
  1401  2685  2683    1
  1402  2685  2686    1
  1403  1036  1034   ar
  1404   124   123    1
  1405  1353  1348    1
  1406  1888  1870    2
  1407  1060  1046    1
  1408  1060  1062    1
  1409  1322  1324    1
  1410  2746  2727    2
  1411  2683  2684    1
  1412  1252  1251   ar
  1413  1252  1246   ar
  1414  1273  1270   ar
  1415  2805  2806   ar
  1416  2805  2803   ar
  1417   807   805    1
  1418   807   809    1
  1419   807   808    1
  1420  1879  1877    1
  1421  1043  1045    1
  1422  1043  1044    1
  1423  1371  1376    1
  1424   789   788    1
  1425  1331  1332   ar
  1426  2050  2052    1
  1427  2050  2051    1
  1428  1292  1293    1
  1429  1292  1291   ar
  1430  2058  2056   ar
  1431  2689  2691    1
  1432  1269  1268   ar
  1433  1269  1270   ar
  1434  2806  2808   ar
  1435  2056  2057    2
  1436  1215  1213    1
  1437  1215  1216    1
  1438  1871  1873    1
  1439  1871  1872    1
  1440  1230  1212    2
  1441   805   806    1
  1442  1870  1872    1
  1443  1870  1889    1
  1444  1318  1307    1
  1445  1318  1312   ar
  1446  2702  2682    2
  1447  1305  1307    1
  1448  1305  1306    1
  1449  1896  1895    1
  1450  1313  1314   ar
  1451  1313  1312   ar
  1452  1326  1327    1
  1453  1326  1324    1
  1454  1326  1328    1
  1455  2727  2745    1
  1456  2727  2729    1
  1457  1873  1875    1
  1458  1251  1250   ar
  1459  2804  2803    2
  1460   809   811    1
  1461  1341  1335   ar
  1462  1341  1330    1
  1463    17    16    2
  1464  1335  1334   ar
  1465  1315  1314    2
  1466  1046  1045    1
  1467  1289  1291   ar
  1468  1289  1290    2
  1469  2831  2812    2
  1470  1268  1266   ar
  1471  2803  2802   ar
  1472  2052  2053    1
  1473  2786  2785    2
  1474   128   127    1
  1475  1348  1347    1
  1476  1270  1271   ar
  1477  1376  1377    1
  1478  1045  1047    1
  1479  1221  1216    1
  1480  1221  1222    1
  1481  1044  1049    1
  1482  1031  1032    2
  1483  1031  1033   ar
  1484  1347  1345    1
  1485  2812  2830    1
  1486  2812  2798    1
  1487   125   120    1
  1488   125   123    1
  1489   125   136    1
  1490  1245  1246   ar
  1491  1245  1243   ar
  1492  1246  1247   ar
  1493  1324  1325    1
  1494  1314  1308   ar
  1495  1213  1214    1
  1496   808   813    1
  1497  1224  1223    2
  1498  2051  2065    1
  1499  2686  2691    1
  1500   120   119    1
  1501  1312  1311   ar
  1502   129   127   ar
  1503   129   130   ar
  1504   123   121    1
  1505  2684  2682    1
  1506   825   804    2
  1507  2808  2809   ar
  1508  1057  1056   ar
  1509  1057  1050   ar
  1510  1062  1061    1
  1511  1325  1330    1
  1512  1332  1334   ar
  1513  1332  1333    1
  1514  2691  2701    1
  1515  1034  1033   ar
  1516  1034  1035    2
  1517  1328  1330    1
  1518  1328  1329    1
  1519   687   686    1
  1520  1056  1054   ar
  1521   127   126   ar
  1522   787   804    1
  1523   787   786    1
  1524  1895  1893    1
  1525  1895  1897    1
  1526   770   769    1
  1527   793   792    1
  1528  2084  2065    2
  1529    16    10   ar
  1530    16    15   ar
  1531   788   790    1
  1532   788   786    1
  1533  1250  1247   ar
  1534   119   121    1
  1535   119   117    1
  1536  2682  2665    1
  1537  2682  2703    1
  1538    10    11   ar
  1539  2799  2800    1
  1540  2799  2797    1
  1541  2799  2801    1
  1542  1877  1875    1
  1543  1877  1878    1
  1544  2802  2809   ar
  1545  2802  2801    1
  1546  1212  1214    1
  1547  1212  1231    1
  1548  1212  1198    1
  1549   806   804    1
  1550  2785  2779   ar
  1551  2785  2784   ar
  1552   136   130   ar
  1553   136   135   ar
  1554  1266  1267    1
  1555  1266  1265   ar
  1556  2779  2780   ar
  1557  1875  1876    1
  1558  2729  2728    1
  1559  1223  1222   ar
  1560  1223  1225   ar
  1561   816   815    1
  1562  1247  1248   ar
  1563  1222  1229   ar
  1564   130   131   ar
  1565  1243  1244    1
  1566  1243  1242   ar
  1567   140   142    1
  1568   140   141    1
  1569   811   813    1
  1570   811   812    1
  1571   790   785    1
  1572   790   801    1
  1573   143   142    1
  1574   143   148    1
  1575   112   111    1
  1576   813   824    1
  1577   142   144    1
  1578   784   785    1
  1579   784   786    1
  1580   784   782    1
  1581  1384  1377   ar
  1582  1384  1383   ar
  1583   804   826    1
  1584  1271  1265   ar
  1585  1271  1272    2
  1586  1377  1378   ar
  1587  1898  1897    1
  1588   794   792   ar
  1589   794   795   ar
  1590  1061  1063    1
  1591  2065  2083    1
  1592  2065  2067    1
  1593    36    35    1
  1594  2798  2797    1
  1595   121   122    1
  1596  2665  2664    1
  1597  1049  1047    1
  1598  1049  1050    1
  1599  2080  2079    2
  1600  1308  1309   ar
  1601  2667  2666    1
  1602   122   139    1
  1603  1893  1891    1
  1604  1893  1894    1
  1605  2797  2795    1
  1606  1311  1309   ar
  1607  1047  1048    1
  1608  2742  2741    1
  1609  2743  2741   ar
  1610  2743  2744   ar
  1611  1050  1051   ar
  1612   817   815   ar
  1613   817   818   ar
  1614  2801  2796    1
  1615  2081  2079   ar
  1616  2081  2082   ar
  1617   792   791   ar
  1618   147   146    1
  1619  1891  1892    1
  1620   126   132   ar
  1621  1876  1890    1
  1622  1897  1899    1
  1623  2763  2762    1
  1624   686   681   ar
  1625   686   685   ar
  1626    12    11    1
  1627   117   118    1
  1628   681   682   ar
  1629   113   111    1
  1630   113   108    1
  1631    15    18   ar
  1632    15    14   ar
  1633    11    13   ar
  1634  2701  2700   ar
  1635  2701  2695   ar
  1636  1054  1055    1
  1637  1054  1053   ar
  1638  2784  2787   ar
  1639  2784  2783   ar
  1640  2079  2078   ar
  1641   815   814   ar
  1642  1198  1197    1
  1643  1225  1226   ar
  1644   769   771   ar
  1645   769   768   ar
  1646   135   134   ar
  1647  1309  1310    1
  1648   111   109    1
  1649   148   146    1
  1650   148   159    1
  1651  1229  1228   ar
  1652  2781  2780    1
  1653  2768  2747    2
  1654  2728  2730    1
  1655  2780  2782   ar
  1656  1242  1248   ar
  1657   782   783    1
  1658   131   132   ar
  1659   131   134   ar
  1660    18    19   ar
  1661  1180  1181   ar
  1662  1180  1185   ar
  1663  1181  1182   ar
  1664  1248  1249    2
  1665  2787  2788   ar
  1666  2741  2740   ar
  1667  2744  2737   ar
  1668    58    57    2
  1669  2082  2075   ar
  1670  1383  1381   ar
  1671  1892  1890    1
  1672   141   139    1
  1673   160   139    2
  1674   145   144    1
  1675   145   162    1
  1676   801   795   ar
  1677   801   800   ar
  1678   795   796   ar
  1679   771   772   ar
  1680   824   818   ar
  1681   824   823   ar
  1682  1378  1379    2
  1683  1378  1380   ar
  1684   132   133    2
  1685   144   146    1
  1686    35    34   ar
  1687    35    37   ar
  1688  1079  1078   ar
  1689  1079  1080   ar
  1690  2067  2066    1
  1691   766   765    1
  1692  2666  2664    1
  1693  2666  2668    1
  1694  1078  1075   ar
  1695   818   819   ar
  1696  2700  2699   ar
  1697   139   161    1
  1698    51    57   ar
  1699    51    52   ar
  1700  2694  2695   ar
  1701  2694  2693   ar
  1702  2664  2662    1
  1703  1182  1183   ar
  1704    53    52    1
  1705  1063  1064    1
  1706  1063  1065    1
  1707  2695  2696   ar
  1708  1894  1899    1
  1709    14    13   ar
  1710    14    20   ar
  1711  1186  1185    1
  1712  1185  1184   ar
  1713  2796  2795    1
  1714   768   774   ar
  1715  1051  1053   ar
  1716  1051  1052    2
  1717   685   688   ar
  1718   685   684   ar
  1719   108   107    1
  1720  1064  1069    1
  1721    34    32   ar
  1722  2762  2761   ar
  1723  2762  2757   ar
  1724  1226  1228   ar
  1725  1226  1227    1
  1726   118   116    1
  1727  1899  1900    1
  1728  1890  1909    2
  1729  1890  1908    1
  1730  2783  2782   ar
  1731  2783  2789   ar
  1732   791   797   ar
  1733  2795  2793    1
  1734    57    56   ar
  1735   682   683   ar
  1736  2764  2761   ar
  1737  2764  2765   ar
  1738  2078  2076   ar
  1739  2811  2792    2
  1740   688   689   ar
  1741   159   158   ar
  1742   159   153   ar
  1743    96    95    2
  1744  2662  2660    1
  1745  2662  2663    1
  1746  2794  2793    1
  1747  2794  2792    1
  1748  2102  2101    2
  1749    52    54   ar
  1750   182   162    2
  1751    19    20   ar
  1752  2788  2789   ar
  1753  1162  1161    2
  1754    37    38   ar
  1755   814   820   ar
  1756  1174  1173    1
  1757  1174  1179    1
  1758  1104  1083    2
  1759  2066  2068    1
  1760  1183  1184   ar
  1761  1183  1189   ar
  1762  1197  1195    1
  1763  1197  1199    1
  1764   519   501    2
  1765  2075  2076   ar
  1766  2075  2074    1
  1767  1191  1170    2
  1768  2069  2074    1
  1769  2069  2068    1
  1770  2761  2760   ar
  1771  2730  2732    1
  1772  2730  2731    1
  1773  1184  1187   ar
  1774   783   781    1
  1775   746   747   ar
  1776   746   751   ar
  1777   158   157   ar
  1778  2747  2767    1
  1779  2747  2733    1
  1780  2747  2749    1
  1781  2740  2738   ar
  1782   109   107    1
  1783   109   110    1
  1784  1200  1199    1
  1785  1065  1066    1
  1786  1065  1067    1
  1787  1380  1381   ar
  1788  2757  2758   ar
  1789  2737  2738   ar
  1790  2737  2736    1
  1791  1381  1382    2
  1792   765   767    1
  1793   765   763    1
  1794  2791  2769    2
  1795  2732  2733    1
  1796  2732  2734    1
  1797  2693  2692   ar
  1798  2731  2736    1
  1799   162   183    1
  1800   162   164    1
  1801   800   799   ar
  1802   823   822   ar
  1803   107   105    1
  1804   796   797   ar
  1805   796   799   ar
  1806    76    75    2
  1807    20     9    1
  1808  1080  1069    1
  1809  1080  1074   ar
  1810   747   748   ar
  1811  2699  2696   ar
  1812   772   778   ar
  1813   772   773   ar
  1814  2789  2778    1
  1815  2076  2077    2
  1816  2668  2663    1
  1817  2668  2679    1
  1818  2660  2661    1
  1819   110   116    1
  1820     2     1    1
  1821  1075  1076   ar
  1822  1075  1074   ar
  1823   819   820   ar
  1824   819   822   ar
  1825  1173  1171    1
  1826  1173  1175    1
  1827  2696  2697   ar
  1828  2765  2766   ar
  1829   684   683   ar
  1830   684   690   ar
  1831  1195  1196    1
  1832  1195  1193    1
  1833  2792  2810    1
  1834  2792  2775    1
  1835  1066  1083    1
  1836   767   778    1
  1837   767   762    1
  1838  1158  1157    1
  1839    32    33    2
  1840    32    31   ar
  1841   153   152   ar
  1842   153   154   ar
  1843   152   150   ar
  1844  1189  1179    1
  1845  1189  1188   ar
  1846  1069  1067    1
  1847   797   798    2
  1848  1077  1076    2
  1849    56    55   ar
  1850    56    59   ar
  1851    95    97   ar
  1852    95    94   ar
  1853  2074  2072    1
  1854    77    75   ar
  1855    77    78   ar
  1856  2101  2095   ar
  1857  2101  2100   ar
  1858  1179  1177    1
  1859  1187  1188   ar
  1860  1171  1172    1
  1861  2738  2739    2
  1862   774   773   ar
  1863   774   775    2
  1864    97    98   ar
  1865  1900  1907   ar
  1866  1900  1901   ar
  1867   752   751    1
  1868  2068  2070    1
  1869  1199  1201    1
  1870   116   137    2
  1871   116   138    1
  1872   689   690   ar
  1873    54    55   ar
  1874   820   821    2
  1875  2749  2748    1
  1876  1161  1163   ar
  1877  1161  1160   ar
  1878   487   501    1
  1879   487   486    1
  1880  1083  1103    1
  1881  1083  1085    1
  1882  2736  2734    1
  1883  1902  1901    2
  1884    38    31   ar
  1885   802   781    2
  1886   163   164    1
  1887   163   165    1
  1888    75    74   ar
  1889  2120  2119    1
  1890   751   750   ar
  1891   778   777   ar
  1892   157   154   ar
  1893  1076  1070   ar
  1894   764   781    1
  1895   764   763    1
  1896  2103  2100   ar
  1897  2103  2104   ar
  1898    79    78    1
  1899   499   481    2
  1900  1163  1164   ar
  1901   114   104    2
  1902  2760  2766   ar
  1903  2760  2759   ar
  1904  1074  1073   ar
  1905  1170  1190    1
  1906  1170  1172    1
  1907  1170  1156    1
  1908   501   520    1
  1909   501   503    1
  1910  2776  2774    1
  1911  2776  2778    1
  1912  2776  2777    1
  1913   482   484    1
  1914   482   483    1
  1915    55    61   ar
  1916   781   803    1
  1917  2672  2670   ar
  1918  2672  2673   ar
  1919   773   776   ar
  1920     4     9    1
  1921     4     3    1
  1922  1067  1068    1
  1923  1196  1201    1
  1924  2118  2119   ar
  1925  2118  2124   ar
  1926  1201  1202    1
  1927  2734  2735    1
  1928  2758  2759   ar
  1929  2095  2096   ar
  1930    92    91    1
  1931  1204  1203    2
  1932    59    60   ar
  1933    31    30    1
  1934  2692  2697   ar
  1935  1907  1906   ar
  1936  2671  2670    1
  1937  2125  2124    2
  1938  2100  2099   ar
  1939   539   521    2
  1940  1138  1139   ar
  1941  1138  1143   ar
  1942  1193  1194    1
  1943     1     3    1
  1944   763   761    1
  1945  1901  1903   ar
  1946   154   155   ar
  1947   690   680    1
  1948  2661  2659    1
  1949  2774  2775    1
  1950  2774  2772    1
  1951  1176  1175    1
  1952  1176  1192    1
  1953   484   486    1
  1954   484   485    1
  1955   748   749   ar
  1956    78    80   ar
  1957  2679  2673   ar
  1958  2679  2678   ar
  1959  2766  2756    1
  1960   502   503    1
  1961   502   504    1
  1962  2697  2698    1
  1963    93    94    1
  1964    93    88    1
  1965    93    91    1
  1966  2778  2773    1
  1967     9     7    1
  1968  2769  2771    1
  1969  2769  2790    1
  1970  2769  2753    1
  1971   150   151    1
  1972   150   149   ar
  1973   730   729    2
  1974   762   761    1
  1975  2771  2770    1
  1976  1099  1098    1
  1977    94   101   ar
  1978  1159  1157    1
  1979  1159  1160    1
  1980  1159  1154    1
  1981   105   106    1
  1982  1139  1140   ar
  1983  1175  1177    1
  1984   489   488    1
  1985   166   165    1
  1986   166   171    1
  1987  2070  2072    1
  1988  2070  2071    1
  1989  2119  2121   ar
  1990    98    99    1
  1991    98   100   ar
  1992  1157  1155    1
  1993  2670  2669   ar
  1994  2673  2674   ar
  1995   660   659    1
  1996   761   759    1
  1997  2124  2123   ar
  1998  1160  1167   ar
  1999   165   167    1
  2000   708   707    1
  2001  1100  1101   ar
  2002  1100  1097   ar
  2003   486   488    1
  2004  2104  2105   ar
  2005  1144  1143    1
  2006   656   655    1
  2007  2072  2073    1
  2008    88    87    1
  2009  1177  1178    1
  2010    74    73    1
  2011    74    81   ar
  2012  2752  2753    1
  2013  2752  2754    1
  2014  2752  2750    1
  2015     3     5    1
  2016   106   104    1
  2017   467   481    1
  2018   467   466    1
  2019    91    89    1
  2020   469   468    1
  2021  2680  2659    2
  2022  1085  1084    1
  2023   723   729   ar
  2024   723   724   ar
  2025    61    60   ar
  2026    61    50    1
  2027  2748  2750    1
  2028   507   521    1
  2029   507   506    1
  2030   483   481    1
  2031   481   500    1
  2032  2096  2097    1
  2033  2096  2098   ar
  2034  1164  1165    1
  2035  1164  1166   ar
  2036  1143  1142   ar
  2037   750   749   ar
  2038   750   753   ar
  2039   777   776   ar
  2040  2773  2772    1
  2041  1203  1202   ar
  2042  1203  1205   ar
  2043  1156  1155    1
  2044  1194  1192    1
  2045  2099  2105   ar
  2046  2099  2098   ar
  2047  1211  1192    2
  2048  2678  2677   ar
  2049  1154  1153    1
  2050   104   115    1
  2051   104    90    1
  2052    73    71    1
  2053    73    68    1
  2054   521   540    1
  2055   521   523    1
  2056   149   155   ar
  2057   749   755   ar
  2058   155   156    2
  2059  1070  1071   ar
  2060   692   671    2
  2061   729   728   ar
  2062     7     5    1
  2063     7     8    1
  2064   504   506    1
  2065   504   505    1
  2066   485   490    1
  2067  1155  1153    1
  2068  1202  1209   ar
  2069  1073  1071   ar
  2070  1906  1904   ar
  2071    30    25    1
  2072    30    28    1
  2073   180   179   ar
  2074   180   181   ar
  2075  1903  1904   ar
  2076  2754  2756    1
  2077  2754  2755    1
  2078  2772  2770    1
  2079  1192  1210    1
  2080   488   490    1
  2081   101   100   ar
  2082    80    81   ar
  2083  1101  1102   ar
  2084  2107  2085    2
  2085  2659  2643    1
  2086  2659  2681    1
  2087  2756  2751    1
  2088  1098  1097   ar
  2089  1098  1093   ar
  2090   725   724    1
  2091   680   675    1
  2092   680   678    1
  2093  2105  2094    1
  2094  2751  2750    1
  2095  1140  1141   ar
  2096  1097  1096   ar
  2097    72    71    1
  2098   659   661   ar
  2099   659   658   ar
  2100  2071  2085    1
  2101  2645  2644    1
  2102  2669  2675   ar
  2103  2121  2122   ar
  2104  2674  2677   ar
  2105  2674  2675   ar
  2106    89    87    1
  2107    89    90    1
  2108   171   181    1
  2109   171   169    1
  2110   661   662   ar
  2111   655   657    1
  2112   655   653    1
  2113  1167  1166   ar
  2114  1071  1072    1
  2115   179   176   ar
  2116    25    24    1
  2117    87    85    1
  2118  1153  1151    1
  2119   506   508    1
  2120     5     6    1
  2121  2123  2122   ar
  2122  2123  2126   ar
  2123    71    69    1
  2124    50    45    1
  2125    50    48    1
  2126   464   466    1
  2127   464   462    1
  2128   464   465    1
  2129   724   726   ar
  2130   707   706   ar
  2131   707   709   ar
  2132  1904  1905    2
  2133   490   491    1
  2134   181   175   ar
  2135  2643  2642    1
  2136   466   468    1
  2137    68    67    1
  2138   759   760    1
  2139   167   168    1
  2140   167   169    1
  2141   654   671    1
  2142   654   653    1
  2143   468   470    1
  2144  1084  1086    1
  2145   673   671    1
  2146   673   672    1
  2147   675   674    1
  2148   678   679    1
  2149   678   676    1
  2150  1205  1206   ar
  2151    28    26    1
  2152    28    29    1
  2153  2122  2128   ar
  2154   753   754   ar
  2155   462   463    1
  2156  2644  2642    1
  2157  2644  2646    1
  2158  2675  2676    2
  2159   505   510    1
  2160  1142  1141   ar
  2161  1142  1145   ar
  2162   671   691    1
  2163  2085  2087    1
  2164  2085  2106    1
  2165   341   340    1
  2166   658   664   ar
  2167  1209  1208   ar
  2168  1127  1105    2
  2169  2648  2649   ar
  2170  2648  2647   ar
  2171   523   522    1
  2172   755   745    1
  2173   755   754   ar
  2174   706   704   ar
  2175   168   184    1
  2176  1141  1147   ar
  2177  1093  1094   ar
  2178  2089  2094    1
  2179  2089  2088    1
  2180  2094  2092    1
  2181   728   731   ar
  2182   728   727   ar
  2183   361   360    1
  2184  2649  2650   ar
  2185   657   668    1
  2186   657   652    1
  2187   522   524    1
  2188   709   710   ar
  2189   169   170    1
  2190  1102  1096   ar
  2191  1102  1092    1
  2192    45    44    1
  2193   203   184    2
  2194   356   354    1
  2195   356   357    1
  2196   356   358    1
  2197   465   470    1
  2198  2126  2127   ar
  2199   760   758    1
  2200   653   651    1
  2201   354   355    1
  2202    48    49    1
  2203    48    46    1
  2204   662   668   ar
  2205   662   663   ar
  2206  1096  1095   ar
  2207  2642  2640    1
  2208   176   175   ar
  2209   176   177   ar
  2210  2087  2086    1
  2211   509   508    1
  2212   359   358    1
  2213   359   373    1
  2214   470   471    1
  2215   393   373    2
  2216    26    24    1
  2217    26    27    1
  2218   743   744    1
  2219   743   745    1
  2220   743   741    1
  2221   175   174   ar
  2222    24    22    1
  2223   745   740    1
  2224     6    21    1
  2225    85    86    1
  2226   508   510    1
  2227  2647  2652   ar
  2228   726   727   ar
  2229    86    84    1
  2230    22    23    1
  2231   668   667   ar
  2232   672   674    1
  2233   731   732   ar
  2234  1088  1086    1
  2235  1088  1089    1
  2236  1088  1090    1
  2237  1151  1152    1
  2238   357   362    1
  2239   184   202    1
  2240   184   186    1
  2241    69    67    1
  2242    69    70    1
  2243  1086  1087    1
  2244    67    65    1
  2245  1087  1092    1
  2246   491   498   ar
  2247   491   492   ar
  2248    23    21    1
  2249   479   461    2
  2250   674   676    1
  2251  1126  1105    1
  2252   446   445    1
  2253   727   733   ar
  2254  1152  1150    1
  2255  1206  1208   ar
  2256  1206  1207    2
  2257   510   511    1
  2258   664   663   ar
  2259   664   665    2
  2260  2128  2127   ar
  2261  2128  2117    1
  2262  1145  1146   ar
  2263  1105  1089    1
  2264  1105  1107    1
  2265  2650  2656   ar
  2266  2650  2651   ar
  2267  2646  2656    1
  2268  2646  2641    1
  2269   463   461    1
  2270   676   677    1
  2271   651   652    1
  2272   651   649    1
  2273   358   360    1
  2274   374   376    1
  2275   374   375    1
  2276   498   497   ar
  2277  1094  1095   ar
  2278   663   666   ar
  2279   562   541    2
  2280   360   362    1
  2281   371   353    2
  2282  1092  1090    1
  2283   339   338    1
  2284   339   353    1
  2285   340   342    1
  2286   340   338    1
  2287   704   705    2
  2288   704   703   ar
  2289  1147  1146   ar
  2290  1147  1137    1
  2291  2086  2088    1
  2292   373   375    1
  2293   373   394    1
  2294  2088  2090    1
  2295    39    21    2
  2296   177   178    1
  2297   177   172   ar
  2298   362   363    1
  2299  2092  2090    1
  2300  2092  2093    1
  2301    46    44    1
  2302    46    47    1
  2303    63    41    2
  2304   518   511   ar
  2305   518   517   ar
  2306   710   703   ar
  2307  2656  2655   ar
  2308    43    41    1
  2309    43    42    1
  2310   174   173   ar
  2311    21    40    1
  2312    44    42    1
  2313   524   526    1
  2314   524   525    1
  2315   336   337    1
  2316   336   338    1
  2317   336   334    1
  2318   493   492    2
  2319   561   541    1
  2320  2652  2651   ar
  2321  2652  2653    1
  2322  2640  2641    1
  2323  2640  2638    1
  2324   355   353    1
  2325  1090  1091    1
  2326    70    84    1
  2327  1135  1136    1
  2328  1135  1137    1
  2329  1135  1133    1
  2330   473   472    2
  2331   342   337    1
  2332   342   343    1
  2333   461   444    1
  2334   461   480    1
  2335   741   742    1
  2336   741   739    1
  2337   492   494   ar
  2338  2651  2654   ar
  2339    27    41    1
  2340   667   666   ar
  2341   376   377    1
  2342   376   378    1
  2343   758   742    1
  2344   758   779    2
  2345   758   780    1
  2346    65    66    1
  2347  2117  2112    1
  2348  2117  2115    1
  2349    66    64    1
  2350   640   639    2
  2351   511   512   ar
  2352   471   472   ar
  2353   471   478   ar
  2354   527   541    1
  2355   527   526    1
  2356   353   372    1
  2357   740   739    1
  2358   444   443    1
  2359   643   642    2
  2360   541   543    1
  2361  2090  2091    1
  2362   641   639   ar
  2363   641   642   ar
  2364   732   733   ar
  2365  2112  2111    1
  2366  1137  1132    1
  2367   322   321    1
  2368    84   103    2
  2369    84   102    1
  2370   703   702    1
  2371   345   344    2
  2372   450   449    1
  2373    41    62    1
  2374   445   443    1
  2375   445   447    1
  2376   733   722    1
  2377   200   201   ar
  2378   200   198   ar
  2379   526   528    1
  2380   186   185    1
  2381   517   515   ar
  2382   525   530    1
  2383  2153  2154   ar
  2384  2153  2158   ar
  2385   173   172   ar
  2386   497   495   ar
  2387   377   382    1
  2388   334   335    1
  2389  1107  1106    1
  2390   472   474   ar
  2391  2655  2654   ar
  2392  1169  1150    2
  2393   649   650    1
  2394  1150  1134    1
  2395  1150  1168    1
  2396   199   198    1
  2397   639   638   ar
  2398  1106  1108    1
  2399    83    64    2
  2400   642   644   ar
  2401    47    64    1
  2402  2154  2155   ar
  2403   538   537   ar
  2404   538   531   ar
  2405  1133  1134    1
  2406  1133  1131    1
  2407   318   317    1
  2408  2638  2639    1
  2409   201   194   ar
  2410   379   378    1
  2411   379   395    1
  2412   478   477   ar
  2413   739   737    1
  2414   537   535   ar
  2415  1149  1128    2
  2416  2159  2158    1
  2417   363   370   ar
  2418   363   364   ar
  2419   443   441    1
  2420   198   197   ar
  2421    64    82    1
  2422   451   449   ar
  2423   451   452   ar
  2424   185   187    1
  2425   343   344   ar
  2426   343   350   ar
  2427   378   380    1
  2428   494   495   ar
  2429   365   364    2
  2430  2158  2157   ar
  2431   344   346   ar
  2432   447   442    1
  2433   447   458    1
  2434  2116  2115    1
  2435   449   448   ar
  2436   650   648    1
  2437   413   395    2
  2438   381   380    1
  2439  2115  2113    1
  2440   512   513    2
  2441   512   514   ar
  2442   321   323   ar
  2443   321   320   ar
  2444   441   442    1
  2445   441   439    1
  2446   623   622    2
  2447  2091  2108    1
  2448  1132  1131    1
  2449   370   369   ar
  2450  2111  2109    1
  2451  2111  2113    1
  2452   323   324   ar
  2453   495   496    2
  2454   722   720    1
  2455   722   717    1
  2456   543   542    1
  2457   702   697    1
  2458   702   700    1
  2459   188   187    1
  2460   188   193    1
  2461   693   695    1
  2462   693   711    1
  2463   693   712    1
  2464   382   380    1
  2465   382   392    1
  2466  2155  2156   ar
  2467   738   737    1
  2468   738   736    1
  2469   695   694    1
  2470   530   528    1
  2471   530   531    1
  2472   364   366   ar
  2473  2130  2108    2
  2474   528   529    1
  2475   515   514   ar
  2476   515   516    2
  2477  1130  1128    1
  2478  1130  1129    1
  2479   602   601    2
  2480   474   475   ar
  2481   531   532   ar
  2482   335   333    1
  2483   720   718    1
  2484   720   721    1
  2485   395   414    1
  2486   395   397    1
  2487  2639  2637    1
  2488   638   637    1
  2489   638   645   ar
  2490   194   193    1
  2491   194   195   ar
  2492  1131  1129    1
  2493  2110  2109    1
  2494  2110  2108    1
  2495   636   635    1
  2496   644   645   ar
  2497  2176  2175   ar
  2498  2176  2177   ar
  2499   317   319    1
  2500   317   315    1
  2501  1108  1109    1
  2502  1108  1110    1
  2503   197   195   ar
  2504   757   736    2
  2505   697   696    1
  2506   635   637    1
  2507   635   633    1
  2508   477   475   ar
  2509  1128  1148    1
  2510  1128  1111    1
  2511   535   536    2
  2512   535   534   ar
  2513  2175  2180   ar
  2514   452   458   ar
  2515   452   453   ar
  2516   187   189    1
  2517  2157  2156   ar
  2518  2157  2160   ar
  2519  2113  2114    1
  2520   350   349   ar
  2521   458   457   ar
  2522  2108  2129    1
  2523   700   698    1
  2524   700   701    1
  2525  2156  2162   ar
  2526   320   326   ar
  2527  1117  1116    1
  2528   346   347   ar
  2529   718   716    1
  2530   718   719    1
  2531   448   454   ar
  2532   319   314    1
  2533   319   330    1
  2534  2141  2131    2
  2535  2657  2637    2
  2536   622   621   ar
  2537   622   624   ar
  2538  2198  2197   ar
  2539  2198  2199   ar
  2540   542   544    1
  2541   717   716    1
  2542   193   191    1
  2543   637   632    1
  2544   439   440    1
  2545   427   426    1
  2546   195   196    2
  2547   621   619   ar
  2548   475   476    1
  2549   735   713    1
  2550   316   333    1
  2551   316   315    1
  2552   351   333    2
  2553   584   563    2
  2554   299   298   ar
  2555   299   300   ar
  2556  1109  1114    1
  2557  2114  2131    1
  2558   392   391   ar
  2559   392   386   ar
  2560   736   719    1
  2561   736   756    1
  2562   369   367   ar
  2563   324   330   ar
  2564   324   325   ar
  2565   698   696    1
  2566   698   699    1
  2567   648   669    2
  2568   648   670    1
  2569   648   634    1
  2570   391   390   ar
  2571  2177  2178   ar
  2572  1110  1111    1
  2573  1110  1112    1
  2574   694   696    1
  2575   333   352    1
  2576  2197  2202   ar
  2577   366   367   ar
  2578   601   595   ar
  2579   601   600   ar
  2580   298   303   ar
  2581   396   397    1
  2582   396   398    1
  2583  2199  2200   ar
  2584  2637  2658    1
  2585  2637  2623    1
  2586   315   313    1
  2587   532   534   ar
  2588   532   533    2
  2589  2160  2161   ar
  2590   558   559   ar
  2591   558   555   ar
  2592   189   191    1
  2593   189   190    1
  2594  2180  2181    1
  2595  2180  2179   ar
  2596  1116  1118   ar
  2597  1116  1115   ar
  2598   633   634    1
  2599   633   631    1
  2600   314   313    1
  2601   313   311    1
  2602   330   329   ar
  2603   716   714    1
  2604   559   560   ar
  2605  2625  2624    1
  2606  1118  1119   ar
  2607   219   218    2
  2608  2162  2161   ar
  2609  2162  2152    1
  2610   453   454   ar
  2611   453   456   ar
  2612   300   301   ar
  2613   349   347   ar
  2614  2131  2133    1
  2615  2131  2142    1
  2616   347   348    1
  2617   714   715    1
  2618   367   368    1
  2619   440   438    1
  2620   457   456   ar
  2621   454   455    2
  2622   579   578    1
  2623   595   596   ar
  2624   624   625   ar
  2625   603   600   ar
  2626   603   604   ar
  2627   326   325   ar
  2628   326   327    2
  2629   619   620    2
  2630   619   618   ar
  2631   223   204    2
  2632   191   192    1
  2633  1115  1121   ar
  2634  2178  2179   ar
  2635  2178  2184   ar
  2636   426   428   ar
  2637   426   425   ar
  2638   544   546    1
  2639   544   545    1
  2640   325   328   ar
  2641   600   599   ar
  2642   632   631    1
  2643   563   583    1
  2644   563   547    1
  2645   563   565    1
  2646  2152  2147    1
  2647  2152  2150    1
  2648   390   387   ar
  2649   386   385   ar
  2650   386   387   ar
  2651  2133  2132    1
  2652   713   699    1
  2653   713   715    1
  2654   713   734    2
  2655  2623  2622    1
  2656  1114  1112    1
  2657  1114  1125    1
  2658  2179  2182   ar
  2659   546   547    1
  2660   546   548    1
  2661   190   204    1
  2662   557   556    1
  2663  2202  2203    1
  2664  2202  2201   ar
  2665  2624  2622    1
  2666  2624  2626    1
  2667   423   422    1
  2668  1112  1113    1
  2669  1119  1125   ar
  2670  1119  1120   ar
  2671   220   218   ar
  2672   220   221   ar
  2673   545   550    1
  2674  2147  2146    1
  2675  2200  2201   ar
  2676  2200  2206   ar
  2677  2629  2628    2
  2678   218   217   ar
  2679   580   577   ar
  2680   580   581   ar
  2681   303   304    1
  2682   303   302   ar
  2683   428   429   ar
  2684   398   399    1
  2685   398   400    1
  2686   385   384   ar
  2687   631   629    1
  2688   555   556   ar
  2689   555   554   ar
  2690   311   312    1
  2691   425   431   ar
  2692  1125  1124   ar
  2693   560   550    1
  2694   560   554   ar
  2695   329   328   ar
  2696  1121  1120   ar
  2697  1121  1122    2
  2698   459   438    2
  2699  2195  2194    1
  2700   387   388   ar
  2701   301   302   ar
  2702   301   307   ar
  2703   204   222    1
  2704   204   206    1
  2705   276   277   ar
  2706   276   281   ar
  2707   625   618   ar
  2708   296   295    1
  2709   399   404    1
  2710  2184  2174    1
  2711  2184  2183   ar
  2712   618   617    1
  2713   578   577   ar
  2714   578   573   ar
  2715  1120  1123   ar
  2716   604   605   ar
  2717  2622  2620    1
  2718  2201  2204   ar
  2719   556   551   ar
  2720  2196  2206    1
  2721  2196  2194    1
  2722  2196  2191    1
  2723   438   421    1
  2724   438   460    1
  2725   596   597    1
  2726   596   598   ar
  2727   277   278   ar
  2728  2151  2150    1
  2729  2174  2172    1
  2730  2174  2169    1
  2731   239   238    2
  2732   422   420    1
  2733   422   424    1
  2734   577   576   ar
  2735   565   564    1
  2736   581   582   ar
  2737  2206  2205   ar
  2738  2182  2183   ar
  2739   550   548    1
  2740  2150  2148    1
  2741   260   259    1
  2742  2132  2134    1
  2743   599   598   ar
  2744   599   605   ar
  2745   302   305   ar
  2746   412   411   ar
  2747   412   405   ar
  2748   221   214   ar
  2749   630   629    1
  2750   630   628    1
  2751   554   553   ar
  2752   411   409   ar
  2753  2628  2627   ar
  2754  2628  2630   ar
  2755   548   549    1
  2756  2626  2627    1
  2757  2626  2621    1
  2758   421   420    1
  2759   400   401    1
  2760   400   402    1
  2761  1124  1123   ar
  2762   217   215   ar
  2763  2194  2192    1
  2764   282   281    1
  2765   295   297    1
  2766   295   293    1
  2767  2146  2144    1
  2768  2146  2148    1
  2769   384   383   ar
  2770   312   310    1
  2771  2191  2190    1
  2772   429   430   ar
  2773   429   435   ar
  2774  2173  2172    1
  2775   297   307    1
  2776   297   292    1
  2777   607   585    2
  2778   281   280   ar
  2779   307   306   ar
  2780   647   628    2
  2781   605   594    1
  2782  2172  2170    1
  2783   431   432    2
  2784   431   430   ar
  2785   573   574   ar
  2786   206   205    1
  2787  2169  2168    1
  2788  2620  2621    1
  2789  2620  2618    1
  2790  2627  2634   ar
  2791  2630  2631   ar
  2792  2432  2431    1
  2793   388   383   ar
  2794   388   389    1
  2795   420   418    1
  2796   424   435    1
  2797   424   419    1
  2798   617   615    1
  2799   617   612    1
  2800   627   608    2
  2801   615   613    1
  2802   615   616    1
  2803  2204  2205   ar
  2804  2137  2136    1
  2805  2137  2143    1
  2806  2217  2216    1
  2807   404   405    1
  2808   404   402    1
  2809   551   552   ar
  2810  2134  2136    1
  2811  2134  2135    1
  2812   278   279   ar
  2813   238   240   ar
  2814   238   237   ar
  2815  2144  2145    1
  2816  2148  2149    1
  2817   405   406   ar
  2818  2464  2446    2
  2819   582   576   ar
  2820   582   572    1
  2821   628   614    1
  2822   628   646    1
  2823   214   215   ar
  2824   214   213    1
  2825   576   575   ar
  2826   430   433   ar
  2827   435   434   ar
  2828   564   566    1
  2829   259   254   ar
  2830   259   258   ar
  2831  2213  2218    1
  2832  2213  2212    1
  2833  2136  2138    1
  2834   409   410    2
  2835   409   408   ar
  2836   215   216    2
  2837   305   306   ar
  2838  2484  2466    2
  2839  2190  2192    1
  2840  2190  2188    1
  2841  2145  2143    1
  2842   553   552   ar
  2843   613   614    1
  2844   613   611    1
  2845   402   403    1
  2846  2218  2216    1
  2847  2218  2228    1
  2848   254   255   ar
  2849  2192  2193    1
  2850  2212  2210    1
  2851  2212  2214    1
  2852  2605  2606   ar
  2853  2605  2610   ar
  2854   205   207    1
  2855  2606  2607   ar
  2856   240   241   ar
  2857   292   291    1
  2858  2447  2449    1
  2859  2447  2448    1
  2860   293   294    1
  2861   293   291    1
  2862   237   235   ar
  2863  2430  2446    1
  2864  2430  2429    1
  2865   418   419    1
  2866   418   416    1
  2867   280   279   ar
  2868   280   283   ar
  2869   208   213    1
  2870   208   207    1
  2871   310   294    1
  2872   310   331    2
  2873   310   332    1
  2874  2164  2143    2
  2875   574   575   ar
  2876  2634  2633   ar
  2877   612   611    1
  2878  2618  2619    1
  2879   568   566    1
  2880   568   569    1
  2881   568   570    1
  2882   610   608    1
  2883   610   609    1
  2884  2631  2632    2
  2885  2631  2633   ar
  2886  2143  2163    1
  2887   279   285   ar
  2888  2168  2170    1
  2889  2168  2166    1
  2890   586   588    1
  2891   586   587    1
  2892  2210  2211    1
  2893   594   589    1
  2894   594   592    1
  2895   585   569    1
  2896   585   587    1
  2897   585   606    1
  2898  2431  2429    1
  2899  2431  2433    1
  2900  2170  2171    1
  2901  2216  2214    1
  2902   567   566    1
  2903   567   572    1
  2904   590   592    1
  2905   590   588    1
  2906   590   591    1
  2907   261   258   ar
  2908   261   262   ar
  2909  2193  2209    1
  2910   608   591    1
  2911   608   626    1
  2912  2149  2165    1
  2913  2135  2140    1
  2914   258   257   ar
  2915  2221  2222   ar
  2916  2221  2220   ar
  2917   589   588    1
  2918  2446  2448    1
  2919  2446  2465    1
  2920  2452  2466    1
  2921  2452  2451    1
  2922   406   408   ar
  2923   406   407    2
  2924   213   211    1
  2925   572   570    1
  2926   291   289    1
  2927   592   593    1
  2928   434   433   ar
  2929  2228  2222   ar
  2930  2228  2227   ar
  2931   611   609    1
  2932  2619  2617    1
  2933  2188  2189    1
  2934  2138  2140    1
  2935  2138  2139    1
  2936  2466  2485    1
  2937  2466  2468    1
  2938  2449  2451    1
  2939  2449  2450    1
  2940  2607  2608   ar
  2941   207   209    1
  2942   570   571    1
  2943  2611  2610    1
  2944  2214  2215    1
  2945  2610  2609   ar
  2946  2429  2427    1
  2947  2222  2223   ar
  2948  2220  2219   ar
  2949  2167  2166    1
  2950  2167  2165    1
  2951  2215  2231    1
  2952   255   256   ar
  2953  2433  2428    1
  2954  2433  2443    1
  2955   241   234   ar
  2956  2171  2187    1
  2957   283   284   ar
  2958  2436  2435   ar
  2959  2436  2437   ar
  2960   235   236    2
  2961   235   234   ar
  2962  2211  2209    1
  2963   209   211    1
  2964   209   210    1
  2965   416   417    1
  2966  2189  2187    1
  2967  2451  2453    1
  2968  2427  2428    1
  2969  2427  2425    1
  2970   285   284   ar
  2971   285   275    1
  2972  2165  2186    2
  2973  2165  2185    1
  2974  2227  2226   ar
  2975  2467  2468    1
  2976  2467  2469    1
  2977  2435  2434   ar
  2978   262   263   ar
  2979   211   212    1
  2980   243   224    2
  2981  2209  2229    2
  2982  2209  2230    1
  2983   257   256   ar
  2984   257   263   ar
  2985   417   415    1
  2986  2608  2609   ar
  2987  2608  2614   ar
  2988  2454  2453    1
  2989   234   233    1
  2990  2507  2486    2
  2991  2609  2612   ar
  2992  2450  2455    1
  2993  2219  2224   ar
  2994  2635  2617    2
  2995   289   290    1
  2996  2223  2226   ar
  2997  2223  2224   ar
  2998  2443  2437   ar
  2999  2443  2442   ar
  3000  2617  2636    1
  3001  2617  2601    1
  3002  2437  2438   ar
  3003   275   273    1
  3004   275   270    1
  3005  2603  2602    1
  3006  2187  2208    2
  3007  2187  2207    1
  3008   274   273    1
  3009   273   271    1
  3010  2602  2604    1
  3011  2602  2600    1
  3012  2453  2455    1
  3013   290   288    1
  3014  2249  2231    2
  3015  2231  2250    1
  3016  2231  2233    1
  3017   263   253    1
  3018   210   224    1
  3019  2224  2225    1
  3020  2434  2439   ar
  3021  2425  2426    1
  3022  2472  2486    1
  3023  2472  2471    1
  3024  2508  2486    1
  3025  2469  2471    1
  3026  2469  2470    1
  3027  2486  2488    1
  3028  2614  2604    1
  3029  2614  2613   ar
  3030   224   226    1
  3031   224   242    1
  3032  2455  2456    1
  3033  2413  2412    1
  3034  2612  2613   ar
  3035  2601  2600    1
  3036  2442  2441   ar
  3037  2604  2599    1
  3038  2438  2439   ar
  3039  2438  2441   ar
  3040   233   228    1
  3041   233   231    1
  3042   415   437    1
  3043   415   436    1
  3044  2600  2598    1
  3045   270   269    1
  3046  2471  2473    1
  3047  2439  2440    1
  3048   226   225    1
  3049  2233  2232    1
  3050  2232  2234    1
  3051   228   227    1
  3052   271   272    1
  3053   271   269    1
  3054  2426  2424    1
  3055  2470  2475    1
  3056   253   248    1
  3057   253   251    1
  3058   288   309    2
  3059   288   272    1
  3060   288   308    1
  3061  2463  2456   ar
  3062  2463  2462   ar
  3063  2412  2414   ar
  3064  2412  2411   ar
  3065  2456  2457   ar
  3066  2235  2234    1
  3067  2235  2240    1
  3068  2409  2408    1
  3069   231   229    1
  3070   231   232    1
  3071  2488  2487    1
  3072  2247  2248   ar
  3073  2247  2245   ar
  3074   269   267    1
  3075  2248  2241   ar
  3076  2414  2415   ar
  3077  2590  2589    1
  3078  2599  2598    1
  3079   248   247    1
  3080   251   249    1
  3081   251   252    1
  3082  2234  2236    1
  3083   225   227    1
  3084  2528  2509    2
  3085   265   244    2
  3086   229   227    1
  3087   229   230    1
  3088  2487  2489    1
  3089  2474  2473    1
  3090  2411  2417   ar
  3091  2598  2596    1
  3092  2473  2475    1
  3093  2246  2245    1
  3094  2245  2244   ar
  3095  2475  2476    1
  3096  2483  2482   ar
  3097  2483  2476   ar
  3098  2408  2410    1
  3099  2408  2406    1
  3100  2444  2424    2
  3101   268   267    1
  3102   268   266    1
  3103  2462  2460   ar
  3104  2241  2240    1
  3105  2241  2242   ar
  3106  2424  2407    1
  3107  2424  2445    1
  3108  2588  2589   ar
  3109  2588  2586   ar
  3110  2527  2509    1
  3111  2240  2238    1
  3112   249   247    1
  3113   249   250    1
  3114  2457  2458    2
  3115  2457  2459   ar
  3116  2589  2591   ar
  3117   246   244    1
  3118   246   245    1
  3119   287   266    2
  3120  2509  2492    1
  3121  2509  2511    1
  3122  2415  2421   ar
  3123  2415  2416   ar
  3124  2407  2406    1
  3125  2482  2480   ar
  3126  2597  2596    1
  3127  2597  2595    1
  3128   247   245    1
  3129  2476  2477   ar
  3130   244   230    1
  3131   244   264    1
  3132  2244  2242   ar
  3133  2417  2416   ar
  3134  2417  2418    2
  3135  2492  2491    1
  3136  2242  2243    2
  3137  2236  2238    1
  3138  2236  2237    1
  3139  2587  2586    2
  3140  2410  2421    1
  3141  2410  2405    1
  3142  2489  2491    1
  3143  2489  2490    1
  3144  2586  2585   ar
  3145  2406  2404    1
  3146  2616  2595    2
  3147  2569  2568    2
  3148   266   250    1
  3149   266   286    1
  3150  2421  2420   ar
  3151  2416  2419   ar
  3152  2370  2369    1
  3153  2491  2493    1
  3154  2460  2459   ar
  3155  2460  2461    1
  3156  2591  2592   ar
  3157  2396  2395    1
  3158  2238  2239    1
  3159  2237  2251    1
  3160  2595  2615    1
  3161  2595  2581    1
  3162  2490  2495    1
  3163  2511  2510    1
  3164  2270  2251    2
  3165  2505  2504   ar
  3166  2505  2506   ar
  3167  2585  2592   ar
  3168  2585  2584    1
  3169  2480  2479   ar
  3170  2480  2481    2
  3171  2477  2479   ar
  3172  2477  2478    2
  3173  2404  2405    1
  3174  2404  2402    1
  3175  2568  2562   ar
  3176  2568  2567   ar
  3177  2420  2419   ar
  3178  2394  2395   ar
  3179  2394  2392   ar
  3180  2582  2583    1
  3181  2582  2584    1
  3182  2582  2580    1
  3183  2504  2501   ar
  3184  2395  2397   ar
  3185  2347  2346    1
  3186  2562  2563   ar
  3187  2369  2371   ar
  3188  2369  2368   ar
  3189  2551  2529    2
  3190  2266  2265    1
  3191  2251  2269    1
  3192  2251  2253    1
  3193  2525  2526   ar
  3194  2525  2523   ar
  3195  2493  2495    1
  3196  2493  2494    1
  3197  2584  2579    1
  3198  2524  2523    2
  3199  2580  2581    1
  3200  2580  2578    1
  3201  2510  2512    1
  3202  2495  2506    1
  3203  2267  2265   ar
  3204  2267  2268   ar
  3205  2506  2500   ar
  3206  2546  2545    2
  3207  2393  2392    2
  3208  2371  2372   ar
  3209  2392  2391   ar
  3210  2567  2570   ar
  3211  2567  2566   ar
  3212  2368  2374   ar
  3213  2526  2519   ar
  3214  2265  2264   ar
  3215  2570  2571   ar
  3216  2523  2522   ar
  3217  2563  2564    1
  3218  2563  2565   ar
  3219  2402  2403    1
  3220  2397  2398   ar
  3221  2346  2345   ar
  3222  2346  2348   ar
  3223  2501  2500   ar
  3224  2501  2502   ar
  3225  2268  2261   ar
  3226  2345  2351   ar
  3227  2529  2550    1
  3228  2529  2515    1
  3229  2529  2531    1
  3230  2253  2252    1
  3231  2403  2401    1
  3232  2547  2544   ar
  3233  2547  2548   ar
  3234  2579  2578    1
  3235  2366  2365    1
  3236  2514  2512    1
  3237  2514  2515    1
  3238  2514  2516    1
  3239  2500  2499   ar
  3240  2545  2544   ar
  3241  2545  2539   ar
  3242  2594  2575    2
  3243  2512  2513    1
  3244  2566  2565   ar
  3245  2566  2572   ar
  3246  2578  2576    1
  3247  2391  2398   ar
  3248  2391  2390    1
  3249  2264  2262   ar
  3250  2503  2502    2
  3251  2372  2373   ar
  3252  2372  2378   ar
  3253  2574  2552    2
  3254  2577  2575    1
  3255  2577  2576    1
  3256  2571  2572   ar
  3257  2287  2286    1
  3258  2502  2496   ar
  3259  2374  2375    2
  3260  2374  2373   ar
  3261  2544  2543   ar
  3262  2519  2518    1
  3263  2519  2520   ar
  3264  2348  2349   ar
  3265  2513  2518    1
  3266  2252  2254    1
  3267  2522  2520   ar
  3268  2261  2262   ar
  3269  2261  2260    1
  3270  2367  2365    1
  3271  2367  2378    1
  3272  2367  2362    1
  3273  2255  2260    1
  3274  2255  2254    1
  3275  2548  2549   ar
  3276  2388  2389    1
  3277  2388  2390    1
  3278  2388  2386    1
  3279  2531  2530    1
  3280  2351  2352    2
  3281  2351  2350   ar
  3282  2539  2540   ar
  3283  2572  2561    1
  3284  2365  2363    1
  3285  2262  2263    2
  3286  2575  2593    1
  3287  2575  2558    1
  3288  2373  2376   ar
  3289  2378  2377   ar
  3290  2518  2516    1
  3291  2516  2517    1
  3292  2390  2385    1
  3293  2499  2497   ar
  3294  2323  2324   ar
  3295  2323  2328   ar
  3296  2520  2521    2
  3297  2401  2423    2
  3298  2401  2387    1
  3299  2401  2422    1
  3300  2260  2258    1
  3301  2254  2256    1
  3302  2286  2281   ar
  3303  2286  2285   ar
  3304  2362  2361    1
  3305  2329  2328    1
  3306  2552  2554    1
  3307  2552  2573    1
  3308  2552  2535    1
  3309  2386  2387    1
  3310  2386  2384    1
  3311  2349  2350   ar
  3312  2349  2355   ar
  3313  2324  2325   ar
  3314  2496  2497   ar
  3315  2543  2549   ar
  3316  2543  2542   ar
  3317  2554  2553    1
  3318  2557  2559    1
  3319  2557  2558    1
  3320  2557  2555    1
  3321  2559  2561    1
  3322  2559  2560    1
  3323  2549  2538    1
  3324  2350  2353   ar
  3325  2281  2282   ar
  3326  2497  2498    1
  3327  2328  2327   ar
  3328  2540  2542   ar
  3329  2540  2541    1
  3330  2530  2532    1
  3331  2561  2556    1
  3332  2288  2285   ar
  3333  2288  2289   ar
  3334  2308  2307    1
  3335  2361  2363    1
  3336  2361  2359    1
  3337  2377  2376   ar
  3338  2363  2364    1
  3339  2285  2284   ar
  3340  2256  2258    1
  3341  2256  2257    1
  3342  2534  2535    1
  3343  2534  2532    1
  3344  2534  2536    1
  3345  2385  2384    1
  3346  2364  2381    1
  3347  2258  2259    1
  3348  2556  2555    1
  3349  2355  2344    1
  3350  2355  2354   ar
  3351  2325  2326   ar
  3352  2384  2382    1
  3353  2383  2381    1
  3354  2383  2382    1
  3355  2532  2533    1
  3356  2553  2555    1
  3357  2343  2342    1
  3358  2533  2538    1
  3359  2292  2271    2
  3360  2538  2536    1
  3361  2536  2537    1
  3362  2344  2342    1
  3363  2344  2339    1
  3364  2282  2283   ar
  3365  2289  2290   ar
  3366  2353  2354   ar
  3367  2307  2306   ar
  3368  2307  2309   ar
  3369  2327  2326   ar
  3370  2327  2330   ar
  3371  2257  2271    1
  3372  2306  2304   ar
  3373  2342  2340    1
  3374  2284  2283   ar
  3375  2284  2290   ar
  3376  2359  2360    1
  3377  2399  2381    2
  3378  2381  2400    1
  3379  2326  2332   ar
  3380  2290  2280    1
  3381  2271  2273    1
  3382  2271  2291    1
  3383  2339  2338    1
  3384  2309  2310   ar
  3385  2360  2358    1
  3386  2330  2331   ar
  3387  2304  2305    2
  3388  2304  2303   ar
  3389  2273  2272    1
  3390  2340  2338    1
  3391  2340  2341    1
  3392  2332  2331   ar
  3393  2332  2322    1
  3394  2338  2336    1
  3395  2275  2280    1
  3396  2275  2274    1
  3397  2280  2278    1
  3398  2310  2303   ar
  3399  2341  2358    1
  3400  2303  2302    1
  3401  2322  2320    1
  3402  2322  2317    1
  3403  2358  2379    2
  3404  2358  2380    1
  3405  2272  2274    1
  3406  2320  2321    1
  3407  2320  2318    1
  3408  2274  2276    1
  3409  2278  2276    1
  3410  2278  2279    1
  3411  2336  2337    1
  3412  2276  2277    1
  3413  2337  2335    1
  3414  2302  2297    1
  3415  2302  2300    1
  3416  2317  2316    1
  3417  2312  2293    2
  3418  2318  2316    1
  3419  2318  2319    1
  3420  2297  2296    1
  3421  2300  2298    1
  3422  2300  2301    1
  3423  2277  2293    1
  3424  2316  2314    1
  3425  2357  2335    2
  3426  2335  2319    1
  3427  2335  2356    1
  3428  2295  2293    1
  3429  2295  2294    1
  3430  2293  2311    1
  3431  2298  2296    1
  3432  2298  2299    1
  3433  2315  2314    1
  3434  2315  2313    1
  3435  2296  2294    1
  3436  2334  2313    2
  3437  2313  2299    1
  3438  2313  2333    1
