1akx_lig
 OpenBabel02221317003D

 26 25  0  0  1  0  0  0  0  0999 V2000
   -1.7460   -5.4470    3.7440 N   0  0  0  0  0  0  0  0  0  0  0  0
   -1.5050   -5.5260    2.2730 C   0  0  2  0  0  0  0  0  0  0  0  0
   -0.0880   -6.0530    2.0140 C   0  0  0  0  0  0  0  0  0  0  0  0
    0.0810   -7.1380    1.4940 O   0  0  0  0  0  0  0  0  0  0  0  0
   -1.6600   -4.1320    1.6500 C   0  0  0  0  0  0  0  0  0  0  0  0
   -2.7350   -4.1700    0.5590 C   0  0  0  0  0  0  0  0  0  0  0  0
   -2.3650   -3.1930   -0.5570 C   0  0  0  0  0  0  0  0  0  0  0  0
   -3.6040   -2.7490   -1.2570 N   0  0  0  0  0  0  0  0  0  0  0  0
   -3.6220   -2.6410   -2.5610 C   0  0  0  0  0  0  0  0  0  0  0  0
   -2.6040   -2.1160   -3.1930 N   0  0  0  0  0  0  0  0  0  0  0  0
   -4.6580   -3.0650   -3.2340 N   0  0  0  0  0  0  0  0  0  0  0  0
   -2.2240   -6.2000    1.8290 H   0  0  0  0  0  0  0  0  0  0  0  0
   -1.9510   -3.4270    2.4160 H   0  0  0  0  0  0  0  0  0  0  0  0
   -0.7210   -3.8240    1.2170 H   0  0  0  0  0  0  0  0  0  0  0  0
   -2.8040   -5.1700    0.1530 H   0  0  0  0  0  0  0  0  0  0  0  0
   -3.6880   -3.8850    0.9810 H   0  0  0  0  0  0  0  0  0  0  0  0
   -1.8620   -2.3350   -0.1350 H   0  0  0  0  0  0  0  0  0  0  0  0
   -1.7090   -3.6840   -1.2620 H   0  0  0  0  0  0  0  0  0  0  0  0
   -4.4090   -2.5370   -0.7380 H   0  0  0  0  0  0  0  0  0  0  0  0
   -1.8080   -1.7940   -2.6810 H   0  0  0  0  0  0  0  0  0  0  0  0
   -2.6210   -2.0380   -4.1880 H   0  0  0  0  0  0  0  0  0  0  0  0
   -5.4340   -3.4720   -2.7530 H   0  0  0  0  0  0  0  0  0  0  0  0
   -4.6780   -2.9780   -4.2300 H   0  0  0  0  0  0  0  0  0  0  0  0
   -1.0010   -4.8720    4.1890 H   0  0  0  0  0  0  0  0  0  0  0  0
   -2.6730   -5.0100    3.9210 H   0  0  0  0  0  0  0  0  0  0  0  0
   -1.7350   -6.4040    4.1500 H   0  0  0  0  0  0  0  0  0  0  0  0
  1  2  1  0  0  0  0
  1 24  1  0  0  0  0
  1 25  1  0  0  0  0
  1 26  1  0  0  0  0
  2  3  1  0  0  0  0
  2  5  1  0  0  0  0
  2 12  1  6  0  0  0
  3  4  1  0  0  0  0
  5  6  1  0  0  0  0
  5 13  1  0  0  0  0
  5 14  1  0  0  0  0
  6  7  1  0  0  0  0
  6 15  1  0  0  0  0
  6 16  1  0  0  0  0
  7  8  1  0  0  0  0
  7 17  1  0  0  0  0
  7 18  1  0  0  0  0
  8  9  1  0  0  0  0
  8 19  1  0  0  0  0
  9 10  1  0  0  0  0
  9 11  1  0  0  0  0
 10 20  1  0  0  0  0
 10 21  1  0  0  0  0
 11 22  1  0  0  0  0
 11 23  1  0  0  0  0
M  END
$$$$
