1akx_lig
 OpenBabel11021811383D
libRbt.so/2013.1/901 2013/11/27
 11 10  0  0  0  0  0  0  0  0999 V2000
   -1.8994   -4.7060    2.9350 N   0  0  0  0  0  0  0  0  0  0  0  0
   -1.5700   -5.5470    1.7466 C   0  0  2  0  0  0  0  0  0  0  0  0
   -0.3746   -6.4506    2.0743 C   0  0  0  0  0  0  0  0  0  0  0  0
    0.1889   -7.0709    1.1947 O   0  0  0  0  0  0  0  0  0  0  0  0
   -1.2236   -4.6430    0.5557 C   0  0  0  0  0  0  0  0  0  0  0  0
   -2.4908   -3.9459    0.0501 C   0  0  0  0  0  0  0  0  0  0  0  0
   -2.1625   -3.1365   -1.2045 C   0  0  0  0  0  0  0  0  0  0  0  0
   -3.4198   -2.5710   -1.7716 N   0  0  0  0  0  0  0  0  0  0  0  0
   -3.6159   -2.5661   -3.0654 C   0  0  0  0  0  0  0  0  0  0  0  0
   -2.6759   -2.1471   -3.8730 N   0  0  0  0  0  0  0  0  0  0  0  0
   -4.7525   -2.9873   -3.5521 N   0  0  0  0  0  0  0  0  0  0  0  0
  2  1  1  1  0  0  0
  2  3  1  0  0  0  0
  2  5  1  0  0  0  0
  3  4  1  0  0  0  0
  5  6  1  0  0  0  0
  6  7  1  0  0  0  0
  7  8  1  0  0  0  0
  8  9  1  0  0  0  0
  9 10  1  0  0  0  0
  9 11  1  0  0  0  0
M  END
>  <CHROM.1>
64.39980725,-168.90158781,-70.95459553,-175.41953702,174.38588284,-138.89585573
-47.54604993,-156.95718111,5.24197205,-2.19420121,-4.15293816,-0.44686827
0.97793525,-0.73397032,1.72974025

>  <Name>
1akx_lig

>  <RI>
0

>  <Rbt.Current_Directory>
/home/itssahil/PROJECTS/Mol_Feturizer/New_Systems/rnas/1akx

>  <Rbt.Executable>
rbdock ($Id: //depot/dev/client3/rdock/2013.1/src/exe/rbdock.cxx#4 $)

>  <Rbt.Library>
libRbt.so (2013.1, Build901 2013/11/27)

>  <Rbt.Parameter_File>
/export/apps/rDock/src/rDock_2013.1_src/data/scripts/dock_solv.prm

>  <Rbt.Receptor>
prm/pocket_docking_2.prm

>  <SCORE>
-28.7221

>  <SCORE.INTER>
-21.3254

>  <SCORE.INTER.CONST>
1

>  <SCORE.INTER.POLAR>
-3.67426

>  <SCORE.INTER.ROT>
8

>  <SCORE.INTER.SOLV>
6.79136

>  <SCORE.INTER.VDW>
-13.1665

>  <SCORE.INTER.norm>
-1.93867

>  <SCORE.INTRA>
-7.3967

>  <SCORE.INTRA.DIHEDRAL>
-15.6878

>  <SCORE.INTRA.DIHEDRAL.0>
21.6454

>  <SCORE.INTRA.POLAR>
0

>  <SCORE.INTRA.POLAR.0>
0

>  <SCORE.INTRA.REPUL>
0

>  <SCORE.INTRA.REPUL.0>
0

>  <SCORE.INTRA.SOLV>
0.00768944

>  <SCORE.INTRA.SOLV.lig_0>
-16.5947

>  <SCORE.INTRA.VDW>
0.443363

>  <SCORE.INTRA.VDW.0>
-0.691398

>  <SCORE.INTRA.norm>
-0.672428

>  <SCORE.RESTR>
0

>  <SCORE.RESTR.CAVITY>
0

>  <SCORE.RESTR.norm>
0

>  <SCORE.SYSTEM>
0

>  <SCORE.SYSTEM.CONST>
0

>  <SCORE.SYSTEM.DIHEDRAL>
0

>  <SCORE.SYSTEM.SOLV>
0

>  <SCORE.SYSTEM.norm>
0

>  <SCORE.heavy>
11

>  <SCORE.norm>
-2.6111

>  <RMSD>
0.708

$$$$
1akx_lig
 OpenBabel11021811383D
libRbt.so/2013.1/901 2013/11/27
 11 10  0  0  0  0  0  0  0  0999 V2000
   -0.5233   -4.4025    2.3556 N   0  0  0  0  0  0  0  0  0  0  0  0
   -1.3649   -5.5313    1.8598 C   0  0  2  0  0  0  0  0  0  0  0  0
   -0.6797   -6.8635    2.1890 C   0  0  0  0  0  0  0  0  0  0  0  0
    0.1719   -7.3179    1.4511 O   0  0  0  0  0  0  0  0  0  0  0  0
   -1.5510   -5.4069    0.3415 C   0  0  0  0  0  0  0  0  0  0  0  0
   -2.3466   -4.1375    0.0205 C   0  0  0  0  0  0  0  0  0  0  0  0
   -2.8589   -4.2059   -1.4182 C   0  0  0  0  0  0  0  0  0  0  0  0
   -3.3327   -2.8567   -1.8394 N   0  0  0  0  0  0  0  0  0  0  0  0
   -3.5912   -2.6120   -3.0987 C   0  0  0  0  0  0  0  0  0  0  0  0
   -2.6618   -2.1247   -3.8797 N   0  0  0  0  0  0  0  0  0  0  0  0
   -4.7802   -2.8614   -3.5784 N   0  0  0  0  0  0  0  0  0  0  0  0
  2  1  1  6  0  0  0
  2  3  1  0  0  0  0
  2  5  1  0  0  0  0
  3  4  1  0  0  0  0
  5  6  1  0  0  0  0
  6  7  1  0  0  0  0
  7  8  1  0  0  0  0
  8  9  1  0  0  0  0
  9 10  1  0  0  0  0
  9 11  1  0  0  0  0
M  END
>  <CHROM.1>
-178.04424203,-84.33782906,-64.80744173,-164.58307753,-166.14338672,167.73901839
-92.00283747,-174.58419998,20.35248303,-2.12037034,-4.36594293,-0.51758702
-0.10239211,-1.10282820,0.48585596

>  <Name>
1akx_lig

>  <RI>
0

>  <Rbt.Current_Directory>
/home/itssahil/PROJECTS/Mol_Feturizer/New_Systems/rnas/1akx

>  <Rbt.Executable>
rbdock ($Id: //depot/dev/client3/rdock/2013.1/src/exe/rbdock.cxx#4 $)

>  <Rbt.Library>
libRbt.so (2013.1, Build901 2013/11/27)

>  <Rbt.Parameter_File>
/export/apps/rDock/src/rDock_2013.1_src/data/scripts/dock_solv.prm

>  <Rbt.Receptor>
prm/pocket_docking_2.prm

>  <SCORE>
-26.7938

>  <SCORE.INTER>
-20.7841

>  <SCORE.INTER.CONST>
1

>  <SCORE.INTER.POLAR>
-3.73641

>  <SCORE.INTER.ROT>
8

>  <SCORE.INTER.SOLV>
6.48958

>  <SCORE.INTER.VDW>
-12.4979

>  <SCORE.INTER.norm>
-1.88946

>  <SCORE.INTRA>
-6.04914

>  <SCORE.INTRA.DIHEDRAL>
-13.2299

>  <SCORE.INTRA.DIHEDRAL.0>
21.6454

>  <SCORE.INTRA.POLAR>
0

>  <SCORE.INTRA.POLAR.0>
0

>  <SCORE.INTRA.REPUL>
0

>  <SCORE.INTRA.REPUL.0>
0

>  <SCORE.INTRA.SOLV>
0.208193

>  <SCORE.INTRA.SOLV.lig_0>
-16.5947

>  <SCORE.INTRA.VDW>
0.461722

>  <SCORE.INTRA.VDW.0>
-0.691398

>  <SCORE.INTRA.norm>
-0.549922

>  <SCORE.RESTR>
0.0394262

>  <SCORE.RESTR.CAVITY>
0.0394262

>  <SCORE.RESTR.norm>
0.0035842

>  <SCORE.SYSTEM>
0

>  <SCORE.SYSTEM.CONST>
0

>  <SCORE.SYSTEM.DIHEDRAL>
0

>  <SCORE.SYSTEM.SOLV>
0

>  <SCORE.SYSTEM.norm>
0

>  <SCORE.heavy>
11

>  <SCORE.norm>
-2.4358

>  <RMSD>
1.085

$$$$
1akx_lig
 OpenBabel11021811383D
libRbt.so/2013.1/901 2013/11/27
 11 10  0  0  0  0  0  0  0  0999 V2000
   -1.9257   -4.7006    2.9788 N   0  0  0  0  0  0  0  0  0  0  0  0
   -2.1360   -5.2388    1.6025 C   0  0  2  0  0  0  0  0  0  0  0  0
   -0.7828   -5.6228    0.9908 C   0  0  0  0  0  0  0  0  0  0  0  0
   -0.6570   -6.6630    0.3757 O   0  0  0  0  0  0  0  0  0  0  0  0
   -2.8137   -4.1731    0.7306 C   0  0  0  0  0  0  0  0  0  0  0  0
   -3.3627   -4.8211   -0.5446 C   0  0  0  0  0  0  0  0  0  0  0  0
   -4.3185   -3.8514   -1.2396 C   0  0  0  0  0  0  0  0  0  0  0  0
   -3.5638   -2.6445   -1.6824 N   0  0  0  0  0  0  0  0  0  0  0  0
   -3.1643   -2.5352   -2.9237 C   0  0  0  0  0  0  0  0  0  0  0  0
   -3.9994   -2.1480   -3.8532 N   0  0  0  0  0  0  0  0  0  0  0  0
   -1.9252   -2.8079   -3.2339 N   0  0  0  0  0  0  0  0  0  0  0  0
  2  1  1  1  0  0  0
  2  3  1  0  0  0  0
  2  5  1  0  0  0  0
  3  4  1  0  0  0  0
  5  6  1  0  0  0  0
  6  7  1  0  0  0  0
  7  8  1  0  0  0  0
  8  9  1  0  0  0  0
  9 10  1  0  0  0  0
  9 11  1  0  0  0  0
M  END
>  <CHROM.1>
-179.55062888,136.74532343,-165.14929807,166.33381850,64.15544848,98.89625661
80.24874207,142.83141352,68.69838223,-2.57819842,-4.09805347,-0.61329938
1.16464733,-0.61722743,1.87940037

>  <Name>
1akx_lig

>  <RI>
0

>  <Rbt.Current_Directory>
/home/itssahil/PROJECTS/Mol_Feturizer/New_Systems/rnas/1akx

>  <Rbt.Executable>
rbdock ($Id: //depot/dev/client3/rdock/2013.1/src/exe/rbdock.cxx#4 $)

>  <Rbt.Library>
libRbt.so (2013.1, Build901 2013/11/27)

>  <Rbt.Parameter_File>
/export/apps/rDock/src/rDock_2013.1_src/data/scripts/dock_solv.prm

>  <Rbt.Receptor>
prm/pocket_docking_2.prm

>  <SCORE>
-24.5191

>  <SCORE.INTER>
-19.063

>  <SCORE.INTER.CONST>
1

>  <SCORE.INTER.POLAR>
-3.42983

>  <SCORE.INTER.ROT>
8

>  <SCORE.INTER.SOLV>
6.19973

>  <SCORE.INTER.VDW>
-12.2758

>  <SCORE.INTER.norm>
-1.733

>  <SCORE.INTRA>
-5.45613

>  <SCORE.INTRA.DIHEDRAL>
-10.8563

>  <SCORE.INTRA.DIHEDRAL.0>
21.6454

>  <SCORE.INTRA.POLAR>
0

>  <SCORE.INTRA.POLAR.0>
0

>  <SCORE.INTRA.REPUL>
0

>  <SCORE.INTRA.REPUL.0>
0

>  <SCORE.INTRA.SOLV>
0.354211

>  <SCORE.INTRA.SOLV.lig_0>
-16.5947

>  <SCORE.INTRA.VDW>
-0.205106

>  <SCORE.INTRA.VDW.0>
-0.691398

>  <SCORE.INTRA.norm>
-0.496012

>  <SCORE.RESTR>
0

>  <SCORE.RESTR.CAVITY>
0

>  <SCORE.RESTR.norm>
0

>  <SCORE.SYSTEM>
0

>  <SCORE.SYSTEM.CONST>
0

>  <SCORE.SYSTEM.DIHEDRAL>
0

>  <SCORE.SYSTEM.SOLV>
0

>  <SCORE.SYSTEM.norm>
0

>  <SCORE.heavy>
11

>  <SCORE.norm>
-2.22901

>  <RMSD>
1.276

$$$$
1akx_lig
 OpenBabel11021811383D
libRbt.so/2013.1/901 2013/11/27
 11 10  0  0  0  0  0  0  0  0999 V2000
   -0.7539   -4.2785    3.4239 N   0  0  0  0  0  0  0  0  0  0  0  0
   -0.8720   -4.5004    1.9525 C   0  0  2  0  0  0  0  0  0  0  0  0
    0.4693   -4.1857    1.2781 C   0  0  0  0  0  0  0  0  0  0  0  0
    1.4633   -4.8282    1.5526 O   0  0  0  0  0  0  0  0  0  0  0  0
   -1.9651   -3.5879    1.3800 C   0  0  0  0  0  0  0  0  0  0  0  0
   -2.2776   -3.9980   -0.0628 C   0  0  0  0  0  0  0  0  0  0  0  0
   -3.4263   -3.1439   -0.5993 C   0  0  0  0  0  0  0  0  0  0  0  0
   -3.6307   -3.4416   -2.0456 N   0  0  0  0  0  0  0  0  0  0  0  0
   -3.1737   -2.6228   -2.9584 C   0  0  0  0  0  0  0  0  0  0  0  0
   -3.9374   -2.2530   -3.9540 N   0  0  0  0  0  0  0  0  0  0  0  0
   -1.9522   -2.1685   -2.8709 N   0  0  0  0  0  0  0  0  0  0  0  0
  2  1  1  1  0  0  0
  2  3  1  0  0  0  0
  2  5  1  0  0  0  0
  3  4  1  0  0  0  0
  5  6  1  0  0  0  0
  6  7  1  0  0  0  0
  7  8  1  0  0  0  0
  8  9  1  0  0  0  0
  9 10  1  0  0  0  0
  9 11  1  0  0  0  0
M  END
>  <CHROM.1>
-59.38496374,62.25020237,-169.15132847,176.50437138,173.94987837,-101.65229351
-132.92646001,-174.23378525,-33.47488349,-1.79993004,-3.54187791,-0.25855973
1.02694651,-0.10996087,1.84263941

>  <Name>
1akx_lig

>  <RI>
0

>  <Rbt.Current_Directory>
/home/itssahil/PROJECTS/Mol_Feturizer/New_Systems/rnas/1akx

>  <Rbt.Executable>
rbdock ($Id: //depot/dev/client3/rdock/2013.1/src/exe/rbdock.cxx#4 $)

>  <Rbt.Library>
libRbt.so (2013.1, Build901 2013/11/27)

>  <Rbt.Parameter_File>
/export/apps/rDock/src/rDock_2013.1_src/data/scripts/dock_solv.prm

>  <Rbt.Receptor>
prm/pocket_docking_8.prm

>  <SCORE>
-22.141

>  <SCORE.INTER>
-14.7381

>  <SCORE.INTER.CONST>
1

>  <SCORE.INTER.POLAR>
-2.40771

>  <SCORE.INTER.ROT>
8

>  <SCORE.INTER.SOLV>
6.62226

>  <SCORE.INTER.VDW>
-12.9404

>  <SCORE.INTER.norm>
-1.33983

>  <SCORE.INTRA>
-7.40292

>  <SCORE.INTRA.DIHEDRAL>
-16.181

>  <SCORE.INTRA.DIHEDRAL.0>
21.6454

>  <SCORE.INTRA.POLAR>
0

>  <SCORE.INTRA.POLAR.0>
0

>  <SCORE.INTRA.REPUL>
0

>  <SCORE.INTRA.REPUL.0>
0

>  <SCORE.INTRA.SOLV>
0.295463

>  <SCORE.INTRA.SOLV.lig_0>
-16.5947

>  <SCORE.INTRA.VDW>
0.539856

>  <SCORE.INTRA.VDW.0>
-0.691398

>  <SCORE.INTRA.norm>
-0.672993

>  <SCORE.RESTR>
0

>  <SCORE.RESTR.CAVITY>
0

>  <SCORE.RESTR.norm>
0

>  <SCORE.SYSTEM>
0

>  <SCORE.SYSTEM.CONST>
0

>  <SCORE.SYSTEM.DIHEDRAL>
0

>  <SCORE.SYSTEM.SOLV>
0

>  <SCORE.SYSTEM.norm>
0

>  <SCORE.heavy>
11

>  <SCORE.norm>
-2.01282

>  <RMSD>
1.398

$$$$
1akx_lig
 OpenBabel11021811383D
libRbt.so/2013.1/901 2013/11/27
 11 10  0  0  0  0  0  0  0  0999 V2000
    0.9252   -4.5680    1.4289 N   0  0  0  0  0  0  0  0  0  0  0  0
   -0.3792   -5.2534    1.6675 C   0  0  2  0  0  0  0  0  0  0  0  0
   -0.1237   -6.6862    2.1516 C   0  0  0  0  0  0  0  0  0  0  0  0
    0.2911   -7.5317    1.3840 O   0  0  0  0  0  0  0  0  0  0  0  0
   -1.1905   -5.2847    0.3651 C   0  0  0  0  0  0  0  0  0  0  0  0
   -1.6618   -3.8694    0.0155 C   0  0  0  0  0  0  0  0  0  0  0  0
   -2.6689   -3.9354   -1.1326 C   0  0  0  0  0  0  0  0  0  0  0  0
   -3.0342   -2.5519   -1.5507 N   0  0  0  0  0  0  0  0  0  0  0  0
   -3.4038   -2.3112   -2.7827 C   0  0  0  0  0  0  0  0  0  0  0  0
   -2.5286   -1.9044   -3.6659 N   0  0  0  0  0  0  0  0  0  0  0  0
   -4.6502   -2.4840   -3.1328 N   0  0  0  0  0  0  0  0  0  0  0  0
  2  1  1  6  0  0  0
  2  3  1  0  0  0  0
  2  5  1  0  0  0  0
  3  4  1  0  0  0  0
  5  6  1  0  0  0  0
  6  7  1  0  0  0  0
  7  8  1  0  0  0  0
  8  9  1  0  0  0  0
  9 10  1  0  0  0  0
  9 11  1  0  0  0  0
M  END
>  <CHROM.1>
96.35228825,-72.13213410,-69.87911746,-169.99418612,-175.03951829,151.78603700
-94.61856470,-172.80291132,-163.80676029,-1.65146672,-4.20009565,-0.49980999
-0.92765809,-0.50421492,-0.51836616

>  <Name>
1akx_lig

>  <RI>
0

>  <Rbt.Current_Directory>
/home/itssahil/PROJECTS/Mol_Feturizer/New_Systems/rnas/1akx

>  <Rbt.Executable>
rbdock ($Id: //depot/dev/client3/rdock/2013.1/src/exe/rbdock.cxx#4 $)

>  <Rbt.Library>
libRbt.so (2013.1, Build901 2013/11/27)

>  <Rbt.Parameter_File>
/export/apps/rDock/src/rDock_2013.1_src/data/scripts/dock_solv.prm

>  <Rbt.Receptor>
prm/pocket_docking_2.prm

>  <SCORE>
-30.7068

>  <SCORE.INTER>
-24.9451

>  <SCORE.INTER.CONST>
1

>  <SCORE.INTER.POLAR>
-3.77355

>  <SCORE.INTER.ROT>
8

>  <SCORE.INTER.SOLV>
8.07653

>  <SCORE.INTER.VDW>
-15.6771

>  <SCORE.INTER.norm>
-2.26773

>  <SCORE.INTRA>
-5.77449

>  <SCORE.INTRA.DIHEDRAL>
-13.0583

>  <SCORE.INTRA.DIHEDRAL.0>
21.6454

>  <SCORE.INTRA.POLAR>
0

>  <SCORE.INTRA.POLAR.0>
0

>  <SCORE.INTRA.REPUL>
0

>  <SCORE.INTRA.REPUL.0>
0

>  <SCORE.INTRA.SOLV>
0.24596

>  <SCORE.INTRA.SOLV.lig_0>
-16.5947

>  <SCORE.INTRA.VDW>
0.631703

>  <SCORE.INTRA.VDW.0>
-0.691398

>  <SCORE.INTRA.norm>
-0.524954

>  <SCORE.RESTR>
0.0127709

>  <SCORE.RESTR.CAVITY>
0.0127709

>  <SCORE.RESTR.norm>
0.00116099

>  <SCORE.SYSTEM>
0

>  <SCORE.SYSTEM.CONST>
0

>  <SCORE.SYSTEM.DIHEDRAL>
0

>  <SCORE.SYSTEM.SOLV>
0

>  <SCORE.SYSTEM.norm>
0

>  <SCORE.heavy>
11

>  <SCORE.norm>
-2.79153

>  <RMSD>
1.433

$$$$
1akx_lig
 OpenBabel11021811383D
libRbt.so/2013.1/901 2013/11/27
 11 10  0  0  0  0  0  0  0  0999 V2000
    0.9624   -4.6425    1.4587 N   0  0  0  0  0  0  0  0  0  0  0  0
   -0.3555   -5.3067    1.6827 C   0  0  2  0  0  0  0  0  0  0  0  0
   -0.1285   -6.7410    2.1767 C   0  0  0  0  0  0  0  0  0  0  0  0
    0.2570   -7.6029    1.4120 O   0  0  0  0  0  0  0  0  0  0  0  0
   -1.1495   -5.3318    0.3695 C   0  0  0  0  0  0  0  0  0  0  0  0
   -1.6065   -3.9132    0.0146 C   0  0  0  0  0  0  0  0  0  0  0  0
   -2.4802   -3.9566   -1.2391 C   0  0  0  0  0  0  0  0  0  0  0  0
   -2.9334   -2.5766   -1.5745 N   0  0  0  0  0  0  0  0  0  0  0  0
   -3.3970   -2.3066   -2.7681 C   0  0  0  0  0  0  0  0  0  0  0  0
   -4.6726   -2.4402   -3.0254 N   0  0  0  0  0  0  0  0  0  0  0  0
   -2.5834   -1.8962   -3.7038 N   0  0  0  0  0  0  0  0  0  0  0  0
  2  1  1  6  0  0  0
  2  3  1  0  0  0  0
  2  5  1  0  0  0  0
  3  4  1  0  0  0  0
  5  6  1  0  0  0  0
  6  7  1  0  0  0  0
  7  8  1  0  0  0  0
  8  9  1  0  0  0  0
  9 10  1  0  0  0  0
  9 11  1  0  0  0  0
M  END
>  <CHROM.1>
104.06373782,-73.67448886,-70.45714824,-175.99818130,179.48657855,162.56667314
89.40872658,31.04193176,-177.17938346,-1.62282892,-4.23040311,-0.49319737
-0.93227727,-0.50968232,-0.51011028

>  <Name>
1akx_lig

>  <RI>
0

>  <Rbt.Current_Directory>
/home/afrankz/demos/rdock_decoys_rna/rnas/1akx

>  <Rbt.Executable>
rbdock ($Id: //depot/dev/client3/rdock/2013.1/src/exe/rbdock.cxx#4 $)

>  <Rbt.Library>
libRbt.so (2013.1, Build901 2013/11/27)

>  <Rbt.Parameter_File>
/export/apps/rDock/src/rDock_2013.1_src/data/scripts/dock_solv.prm

>  <Rbt.Receptor>
prm/pocket_docking_2.prm

>  <SCORE>
-30.5537

>  <SCORE.INTER>
-25.306

>  <SCORE.INTER.CONST>
1

>  <SCORE.INTER.POLAR>
-3.771

>  <SCORE.INTER.ROT>
8

>  <SCORE.INTER.SOLV>
8.1431

>  <SCORE.INTER.VDW>
-15.9484

>  <SCORE.INTER.norm>
-2.30054

>  <SCORE.INTRA>
-5.26505

>  <SCORE.INTRA.DIHEDRAL>
-12.6893

>  <SCORE.INTRA.DIHEDRAL.0>
21.6454

>  <SCORE.INTRA.POLAR>
0

>  <SCORE.INTRA.POLAR.0>
0

>  <SCORE.INTRA.REPUL>
0

>  <SCORE.INTRA.REPUL.0>
0

>  <SCORE.INTRA.SOLV>
0.226858

>  <SCORE.INTRA.SOLV.lig_0>
-16.5947

>  <SCORE.INTRA.VDW>
0.966197

>  <SCORE.INTRA.VDW.0>
-0.691398

>  <SCORE.INTRA.norm>
-0.478641

>  <SCORE.RESTR>
0.0173548

>  <SCORE.RESTR.CAVITY>
0.0173548

>  <SCORE.RESTR.norm>
0.00157771

>  <SCORE.SYSTEM>
0

>  <SCORE.SYSTEM.CONST>
0

>  <SCORE.SYSTEM.DIHEDRAL>
0

>  <SCORE.SYSTEM.SOLV>
0

>  <SCORE.SYSTEM.norm>
0

>  <SCORE.heavy>
11

>  <SCORE.norm>
-2.77761

>  <RMSD>
1.454

>  <RMSD>
1.454

$$$$
1akx_lig
 OpenBabel11021811383D
libRbt.so/2013.1/901 2013/11/27
 11 10  0  0  0  0  0  0  0  0999 V2000
    0.9624   -4.6425    1.4587 N   0  0  0  0  0  0  0  0  0  0  0  0
   -0.3555   -5.3067    1.6827 C   0  0  2  0  0  0  0  0  0  0  0  0
   -0.1285   -6.7410    2.1767 C   0  0  0  0  0  0  0  0  0  0  0  0
    0.2570   -7.6029    1.4120 O   0  0  0  0  0  0  0  0  0  0  0  0
   -1.1495   -5.3318    0.3695 C   0  0  0  0  0  0  0  0  0  0  0  0
   -1.6065   -3.9132    0.0146 C   0  0  0  0  0  0  0  0  0  0  0  0
   -2.4802   -3.9566   -1.2391 C   0  0  0  0  0  0  0  0  0  0  0  0
   -2.9334   -2.5766   -1.5745 N   0  0  0  0  0  0  0  0  0  0  0  0
   -3.3970   -2.3066   -2.7681 C   0  0  0  0  0  0  0  0  0  0  0  0
   -4.6726   -2.4402   -3.0254 N   0  0  0  0  0  0  0  0  0  0  0  0
   -2.5834   -1.8962   -3.7038 N   0  0  0  0  0  0  0  0  0  0  0  0
  2  1  1  6  0  0  0
  2  3  1  0  0  0  0
  2  5  1  0  0  0  0
  3  4  1  0  0  0  0
  5  6  1  0  0  0  0
  6  7  1  0  0  0  0
  7  8  1  0  0  0  0
  8  9  1  0  0  0  0
  9 10  1  0  0  0  0
  9 11  1  0  0  0  0
M  END
>  <CHROM.1>
104.06373782,-73.67448886,-70.45714824,-175.99818130,179.48657855,162.56667314
89.40872658,31.04193176,-177.17938346,-1.62282892,-4.23040311,-0.49319737
-0.93227727,-0.50968232,-0.51011028

>  <Name>
1akx_lig

>  <RI>
0

>  <Rbt.Current_Directory>
/home/afrankz/demos/rdock_decoys_rna/rnas/1akx

>  <Rbt.Executable>
rbdock ($Id: //depot/dev/client3/rdock/2013.1/src/exe/rbdock.cxx#4 $)

>  <Rbt.Library>
libRbt.so (2013.1, Build901 2013/11/27)

>  <Rbt.Parameter_File>
/export/apps/rDock/src/rDock_2013.1_src/data/scripts/dock_solv.prm

>  <Rbt.Receptor>
prm/pocket_docking_2.prm

>  <SCORE>
-30.5537

>  <SCORE.INTER>
-25.306

>  <SCORE.INTER.CONST>
1

>  <SCORE.INTER.POLAR>
-3.771

>  <SCORE.INTER.ROT>
8

>  <SCORE.INTER.SOLV>
8.1431

>  <SCORE.INTER.VDW>
-15.9484

>  <SCORE.INTER.norm>
-2.30054

>  <SCORE.INTRA>
-5.26505

>  <SCORE.INTRA.DIHEDRAL>
-12.6893

>  <SCORE.INTRA.DIHEDRAL.0>
21.6454

>  <SCORE.INTRA.POLAR>
0

>  <SCORE.INTRA.POLAR.0>
0

>  <SCORE.INTRA.REPUL>
0

>  <SCORE.INTRA.REPUL.0>
0

>  <SCORE.INTRA.SOLV>
0.226858

>  <SCORE.INTRA.SOLV.lig_0>
-16.5947

>  <SCORE.INTRA.VDW>
0.966197

>  <SCORE.INTRA.VDW.0>
-0.691398

>  <SCORE.INTRA.norm>
-0.478641

>  <SCORE.RESTR>
0.0173548

>  <SCORE.RESTR.CAVITY>
0.0173548

>  <SCORE.RESTR.norm>
0.00157771

>  <SCORE.SYSTEM>
0

>  <SCORE.SYSTEM.CONST>
0

>  <SCORE.SYSTEM.DIHEDRAL>
0

>  <SCORE.SYSTEM.SOLV>
0

>  <SCORE.SYSTEM.norm>
0

>  <SCORE.heavy>
11

>  <SCORE.norm>
-2.77761

>  <RMSD>
1.454

>  <RMSD>
1.454

$$$$
1akx_lig
 OpenBabel11021811383D
libRbt.so/2013.1/901 2013/11/27
 11 10  0  0  0  0  0  0  0  0999 V2000
    1.0714   -4.8336    1.9779 N   0  0  0  0  0  0  0  0  0  0  0  0
   -0.3546   -5.1914    1.7201 C   0  0  2  0  0  0  0  0  0  0  0  0
   -0.5153   -6.7162    1.7610 C   0  0  0  0  0  0  0  0  0  0  0  0
    0.1022   -7.4224    0.9889 O   0  0  0  0  0  0  0  0  0  0  0  0
   -0.7770   -4.6639    0.3421 C   0  0  0  0  0  0  0  0  0  0  0  0
   -1.0730   -3.1633    0.4316 C   0  0  0  0  0  0  0  0  0  0  0  0
   -1.2035   -2.5835   -0.9768 C   0  0  0  0  0  0  0  0  0  0  0  0
   -2.3220   -3.2632   -1.6903 N   0  0  0  0  0  0  0  0  0  0  0  0
   -2.9936   -2.6305   -2.6182 C   0  0  0  0  0  0  0  0  0  0  0  0
   -4.2804   -2.4367   -2.4843 N   0  0  0  0  0  0  0  0  0  0  0  0
   -2.3749   -2.1854   -3.6790 N   0  0  0  0  0  0  0  0  0  0  0  0
  2  1  1  6  0  0  0
  2  3  1  0  0  0  0
  2  5  1  0  0  0  0
  3  4  1  0  0  0  0
  5  6  1  0  0  0  0
  6  7  1  0  0  0  0
  7  8  1  0  0  0  0
  8  9  1  0  0  0  0
  9 10  1  0  0  0  0
  9 11  1  0  0  0  0
M  END
>  <CHROM.1>
65.04149585,-60.01752853,-78.71812594,168.14132171,60.29646125,151.08812218
-119.52041494,-148.18952925,161.21673143,-1.32531309,-4.10748808,-0.39921160
-0.80342419,-0.78094473,-0.27895124

>  <Name>
1akx_lig

>  <RI>
0

>  <Rbt.Current_Directory>
/home/itssahil/PROJECTS/Mol_Feturizer/New_Systems/rnas/1akx

>  <Rbt.Executable>
rbdock ($Id: //depot/dev/client3/rdock/2013.1/src/exe/rbdock.cxx#4 $)

>  <Rbt.Library>
libRbt.so (2013.1, Build901 2013/11/27)

>  <Rbt.Parameter_File>
/export/apps/rDock/src/rDock_2013.1_src/data/scripts/dock_solv.prm

>  <Rbt.Receptor>
prm/pocket_docking_2.prm

>  <SCORE>
-27.6426

>  <SCORE.INTER>
-20.7399

>  <SCORE.INTER.CONST>
1

>  <SCORE.INTER.POLAR>
-2.89863

>  <SCORE.INTER.ROT>
8

>  <SCORE.INTER.SOLV>
7.21922

>  <SCORE.INTER.VDW>
-15.5042

>  <SCORE.INTER.norm>
-1.88545

>  <SCORE.INTRA>
-6.90265

>  <SCORE.INTRA.DIHEDRAL>
-14.9052

>  <SCORE.INTRA.DIHEDRAL.0>
21.6454

>  <SCORE.INTRA.POLAR>
0

>  <SCORE.INTRA.POLAR.0>
0

>  <SCORE.INTRA.REPUL>
0

>  <SCORE.INTRA.REPUL.0>
0

>  <SCORE.INTRA.SOLV>
0.473193

>  <SCORE.INTRA.SOLV.lig_0>
-16.5947

>  <SCORE.INTRA.VDW>
0.313371

>  <SCORE.INTRA.VDW.0>
-0.691398

>  <SCORE.INTRA.norm>
-0.627513

>  <SCORE.RESTR>
0

>  <SCORE.RESTR.CAVITY>
0

>  <SCORE.RESTR.norm>
0

>  <SCORE.SYSTEM>
0

>  <SCORE.SYSTEM.CONST>
0

>  <SCORE.SYSTEM.DIHEDRAL>
0

>  <SCORE.SYSTEM.SOLV>
0

>  <SCORE.SYSTEM.norm>
0

>  <SCORE.heavy>
11

>  <SCORE.norm>
-2.51296

>  <RMSD>
1.553

$$$$
1akx_lig
 OpenBabel11021811383D
libRbt.so/2013.1/901 2013/11/27
 11 10  0  0  0  0  0  0  0  0999 V2000
   -2.3941   -5.8720    1.4613 N   0  0  0  0  0  0  0  0  0  0  0  0
   -1.1619   -5.4012    0.7626 C   0  0  2  0  0  0  0  0  0  0  0  0
    0.0098   -5.3760    1.7522 C   0  0  0  0  0  0  0  0  0  0  0  0
    1.0974   -4.9564    1.4097 O   0  0  0  0  0  0  0  0  0  0  0  0
   -1.3947   -3.9919    0.2011 C   0  0  0  0  0  0  0  0  0  0  0  0
   -2.4819   -4.0383   -0.8774 C   0  0  0  0  0  0  0  0  0  0  0  0
   -2.7561   -2.6236   -1.3875 C   0  0  0  0  0  0  0  0  0  0  0  0
   -3.8333   -2.6687   -2.4170 N   0  0  0  0  0  0  0  0  0  0  0  0
   -3.5424   -2.5127   -3.6832 C   0  0  0  0  0  0  0  0  0  0  0  0
   -4.3806   -1.9037   -4.4819 N   0  0  0  0  0  0  0  0  0  0  0  0
   -2.4079   -2.9615   -4.1495 N   0  0  0  0  0  0  0  0  0  0  0  0
  2  1  1  1  0  0  0
  2  3  1  0  0  0  0
  2  5  1  0  0  0  0
  3  4  1  0  0  0  0
  5  6  1  0  0  0  0
  6  7  1  0  0  0  0
  7  8  1  0  0  0  0
  8  9  1  0  0  0  0
  9 10  1  0  0  0  0
  9 11  1  0  0  0  0
M  END
>  <CHROM.1>
-175.84607481,-176.16747114,-64.69171926,177.38990904,-178.87394537,-106.10925593
-145.73060603,-86.01629601,-162.26675022,-2.12812186,-3.85587369,-1.04629017
1.07720876,0.03505543,2.10219531

>  <Name>
1akx_lig

>  <RI>
0

>  <Rbt.Current_Directory>
/home/itssahil/PROJECTS/Mol_Feturizer/New_Systems/rnas/1akx

>  <Rbt.Executable>
rbdock ($Id: //depot/dev/client3/rdock/2013.1/src/exe/rbdock.cxx#4 $)

>  <Rbt.Library>
libRbt.so (2013.1, Build901 2013/11/27)

>  <Rbt.Parameter_File>
/export/apps/rDock/src/rDock_2013.1_src/data/scripts/dock_solv.prm

>  <Rbt.Receptor>
prm/pocket_docking_2.prm

>  <SCORE>
-25.998

>  <SCORE.INTER>
-18.3392

>  <SCORE.INTER.CONST>
1

>  <SCORE.INTER.POLAR>
-2.74039

>  <SCORE.INTER.ROT>
8

>  <SCORE.INTER.SOLV>
8.29561

>  <SCORE.INTER.VDW>
-14.79

>  <SCORE.INTER.norm>
-1.6672

>  <SCORE.INTRA>
-7.66311

>  <SCORE.INTRA.DIHEDRAL>
-16.6302

>  <SCORE.INTRA.DIHEDRAL.0>
21.6454

>  <SCORE.INTRA.POLAR>
0

>  <SCORE.INTRA.POLAR.0>
0

>  <SCORE.INTRA.REPUL>
0

>  <SCORE.INTRA.REPUL.0>
0

>  <SCORE.INTRA.SOLV>
0.123366

>  <SCORE.INTRA.SOLV.lig_0>
-16.5947

>  <SCORE.INTRA.VDW>
0.590287

>  <SCORE.INTRA.VDW.0>
-0.691398

>  <SCORE.INTRA.norm>
-0.696647

>  <SCORE.RESTR>
0.00434515

>  <SCORE.RESTR.CAVITY>
0.00434515

>  <SCORE.RESTR.norm>
0.000395013

>  <SCORE.SYSTEM>
0

>  <SCORE.SYSTEM.CONST>
0

>  <SCORE.SYSTEM.DIHEDRAL>
0

>  <SCORE.SYSTEM.SOLV>
0

>  <SCORE.SYSTEM.norm>
0

>  <SCORE.heavy>
11

>  <SCORE.norm>
-2.36345

>  <RMSD>
1.578

$$$$
1akx_lig
 OpenBabel11021811383D
libRbt.so/2013.1/901 2013/11/27
 11 10  0  0  0  0  0  0  0  0999 V2000
    0.3477   -3.9158    1.1894 N   0  0  0  0  0  0  0  0  0  0  0  0
   -0.7767   -4.8865    1.3364 C   0  0  2  0  0  0  0  0  0  0  0  0
   -0.2303   -6.2318    1.8308 C   0  0  0  0  0  0  0  0  0  0  0  0
   -0.9834   -7.1581    2.0562 O   0  0  0  0  0  0  0  0  0  0  0  0
   -1.4728   -5.0777   -0.0180 C   0  0  0  0  0  0  0  0  0  0  0  0
   -2.1349   -3.7649   -0.4487 C   0  0  0  0  0  0  0  0  0  0  0  0
   -2.8309   -3.9616   -1.7955 C   0  0  0  0  0  0  0  0  0  0  0  0
   -3.5529   -2.7113   -2.1667 N   0  0  0  0  0  0  0  0  0  0  0  0
   -4.2901   -2.6716   -3.2471 C   0  0  0  0  0  0  0  0  0  0  0  0
   -5.4102   -3.3449   -3.3059 N   0  0  0  0  0  0  0  0  0  0  0  0
   -3.9088   -1.9517   -4.2681 N   0  0  0  0  0  0  0  0  0  0  0  0
  2  1  1  6  0  0  0
  2  3  1  0  0  0  0
  2  5  1  0  0  0  0
  3  4  1  0  0  0  0
  5  6  1  0  0  0  0
  6  7  1  0  0  0  0
  7  8  1  0  0  0  0
  8  9  1  0  0  0  0
  9 10  1  0  0  0  0
  9 11  1  0  0  0  0
M  END
>  <CHROM.1>
-168.11973089,177.88348341,-65.15265319,-179.80101014,176.12153670,-175.90797201
69.63133624,-162.68329065,-92.69925547,-2.29095385,-4.13400612,-0.81374377
-0.85482874,-0.57094381,-0.58262557

>  <Name>
1akx_lig

>  <RI>
0

>  <Rbt.Current_Directory>
/home/afrankz/demos/rdock_decoys_rna/rnas/1akx

>  <Rbt.Executable>
rbdock ($Id: //depot/dev/client3/rdock/2013.1/src/exe/rbdock.cxx#4 $)

>  <Rbt.Library>
libRbt.so (2013.1, Build901 2013/11/27)

>  <Rbt.Parameter_File>
/export/apps/rDock/src/rDock_2013.1_src/data/scripts/dock_solv.prm

>  <Rbt.Receptor>
prm/pocket_docking_2.prm

>  <SCORE>
-26.6806

>  <SCORE.INTER>
-19.1445

>  <SCORE.INTER.CONST>
1

>  <SCORE.INTER.POLAR>
-3.00444

>  <SCORE.INTER.ROT>
8

>  <SCORE.INTER.SOLV>
7.63417

>  <SCORE.INTER.VDW>
-14.2262

>  <SCORE.INTER.norm>
-1.74041

>  <SCORE.INTRA>
-8.01562

>  <SCORE.INTRA.DIHEDRAL>
-16.3261

>  <SCORE.INTRA.DIHEDRAL.0>
21.6454

>  <SCORE.INTRA.POLAR>
0

>  <SCORE.INTRA.POLAR.0>
0

>  <SCORE.INTRA.REPUL>
0

>  <SCORE.INTRA.REPUL.0>
0

>  <SCORE.INTRA.SOLV>
-0.0688635

>  <SCORE.INTRA.SOLV.lig_0>
-16.5947

>  <SCORE.INTRA.VDW>
0.181854

>  <SCORE.INTRA.VDW.0>
-0.691398

>  <SCORE.INTRA.norm>
-0.728693

>  <SCORE.RESTR>
0.479446

>  <SCORE.RESTR.CAVITY>
0.479446

>  <SCORE.RESTR.norm>
0.043586

>  <SCORE.SYSTEM>
0

>  <SCORE.SYSTEM.CONST>
0

>  <SCORE.SYSTEM.DIHEDRAL>
0

>  <SCORE.SYSTEM.SOLV>
0

>  <SCORE.SYSTEM.norm>
0

>  <SCORE.heavy>
11

>  <SCORE.norm>
-2.42551

>  <RMSD>
1.637

>  <RMSD>
1.637

$$$$
1akx_lig
 OpenBabel11021811383D
libRbt.so/2013.1/901 2013/11/27
 11 10  0  0  0  0  0  0  0  0999 V2000
    0.3477   -3.9158    1.1894 N   0  0  0  0  0  0  0  0  0  0  0  0
   -0.7767   -4.8865    1.3364 C   0  0  2  0  0  0  0  0  0  0  0  0
   -0.2303   -6.2318    1.8308 C   0  0  0  0  0  0  0  0  0  0  0  0
   -0.9834   -7.1581    2.0562 O   0  0  0  0  0  0  0  0  0  0  0  0
   -1.4728   -5.0777   -0.0180 C   0  0  0  0  0  0  0  0  0  0  0  0
   -2.1349   -3.7649   -0.4487 C   0  0  0  0  0  0  0  0  0  0  0  0
   -2.8309   -3.9616   -1.7955 C   0  0  0  0  0  0  0  0  0  0  0  0
   -3.5529   -2.7113   -2.1667 N   0  0  0  0  0  0  0  0  0  0  0  0
   -4.2901   -2.6716   -3.2471 C   0  0  0  0  0  0  0  0  0  0  0  0
   -5.4102   -3.3449   -3.3059 N   0  0  0  0  0  0  0  0  0  0  0  0
   -3.9088   -1.9517   -4.2681 N   0  0  0  0  0  0  0  0  0  0  0  0
  2  1  1  6  0  0  0
  2  3  1  0  0  0  0
  2  5  1  0  0  0  0
  3  4  1  0  0  0  0
  5  6  1  0  0  0  0
  6  7  1  0  0  0  0
  7  8  1  0  0  0  0
  8  9  1  0  0  0  0
  9 10  1  0  0  0  0
  9 11  1  0  0  0  0
M  END
>  <CHROM.1>
-168.11973089,177.88348341,-65.15265319,-179.80101014,176.12153670,-175.90797201
69.63133624,-162.68329065,-92.69925547,-2.29095385,-4.13400612,-0.81374377
-0.85482874,-0.57094381,-0.58262557

>  <Name>
1akx_lig

>  <RI>
0

>  <Rbt.Current_Directory>
/home/afrankz/demos/rdock_decoys_rna/rnas/1akx

>  <Rbt.Executable>
rbdock ($Id: //depot/dev/client3/rdock/2013.1/src/exe/rbdock.cxx#4 $)

>  <Rbt.Library>
libRbt.so (2013.1, Build901 2013/11/27)

>  <Rbt.Parameter_File>
/export/apps/rDock/src/rDock_2013.1_src/data/scripts/dock_solv.prm

>  <Rbt.Receptor>
prm/pocket_docking_2.prm

>  <SCORE>
-26.6806

>  <SCORE.INTER>
-19.1445

>  <SCORE.INTER.CONST>
1

>  <SCORE.INTER.POLAR>
-3.00444

>  <SCORE.INTER.ROT>
8

>  <SCORE.INTER.SOLV>
7.63417

>  <SCORE.INTER.VDW>
-14.2262

>  <SCORE.INTER.norm>
-1.74041

>  <SCORE.INTRA>
-8.01562

>  <SCORE.INTRA.DIHEDRAL>
-16.3261

>  <SCORE.INTRA.DIHEDRAL.0>
21.6454

>  <SCORE.INTRA.POLAR>
0

>  <SCORE.INTRA.POLAR.0>
0

>  <SCORE.INTRA.REPUL>
0

>  <SCORE.INTRA.REPUL.0>
0

>  <SCORE.INTRA.SOLV>
-0.0688635

>  <SCORE.INTRA.SOLV.lig_0>
-16.5947

>  <SCORE.INTRA.VDW>
0.181854

>  <SCORE.INTRA.VDW.0>
-0.691398

>  <SCORE.INTRA.norm>
-0.728693

>  <SCORE.RESTR>
0.479446

>  <SCORE.RESTR.CAVITY>
0.479446

>  <SCORE.RESTR.norm>
0.043586

>  <SCORE.SYSTEM>
0

>  <SCORE.SYSTEM.CONST>
0

>  <SCORE.SYSTEM.DIHEDRAL>
0

>  <SCORE.SYSTEM.SOLV>
0

>  <SCORE.SYSTEM.norm>
0

>  <SCORE.heavy>
11

>  <SCORE.norm>
-2.42551

>  <RMSD>
1.637

>  <RMSD>
1.637

$$$$
1akx_lig
 OpenBabel11021811383D
libRbt.so/2013.1/901 2013/11/27
 11 10  0  0  0  0  0  0  0  0999 V2000
   -2.9858   -5.5637    2.7315 N   0  0  0  0  0  0  0  0  0  0  0  0
   -3.0843   -4.9991    1.3532 C   0  0  2  0  0  0  0  0  0  0  0  0
   -1.6985   -5.0082    0.6959 C   0  0  0  0  0  0  0  0  0  0  0  0
   -1.1309   -6.0580    0.4679 O   0  0  0  0  0  0  0  0  0  0  0  0
   -3.6142   -3.5604    1.4225 C   0  0  0  0  0  0  0  0  0  0  0  0
   -4.3289   -3.2091    0.1137 C   0  0  0  0  0  0  0  0  0  0  0  0
   -3.2930   -2.8948   -0.9657 C   0  0  0  0  0  0  0  0  0  0  0  0
   -3.9908   -2.5844   -2.2459 N   0  0  0  0  0  0  0  0  0  0  0  0
   -3.3383   -2.6257   -3.3794 C   0  0  0  0  0  0  0  0  0  0  0  0
   -3.9553   -2.3717   -4.5047 N   0  0  0  0  0  0  0  0  0  0  0  0
   -2.0648   -2.9154   -3.3860 N   0  0  0  0  0  0  0  0  0  0  0  0
  2  1  1  1  0  0  0
  2  3  1  0  0  0  0
  2  5  1  0  0  0  0
  3  4  1  0  0  0  0
  5  6  1  0  0  0  0
  6  7  1  0  0  0  0
  7  8  1  0  0  0  0
  8  9  1  0  0  0  0
  9 10  1  0  0  0  0
  9 11  1  0  0  0  0
M  END
>  <CHROM.1>
177.82025181,64.17509631,-153.42621506,-77.90836895,178.69642298,-162.19656006
179.03044220,125.72087991,75.51070792,-3.02491956,-3.82446465,-0.70676510
1.39072024,-0.62056392,1.94089297

>  <Name>
1akx_lig

>  <RI>
0

>  <Rbt.Current_Directory>
/home/itssahil/PROJECTS/Mol_Feturizer/New_Systems/rnas/1akx

>  <Rbt.Executable>
rbdock ($Id: //depot/dev/client3/rdock/2013.1/src/exe/rbdock.cxx#4 $)

>  <Rbt.Library>
libRbt.so (2013.1, Build901 2013/11/27)

>  <Rbt.Parameter_File>
/export/apps/rDock/src/rDock_2013.1_src/data/scripts/dock_solv.prm

>  <Rbt.Receptor>
prm/pocket_docking_2.prm

>  <SCORE>
-24.5447

>  <SCORE.INTER>
-19.5317

>  <SCORE.INTER.CONST>
1

>  <SCORE.INTER.POLAR>
-3.40506

>  <SCORE.INTER.ROT>
8

>  <SCORE.INTER.SOLV>
6.2828

>  <SCORE.INTER.VDW>
-12.6986

>  <SCORE.INTER.norm>
-1.77561

>  <SCORE.INTRA>
-5.01298

>  <SCORE.INTRA.DIHEDRAL>
-13.1037

>  <SCORE.INTRA.DIHEDRAL.0>
21.6454

>  <SCORE.INTRA.POLAR>
0

>  <SCORE.INTRA.POLAR.0>
0

>  <SCORE.INTRA.REPUL>
0

>  <SCORE.INTRA.REPUL.0>
0

>  <SCORE.INTRA.SOLV>
0.282904

>  <SCORE.INTRA.SOLV.lig_0>
-16.5947

>  <SCORE.INTRA.VDW>
1.39744

>  <SCORE.INTRA.VDW.0>
-0.691398

>  <SCORE.INTRA.norm>
-0.455725

>  <SCORE.RESTR>
0

>  <SCORE.RESTR.CAVITY>
0

>  <SCORE.RESTR.norm>
0

>  <SCORE.SYSTEM>
0

>  <SCORE.SYSTEM.CONST>
0

>  <SCORE.SYSTEM.DIHEDRAL>
0

>  <SCORE.SYSTEM.SOLV>
0

>  <SCORE.SYSTEM.norm>
0

>  <SCORE.heavy>
11

>  <SCORE.norm>
-2.23134

>  <RMSD>
1.644

$$$$
1akx_lig
 OpenBabel11021811383D
libRbt.so/2013.1/901 2013/11/27
 11 10  0  0  0  0  0  0  0  0999 V2000
   -1.9549   -6.0601    0.5300 N   0  0  0  0  0  0  0  0  0  0  0  0
   -1.6102   -4.6373    0.8216 C   0  0  2  0  0  0  0  0  0  0  0  0
   -0.6108   -4.5805    1.9838 C   0  0  0  0  0  0  0  0  0  0  0  0
    0.4905   -5.0820    1.8751 O   0  0  0  0  0  0  0  0  0  0  0  0
   -2.8828   -3.8653    1.1960 C   0  0  0  0  0  0  0  0  0  0  0  0
   -3.7506   -3.6637   -0.0505 C   0  0  0  0  0  0  0  0  0  0  0  0
   -3.0712   -2.6676   -0.9903 C   0  0  0  0  0  0  0  0  0  0  0  0
   -3.8694   -2.5461   -2.2435 N   0  0  0  0  0  0  0  0  0  0  0  0
   -3.2808   -2.6194   -3.4099 C   0  0  0  0  0  0  0  0  0  0  0  0
   -2.0049   -2.8973   -3.4881 N   0  0  0  0  0  0  0  0  0  0  0  0
   -3.9719   -2.4204   -4.5002 N   0  0  0  0  0  0  0  0  0  0  0  0
  2  1  1  1  0  0  0
  2  3  1  0  0  0  0
  2  5  1  0  0  0  0
  3  4  1  0  0  0  0
  5  6  1  0  0  0  0
  6  7  1  0  0  0  0
  7  8  1  0  0  0  0
  8  9  1  0  0  0  0
  9 10  1  0  0  0  0
  9 11  1  0  0  0  0
M  END
>  <CHROM.1>
-54.80858569,62.81880380,-71.76122349,-70.00087457,176.06330394,-131.89818641
5.02077028,-100.49187780,127.05076353,-2.39433310,-3.76384133,-0.78529858
1.12004664,-0.29982244,1.88226581

>  <Name>
1akx_lig

>  <RI>
0

>  <Rbt.Current_Directory>
/home/afrankz/demos/rdock_decoys_rna/rnas/1akx

>  <Rbt.Executable>
rbdock ($Id: //depot/dev/client3/rdock/2013.1/src/exe/rbdock.cxx#4 $)

>  <Rbt.Library>
libRbt.so (2013.1, Build901 2013/11/27)

>  <Rbt.Parameter_File>
/export/apps/rDock/src/rDock_2013.1_src/data/scripts/dock_solv.prm

>  <Rbt.Receptor>
prm/pocket_docking_2.prm

>  <SCORE>
-26.072

>  <SCORE.INTER>
-19.0642

>  <SCORE.INTER.CONST>
1

>  <SCORE.INTER.POLAR>
-3.27107

>  <SCORE.INTER.ROT>
8

>  <SCORE.INTER.SOLV>
6.79561

>  <SCORE.INTER.VDW>
-13.0044

>  <SCORE.INTER.norm>
-1.73311

>  <SCORE.INTRA>
-7.00775

>  <SCORE.INTRA.DIHEDRAL>
-15.7389

>  <SCORE.INTRA.DIHEDRAL.0>
21.6454

>  <SCORE.INTRA.POLAR>
0

>  <SCORE.INTRA.POLAR.0>
0

>  <SCORE.INTRA.REPUL>
0

>  <SCORE.INTRA.REPUL.0>
0

>  <SCORE.INTRA.SOLV>
0.302419

>  <SCORE.INTRA.SOLV.lig_0>
-16.5947

>  <SCORE.INTRA.VDW>
0.710486

>  <SCORE.INTRA.VDW.0>
-0.691398

>  <SCORE.INTRA.norm>
-0.637068

>  <SCORE.RESTR>
0

>  <SCORE.RESTR.CAVITY>
0

>  <SCORE.RESTR.norm>
0

>  <SCORE.SYSTEM>
0

>  <SCORE.SYSTEM.CONST>
0

>  <SCORE.SYSTEM.DIHEDRAL>
0

>  <SCORE.SYSTEM.SOLV>
0

>  <SCORE.SYSTEM.norm>
0

>  <SCORE.heavy>
11

>  <SCORE.norm>
-2.37018

>  <RMSD>
1.665

>  <RMSD>
1.665

$$$$
1akx_lig
 OpenBabel11021811383D
libRbt.so/2013.1/901 2013/11/27
 11 10  0  0  0  0  0  0  0  0999 V2000
   -1.9549   -6.0601    0.5300 N   0  0  0  0  0  0  0  0  0  0  0  0
   -1.6102   -4.6373    0.8216 C   0  0  2  0  0  0  0  0  0  0  0  0
   -0.6108   -4.5805    1.9838 C   0  0  0  0  0  0  0  0  0  0  0  0
    0.4905   -5.0820    1.8751 O   0  0  0  0  0  0  0  0  0  0  0  0
   -2.8828   -3.8653    1.1960 C   0  0  0  0  0  0  0  0  0  0  0  0
   -3.7506   -3.6637   -0.0505 C   0  0  0  0  0  0  0  0  0  0  0  0
   -3.0712   -2.6676   -0.9903 C   0  0  0  0  0  0  0  0  0  0  0  0
   -3.8694   -2.5461   -2.2435 N   0  0  0  0  0  0  0  0  0  0  0  0
   -3.2808   -2.6194   -3.4099 C   0  0  0  0  0  0  0  0  0  0  0  0
   -2.0049   -2.8973   -3.4881 N   0  0  0  0  0  0  0  0  0  0  0  0
   -3.9719   -2.4204   -4.5002 N   0  0  0  0  0  0  0  0  0  0  0  0
  2  1  1  1  0  0  0
  2  3  1  0  0  0  0
  2  5  1  0  0  0  0
  3  4  1  0  0  0  0
  5  6  1  0  0  0  0
  6  7  1  0  0  0  0
  7  8  1  0  0  0  0
  8  9  1  0  0  0  0
  9 10  1  0  0  0  0
  9 11  1  0  0  0  0
M  END
>  <CHROM.1>
-54.80858569,62.81880380,-71.76122349,-70.00087457,176.06330394,-131.89818641
5.02077028,-100.49187780,127.05076353,-2.39433310,-3.76384133,-0.78529858
1.12004664,-0.29982244,1.88226581

>  <Name>
1akx_lig

>  <RI>
0

>  <Rbt.Current_Directory>
/home/afrankz/demos/rdock_decoys_rna/rnas/1akx

>  <Rbt.Executable>
rbdock ($Id: //depot/dev/client3/rdock/2013.1/src/exe/rbdock.cxx#4 $)

>  <Rbt.Library>
libRbt.so (2013.1, Build901 2013/11/27)

>  <Rbt.Parameter_File>
/export/apps/rDock/src/rDock_2013.1_src/data/scripts/dock_solv.prm

>  <Rbt.Receptor>
prm/pocket_docking_2.prm

>  <SCORE>
-26.072

>  <SCORE.INTER>
-19.0642

>  <SCORE.INTER.CONST>
1

>  <SCORE.INTER.POLAR>
-3.27107

>  <SCORE.INTER.ROT>
8

>  <SCORE.INTER.SOLV>
6.79561

>  <SCORE.INTER.VDW>
-13.0044

>  <SCORE.INTER.norm>
-1.73311

>  <SCORE.INTRA>
-7.00775

>  <SCORE.INTRA.DIHEDRAL>
-15.7389

>  <SCORE.INTRA.DIHEDRAL.0>
21.6454

>  <SCORE.INTRA.POLAR>
0

>  <SCORE.INTRA.POLAR.0>
0

>  <SCORE.INTRA.REPUL>
0

>  <SCORE.INTRA.REPUL.0>
0

>  <SCORE.INTRA.SOLV>
0.302419

>  <SCORE.INTRA.SOLV.lig_0>
-16.5947

>  <SCORE.INTRA.VDW>
0.710486

>  <SCORE.INTRA.VDW.0>
-0.691398

>  <SCORE.INTRA.norm>
-0.637068

>  <SCORE.RESTR>
0

>  <SCORE.RESTR.CAVITY>
0

>  <SCORE.RESTR.norm>
0

>  <SCORE.SYSTEM>
0

>  <SCORE.SYSTEM.CONST>
0

>  <SCORE.SYSTEM.DIHEDRAL>
0

>  <SCORE.SYSTEM.SOLV>
0

>  <SCORE.SYSTEM.norm>
0

>  <SCORE.heavy>
11

>  <SCORE.norm>
-2.37018

>  <RMSD>
1.665

>  <RMSD>
1.665

$$$$
1akx_lig
 OpenBabel11021811383D
libRbt.so/2013.1/901 2013/11/27
 11 10  0  0  0  0  0  0  0  0999 V2000
    0.5143   -4.4200    1.2516 N   0  0  0  0  0  0  0  0  0  0  0  0
   -0.7826   -5.1454    1.1098 C   0  0  2  0  0  0  0  0  0  0  0  0
   -0.6030   -6.6050    1.5460 C   0  0  0  0  0  0  0  0  0  0  0  0
    0.1214   -7.3515    0.9183 O   0  0  0  0  0  0  0  0  0  0  0  0
   -1.2431   -5.0961   -0.3533 C   0  0  0  0  0  0  0  0  0  0  0  0
   -1.8538   -3.7241   -0.6570 C   0  0  0  0  0  0  0  0  0  0  0  0
   -2.3688   -3.7014   -2.0962 C   0  0  0  0  0  0  0  0  0  0  0  0
   -3.4201   -2.6530   -2.2291 N   0  0  0  0  0  0  0  0  0  0  0  0
   -4.1976   -2.6284   -3.2814 C   0  0  0  0  0  0  0  0  0  0  0  0
   -3.8644   -1.9218   -4.3307 N   0  0  0  0  0  0  0  0  0  0  0  0
   -5.3073   -3.3173   -3.2858 N   0  0  0  0  0  0  0  0  0  0  0  0
  2  1  1  6  0  0  0
  2  3  1  0  0  0  0
  2  5  1  0  0  0  0
  3  4  1  0  0  0  0
  5  6  1  0  0  0  0
  6  7  1  0  0  0  0
  7  8  1  0  0  0  0
  8  9  1  0  0  0  0
  9 10  1  0  0  0  0
  9 11  1  0  0  0  0
M  END
>  <CHROM.1>
-152.54908540,-65.27429811,-78.06867435,-177.43081534,156.87722104,-165.89287686
-91.37707005,82.75923564,18.59891273,-2.07948796,-4.22202584,-1.04577949
-0.74932652,-0.64827946,-0.35999787

>  <Name>
1akx_lig

>  <RI>
0

>  <Rbt.Current_Directory>
/home/itssahil/PROJECTS/Mol_Feturizer/New_Systems/rnas/1akx

>  <Rbt.Executable>
rbdock ($Id: //depot/dev/client3/rdock/2013.1/src/exe/rbdock.cxx#4 $)

>  <Rbt.Library>
libRbt.so (2013.1, Build901 2013/11/27)

>  <Rbt.Parameter_File>
/export/apps/rDock/src/rDock_2013.1_src/data/scripts/dock_solv.prm

>  <Rbt.Receptor>
prm/pocket_docking_3.prm

>  <SCORE>
-30.9377

>  <SCORE.INTER>
-25.2641

>  <SCORE.INTER.CONST>
1

>  <SCORE.INTER.POLAR>
-3.8808

>  <SCORE.INTER.ROT>
8

>  <SCORE.INTER.SOLV>
8.71683

>  <SCORE.INTER.VDW>
-15.7457

>  <SCORE.INTER.norm>
-2.29674

>  <SCORE.INTRA>
-5.67355

>  <SCORE.INTRA.DIHEDRAL>
-12.1471

>  <SCORE.INTRA.DIHEDRAL.0>
21.6454

>  <SCORE.INTRA.POLAR>
0

>  <SCORE.INTRA.POLAR.0>
0

>  <SCORE.INTRA.REPUL>
0

>  <SCORE.INTRA.REPUL.0>
0

>  <SCORE.INTRA.SOLV>
0.223637

>  <SCORE.INTRA.SOLV.lig_0>
-16.5947

>  <SCORE.INTRA.VDW>
0.288181

>  <SCORE.INTRA.VDW.0>
-0.691398

>  <SCORE.INTRA.norm>
-0.515778

>  <SCORE.RESTR>
0

>  <SCORE.RESTR.CAVITY>
0

>  <SCORE.RESTR.norm>
0

>  <SCORE.SYSTEM>
0

>  <SCORE.SYSTEM.CONST>
0

>  <SCORE.SYSTEM.DIHEDRAL>
0

>  <SCORE.SYSTEM.SOLV>
0

>  <SCORE.SYSTEM.norm>
0

>  <SCORE.heavy>
11

>  <SCORE.norm>
-2.81252

>  <RMSD>
1.679

$$$$
1akx_lig
 OpenBabel11021811383D
libRbt.so/2013.1/901 2013/11/27
 11 10  0  0  0  0  0  0  0  0999 V2000
   -2.5816   -4.3274    2.2714 N   0  0  0  0  0  0  0  0  0  0  0  0
   -1.7913   -4.8317    1.1098 C   0  0  2  0  0  0  0  0  0  0  0  0
   -1.2041   -6.2075    1.4488 C   0  0  0  0  0  0  0  0  0  0  0  0
   -0.4704   -6.7752    0.6642 O   0  0  0  0  0  0  0  0  0  0  0  0
   -0.6558   -3.8487    0.7936 C   0  0  0  0  0  0  0  0  0  0  0  0
   -0.5606   -3.6388   -0.7210 C   0  0  0  0  0  0  0  0  0  0  0  0
   -1.7641   -2.8276   -1.2010 C   0  0  0  0  0  0  0  0  0  0  0  0
   -1.6068   -2.5197   -2.6511 N   0  0  0  0  0  0  0  0  0  0  0  0
   -2.4781   -2.9675   -3.5187 C   0  0  0  0  0  0  0  0  0  0  0  0
   -3.6945   -3.2632   -3.1386 N   0  0  0  0  0  0  0  0  0  0  0  0
   -2.1331   -3.1137   -4.7699 N   0  0  0  0  0  0  0  0  0  0  0  0
  2  1  1  1  0  0  0
  2  3  1  0  0  0  0
  2  5  1  0  0  0  0
  3  4  1  0  0  0  0
  5  6  1  0  0  0  0
  6  7  1  0  0  0  0
  7  8  1  0  0  0  0
  8  9  1  0  0  0  0
  9 10  1  0  0  0  0
  9 11  1  0  0  0  0
M  END
>  <CHROM.1>
-176.13339758,-176.50243228,-136.45039592,70.87561982,174.92662089,118.07694842
24.06083741,-68.91236101,54.42626250,-1.74892296,-4.03641994,-0.88908309
1.26587728,-0.88617986,1.77836167

>  <Name>
1akx_lig

>  <RI>
0

>  <Rbt.Current_Directory>
/home/itssahil/PROJECTS/Mol_Feturizer/New_Systems/rnas/1akx

>  <Rbt.Executable>
rbdock ($Id: //depot/dev/client3/rdock/2013.1/src/exe/rbdock.cxx#4 $)

>  <Rbt.Library>
libRbt.so (2013.1, Build901 2013/11/27)

>  <Rbt.Parameter_File>
/export/apps/rDock/src/rDock_2013.1_src/data/scripts/dock_solv.prm

>  <Rbt.Receptor>
prm/pocket_docking_3.prm

>  <SCORE>
-26.2669

>  <SCORE.INTER>
-21.2842

>  <SCORE.INTER.CONST>
1

>  <SCORE.INTER.POLAR>
-3.74437

>  <SCORE.INTER.ROT>
8

>  <SCORE.INTER.SOLV>
7.78656

>  <SCORE.INTER.VDW>
-13.2371

>  <SCORE.INTER.norm>
-1.93493

>  <SCORE.INTRA>
-4.98271

>  <SCORE.INTRA.DIHEDRAL>
-11.3304

>  <SCORE.INTRA.DIHEDRAL.0>
21.6454

>  <SCORE.INTRA.POLAR>
0

>  <SCORE.INTRA.POLAR.0>
0

>  <SCORE.INTRA.REPUL>
0

>  <SCORE.INTRA.REPUL.0>
0

>  <SCORE.INTRA.SOLV>
0.210704

>  <SCORE.INTRA.SOLV.lig_0>
-16.5947

>  <SCORE.INTRA.VDW>
0.577147

>  <SCORE.INTRA.VDW.0>
-0.691398

>  <SCORE.INTRA.norm>
-0.452973

>  <SCORE.RESTR>
0

>  <SCORE.RESTR.CAVITY>
0

>  <SCORE.RESTR.norm>
0

>  <SCORE.SYSTEM>
0

>  <SCORE.SYSTEM.CONST>
0

>  <SCORE.SYSTEM.DIHEDRAL>
0

>  <SCORE.SYSTEM.SOLV>
0

>  <SCORE.SYSTEM.norm>
0

>  <SCORE.heavy>
11

>  <SCORE.norm>
-2.3879

>  <RMSD>
1.682

$$$$
1akx_lig
 OpenBabel11021811383D
libRbt.so/2013.1/901 2013/11/27
 11 10  0  0  0  0  0  0  0  0999 V2000
   -1.8559   -5.3395    1.4887 N   0  0  0  0  0  0  0  0  0  0  0  0
   -0.6602   -5.0901    0.6306 C   0  0  2  0  0  0  0  0  0  0  0  0
    0.5098   -4.6238    1.5061 C   0  0  0  0  0  0  0  0  0  0  0  0
    0.9692   -5.3540    2.3616 O   0  0  0  0  0  0  0  0  0  0  0  0
   -0.9890   -4.0113   -0.4103 C   0  0  0  0  0  0  0  0  0  0  0  0
   -1.8907   -4.6016   -1.4993 C   0  0  0  0  0  0  0  0  0  0  0  0
   -3.3505   -4.2711   -1.1884 C   0  0  0  0  0  0  0  0  0  0  0  0
   -3.6369   -2.8654   -1.5936 N   0  0  0  0  0  0  0  0  0  0  0  0
   -3.1254   -2.3796   -2.6959 C   0  0  0  0  0  0  0  0  0  0  0  0
   -3.8555   -2.2903   -3.7777 N   0  0  0  0  0  0  0  0  0  0  0  0
   -1.8831   -1.9768   -2.7135 N   0  0  0  0  0  0  0  0  0  0  0  0
  2  1  1  1  0  0  0
  2  3  1  0  0  0  0
  2  5  1  0  0  0  0
  3  4  1  0  0  0  0
  5  6  1  0  0  0  0
  6  7  1  0  0  0  0
  7  8  1  0  0  0  0
  8  9  1  0  0  0  0
  9 10  1  0  0  0  0
  9 11  1  0  0  0  0
M  END
>  <CHROM.1>
66.77549256,62.76200686,-74.26550102,96.85579231,79.11246912,39.17887132
101.01150546,-179.56603204,162.78286598,-1.80727346,-3.88351805,-0.70077315
0.99080804,0.24956410,2.25779670

>  <Name>
1akx_lig

>  <RI>
0

>  <Rbt.Current_Directory>
/home/itssahil/PROJECTS/Mol_Feturizer/New_Systems/rnas/1akx

>  <Rbt.Executable>
rbdock ($Id: //depot/dev/client3/rdock/2013.1/src/exe/rbdock.cxx#4 $)

>  <Rbt.Library>
libRbt.so (2013.1, Build901 2013/11/27)

>  <Rbt.Parameter_File>
/export/apps/rDock/src/rDock_2013.1_src/data/scripts/dock_solv.prm

>  <Rbt.Receptor>
prm/pocket_docking_2.prm

>  <SCORE>
-19.6715

>  <SCORE.INTER>
-16.3634

>  <SCORE.INTER.CONST>
1

>  <SCORE.INTER.POLAR>
-2.39466

>  <SCORE.INTER.ROT>
8

>  <SCORE.INTER.SOLV>
6.89335

>  <SCORE.INTER.VDW>
-14.1578

>  <SCORE.INTER.norm>
-1.48758

>  <SCORE.INTRA>
-3.45857

>  <SCORE.INTRA.DIHEDRAL>
-10.5138

>  <SCORE.INTRA.DIHEDRAL.0>
21.6454

>  <SCORE.INTRA.POLAR>
0

>  <SCORE.INTRA.POLAR.0>
0

>  <SCORE.INTRA.REPUL>
0

>  <SCORE.INTRA.REPUL.0>
0

>  <SCORE.INTRA.SOLV>
1.03484

>  <SCORE.INTRA.SOLV.lig_0>
-16.5947

>  <SCORE.INTRA.VDW>
1.2809

>  <SCORE.INTRA.VDW.0>
-0.691398

>  <SCORE.INTRA.norm>
-0.314415

>  <SCORE.RESTR>
0.150522

>  <SCORE.RESTR.CAVITY>
0.150522

>  <SCORE.RESTR.norm>
0.0136839

>  <SCORE.SYSTEM>
0

>  <SCORE.SYSTEM.CONST>
0

>  <SCORE.SYSTEM.DIHEDRAL>
0

>  <SCORE.SYSTEM.SOLV>
0

>  <SCORE.SYSTEM.norm>
0

>  <SCORE.heavy>
11

>  <SCORE.norm>
-1.78831

>  <RMSD>
1.685

$$$$
1akx_lig
 OpenBabel11021811383D
libRbt.so/2013.1/901 2013/11/27
 11 10  0  0  0  0  0  0  0  0999 V2000
    0.5084   -4.2591    1.4533 N   0  0  0  0  0  0  0  0  0  0  0  0
   -0.8854   -4.6911    1.1390 C   0  0  2  0  0  0  0  0  0  0  0  0
   -0.9590   -6.2232    1.1404 C   0  0  0  0  0  0  0  0  0  0  0  0
   -0.3089   -6.8726    0.3455 O   0  0  0  0  0  0  0  0  0  0  0  0
   -1.2921   -4.1553   -0.2405 C   0  0  0  0  0  0  0  0  0  0  0  0
   -2.7725   -3.7608   -0.2259 C   0  0  0  0  0  0  0  0  0  0  0  0
   -3.4052   -4.1014   -1.5752 C   0  0  0  0  0  0  0  0  0  0  0  0
   -3.6134   -2.8479   -2.3547 N   0  0  0  0  0  0  0  0  0  0  0  0
   -3.1870   -2.7603   -3.5888 C   0  0  0  0  0  0  0  0  0  0  0  0
   -1.9322   -2.9992   -3.8711 N   0  0  0  0  0  0  0  0  0  0  0  0
   -4.0194   -2.4391   -4.5427 N   0  0  0  0  0  0  0  0  0  0  0  0
  2  1  1  6  0  0  0
  2  3  1  0  0  0  0
  2  5  1  0  0  0  0
  3  4  1  0  0  0  0
  5  6  1  0  0  0  0
  6  7  1  0  0  0  0
  7  8  1  0  0  0  0
  8  9  1  0  0  0  0
  9 10  1  0  0  0  0
  9 11  1  0  0  0  0
M  END
>  <CHROM.1>
-23.19698588,-62.38333916,-143.45672319,-143.42070838,-105.36341409,129.23012746
-54.93780476,91.88012546,131.99769013,-1.94963785,-4.09358643,-1.13875791
-0.91902427,-0.64073806,-0.62165539

>  <Name>
1akx_lig

>  <RI>
0

>  <Rbt.Current_Directory>
/home/itssahil/PROJECTS/Mol_Feturizer/New_Systems/rnas/1akx

>  <Rbt.Executable>
rbdock ($Id: //depot/dev/client3/rdock/2013.1/src/exe/rbdock.cxx#4 $)

>  <Rbt.Library>
libRbt.so (2013.1, Build901 2013/11/27)

>  <Rbt.Parameter_File>
/export/apps/rDock/src/rDock_2013.1_src/data/scripts/dock_solv.prm

>  <Rbt.Receptor>
prm/pocket_docking_3.prm

>  <SCORE>
-26.561

>  <SCORE.INTER>
-26.3878

>  <SCORE.INTER.CONST>
1

>  <SCORE.INTER.POLAR>
-4.70775

>  <SCORE.INTER.ROT>
8

>  <SCORE.INTER.SOLV>
7.79193

>  <SCORE.INTER.VDW>
-13.43

>  <SCORE.INTER.norm>
-2.39889

>  <SCORE.INTRA>
-0.173203

>  <SCORE.INTRA.DIHEDRAL>
-1.63107

>  <SCORE.INTRA.DIHEDRAL.0>
21.6454

>  <SCORE.INTRA.POLAR>
0

>  <SCORE.INTRA.POLAR.0>
0

>  <SCORE.INTRA.REPUL>
0

>  <SCORE.INTRA.REPUL.0>
0

>  <SCORE.INTRA.SOLV>
0.475666

>  <SCORE.INTRA.SOLV.lig_0>
-16.5947

>  <SCORE.INTRA.VDW>
0.404499

>  <SCORE.INTRA.VDW.0>
-0.691398

>  <SCORE.INTRA.norm>
-0.0157457

>  <SCORE.RESTR>
0

>  <SCORE.RESTR.CAVITY>
0

>  <SCORE.RESTR.norm>
0

>  <SCORE.SYSTEM>
0

>  <SCORE.SYSTEM.CONST>
0

>  <SCORE.SYSTEM.DIHEDRAL>
0

>  <SCORE.SYSTEM.SOLV>
0

>  <SCORE.SYSTEM.norm>
0

>  <SCORE.heavy>
11

>  <SCORE.norm>
-2.41464

>  <RMSD>
1.687

$$$$
1akx_lig
 OpenBabel11021811383D
libRbt.so/2013.1/901 2013/11/27
 11 10  0  0  0  0  0  0  0  0999 V2000
   -1.2476   -2.8524    2.2892 N   0  0  0  0  0  0  0  0  0  0  0  0
   -2.1299   -4.0390    2.0851 C   0  0  2  0  0  0  0  0  0  0  0  0
   -1.5900   -5.2239    2.8958 C   0  0  0  0  0  0  0  0  0  0  0  0
   -0.4431   -5.5983    2.7516 O   0  0  0  0  0  0  0  0  0  0  0  0
   -2.1646   -4.4050    0.5951 C   0  0  0  0  0  0  0  0  0  0  0  0
   -2.9233   -3.3262   -0.1847 C   0  0  0  0  0  0  0  0  0  0  0  0
   -3.0066   -3.7244   -1.6582 C   0  0  0  0  0  0  0  0  0  0  0  0
   -3.6393   -2.6201   -2.4343 N   0  0  0  0  0  0  0  0  0  0  0  0
   -3.3362   -2.4420   -3.6948 C   0  0  0  0  0  0  0  0  0  0  0  0
   -2.1553   -2.7823   -4.1431 N   0  0  0  0  0  0  0  0  0  0  0  0
   -4.2188   -1.9284   -4.5092 N   0  0  0  0  0  0  0  0  0  0  0  0
  2  1  1  6  0  0  0
  2  3  1  0  0  0  0
  2  5  1  0  0  0  0
  3  4  1  0  0  0  0
  5  6  1  0  0  0  0
  6  7  1  0  0  0  0
  7  8  1  0  0  0  0
  8  9  1  0  0  0  0
  9 10  1  0  0  0  0
  9 11  1  0  0  0  0
M  END
>  <CHROM.1>
-178.32705022,-54.96990426,-69.48981026,-177.61247537,-175.10679845,151.07547895
-29.19166489,-66.24509405,94.27251333,-2.41570273,-3.51178056,-0.55723988
1.02421070,-0.94563358,1.44376616

>  <Name>
1akx_lig

>  <RI>
0

>  <Rbt.Current_Directory>
/home/afrankz/demos/rdock_decoys_rna/rnas/1akx

>  <Rbt.Executable>
rbdock ($Id: //depot/dev/client3/rdock/2013.1/src/exe/rbdock.cxx#4 $)

>  <Rbt.Library>
libRbt.so (2013.1, Build901 2013/11/27)

>  <Rbt.Parameter_File>
/export/apps/rDock/src/rDock_2013.1_src/data/scripts/dock_solv.prm

>  <Rbt.Receptor>
prm/pocket_docking_3.prm

>  <SCORE>
-23.6188

>  <SCORE.INTER>
-16.0396

>  <SCORE.INTER.CONST>
1

>  <SCORE.INTER.POLAR>
-2.74786

>  <SCORE.INTER.ROT>
8

>  <SCORE.INTER.SOLV>
7.08145

>  <SCORE.INTER.VDW>
-12.8273

>  <SCORE.INTER.norm>
-1.45814

>  <SCORE.INTRA>
-7.5792

>  <SCORE.INTRA.DIHEDRAL>
-16.2803

>  <SCORE.INTRA.DIHEDRAL.0>
21.6454

>  <SCORE.INTRA.POLAR>
0

>  <SCORE.INTRA.POLAR.0>
0

>  <SCORE.INTRA.REPUL>
0

>  <SCORE.INTRA.REPUL.0>
0

>  <SCORE.INTRA.SOLV>
0.277936

>  <SCORE.INTRA.SOLV.lig_0>
-16.5947

>  <SCORE.INTRA.VDW>
0.422004

>  <SCORE.INTRA.VDW.0>
-0.691398

>  <SCORE.INTRA.norm>
-0.689018

>  <SCORE.RESTR>
0

>  <SCORE.RESTR.CAVITY>
0

>  <SCORE.RESTR.norm>
0

>  <SCORE.SYSTEM>
0

>  <SCORE.SYSTEM.CONST>
0

>  <SCORE.SYSTEM.DIHEDRAL>
0

>  <SCORE.SYSTEM.SOLV>
0

>  <SCORE.SYSTEM.norm>
0

>  <SCORE.heavy>
11

>  <SCORE.norm>
-2.14716

>  <RMSD>
1.700

>  <RMSD>
1.700

$$$$
1akx_lig
 OpenBabel11021811383D
libRbt.so/2013.1/901 2013/11/27
 11 10  0  0  0  0  0  0  0  0999 V2000
   -1.2476   -2.8524    2.2892 N   0  0  0  0  0  0  0  0  0  0  0  0
   -2.1299   -4.0390    2.0851 C   0  0  2  0  0  0  0  0  0  0  0  0
   -1.5900   -5.2239    2.8958 C   0  0  0  0  0  0  0  0  0  0  0  0
   -0.4431   -5.5983    2.7516 O   0  0  0  0  0  0  0  0  0  0  0  0
   -2.1646   -4.4050    0.5951 C   0  0  0  0  0  0  0  0  0  0  0  0
   -2.9233   -3.3262   -0.1847 C   0  0  0  0  0  0  0  0  0  0  0  0
   -3.0066   -3.7244   -1.6582 C   0  0  0  0  0  0  0  0  0  0  0  0
   -3.6393   -2.6201   -2.4343 N   0  0  0  0  0  0  0  0  0  0  0  0
   -3.3362   -2.4420   -3.6948 C   0  0  0  0  0  0  0  0  0  0  0  0
   -2.1553   -2.7823   -4.1431 N   0  0  0  0  0  0  0  0  0  0  0  0
   -4.2188   -1.9284   -4.5092 N   0  0  0  0  0  0  0  0  0  0  0  0
  2  1  1  6  0  0  0
  2  3  1  0  0  0  0
  2  5  1  0  0  0  0
  3  4  1  0  0  0  0
  5  6  1  0  0  0  0
  6  7  1  0  0  0  0
  7  8  1  0  0  0  0
  8  9  1  0  0  0  0
  9 10  1  0  0  0  0
  9 11  1  0  0  0  0
M  END
>  <CHROM.1>
-178.32705022,-54.96990426,-69.48981026,-177.61247537,-175.10679845,151.07547895
-29.19166489,-66.24509405,94.27251333,-2.41570273,-3.51178056,-0.55723988
1.02421070,-0.94563358,1.44376616

>  <Name>
1akx_lig

>  <RI>
0

>  <Rbt.Current_Directory>
/home/afrankz/demos/rdock_decoys_rna/rnas/1akx

>  <Rbt.Executable>
rbdock ($Id: //depot/dev/client3/rdock/2013.1/src/exe/rbdock.cxx#4 $)

>  <Rbt.Library>
libRbt.so (2013.1, Build901 2013/11/27)

>  <Rbt.Parameter_File>
/export/apps/rDock/src/rDock_2013.1_src/data/scripts/dock_solv.prm

>  <Rbt.Receptor>
prm/pocket_docking_3.prm

>  <SCORE>
-23.6188

>  <SCORE.INTER>
-16.0396

>  <SCORE.INTER.CONST>
1

>  <SCORE.INTER.POLAR>
-2.74786

>  <SCORE.INTER.ROT>
8

>  <SCORE.INTER.SOLV>
7.08145

>  <SCORE.INTER.VDW>
-12.8273

>  <SCORE.INTER.norm>
-1.45814

>  <SCORE.INTRA>
-7.5792

>  <SCORE.INTRA.DIHEDRAL>
-16.2803

>  <SCORE.INTRA.DIHEDRAL.0>
21.6454

>  <SCORE.INTRA.POLAR>
0

>  <SCORE.INTRA.POLAR.0>
0

>  <SCORE.INTRA.REPUL>
0

>  <SCORE.INTRA.REPUL.0>
0

>  <SCORE.INTRA.SOLV>
0.277936

>  <SCORE.INTRA.SOLV.lig_0>
-16.5947

>  <SCORE.INTRA.VDW>
0.422004

>  <SCORE.INTRA.VDW.0>
-0.691398

>  <SCORE.INTRA.norm>
-0.689018

>  <SCORE.RESTR>
0

>  <SCORE.RESTR.CAVITY>
0

>  <SCORE.RESTR.norm>
0

>  <SCORE.SYSTEM>
0

>  <SCORE.SYSTEM.CONST>
0

>  <SCORE.SYSTEM.DIHEDRAL>
0

>  <SCORE.SYSTEM.SOLV>
0

>  <SCORE.SYSTEM.norm>
0

>  <SCORE.heavy>
11

>  <SCORE.norm>
-2.14716

>  <RMSD>
1.700

>  <RMSD>
1.700

$$$$
1akx_lig
 OpenBabel11021811383D
libRbt.so/2013.1/901 2013/11/27
 11 10  0  0  0  0  0  0  0  0999 V2000
   -2.2607   -4.3395    2.7043 N   0  0  0  0  0  0  0  0  0  0  0  0
   -1.9874   -4.6260    1.2651 C   0  0  2  0  0  0  0  0  0  0  0  0
   -0.6291   -4.0307    0.8735 C   0  0  0  0  0  0  0  0  0  0  0  0
    0.4016   -4.5151    1.2966 O   0  0  0  0  0  0  0  0  0  0  0  0
   -3.0923   -4.0075    0.3978 C   0  0  0  0  0  0  0  0  0  0  0  0
   -3.0068   -4.5679   -1.0255 C   0  0  0  0  0  0  0  0  0  0  0  0
   -4.2624   -4.1766   -1.8048 C   0  0  0  0  0  0  0  0  0  0  0  0
   -4.1814   -2.7371   -2.1834 N   0  0  0  0  0  0  0  0  0  0  0  0
   -3.6368   -2.3836   -3.3195 C   0  0  0  0  0  0  0  0  0  0  0  0
   -4.3288   -2.4410   -4.4282 N   0  0  0  0  0  0  0  0  0  0  0  0
   -2.3995   -1.9659   -3.3450 N   0  0  0  0  0  0  0  0  0  0  0  0
  2  1  1  1  0  0  0
  2  3  1  0  0  0  0
  2  5  1  0  0  0  0
  3  4  1  0  0  0  0
  5  6  1  0  0  0  0
  6  7  1  0  0  0  0
  7  8  1  0  0  0  0
  8  9  1  0  0  0  0
  9 10  1  0  0  0  0
  9 11  1  0  0  0  0
M  END
>  <CHROM.1>
-59.10123668,70.33722691,-166.68873022,168.60892147,75.32323664,90.18654880
81.53318037,-13.23301479,-170.63572117,-2.65157326,-3.59562298,-0.85303374
1.12095365,0.14315308,1.98902759

>  <Name>
1akx_lig

>  <RI>
0

>  <Rbt.Current_Directory>
/home/itssahil/PROJECTS/Mol_Feturizer/New_Systems/rnas/1akx

>  <Rbt.Executable>
rbdock ($Id: //depot/dev/client3/rdock/2013.1/src/exe/rbdock.cxx#4 $)

>  <Rbt.Library>
libRbt.so (2013.1, Build901 2013/11/27)

>  <Rbt.Parameter_File>
/export/apps/rDock/src/rDock_2013.1_src/data/scripts/dock_solv.prm

>  <Rbt.Receptor>
prm/pocket_docking_2.prm

>  <SCORE>
-23.325

>  <SCORE.INTER>
-16.1457

>  <SCORE.INTER.CONST>
1

>  <SCORE.INTER.POLAR>
-2.68238

>  <SCORE.INTER.ROT>
8

>  <SCORE.INTER.SOLV>
7.14374

>  <SCORE.INTER.VDW>
-13.1371

>  <SCORE.INTER.norm>
-1.46779

>  <SCORE.INTRA>
-7.20478

>  <SCORE.INTRA.DIHEDRAL>
-14.4148

>  <SCORE.INTRA.DIHEDRAL.0>
21.6454

>  <SCORE.INTRA.POLAR>
0

>  <SCORE.INTRA.POLAR.0>
0

>  <SCORE.INTRA.REPUL>
0

>  <SCORE.INTRA.REPUL.0>
0

>  <SCORE.INTRA.SOLV>
0.46018

>  <SCORE.INTRA.SOLV.lig_0>
-16.5947

>  <SCORE.INTRA.VDW>
-0.22749

>  <SCORE.INTRA.VDW.0>
-0.691398

>  <SCORE.INTRA.norm>
-0.65498

>  <SCORE.RESTR>
0.0254645

>  <SCORE.RESTR.CAVITY>
0.0254645

>  <SCORE.RESTR.norm>
0.00231495

>  <SCORE.SYSTEM>
0

>  <SCORE.SYSTEM.CONST>
0

>  <SCORE.SYSTEM.DIHEDRAL>
0

>  <SCORE.SYSTEM.SOLV>
0

>  <SCORE.SYSTEM.norm>
0

>  <SCORE.heavy>
11

>  <SCORE.norm>
-2.12046

>  <RMSD>
1.750

$$$$
1akx_lig
 OpenBabel11021811383D
libRbt.so/2013.1/901 2013/11/27
 11 10  0  0  0  0  0  0  0  0999 V2000
   -2.0330   -4.0095    2.7382 N   0  0  0  0  0  0  0  0  0  0  0  0
   -1.5127   -4.2907    1.3676 C   0  0  2  0  0  0  0  0  0  0  0  0
   -0.7646   -5.6297    1.3688 C   0  0  0  0  0  0  0  0  0  0  0  0
   -0.3152   -6.0859    0.3363 O   0  0  0  0  0  0  0  0  0  0  0  0
   -0.5603   -3.1667    0.9375 C   0  0  0  0  0  0  0  0  0  0  0  0
   -0.4430   -3.1447   -0.5899 C   0  0  0  0  0  0  0  0  0  0  0  0
   -1.7317   -2.5861   -1.1932 C   0  0  0  0  0  0  0  0  0  0  0  0
   -1.5614   -2.4295   -2.6659 N   0  0  0  0  0  0  0  0  0  0  0  0
   -2.4266   -2.9629   -3.4902 C   0  0  0  0  0  0  0  0  0  0  0  0
   -3.6075   -3.3274   -3.0612 N   0  0  0  0  0  0  0  0  0  0  0  0
   -2.1115   -3.1259   -4.7472 N   0  0  0  0  0  0  0  0  0  0  0  0
  2  1  1  1  0  0  0
  2  3  1  0  0  0  0
  2  5  1  0  0  0  0
  3  4  1  0  0  0  0
  5  6  1  0  0  0  0
  6  7  1  0  0  0  0
  7  8  1  0  0  0  0
  8  9  1  0  0  0  0
  9 10  1  0  0  0  0
  9 11  1  0  0  0  0
M  END
>  <CHROM.1>
-60.39809348,176.31457408,-158.68905765,73.11476653,174.00773186,126.94389270
17.84967166,-66.65353534,-117.41925995,-1.57409392,-3.71947705,-0.82255475
1.07239581,-1.07788307,1.43670467

>  <Name>
1akx_lig

>  <RI>
0

>  <Rbt.Current_Directory>
/home/itssahil/PROJECTS/Mol_Feturizer/New_Systems/rnas/1akx

>  <Rbt.Executable>
rbdock ($Id: //depot/dev/client3/rdock/2013.1/src/exe/rbdock.cxx#4 $)

>  <Rbt.Library>
libRbt.so (2013.1, Build901 2013/11/27)

>  <Rbt.Parameter_File>
/export/apps/rDock/src/rDock_2013.1_src/data/scripts/dock_solv.prm

>  <Rbt.Receptor>
prm/pocket_docking_3.prm

>  <SCORE>
-26.2354

>  <SCORE.INTER>
-20.214

>  <SCORE.INTER.CONST>
1

>  <SCORE.INTER.POLAR>
-3.49117

>  <SCORE.INTER.ROT>
8

>  <SCORE.INTER.SOLV>
8.05642

>  <SCORE.INTER.VDW>
-13.4576

>  <SCORE.INTER.norm>
-1.83764

>  <SCORE.INTRA>
-6.0214

>  <SCORE.INTRA.DIHEDRAL>
-14.32

>  <SCORE.INTRA.DIHEDRAL.0>
21.6454

>  <SCORE.INTRA.POLAR>
0

>  <SCORE.INTRA.POLAR.0>
0

>  <SCORE.INTRA.REPUL>
0

>  <SCORE.INTRA.REPUL.0>
0

>  <SCORE.INTRA.SOLV>
0.245656

>  <SCORE.INTRA.SOLV.lig_0>
-16.5947

>  <SCORE.INTRA.VDW>
1.01576

>  <SCORE.INTRA.VDW.0>
-0.691398

>  <SCORE.INTRA.norm>
-0.5474

>  <SCORE.RESTR>
0

>  <SCORE.RESTR.CAVITY>
0

>  <SCORE.RESTR.norm>
0

>  <SCORE.SYSTEM>
0

>  <SCORE.SYSTEM.CONST>
0

>  <SCORE.SYSTEM.DIHEDRAL>
0

>  <SCORE.SYSTEM.SOLV>
0

>  <SCORE.SYSTEM.norm>
0

>  <SCORE.heavy>
11

>  <SCORE.norm>
-2.38504

>  <RMSD>
1.762

$$$$
1akx_lig
 OpenBabel11021811383D
libRbt.so/2013.1/901 2013/11/27
 11 10  0  0  0  0  0  0  0  0999 V2000
   -1.2394   -6.1207    0.8175 N   0  0  0  0  0  0  0  0  0  0  0  0
   -0.4438   -4.9013    0.4886 C   0  0  2  0  0  0  0  0  0  0  0  0
    0.4926   -4.5703    1.6575 C   0  0  0  0  0  0  0  0  0  0  0  0
    1.3331   -5.3693    2.0197 O   0  0  0  0  0  0  0  0  0  0  0  0
   -1.3913   -3.7209    0.2351 C   0  0  0  0  0  0  0  0  0  0  0  0
   -2.2601   -4.0101   -0.9933 C   0  0  0  0  0  0  0  0  0  0  0  0
   -3.1705   -2.8132   -1.2684 C   0  0  0  0  0  0  0  0  0  0  0  0
   -3.9761   -3.0757   -2.4949 N   0  0  0  0  0  0  0  0  0  0  0  0
   -3.5835   -2.6113   -3.6536 C   0  0  0  0  0  0  0  0  0  0  0  0
   -4.4183   -1.9549   -4.4177 N   0  0  0  0  0  0  0  0  0  0  0  0
   -2.3517   -2.7987   -4.0454 N   0  0  0  0  0  0  0  0  0  0  0  0
  2  1  1  1  0  0  0
  2  3  1  0  0  0  0
  2  5  1  0  0  0  0
  3  4  1  0  0  0  0
  5  6  1  0  0  0  0
  6  7  1  0  0  0  0
  7  8  1  0  0  0  0
  8  9  1  0  0  0  0
  9 10  1  0  0  0  0
  9 11  1  0  0  0  0
M  END
>  <CHROM.1>
68.10469794,60.20221801,-63.69103459,-178.19834387,177.80353716,-96.43091373
-130.35788102,-70.11253622,-169.79399848,-1.91232659,-3.84212141,-1.07130079
0.96991927,0.12722109,2.14665835

>  <Name>
1akx_lig

>  <RI>
0

>  <Rbt.Current_Directory>
/home/itssahil/PROJECTS/Mol_Feturizer/New_Systems/rnas/1akx

>  <Rbt.Executable>
rbdock ($Id: //depot/dev/client3/rdock/2013.1/src/exe/rbdock.cxx#4 $)

>  <Rbt.Library>
libRbt.so (2013.1, Build901 2013/11/27)

>  <Rbt.Parameter_File>
/export/apps/rDock/src/rDock_2013.1_src/data/scripts/dock_solv.prm

>  <Rbt.Receptor>
prm/pocket_docking_2.prm

>  <SCORE>
-26.9234

>  <SCORE.INTER>
-18.8871

>  <SCORE.INTER.CONST>
1

>  <SCORE.INTER.POLAR>
-2.87712

>  <SCORE.INTER.ROT>
8

>  <SCORE.INTER.SOLV>
7.9991

>  <SCORE.INTER.VDW>
-14.6007

>  <SCORE.INTER.norm>
-1.717

>  <SCORE.INTRA>
-8.03639

>  <SCORE.INTRA.DIHEDRAL>
-16.6005

>  <SCORE.INTRA.DIHEDRAL.0>
21.6454

>  <SCORE.INTRA.POLAR>
0

>  <SCORE.INTRA.POLAR.0>
0

>  <SCORE.INTRA.REPUL>
0

>  <SCORE.INTRA.REPUL.0>
0

>  <SCORE.INTRA.SOLV>
0.356237

>  <SCORE.INTRA.SOLV.lig_0>
-16.5947

>  <SCORE.INTRA.VDW>
0.0857415

>  <SCORE.INTRA.VDW.0>
-0.691398

>  <SCORE.INTRA.norm>
-0.730581

>  <SCORE.RESTR>
0

>  <SCORE.RESTR.CAVITY>
0

>  <SCORE.RESTR.norm>
0

>  <SCORE.SYSTEM>
0

>  <SCORE.SYSTEM.CONST>
0

>  <SCORE.SYSTEM.DIHEDRAL>
0

>  <SCORE.SYSTEM.SOLV>
0

>  <SCORE.SYSTEM.norm>
0

>  <SCORE.heavy>
11

>  <SCORE.norm>
-2.44759

>  <RMSD>
1.777

$$$$
1akx_lig
 OpenBabel11021811383D
libRbt.so/2013.1/901 2013/11/27
 11 10  0  0  0  0  0  0  0  0999 V2000
   -1.4838   -4.5791    2.3138 N   0  0  0  0  0  0  0  0  0  0  0  0
   -1.5573   -4.8248    0.8433 C   0  0  2  0  0  0  0  0  0  0  0  0
   -1.1359   -6.2689    0.5439 C   0  0  0  0  0  0  0  0  0  0  0  0
   -1.1433   -6.6898   -0.5958 O   0  0  0  0  0  0  0  0  0  0  0  0
   -0.6237   -3.8515    0.1111 C   0  0  0  0  0  0  0  0  0  0  0  0
   -1.1044   -3.6602   -1.3310 C   0  0  0  0  0  0  0  0  0  0  0  0
   -2.0305   -2.4462   -1.4040 C   0  0  0  0  0  0  0  0  0  0  0  0
   -2.4293   -2.2124   -2.8213 N   0  0  0  0  0  0  0  0  0  0  0  0
   -3.6616   -2.4296   -3.2040 C   0  0  0  0  0  0  0  0  0  0  0  0
   -4.5578   -2.8355   -2.3417 N   0  0  0  0  0  0  0  0  0  0  0  0
   -3.9990   -2.2343   -4.4506 N   0  0  0  0  0  0  0  0  0  0  0  0
  2  1  1  1  0  0  0
  2  3  1  0  0  0  0
  2  5  1  0  0  0  0
  3  4  1  0  0  0  0
  5  6  1  0  0  0  0
  6  7  1  0  0  0  0
  7  8  1  0  0  0  0
  8  9  1  0  0  0  0
  9 10  1  0  0  0  0
  9 11  1  0  0  0  0
M  END
>  <CHROM.1>
57.15000578,178.83100561,-155.81548266,92.91520996,176.53680291,110.50019974
0.97676487,46.95542904,154.07173904,-2.18186161,-3.82891557,-1.11654498,-0.11085700
-1.12303219,0.48896671

>  <Name>
1akx_lig

>  <RI>
0

>  <Rbt.Current_Directory>
/home/itssahil/PROJECTS/Mol_Feturizer/New_Systems/rnas/1akx

>  <Rbt.Executable>
rbdock ($Id: //depot/dev/client3/rdock/2013.1/src/exe/rbdock.cxx#4 $)

>  <Rbt.Library>
libRbt.so (2013.1, Build901 2013/11/27)

>  <Rbt.Parameter_File>
/export/apps/rDock/src/rDock_2013.1_src/data/scripts/dock_solv.prm

>  <Rbt.Receptor>
prm/pocket_docking_3.prm

>  <SCORE>
-27.3002

>  <SCORE.INTER>
-22.7124

>  <SCORE.INTER.CONST>
1

>  <SCORE.INTER.POLAR>
-3.45257

>  <SCORE.INTER.ROT>
8

>  <SCORE.INTER.SOLV>
7.37534

>  <SCORE.INTER.VDW>
-15.0248

>  <SCORE.INTER.norm>
-2.06476

>  <SCORE.INTRA>
-4.58779

>  <SCORE.INTRA.DIHEDRAL>
-11.1882

>  <SCORE.INTRA.DIHEDRAL.0>
21.6454

>  <SCORE.INTRA.POLAR>
0

>  <SCORE.INTRA.POLAR.0>
0

>  <SCORE.INTRA.REPUL>
0

>  <SCORE.INTRA.REPUL.0>
0

>  <SCORE.INTRA.SOLV>
0.222264

>  <SCORE.INTRA.SOLV.lig_0>
-16.5947

>  <SCORE.INTRA.VDW>
0.895174

>  <SCORE.INTRA.VDW.0>
-0.691398

>  <SCORE.INTRA.norm>
-0.417072

>  <SCORE.RESTR>
0

>  <SCORE.RESTR.CAVITY>
0

>  <SCORE.RESTR.norm>
0

>  <SCORE.SYSTEM>
0

>  <SCORE.SYSTEM.CONST>
0

>  <SCORE.SYSTEM.DIHEDRAL>
0

>  <SCORE.SYSTEM.SOLV>
0

>  <SCORE.SYSTEM.norm>
0

>  <SCORE.heavy>
11

>  <SCORE.norm>
-2.48184

>  <RMSD>
1.788

$$$$
1akx_lig
 OpenBabel11021811383D
libRbt.so/2013.1/901 2013/11/27
 11 10  0  0  0  0  0  0  0  0999 V2000
    0.4892   -4.4264    1.1627 N   0  0  0  0  0  0  0  0  0  0  0  0
   -0.7660   -5.1563    0.8168 C   0  0  2  0  0  0  0  0  0  0  0  0
   -0.7187   -6.5680    1.4147 C   0  0  0  0  0  0  0  0  0  0  0  0
    0.0934   -7.3794    1.0167 O   0  0  0  0  0  0  0  0  0  0  0  0
   -0.9063   -5.2455   -0.7089 C   0  0  0  0  0  0  0  0  0  0  0  0
   -1.3807   -3.8986   -1.2640 C   0  0  0  0  0  0  0  0  0  0  0  0
   -2.8982   -3.9275   -1.4470 C   0  0  0  0  0  0  0  0  0  0  0  0
   -3.3327   -2.6994   -2.1718 N   0  0  0  0  0  0  0  0  0  0  0  0
   -3.1592   -2.6008   -3.4651 C   0  0  0  0  0  0  0  0  0  0  0  0
   -1.9941   -2.8689   -3.9962 N   0  0  0  0  0  0  0  0  0  0  0  0
   -4.1553   -2.2395   -4.2288 N   0  0  0  0  0  0  0  0  0  0  0  0
  2  1  1  6  0  0  0
  2  3  1  0  0  0  0
  2  5  1  0  0  0  0
  3  4  1  0  0  0  0
  5  6  1  0  0  0  0
  6  7  1  0  0  0  0
  7  8  1  0  0  0  0
  8  9  1  0  0  0  0
  9 10  1  0  0  0  0
  9 11  1  0  0  0  0
M  END
>  <CHROM.1>
-145.33805988,-66.10383849,-77.04986317,-96.34646704,-171.67725556,77.09401068
-49.46175440,107.79900226,151.19289200,-1.67697389,-4.25910488,-1.17847940
-0.93739533,-0.63082590,-0.51464161

>  <Name>
1akx_lig

>  <RI>
0

>  <Rbt.Current_Directory>
/home/itssahil/PROJECTS/Mol_Feturizer/New_Systems/rnas/1akx

>  <Rbt.Executable>
rbdock ($Id: //depot/dev/client3/rdock/2013.1/src/exe/rbdock.cxx#4 $)

>  <Rbt.Library>
libRbt.so (2013.1, Build901 2013/11/27)

>  <Rbt.Parameter_File>
/export/apps/rDock/src/rDock_2013.1_src/data/scripts/dock_solv.prm

>  <Rbt.Receptor>
prm/pocket_docking_2.prm

>  <SCORE>
-29.9858

>  <SCORE.INTER>
-27.1865

>  <SCORE.INTER.CONST>
1

>  <SCORE.INTER.POLAR>
-4.07949

>  <SCORE.INTER.ROT>
8

>  <SCORE.INTER.SOLV>
8.52446

>  <SCORE.INTER.VDW>
-16.3009

>  <SCORE.INTER.norm>
-2.4715

>  <SCORE.INTRA>
-3.43794

>  <SCORE.INTRA.DIHEDRAL>
-9.06152

>  <SCORE.INTRA.DIHEDRAL.0>
21.6454

>  <SCORE.INTRA.POLAR>
0

>  <SCORE.INTRA.POLAR.0>
0

>  <SCORE.INTRA.REPUL>
0

>  <SCORE.INTRA.REPUL.0>
0

>  <SCORE.INTRA.SOLV>
0.584195

>  <SCORE.INTRA.SOLV.lig_0>
-16.5947

>  <SCORE.INTRA.VDW>
0.800726

>  <SCORE.INTRA.VDW.0>
-0.691398

>  <SCORE.INTRA.norm>
-0.31254

>  <SCORE.RESTR>
0.638664

>  <SCORE.RESTR.CAVITY>
0.638664

>  <SCORE.RESTR.norm>
0.0580604

>  <SCORE.SYSTEM>
0

>  <SCORE.SYSTEM.CONST>
0

>  <SCORE.SYSTEM.DIHEDRAL>
0

>  <SCORE.SYSTEM.SOLV>
0

>  <SCORE.SYSTEM.norm>
0

>  <SCORE.heavy>
11

>  <SCORE.norm>
-2.72598

>  <RMSD>
1.821

$$$$
1akx_lig
 OpenBabel11021811383D
libRbt.so/2013.1/901 2013/11/27
 11 10  0  0  0  0  0  0  0  0999 V2000
   -2.1299   -3.9372    1.6959 N   0  0  0  0  0  0  0  0  0  0  0  0
   -1.9083   -5.0193    0.6918 C   0  0  2  0  0  0  0  0  0  0  0  0
   -0.4029   -5.2595    0.5219 C   0  0  0  0  0  0  0  0  0  0  0  0
    0.2673   -5.6563    1.4544 O   0  0  0  0  0  0  0  0  0  0  0  0
   -2.5210   -4.6070   -0.6536 C   0  0  0  0  0  0  0  0  0  0  0  0
   -4.0380   -4.4525   -0.5050 C   0  0  0  0  0  0  0  0  0  0  0  0
   -4.6460   -4.0613   -1.8520 C   0  0  0  0  0  0  0  0  0  0  0  0
   -4.1047   -2.7379   -2.2737 N   0  0  0  0  0  0  0  0  0  0  0  0
   -3.3877   -2.6357   -3.3636 C   0  0  0  0  0  0  0  0  0  0  0  0
   -2.0979   -2.8514   -3.3267 N   0  0  0  0  0  0  0  0  0  0  0  0
   -3.9636   -2.3231   -4.4934 N   0  0  0  0  0  0  0  0  0  0  0  0
  2  1  1  1  0  0  0
  2  3  1  0  0  0  0
  2  5  1  0  0  0  0
  3  4  1  0  0  0  0
  5  6  1  0  0  0  0
  6  7  1  0  0  0  0
  7  8  1  0  0  0  0
  8  9  1  0  0  0  0
  9 10  1  0  0  0  0
  9 11  1  0  0  0  0
M  END
>  <CHROM.1>
-175.32385391,63.13823591,-63.28813467,-179.19915201,-62.65078186,116.90059131
-86.13657349,63.49190284,132.82514583,-2.60303828,-3.92890876,-1.08836632
1.06536148,-0.13133371,1.97046497

>  <Name>
1akx_lig

>  <RI>
0

>  <Rbt.Current_Directory>
/home/itssahil/PROJECTS/Mol_Feturizer/New_Systems/rnas/1akx

>  <Rbt.Executable>
rbdock ($Id: //depot/dev/client3/rdock/2013.1/src/exe/rbdock.cxx#4 $)

>  <Rbt.Library>
libRbt.so (2013.1, Build901 2013/11/27)

>  <Rbt.Parameter_File>
/export/apps/rDock/src/rDock_2013.1_src/data/scripts/dock_solv.prm

>  <Rbt.Receptor>
prm/pocket_docking_2.prm

>  <SCORE>
-28.7213

>  <SCORE.INTER>
-20.2776

>  <SCORE.INTER.CONST>
1

>  <SCORE.INTER.POLAR>
-3.43893

>  <SCORE.INTER.ROT>
8

>  <SCORE.INTER.SOLV>
6.59522

>  <SCORE.INTER.VDW>
-13.1871

>  <SCORE.INTER.norm>
-1.84342

>  <SCORE.INTRA>
-8.44365

>  <SCORE.INTRA.DIHEDRAL>
-16.6813

>  <SCORE.INTRA.DIHEDRAL.0>
21.6454

>  <SCORE.INTRA.POLAR>
0

>  <SCORE.INTRA.POLAR.0>
0

>  <SCORE.INTRA.REPUL>
0

>  <SCORE.INTRA.REPUL.0>
0

>  <SCORE.INTRA.SOLV>
0.657138

>  <SCORE.INTRA.SOLV.lig_0>
-16.5947

>  <SCORE.INTRA.VDW>
-0.431556

>  <SCORE.INTRA.VDW.0>
-0.691398

>  <SCORE.INTRA.norm>
-0.767604

>  <SCORE.RESTR>
0

>  <SCORE.RESTR.CAVITY>
0

>  <SCORE.RESTR.norm>
0

>  <SCORE.SYSTEM>
0

>  <SCORE.SYSTEM.CONST>
0

>  <SCORE.SYSTEM.DIHEDRAL>
0

>  <SCORE.SYSTEM.SOLV>
0

>  <SCORE.SYSTEM.norm>
0

>  <SCORE.heavy>
11

>  <SCORE.norm>
-2.61103

>  <RMSD>
1.833

$$$$
1akx_lig
 OpenBabel11021811383D
libRbt.so/2013.1/901 2013/11/27
 11 10  0  0  0  0  0  0  0  0999 V2000
   -2.4404   -4.8997    1.4647 N   0  0  0  0  0  0  0  0  0  0  0  0
   -1.4577   -5.7549    0.7359 C   0  0  2  0  0  0  0  0  0  0  0  0
   -0.8430   -6.7702    1.7075 C   0  0  0  0  0  0  0  0  0  0  0  0
   -0.0075   -7.5641    1.3230 O   0  0  0  0  0  0  0  0  0  0  0  0
   -0.3511   -4.8744    0.1397 C   0  0  0  0  0  0  0  0  0  0  0  0
   -0.7274   -4.4676   -1.2887 C   0  0  0  0  0  0  0  0  0  0  0  0
   -1.3643   -3.0780   -1.2731 C   0  0  0  0  0  0  0  0  0  0  0  0
   -1.4592   -2.5614   -2.6682 N   0  0  0  0  0  0  0  0  0  0  0  0
   -2.4013   -2.9915   -3.4681 C   0  0  0  0  0  0  0  0  0  0  0  0
   -3.5931   -3.2584   -2.9992 N   0  0  0  0  0  0  0  0  0  0  0  0
   -2.1519   -3.1488   -4.7405 N   0  0  0  0  0  0  0  0  0  0  0  0
  2  1  1  1  0  0  0
  2  3  1  0  0  0  0
  2  5  1  0  0  0  0
  3  4  1  0  0  0  0
  5  6  1  0  0  0  0
  6  7  1  0  0  0  0
  7  8  1  0  0  0  0
  8  9  1  0  0  0  0
  9 10  1  0  0  0  0
  9 11  1  0  0  0  0
M  END
>  <CHROM.1>
-55.29579322,-179.56516755,-91.81872271,96.75689966,167.86965508,77.78432074
36.20205608,-67.90502866,52.11290639,-1.55783155,-4.48539470,-1.01076081
1.28676376,-0.51698470,2.04145675

>  <Name>
1akx_lig

>  <RI>
0

>  <Rbt.Current_Directory>
/home/itssahil/PROJECTS/Mol_Feturizer/New_Systems/rnas/1akx

>  <Rbt.Executable>
rbdock ($Id: //depot/dev/client3/rdock/2013.1/src/exe/rbdock.cxx#4 $)

>  <Rbt.Library>
libRbt.so (2013.1, Build901 2013/11/27)

>  <Rbt.Parameter_File>
/export/apps/rDock/src/rDock_2013.1_src/data/scripts/dock_solv.prm

>  <Rbt.Receptor>
prm/pocket_docking_3.prm

>  <SCORE>
-26.4588

>  <SCORE.INTER>
-22.1844

>  <SCORE.INTER.CONST>
1

>  <SCORE.INTER.POLAR>
-3.62027

>  <SCORE.INTER.ROT>
8

>  <SCORE.INTER.SOLV>
8.18511

>  <SCORE.INTER.VDW>
-14.3837

>  <SCORE.INTER.norm>
-2.01676

>  <SCORE.INTRA>
-4.32161

>  <SCORE.INTRA.DIHEDRAL>
-8.90839

>  <SCORE.INTRA.DIHEDRAL.0>
21.6454

>  <SCORE.INTRA.POLAR>
0

>  <SCORE.INTRA.POLAR.0>
0

>  <SCORE.INTRA.REPUL>
0

>  <SCORE.INTRA.REPUL.0>
0

>  <SCORE.INTRA.SOLV>
0.292531

>  <SCORE.INTRA.SOLV.lig_0>
-16.5947

>  <SCORE.INTRA.VDW>
-0.0136869

>  <SCORE.INTRA.VDW.0>
-0.691398

>  <SCORE.INTRA.norm>
-0.392874

>  <SCORE.RESTR>
0.0471927

>  <SCORE.RESTR.CAVITY>
0.0471927

>  <SCORE.RESTR.norm>
0.00429024

>  <SCORE.SYSTEM>
0

>  <SCORE.SYSTEM.CONST>
0

>  <SCORE.SYSTEM.DIHEDRAL>
0

>  <SCORE.SYSTEM.SOLV>
0

>  <SCORE.SYSTEM.norm>
0

>  <SCORE.heavy>
11

>  <SCORE.norm>
-2.40535

>  <RMSD>
1.843

$$$$
1akx_lig
 OpenBabel11021811383D
libRbt.so/2013.1/901 2013/11/27
 11 10  0  0  0  0  0  0  0  0999 V2000
   -1.5279   -3.8433    1.2098 N   0  0  0  0  0  0  0  0  0  0  0  0
   -2.1342   -5.1446    0.8008 C   0  0  2  0  0  0  0  0  0  0  0  0
   -1.0362   -6.2105    0.6960 C   0  0  0  0  0  0  0  0  0  0  0  0
   -0.3552   -6.4914    1.6622 O   0  0  0  0  0  0  0  0  0  0  0  0
   -2.8302   -4.9842   -0.5576 C   0  0  0  0  0  0  0  0  0  0  0  0
   -4.1786   -4.2820   -0.3678 C   0  0  0  0  0  0  0  0  0  0  0  0
   -4.7166   -3.8331   -1.7265 C   0  0  0  0  0  0  0  0  0  0  0  0
   -3.9422   -2.6502   -2.1991 N   0  0  0  0  0  0  0  0  0  0  0  0
   -3.3035   -2.6932   -3.3404 C   0  0  0  0  0  0  0  0  0  0  0  0
   -3.9281   -2.4164   -4.4560 N   0  0  0  0  0  0  0  0  0  0  0  0
   -2.0360   -3.0076   -3.3644 N   0  0  0  0  0  0  0  0  0  0  0  0
  2  1  1  6  0  0  0
  2  3  1  0  0  0  0
  2  5  1  0  0  0  0
  3  4  1  0  0  0  0
  5  6  1  0  0  0  0
  6  7  1  0  0  0  0
  7  8  1  0  0  0  0
  8  9  1  0  0  0  0
  9 10  1  0  0  0  0
  9 11  1  0  0  0  0
M  END
>  <CHROM.1>
57.80643215,59.40549185,-77.67534008,166.90899006,-74.09024027,121.56557165
85.10317492,124.50143341,-114.96726160,-2.68312523,-4.11253001,-1.05805384
-1.13326224,0.19158982,-1.09014596

>  <Name>
1akx_lig

>  <RI>
0

>  <Rbt.Current_Directory>
/home/afrankz/demos/rdock_decoys_rna/rnas/1akx

>  <Rbt.Executable>
rbdock ($Id: //depot/dev/client3/rdock/2013.1/src/exe/rbdock.cxx#4 $)

>  <Rbt.Library>
libRbt.so (2013.1, Build901 2013/11/27)

>  <Rbt.Parameter_File>
/export/apps/rDock/src/rDock_2013.1_src/data/scripts/dock_solv.prm

>  <Rbt.Receptor>
prm/pocket_docking_2.prm

>  <SCORE>
-26.9001

>  <SCORE.INTER>
-19.0556

>  <SCORE.INTER.CONST>
1

>  <SCORE.INTER.POLAR>
-3.40908

>  <SCORE.INTER.ROT>
8

>  <SCORE.INTER.SOLV>
6.28275

>  <SCORE.INTER.VDW>
-12.3677

>  <SCORE.INTER.norm>
-1.73233

>  <SCORE.INTRA>
-7.84531

>  <SCORE.INTRA.DIHEDRAL>
-14.2477

>  <SCORE.INTRA.DIHEDRAL.0>
21.6454

>  <SCORE.INTRA.POLAR>
0

>  <SCORE.INTRA.POLAR.0>
0

>  <SCORE.INTRA.REPUL>
0

>  <SCORE.INTRA.REPUL.0>
0

>  <SCORE.INTRA.SOLV>
0.581788

>  <SCORE.INTRA.SOLV.lig_0>
-16.5947

>  <SCORE.INTRA.VDW>
-1.01236

>  <SCORE.INTRA.VDW.0>
-0.691398

>  <SCORE.INTRA.norm>
-0.71321

>  <SCORE.RESTR>
0.00075906

>  <SCORE.RESTR.CAVITY>
0.00075906

>  <SCORE.RESTR.norm>
6.90054e-05

>  <SCORE.SYSTEM>
0

>  <SCORE.SYSTEM.CONST>
0

>  <SCORE.SYSTEM.DIHEDRAL>
0

>  <SCORE.SYSTEM.SOLV>
0

>  <SCORE.SYSTEM.norm>
0

>  <SCORE.heavy>
11

>  <SCORE.norm>
-2.44547

>  <RMSD>
1.849

>  <RMSD>
1.849

$$$$
1akx_lig
 OpenBabel11021811383D
libRbt.so/2013.1/901 2013/11/27
 11 10  0  0  0  0  0  0  0  0999 V2000
   -1.5279   -3.8433    1.2098 N   0  0  0  0  0  0  0  0  0  0  0  0
   -2.1342   -5.1446    0.8008 C   0  0  2  0  0  0  0  0  0  0  0  0
   -1.0362   -6.2105    0.6960 C   0  0  0  0  0  0  0  0  0  0  0  0
   -0.3552   -6.4914    1.6622 O   0  0  0  0  0  0  0  0  0  0  0  0
   -2.8302   -4.9842   -0.5576 C   0  0  0  0  0  0  0  0  0  0  0  0
   -4.1786   -4.2820   -0.3678 C   0  0  0  0  0  0  0  0  0  0  0  0
   -4.7166   -3.8331   -1.7265 C   0  0  0  0  0  0  0  0  0  0  0  0
   -3.9422   -2.6502   -2.1991 N   0  0  0  0  0  0  0  0  0  0  0  0
   -3.3035   -2.6932   -3.3404 C   0  0  0  0  0  0  0  0  0  0  0  0
   -3.9281   -2.4164   -4.4560 N   0  0  0  0  0  0  0  0  0  0  0  0
   -2.0360   -3.0076   -3.3644 N   0  0  0  0  0  0  0  0  0  0  0  0
  2  1  1  6  0  0  0
  2  3  1  0  0  0  0
  2  5  1  0  0  0  0
  3  4  1  0  0  0  0
  5  6  1  0  0  0  0
  6  7  1  0  0  0  0
  7  8  1  0  0  0  0
  8  9  1  0  0  0  0
  9 10  1  0  0  0  0
  9 11  1  0  0  0  0
M  END
>  <CHROM.1>
57.80643215,59.40549185,-77.67534008,166.90899006,-74.09024027,121.56557165
85.10317492,124.50143341,-114.96726160,-2.68312523,-4.11253001,-1.05805384
-1.13326224,0.19158982,-1.09014596

>  <Name>
1akx_lig

>  <RI>
0

>  <Rbt.Current_Directory>
/home/afrankz/demos/rdock_decoys_rna/rnas/1akx

>  <Rbt.Executable>
rbdock ($Id: //depot/dev/client3/rdock/2013.1/src/exe/rbdock.cxx#4 $)

>  <Rbt.Library>
libRbt.so (2013.1, Build901 2013/11/27)

>  <Rbt.Parameter_File>
/export/apps/rDock/src/rDock_2013.1_src/data/scripts/dock_solv.prm

>  <Rbt.Receptor>
prm/pocket_docking_2.prm

>  <SCORE>
-26.9001

>  <SCORE.INTER>
-19.0556

>  <SCORE.INTER.CONST>
1

>  <SCORE.INTER.POLAR>
-3.40908

>  <SCORE.INTER.ROT>
8

>  <SCORE.INTER.SOLV>
6.28275

>  <SCORE.INTER.VDW>
-12.3677

>  <SCORE.INTER.norm>
-1.73233

>  <SCORE.INTRA>
-7.84531

>  <SCORE.INTRA.DIHEDRAL>
-14.2477

>  <SCORE.INTRA.DIHEDRAL.0>
21.6454

>  <SCORE.INTRA.POLAR>
0

>  <SCORE.INTRA.POLAR.0>
0

>  <SCORE.INTRA.REPUL>
0

>  <SCORE.INTRA.REPUL.0>
0

>  <SCORE.INTRA.SOLV>
0.581788

>  <SCORE.INTRA.SOLV.lig_0>
-16.5947

>  <SCORE.INTRA.VDW>
-1.01236

>  <SCORE.INTRA.VDW.0>
-0.691398

>  <SCORE.INTRA.norm>
-0.71321

>  <SCORE.RESTR>
0.00075906

>  <SCORE.RESTR.CAVITY>
0.00075906

>  <SCORE.RESTR.norm>
6.90054e-05

>  <SCORE.SYSTEM>
0

>  <SCORE.SYSTEM.CONST>
0

>  <SCORE.SYSTEM.DIHEDRAL>
0

>  <SCORE.SYSTEM.SOLV>
0

>  <SCORE.SYSTEM.norm>
0

>  <SCORE.heavy>
11

>  <SCORE.norm>
-2.44547

>  <RMSD>
1.849

>  <RMSD>
1.849

$$$$
1akx_lig
 OpenBabel11021811383D
libRbt.so/2013.1/901 2013/11/27
 11 10  0  0  0  0  0  0  0  0999 V2000
   -1.1409   -7.1647    1.1126 N   0  0  0  0  0  0  0  0  0  0  0  0
   -1.1433   -5.8467    0.4119 C   0  0  2  0  0  0  0  0  0  0  0  0
   -0.5024   -4.7856    1.3151 C   0  0  0  0  0  0  0  0  0  0  0  0
    0.6533   -4.8970    1.6732 O   0  0  0  0  0  0  0  0  0  0  0  0
   -2.5863   -5.4415    0.0819 C   0  0  0  0  0  0  0  0  0  0  0  0
   -2.5828   -4.1844   -0.7940 C   0  0  0  0  0  0  0  0  0  0  0  0
   -3.9523   -4.0164   -1.4520 C   0  0  0  0  0  0  0  0  0  0  0  0
   -3.9634   -2.7628   -2.2587 N   0  0  0  0  0  0  0  0  0  0  0  0
   -3.3028   -2.6985   -3.3864 C   0  0  0  0  0  0  0  0  0  0  0  0
   -3.9240   -2.3989   -4.4980 N   0  0  0  0  0  0  0  0  0  0  0  0
   -2.0170   -2.9281   -3.4004 N   0  0  0  0  0  0  0  0  0  0  0  0
  2  1  1  1  0  0  0
  2  3  1  0  0  0  0
  2  5  1  0  0  0  0
  3  4  1  0  0  0  0
  5  6  1  0  0  0  0
  6  7  1  0  0  0  0
  7  8  1  0  0  0  0
  8  9  1  0  0  0  0
  9 10  1  0  0  0  0
  9 11  1  0  0  0  0
M  END
>  <CHROM.1>
-177.68795900,61.27641681,-172.69819761,163.60836613,177.68839183,72.62683868
122.60210928,128.88312551,71.25217798,-2.19768505,-4.29641196,-1.01975779
1.05212963,0.36350193,2.35490030

>  <Name>
1akx_lig

>  <RI>
0

>  <Rbt.Current_Directory>
/home/itssahil/PROJECTS/Mol_Feturizer/New_Systems/rnas/1akx

>  <Rbt.Executable>
rbdock ($Id: //depot/dev/client3/rdock/2013.1/src/exe/rbdock.cxx#4 $)

>  <Rbt.Library>
libRbt.so (2013.1, Build901 2013/11/27)

>  <Rbt.Parameter_File>
/export/apps/rDock/src/rDock_2013.1_src/data/scripts/dock_solv.prm

>  <Rbt.Receptor>
prm/pocket_docking_2.prm

>  <SCORE>
-26.9261

>  <SCORE.INTER>
-20.3694

>  <SCORE.INTER.CONST>
1

>  <SCORE.INTER.POLAR>
-3.41677

>  <SCORE.INTER.ROT>
8

>  <SCORE.INTER.SOLV>
6.94503

>  <SCORE.INTER.VDW>
-13.4387

>  <SCORE.INTER.norm>
-1.85177

>  <SCORE.INTRA>
-6.5567

>  <SCORE.INTRA.DIHEDRAL>
-15.5366

>  <SCORE.INTRA.DIHEDRAL.0>
21.6454

>  <SCORE.INTRA.POLAR>
0

>  <SCORE.INTRA.POLAR.0>
0

>  <SCORE.INTRA.REPUL>
0

>  <SCORE.INTRA.REPUL.0>
0

>  <SCORE.INTRA.SOLV>
0.407135

>  <SCORE.INTRA.SOLV.lig_0>
-16.5947

>  <SCORE.INTRA.VDW>
1.00802

>  <SCORE.INTRA.VDW.0>
-0.691398

>  <SCORE.INTRA.norm>
-0.596064

>  <SCORE.RESTR>
0

>  <SCORE.RESTR.CAVITY>
0

>  <SCORE.RESTR.norm>
0

>  <SCORE.SYSTEM>
0

>  <SCORE.SYSTEM.CONST>
0

>  <SCORE.SYSTEM.DIHEDRAL>
0

>  <SCORE.SYSTEM.SOLV>
0

>  <SCORE.SYSTEM.norm>
0

>  <SCORE.heavy>
11

>  <SCORE.norm>
-2.44783

>  <RMSD>
1.859

$$$$
1akx_lig
 OpenBabel11021811383D
libRbt.so/2013.1/901 2013/11/27
 11 10  0  0  0  0  0  0  0  0999 V2000
    0.7345   -4.3186    1.3296 N   0  0  0  0  0  0  0  0  0  0  0  0
   -0.6594   -4.8527    1.3373 C   0  0  2  0  0  0  0  0  0  0  0  0
   -0.6242   -6.3722    1.5436 C   0  0  0  0  0  0  0  0  0  0  0  0
   -0.0296   -7.0872    0.7617 O   0  0  0  0  0  0  0  0  0  0  0  0
   -1.3428   -4.5280    0.0020 C   0  0  0  0  0  0  0  0  0  0  0  0
   -1.5773   -3.0177   -0.1049 C   0  0  0  0  0  0  0  0  0  0  0  0
   -2.5315   -2.7297   -1.2640 C   0  0  0  0  0  0  0  0  0  0  0  0
   -1.8473   -3.0286   -2.5542 N   0  0  0  0  0  0  0  0  0  0  0  0
   -2.4192   -2.7217   -3.6905 C   0  0  0  0  0  0  0  0  0  0  0  0
   -3.4569   -1.9254   -3.7121 N   0  0  0  0  0  0  0  0  0  0  0  0
   -1.9477   -3.2074   -4.8075 N   0  0  0  0  0  0  0  0  0  0  0  0
  2  1  1  6  0  0  0
  2  3  1  0  0  0  0
  2  5  1  0  0  0  0
  3  4  1  0  0  0  0
  5  6  1  0  0  0  0
  6  7  1  0  0  0  0
  7  8  1  0  0  0  0
  8  9  1  0  0  0  0
  9 10  1  0  0  0  0
  9 11  1  0  0  0  0
M  END
>  <CHROM.1>
83.31300511,-58.92954072,-68.61262207,-167.06331491,-69.00996392,-172.64833725
13.42951770,143.74648073,-178.52501932,-1.39403707,-3.98552525,-1.04210888
0.47683241,-1.12411041,1.07931616

>  <Name>
1akx_lig

>  <RI>
0

>  <Rbt.Current_Directory>
/home/itssahil/PROJECTS/Mol_Feturizer/New_Systems/rnas/1akx

>  <Rbt.Executable>
rbdock ($Id: //depot/dev/client3/rdock/2013.1/src/exe/rbdock.cxx#4 $)

>  <Rbt.Library>
libRbt.so (2013.1, Build901 2013/11/27)

>  <Rbt.Parameter_File>
/export/apps/rDock/src/rDock_2013.1_src/data/scripts/dock_solv.prm

>  <Rbt.Receptor>
prm/pocket_docking_3.prm

>  <SCORE>
-29.3312

>  <SCORE.INTER>
-24.0415

>  <SCORE.INTER.CONST>
1

>  <SCORE.INTER.POLAR>
-3.57782

>  <SCORE.INTER.ROT>
8

>  <SCORE.INTER.SOLV>
9.54962

>  <SCORE.INTER.VDW>
-16.2182

>  <SCORE.INTER.norm>
-2.1856

>  <SCORE.INTRA>
-5.28968

>  <SCORE.INTRA.DIHEDRAL>
-14.3882

>  <SCORE.INTRA.DIHEDRAL.0>
21.6454

>  <SCORE.INTRA.POLAR>
0

>  <SCORE.INTRA.POLAR.0>
0

>  <SCORE.INTRA.REPUL>
0

>  <SCORE.INTRA.REPUL.0>
0

>  <SCORE.INTRA.SOLV>
0.459402

>  <SCORE.INTRA.SOLV.lig_0>
-16.5947

>  <SCORE.INTRA.VDW>
1.67472

>  <SCORE.INTRA.VDW.0>
-0.691398

>  <SCORE.INTRA.norm>
-0.48088

>  <SCORE.RESTR>
0

>  <SCORE.RESTR.CAVITY>
0

>  <SCORE.RESTR.norm>
0

>  <SCORE.SYSTEM>
0

>  <SCORE.SYSTEM.CONST>
0

>  <SCORE.SYSTEM.DIHEDRAL>
0

>  <SCORE.SYSTEM.SOLV>
0

>  <SCORE.SYSTEM.norm>
0

>  <SCORE.heavy>
11

>  <SCORE.norm>
-2.66648

>  <RMSD>
1.860

$$$$
1akx_lig
 OpenBabel11021811383D
libRbt.so/2013.1/901 2013/11/27
 11 10  0  0  0  0  0  0  0  0999 V2000
   -1.3422   -6.3139    0.4316 N   0  0  0  0  0  0  0  0  0  0  0  0
   -0.2986   -5.2644    0.6256 C   0  0  2  0  0  0  0  0  0  0  0  0
    0.1861   -5.2873    2.0807 C   0  0  0  0  0  0  0  0  0  0  0  0
    0.6875   -6.2905    2.5480 O   0  0  0  0  0  0  0  0  0  0  0  0
   -0.8876   -3.8855    0.2985 C   0  0  0  0  0  0  0  0  0  0  0  0
   -1.1864   -3.7936   -1.2013 C   0  0  0  0  0  0  0  0  0  0  0  0
   -1.8844   -2.4674   -1.5028 C   0  0  0  0  0  0  0  0  0  0  0  0
   -2.3283   -2.4540   -2.9259 N   0  0  0  0  0  0  0  0  0  0  0  0
   -3.5985   -2.5608   -3.2215 C   0  0  0  0  0  0  0  0  0  0  0  0
   -4.0197   -2.2849   -4.4289 N   0  0  0  0  0  0  0  0  0  0  0  0
   -4.4477   -2.9505   -2.3088 N   0  0  0  0  0  0  0  0  0  0  0  0
  2  1  1  1  0  0  0
  2  3  1  0  0  0  0
  2  5  1  0  0  0  0
  3  4  1  0  0  0  0
  5  6  1  0  0  0  0
  6  7  1  0  0  0  0
  7  8  1  0  0  0  0
  8  9  1  0  0  0  0
  9 10  1  0  0  0  0
  9 11  1  0  0  0  0
M  END
>  <CHROM.1>
-178.51060136,59.57333402,-67.82703460,175.09223113,-172.87189583,107.85020544
166.31343731,-29.83946461,-61.34139588,-1.77014295,-3.99424258,-0.88268864
0.92924134,0.53275979,2.51470274

>  <Name>
1akx_lig

>  <RI>
0

>  <Rbt.Current_Directory>
/home/itssahil/PROJECTS/Mol_Feturizer/New_Systems/rnas/1akx

>  <Rbt.Executable>
rbdock ($Id: //depot/dev/client3/rdock/2013.1/src/exe/rbdock.cxx#4 $)

>  <Rbt.Library>
libRbt.so (2013.1, Build901 2013/11/27)

>  <Rbt.Parameter_File>
/export/apps/rDock/src/rDock_2013.1_src/data/scripts/dock_solv.prm

>  <Rbt.Receptor>
prm/pocket_docking_2.prm

>  <SCORE>
-32.451

>  <SCORE.INTER>
-24.8207

>  <SCORE.INTER.CONST>
1

>  <SCORE.INTER.POLAR>
-3.45533

>  <SCORE.INTER.ROT>
8

>  <SCORE.INTER.SOLV>
7.57822

>  <SCORE.INTER.VDW>
-16.4888

>  <SCORE.INTER.norm>
-2.25643

>  <SCORE.INTRA>
-7.64266

>  <SCORE.INTRA.DIHEDRAL>
-16.3047

>  <SCORE.INTRA.DIHEDRAL.0>
21.6454

>  <SCORE.INTRA.POLAR>
0

>  <SCORE.INTRA.POLAR.0>
0

>  <SCORE.INTRA.REPUL>
0

>  <SCORE.INTRA.REPUL.0>
0

>  <SCORE.INTRA.SOLV>
0.319904

>  <SCORE.INTRA.SOLV.lig_0>
-16.5947

>  <SCORE.INTRA.VDW>
0.349717

>  <SCORE.INTRA.VDW.0>
-0.691398

>  <SCORE.INTRA.norm>
-0.694787

>  <SCORE.RESTR>
0.0123988

>  <SCORE.RESTR.CAVITY>
0.0123988

>  <SCORE.RESTR.norm>
0.00112716

>  <SCORE.SYSTEM>
0

>  <SCORE.SYSTEM.CONST>
0

>  <SCORE.SYSTEM.DIHEDRAL>
0

>  <SCORE.SYSTEM.SOLV>
0

>  <SCORE.SYSTEM.norm>
0

>  <SCORE.heavy>
11

>  <SCORE.norm>
-2.95009

>  <RMSD>
1.863

$$$$
1akx_lig
 OpenBabel11021811383D
libRbt.so/2013.1/901 2013/11/27
 11 10  0  0  0  0  0  0  0  0999 V2000
    0.3526   -5.0604    0.8176 N   0  0  0  0  0  0  0  0  0  0  0  0
   -0.3671   -4.0302    1.6232 C   0  0  2  0  0  0  0  0  0  0  0  0
   -0.4973   -4.5133    3.0731 C   0  0  0  0  0  0  0  0  0  0  0  0
   -1.0188   -5.5820    3.3227 O   0  0  0  0  0  0  0  0  0  0  0  0
   -1.7626   -3.7945    1.0296 C   0  0  0  0  0  0  0  0  0  0  0  0
   -1.6326   -3.1939   -0.3739 C   0  0  0  0  0  0  0  0  0  0  0  0
   -2.9991   -2.6969   -0.8455 C   0  0  0  0  0  0  0  0  0  0  0  0
   -2.9712   -2.4995   -2.3228 N   0  0  0  0  0  0  0  0  0  0  0  0
   -4.0341   -2.7539   -3.0424 C   0  0  0  0  0  0  0  0  0  0  0  0
   -5.0653   -3.3537   -2.5056 N   0  0  0  0  0  0  0  0  0  0  0  0
   -4.0674   -2.4017   -4.2997 N   0  0  0  0  0  0  0  0  0  0  0  0
  2  1  1  6  0  0  0
  2  3  1  0  0  0  0
  2  5  1  0  0  0  0
  3  4  1  0  0  0  0
  5  6  1  0  0  0  0
  6  7  1  0  0  0  0
  7  8  1  0  0  0  0
  8  9  1  0  0  0  0
  9 10  1  0  0  0  0
  9 11  1  0  0  0  0
M  END
>  <CHROM.1>
-159.69161095,-55.62314134,-64.76675220,-168.47588066,-163.03924626,144.73754916
-9.40154449,78.84232465,-4.18319308,-2.18625731,-3.65714330,-0.34779913,-1.02287401
0.01017451,-1.20595021

>  <Name>
1akx_lig

>  <RI>
0

>  <Rbt.Current_Directory>
/home/itssahil/PROJECTS/Mol_Feturizer/New_Systems/rnas/1akx

>  <Rbt.Executable>
rbdock ($Id: //depot/dev/client3/rdock/2013.1/src/exe/rbdock.cxx#4 $)

>  <Rbt.Library>
libRbt.so (2013.1, Build901 2013/11/27)

>  <Rbt.Parameter_File>
/export/apps/rDock/src/rDock_2013.1_src/data/scripts/dock_solv.prm

>  <Rbt.Receptor>
prm/pocket_docking_2.prm

>  <SCORE>
-28.0779

>  <SCORE.INTER>
-22.1173

>  <SCORE.INTER.CONST>
1

>  <SCORE.INTER.POLAR>
-3.18909

>  <SCORE.INTER.ROT>
8

>  <SCORE.INTER.SOLV>
6.56095

>  <SCORE.INTER.VDW>
-15.2349

>  <SCORE.INTER.norm>
-2.01066

>  <SCORE.INTRA>
-6.03647

>  <SCORE.INTRA.DIHEDRAL>
-14.2045

>  <SCORE.INTRA.DIHEDRAL.0>
21.6454

>  <SCORE.INTRA.POLAR>
0

>  <SCORE.INTRA.POLAR.0>
0

>  <SCORE.INTRA.REPUL>
0

>  <SCORE.INTRA.REPUL.0>
0

>  <SCORE.INTRA.SOLV>
0.320923

>  <SCORE.INTRA.SOLV.lig_0>
-16.5947

>  <SCORE.INTRA.VDW>
0.905337

>  <SCORE.INTRA.VDW.0>
-0.691398

>  <SCORE.INTRA.norm>
-0.54877

>  <SCORE.RESTR>
0.0759107

>  <SCORE.RESTR.CAVITY>
0.0759107

>  <SCORE.RESTR.norm>
0.00690097

>  <SCORE.SYSTEM>
0

>  <SCORE.SYSTEM.CONST>
0

>  <SCORE.SYSTEM.DIHEDRAL>
0

>  <SCORE.SYSTEM.SOLV>
0

>  <SCORE.SYSTEM.norm>
0

>  <SCORE.heavy>
11

>  <SCORE.norm>
-2.55253

>  <RMSD>
1.864

$$$$
1akx_lig
 OpenBabel11021811383D
libRbt.so/2013.1/901 2013/11/27
 11 10  0  0  0  0  0  0  0  0999 V2000
    0.1894   -6.6785    2.7840 N   0  0  0  0  0  0  0  0  0  0  0  0
   -0.0807   -5.3014    2.2752 C   0  0  2  0  0  0  0  0  0  0  0  0
   -0.8487   -4.5047    3.3373 C   0  0  0  0  0  0  0  0  0  0  0  0
   -1.9230   -4.8982    3.7462 O   0  0  0  0  0  0  0  0  0  0  0  0
   -0.9122   -5.3818    0.9877 C   0  0  0  0  0  0  0  0  0  0  0  0
   -0.9877   -3.9983    0.3339 C   0  0  0  0  0  0  0  0  0  0  0  0
   -1.8705   -4.0695   -0.9121 C   0  0  0  0  0  0  0  0  0  0  0  0
   -2.0940   -2.6933   -1.4396 N   0  0  0  0  0  0  0  0  0  0  0  0
   -2.8234   -2.5078   -2.5102 C   0  0  0  0  0  0  0  0  0  0  0  0
   -2.2649   -2.1286   -3.6307 N   0  0  0  0  0  0  0  0  0  0  0  0
   -4.1131   -2.7084   -2.4606 N   0  0  0  0  0  0  0  0  0  0  0  0
  2  1  1  1  0  0  0
  2  3  1  0  0  0  0
  2  5  1  0  0  0  0
  3  4  1  0  0  0  0
  5  6  1  0  0  0  0
  6  7  1  0  0  0  0
  7  8  1  0  0  0  0
  8  9  1  0  0  0  0
  9 10  1  0  0  0  0
  9 11  1  0  0  0  0
M  END
>  <CHROM.1>
55.37528643,-58.62314342,-170.35154349,-177.37180118,172.34864235,179.88406013
-109.80958623,3.68392860,-126.68378769,-1.62567220,-4.09049297,0.23193901
-1.16417304,0.57497292,-1.30947023

>  <Name>
1akx_lig

>  <RI>
0

>  <Rbt.Current_Directory>
/home/itssahil/PROJECTS/Mol_Feturizer/New_Systems/rnas/1akx

>  <Rbt.Executable>
rbdock ($Id: //depot/dev/client3/rdock/2013.1/src/exe/rbdock.cxx#4 $)

>  <Rbt.Library>
libRbt.so (2013.1, Build901 2013/11/27)

>  <Rbt.Parameter_File>
/export/apps/rDock/src/rDock_2013.1_src/data/scripts/dock_solv.prm

>  <Rbt.Receptor>
prm/pocket_docking_2.prm

>  <SCORE>
-23.3989

>  <SCORE.INTER>
-16.0541

>  <SCORE.INTER.CONST>
1

>  <SCORE.INTER.POLAR>
-2.67288

>  <SCORE.INTER.ROT>
8

>  <SCORE.INTER.SOLV>
5.785

>  <SCORE.INTER.VDW>
-12.6548

>  <SCORE.INTER.norm>
-1.45947

>  <SCORE.INTRA>
-7.34821

>  <SCORE.INTRA.DIHEDRAL>
-16.1724

>  <SCORE.INTRA.DIHEDRAL.0>
21.6454

>  <SCORE.INTRA.POLAR>
0

>  <SCORE.INTRA.POLAR.0>
0

>  <SCORE.INTRA.REPUL>
0

>  <SCORE.INTRA.REPUL.0>
0

>  <SCORE.INTRA.SOLV>
0.249102

>  <SCORE.INTRA.SOLV.lig_0>
-16.5947

>  <SCORE.INTRA.VDW>
0.613449

>  <SCORE.INTRA.VDW.0>
-0.691398

>  <SCORE.INTRA.norm>
-0.668019

>  <SCORE.RESTR>
0.00343662

>  <SCORE.RESTR.CAVITY>
0.00343662

>  <SCORE.RESTR.norm>
0.00031242

>  <SCORE.SYSTEM>
0

>  <SCORE.SYSTEM.CONST>
0

>  <SCORE.SYSTEM.DIHEDRAL>
0

>  <SCORE.SYSTEM.SOLV>
0

>  <SCORE.SYSTEM.norm>
0

>  <SCORE.heavy>
11

>  <SCORE.norm>
-2.12717

>  <RMSD>
1.864

$$$$
1akx_lig
 OpenBabel11021811383D
libRbt.so/2013.1/901 2013/11/27
 11 10  0  0  0  0  0  0  0  0999 V2000
   -1.1897   -6.3766    0.3986 N   0  0  0  0  0  0  0  0  0  0  0  0
   -0.2256   -5.2588    0.6202 C   0  0  2  0  0  0  0  0  0  0  0  0
    0.2545   -5.2782    2.0768 C   0  0  0  0  0  0  0  0  0  0  0  0
    0.7082   -6.2950    2.5631 O   0  0  0  0  0  0  0  0  0  0  0  0
   -0.9120   -3.9194    0.3200 C   0  0  0  0  0  0  0  0  0  0  0  0
   -1.2195   -3.8204   -1.1777 C   0  0  0  0  0  0  0  0  0  0  0  0
   -1.8690   -2.4694   -1.4776 C   0  0  0  0  0  0  0  0  0  0  0  0
   -2.3292   -2.4454   -2.8953 N   0  0  0  0  0  0  0  0  0  0  0  0
   -3.6003   -2.5747   -3.1783 C   0  0  0  0  0  0  0  0  0  0  0  0
   -4.4449   -2.9595   -2.2564 N   0  0  0  0  0  0  0  0  0  0  0  0
   -4.0275   -2.3124   -4.3844 N   0  0  0  0  0  0  0  0  0  0  0  0
  2  1  1  1  0  0  0
  2  3  1  0  0  0  0
  2  5  1  0  0  0  0
  3  4  1  0  0  0  0
  5  6  1  0  0  0  0
  6  7  1  0  0  0  0
  7  8  1  0  0  0  0
  8  9  1  0  0  0  0
  9 10  1  0  0  0  0
  9 11  1  0  0  0  0
M  END
>  <CHROM.1>
-173.16906445,52.40846834,-67.47922356,-178.49552665,-172.62224159,104.24032141
-12.11255038,-82.97732107,-28.62284031,-1.74440585,-4.00958758,-0.86365480
0.89854739,0.57134533,2.56372157

>  <Name>
1akx_lig

>  <RI>
0

>  <Rbt.Current_Directory>
/home/itssahil/PROJECTS/Mol_Feturizer/New_Systems/rnas/1akx

>  <Rbt.Executable>
rbdock ($Id: //depot/dev/client3/rdock/2013.1/src/exe/rbdock.cxx#4 $)

>  <Rbt.Library>
libRbt.so (2013.1, Build901 2013/11/27)

>  <Rbt.Parameter_File>
/export/apps/rDock/src/rDock_2013.1_src/data/scripts/dock_solv.prm

>  <Rbt.Receptor>
prm/pocket_docking_2.prm

>  <SCORE>
-32.4853

>  <SCORE.INTER>
-24.9328

>  <SCORE.INTER.CONST>
1

>  <SCORE.INTER.POLAR>
-3.45533

>  <SCORE.INTER.ROT>
8

>  <SCORE.INTER.SOLV>
7.58704

>  <SCORE.INTER.VDW>
-16.5664

>  <SCORE.INTER.norm>
-2.26662

>  <SCORE.INTRA>
-7.55445

>  <SCORE.INTRA.DIHEDRAL>
-16.0916

>  <SCORE.INTRA.DIHEDRAL.0>
21.6454

>  <SCORE.INTRA.POLAR>
0

>  <SCORE.INTRA.POLAR.0>
0

>  <SCORE.INTRA.REPUL>
0

>  <SCORE.INTRA.REPUL.0>
0

>  <SCORE.INTRA.SOLV>
0.350311

>  <SCORE.INTRA.SOLV.lig_0>
-16.5947

>  <SCORE.INTRA.VDW>
0.316177

>  <SCORE.INTRA.VDW.0>
-0.691398

>  <SCORE.INTRA.norm>
-0.686768

>  <SCORE.RESTR>
0.00196703

>  <SCORE.RESTR.CAVITY>
0.00196703

>  <SCORE.RESTR.norm>
0.000178821

>  <SCORE.SYSTEM>
0

>  <SCORE.SYSTEM.CONST>
0

>  <SCORE.SYSTEM.DIHEDRAL>
0

>  <SCORE.SYSTEM.SOLV>
0

>  <SCORE.SYSTEM.norm>
0

>  <SCORE.heavy>
11

>  <SCORE.norm>
-2.95321

>  <RMSD>
1.870

$$$$
1akx_lig
 OpenBabel11021811383D
libRbt.so/2013.1/901 2013/11/27
 11 10  0  0  0  0  0  0  0  0999 V2000
    0.9725   -4.7813    1.2805 N   0  0  0  0  0  0  0  0  0  0  0  0
   -0.4911   -4.5356    1.4409 C   0  0  2  0  0  0  0  0  0  0  0  0
   -0.9305   -4.9614    2.8474 C   0  0  0  0  0  0  0  0  0  0  0  0
   -2.0843   -4.8220    3.2017 O   0  0  0  0  0  0  0  0  0  0  0  0
   -1.2669   -5.3421    0.3906 C   0  0  0  0  0  0  0  0  0  0  0  0
   -2.3675   -4.4696   -0.2217 C   0  0  0  0  0  0  0  0  0  0  0  0
   -1.7334   -3.3738   -1.0783 C   0  0  0  0  0  0  0  0  0  0  0  0
   -2.7785   -2.3862   -1.4717 N   0  0  0  0  0  0  0  0  0  0  0  0
   -3.2673   -2.3915   -2.6855 C   0  0  0  0  0  0  0  0  0  0  0  0
   -2.5110   -2.0660   -3.7021 N   0  0  0  0  0  0  0  0  0  0  0  0
   -4.5135   -2.7293   -2.8828 N   0  0  0  0  0  0  0  0  0  0  0  0
  2  1  1  1  0  0  0
  2  3  1  0  0  0  0
  2  5  1  0  0  0  0
  3  4  1  0  0  0  0
  5  6  1  0  0  0  0
  6  7  1  0  0  0  0
  7  8  1  0  0  0  0
  8  9  1  0  0  0  0
  9 10  1  0  0  0  0
  9 11  1  0  0  0  0
M  END
>  <CHROM.1>
56.50875711,178.50896892,-136.37289493,69.15992032,-169.92878201,-103.82126098
-67.18500761,14.56097229,-165.78827418,-1.89850832,-3.79380822,-0.27109390
-1.12868035,0.12630470,-1.17063585

>  <Name>
1akx_lig

>  <RI>
0

>  <Rbt.Current_Directory>
/home/itssahil/PROJECTS/Mol_Feturizer/New_Systems/rnas/1akx

>  <Rbt.Executable>
rbdock ($Id: //depot/dev/client3/rdock/2013.1/src/exe/rbdock.cxx#4 $)

>  <Rbt.Library>
libRbt.so (2013.1, Build901 2013/11/27)

>  <Rbt.Parameter_File>
/export/apps/rDock/src/rDock_2013.1_src/data/scripts/dock_solv.prm

>  <Rbt.Receptor>
prm/pocket_docking_2.prm

>  <SCORE>
-27.3119

>  <SCORE.INTER>
-21.7881

>  <SCORE.INTER.CONST>
1

>  <SCORE.INTER.POLAR>
-3.31915

>  <SCORE.INTER.ROT>
8

>  <SCORE.INTER.SOLV>
6.94817

>  <SCORE.INTER.VDW>
-14.711

>  <SCORE.INTER.norm>
-1.98074

>  <SCORE.INTRA>
-5.52379

>  <SCORE.INTRA.DIHEDRAL>
-11.2256

>  <SCORE.INTRA.DIHEDRAL.0>
21.6454

>  <SCORE.INTRA.POLAR>
0

>  <SCORE.INTRA.POLAR.0>
0

>  <SCORE.INTRA.REPUL>
0

>  <SCORE.INTRA.REPUL.0>
0

>  <SCORE.INTRA.SOLV>
0.275861

>  <SCORE.INTRA.SOLV.lig_0>
-16.5947

>  <SCORE.INTRA.VDW>
-0.0489337

>  <SCORE.INTRA.VDW.0>
-0.691398

>  <SCORE.INTRA.norm>
-0.502163

>  <SCORE.RESTR>
0

>  <SCORE.RESTR.CAVITY>
0

>  <SCORE.RESTR.norm>
0

>  <SCORE.SYSTEM>
0

>  <SCORE.SYSTEM.CONST>
0

>  <SCORE.SYSTEM.DIHEDRAL>
0

>  <SCORE.SYSTEM.SOLV>
0

>  <SCORE.SYSTEM.norm>
0

>  <SCORE.heavy>
11

>  <SCORE.norm>
-2.4829

>  <RMSD>
1.871

$$$$
1akx_lig
 OpenBabel11021811383D
libRbt.so/2013.1/901 2013/11/27
 11 10  0  0  0  0  0  0  0  0999 V2000
   -2.0128   -4.0353    2.2061 N   0  0  0  0  0  0  0  0  0  0  0  0
   -1.6973   -4.5681    0.8479 C   0  0  2  0  0  0  0  0  0  0  0  0
   -0.2859   -5.1687    0.8488 C   0  0  0  0  0  0  0  0  0  0  0  0
    0.6656   -4.5071    1.2135 O   0  0  0  0  0  0  0  0  0  0  0  0
   -1.7753   -3.4328   -0.1818 C   0  0  0  0  0  0  0  0  0  0  0  0
   -1.7550   -4.0170   -1.5980 C   0  0  0  0  0  0  0  0  0  0  0  0
   -2.0871   -2.9189   -2.6083 C   0  0  0  0  0  0  0  0  0  0  0  0
   -3.4724   -2.4249   -2.3648 N   0  0  0  0  0  0  0  0  0  0  0  0
   -4.4443   -2.7616   -3.1737 C   0  0  0  0  0  0  0  0  0  0  0  0
   -5.4472   -3.4788   -2.7364 N   0  0  0  0  0  0  0  0  0  0  0  0
   -4.4156   -2.3745   -4.4208 N   0  0  0  0  0  0  0  0  0  0  0  0
  2  1  1  1  0  0  0
  2  3  1  0  0  0  0
  2  5  1  0  0  0  0
  3  4  1  0  0  0  0
  5  6  1  0  0  0  0
  6  7  1  0  0  0  0
  7  8  1  0  0  0  0
  8  9  1  0  0  0  0
  9 10  1  0  0  0  0
  9 11  1  0  0  0  0
M  END
>  <CHROM.1>
-57.89841535,-54.52134603,-167.80299048,169.76157947,-63.21389105,-105.50622318
116.36884267,-130.51418272,-1.32469606,-2.45143867,-3.59782457,-1.06028134
0.92198954,-0.10939602,1.84359884

>  <Name>
1akx_lig

>  <RI>
0

>  <Rbt.Current_Directory>
/home/itssahil/PROJECTS/Mol_Feturizer/New_Systems/rnas/1akx

>  <Rbt.Executable>
rbdock ($Id: //depot/dev/client3/rdock/2013.1/src/exe/rbdock.cxx#4 $)

>  <Rbt.Library>
libRbt.so (2013.1, Build901 2013/11/27)

>  <Rbt.Parameter_File>
/export/apps/rDock/src/rDock_2013.1_src/data/scripts/dock_solv.prm

>  <Rbt.Receptor>
prm/pocket_docking_2.prm

>  <SCORE>
-25.0909

>  <SCORE.INTER>
-17.8486

>  <SCORE.INTER.CONST>
1

>  <SCORE.INTER.POLAR>
-2.20692

>  <SCORE.INTER.ROT>
8

>  <SCORE.INTER.SOLV>
7.52276

>  <SCORE.INTER.VDW>
-15.9836

>  <SCORE.INTER.norm>
-1.6226

>  <SCORE.INTRA>
-7.24225

>  <SCORE.INTRA.DIHEDRAL>
-15.6815

>  <SCORE.INTRA.DIHEDRAL.0>
21.6454

>  <SCORE.INTRA.POLAR>
0

>  <SCORE.INTRA.POLAR.0>
0

>  <SCORE.INTRA.REPUL>
0

>  <SCORE.INTRA.REPUL.0>
0

>  <SCORE.INTRA.SOLV>
0.629371

>  <SCORE.INTRA.SOLV.lig_0>
-16.5947

>  <SCORE.INTRA.VDW>
0.283813

>  <SCORE.INTRA.VDW.0>
-0.691398

>  <SCORE.INTRA.norm>
-0.658387

>  <SCORE.RESTR>
0

>  <SCORE.RESTR.CAVITY>
0

>  <SCORE.RESTR.norm>
0

>  <SCORE.SYSTEM>
0

>  <SCORE.SYSTEM.CONST>
0

>  <SCORE.SYSTEM.DIHEDRAL>
0

>  <SCORE.SYSTEM.SOLV>
0

>  <SCORE.SYSTEM.norm>
0

>  <SCORE.heavy>
11

>  <SCORE.norm>
-2.28099

>  <RMSD>
1.885

$$$$
1akx_lig
 OpenBabel11021811383D
libRbt.so/2013.1/901 2013/11/27
 11 10  0  0  0  0  0  0  0  0999 V2000
    0.8419   -4.0376    1.3177 N   0  0  0  0  0  0  0  0  0  0  0  0
   -0.2372   -5.0243    1.6183 C   0  0  2  0  0  0  0  0  0  0  0  0
    0.3681   -6.2475    2.3184 C   0  0  0  0  0  0  0  0  0  0  0  0
   -0.3351   -7.1844    2.6407 O   0  0  0  0  0  0  0  0  0  0  0  0
   -0.9157   -5.4594    0.3123 C   0  0  0  0  0  0  0  0  0  0  0  0
   -1.5261   -4.2391   -0.3846 C   0  0  0  0  0  0  0  0  0  0  0  0
   -2.0918   -4.6560   -1.7422 C   0  0  0  0  0  0  0  0  0  0  0  0
   -2.8410   -3.5133   -2.3382 N   0  0  0  0  0  0  0  0  0  0  0  0
   -2.5964   -3.1331   -3.5662 C   0  0  0  0  0  0  0  0  0  0  0  0
   -1.3854   -3.2184   -4.0537 N   0  0  0  0  0  0  0  0  0  0  0  0
   -3.5667   -2.6728   -4.3095 N   0  0  0  0  0  0  0  0  0  0  0  0
  2  1  1  6  0  0  0
  2  3  1  0  0  0  0
  2  5  1  0  0  0  0
  3  4  1  0  0  0  0
  5  6  1  0  0  0  0
  6  7  1  0  0  0  0
  7  8  1  0  0  0  0
  8  9  1  0  0  0  0
  9 10  1  0  0  0  0
  9 11  1  0  0  0  0
M  END
>  <CHROM.1>
-146.40079372,-179.15698501,-60.00604621,175.02915668,172.61069345,129.44903333
-33.78990785,-56.92374853,172.31032578,-1.28262267,-4.46624884,-0.76022216
-1.08951693,-0.54041788,-0.85620720

>  <Name>
1akx_lig

>  <RI>
0

>  <Rbt.Current_Directory>
/home/itssahil/PROJECTS/Mol_Feturizer/New_Systems/rnas/1akx

>  <Rbt.Executable>
rbdock ($Id: //depot/dev/client3/rdock/2013.1/src/exe/rbdock.cxx#4 $)

>  <Rbt.Library>
libRbt.so (2013.1, Build901 2013/11/27)

>  <Rbt.Parameter_File>
/export/apps/rDock/src/rDock_2013.1_src/data/scripts/dock_solv.prm

>  <Rbt.Receptor>
prm/pocket_docking_4.prm

>  <SCORE>
-28.5982

>  <SCORE.INTER>
-22.3705

>  <SCORE.INTER.CONST>
1

>  <SCORE.INTER.POLAR>
-4.23093

>  <SCORE.INTER.ROT>
8

>  <SCORE.INTER.SOLV>
7.50135

>  <SCORE.INTER.VDW>
-12.2443

>  <SCORE.INTER.norm>
-2.03368

>  <SCORE.INTRA>
-6.22779

>  <SCORE.INTRA.DIHEDRAL>
-14.3997

>  <SCORE.INTRA.DIHEDRAL.0>
21.6454

>  <SCORE.INTRA.POLAR>
0

>  <SCORE.INTRA.POLAR.0>
0

>  <SCORE.INTRA.REPUL>
0

>  <SCORE.INTRA.REPUL.0>
0

>  <SCORE.INTRA.SOLV>
0.0546104

>  <SCORE.INTRA.SOLV.lig_0>
-16.5947

>  <SCORE.INTRA.VDW>
0.944738

>  <SCORE.INTRA.VDW.0>
-0.691398

>  <SCORE.INTRA.norm>
-0.566162

>  <SCORE.RESTR>
0

>  <SCORE.RESTR.CAVITY>
0

>  <SCORE.RESTR.norm>
0

>  <SCORE.SYSTEM>
0

>  <SCORE.SYSTEM.CONST>
0

>  <SCORE.SYSTEM.DIHEDRAL>
0

>  <SCORE.SYSTEM.SOLV>
0

>  <SCORE.SYSTEM.norm>
0

>  <SCORE.heavy>
11

>  <SCORE.norm>
-2.59984

>  <RMSD>
1.891

$$$$
1akx_lig
 OpenBabel11021811383D
libRbt.so/2013.1/901 2013/11/27
 11 10  0  0  0  0  0  0  0  0999 V2000
    0.4935   -4.4086    1.0615 N   0  0  0  0  0  0  0  0  0  0  0  0
   -0.8253   -4.8205    0.4965 C   0  0  2  0  0  0  0  0  0  0  0  0
   -1.0119   -6.3317    0.6814 C   0  0  0  0  0  0  0  0  0  0  0  0
   -0.9904   -6.8245    1.7918 O   0  0  0  0  0  0  0  0  0  0  0  0
   -0.8772   -4.4722   -0.9973 C   0  0  0  0  0  0  0  0  0  0  0  0
   -0.9643   -2.9525   -1.1710 C   0  0  0  0  0  0  0  0  0  0  0  0
   -2.4204   -2.5059   -1.0392 C   0  0  0  0  0  0  0  0  0  0  0  0
   -3.2619   -3.2709   -2.0029 N   0  0  0  0  0  0  0  0  0  0  0  0
   -3.5759   -2.7506   -3.1618 C   0  0  0  0  0  0  0  0  0  0  0  0
   -2.6600   -2.1697   -3.8934 N   0  0  0  0  0  0  0  0  0  0  0  0
   -4.8073   -2.8176   -3.5921 N   0  0  0  0  0  0  0  0  0  0  0  0
  2  1  1  6  0  0  0
  2  3  1  0  0  0  0
  2  5  1  0  0  0  0
  3  4  1  0  0  0  0
  5  6  1  0  0  0  0
  6  7  1  0  0  0  0
  7  8  1  0  0  0  0
  8  9  1  0  0  0  0
  9 10  1  0  0  0  0
  9 11  1  0  0  0  0
M  END
>  <CHROM.1>
-151.93290515,58.93813189,-70.64717617,-83.64823916,-54.63052171,-97.12371501
46.29676273,-1.14254764,-147.50624584,-1.89215282,-3.94609067,-1.07037871
-0.96870351,-0.46996833,-0.65341501

>  <Name>
1akx_lig

>  <RI>
0

>  <Rbt.Current_Directory>
/home/itssahil/PROJECTS/Mol_Feturizer/New_Systems/rnas/1akx

>  <Rbt.Executable>
rbdock ($Id: //depot/dev/client3/rdock/2013.1/src/exe/rbdock.cxx#4 $)

>  <Rbt.Library>
libRbt.so (2013.1, Build901 2013/11/27)

>  <Rbt.Parameter_File>
/export/apps/rDock/src/rDock_2013.1_src/data/scripts/dock_solv.prm

>  <Rbt.Receptor>
prm/pocket_docking_2.prm

>  <SCORE>
-31.9834

>  <SCORE.INTER>
-26.7965

>  <SCORE.INTER.CONST>
1

>  <SCORE.INTER.POLAR>
-3.95092

>  <SCORE.INTER.ROT>
8

>  <SCORE.INTER.SOLV>
7.3371

>  <SCORE.INTER.VDW>
-16.0737

>  <SCORE.INTER.norm>
-2.43605

>  <SCORE.INTRA>
-5.20961

>  <SCORE.INTRA.DIHEDRAL>
-12.6136

>  <SCORE.INTRA.DIHEDRAL.0>
21.6454

>  <SCORE.INTRA.POLAR>
0

>  <SCORE.INTRA.POLAR.0>
0

>  <SCORE.INTRA.REPUL>
0

>  <SCORE.INTRA.REPUL.0>
0

>  <SCORE.INTRA.SOLV>
0.78314

>  <SCORE.INTRA.SOLV.lig_0>
-16.5947

>  <SCORE.INTRA.VDW>
0.705594

>  <SCORE.INTRA.VDW.0>
-0.691398

>  <SCORE.INTRA.norm>
-0.473601

>  <SCORE.RESTR>
0.0227791

>  <SCORE.RESTR.CAVITY>
0.0227791

>  <SCORE.RESTR.norm>
0.00207082

>  <SCORE.SYSTEM>
0

>  <SCORE.SYSTEM.CONST>
0

>  <SCORE.SYSTEM.DIHEDRAL>
0

>  <SCORE.SYSTEM.SOLV>
0

>  <SCORE.SYSTEM.norm>
0

>  <SCORE.heavy>
11

>  <SCORE.norm>
-2.90758

>  <RMSD>
1.896

$$$$
1akx_lig
 OpenBabel11021811383D
libRbt.so/2013.1/901 2013/11/27
 11 10  0  0  0  0  0  0  0  0999 V2000
   -2.0273   -3.3279    1.5210 N   0  0  0  0  0  0  0  0  0  0  0  0
   -1.8890   -4.6189    0.7846 C   0  0  2  0  0  0  0  0  0  0  0  0
   -1.5743   -5.7440    1.7786 C   0  0  0  0  0  0  0  0  0  0  0  0
   -1.6163   -6.9064    1.4279 O   0  0  0  0  0  0  0  0  0  0  0  0
   -0.7560   -4.5063   -0.2444 C   0  0  0  0  0  0  0  0  0  0  0  0
   -1.3279   -4.0707   -1.5974 C   0  0  0  0  0  0  0  0  0  0  0  0
   -1.8497   -2.6376   -1.4939 C   0  0  0  0  0  0  0  0  0  0  0  0
   -2.3575   -2.1984   -2.8249 N   0  0  0  0  0  0  0  0  0  0  0  0
   -3.5789   -2.4894   -3.1935 C   0  0  0  0  0  0  0  0  0  0  0  0
   -3.9182   -2.4302   -4.4555 N   0  0  0  0  0  0  0  0  0  0  0  0
   -4.4603   -2.8463   -2.2982 N   0  0  0  0  0  0  0  0  0  0  0  0
  2  1  1  1  0  0  0
  2  3  1  0  0  0  0
  2  5  1  0  0  0  0
  3  4  1  0  0  0  0
  5  6  1  0  0  0  0
  6  7  1  0  0  0  0
  7  8  1  0  0  0  0
  8  9  1  0  0  0  0
  9 10  1  0  0  0  0
  9 11  1  0  0  0  0
M  END
>  <CHROM.1>
80.54272359,169.03264417,-92.70591397,67.37187227,177.84048983,84.63295532
-161.88954664,-14.21398112,-63.46840643,-2.33563819,-3.78433637,-0.95816013
-1.08040834,-0.78967351,-0.63957490

>  <Name>
1akx_lig

>  <RI>
0

>  <Rbt.Current_Directory>
/home/itssahil/PROJECTS/Mol_Feturizer/New_Systems/rnas/1akx

>  <Rbt.Executable>
rbdock ($Id: //depot/dev/client3/rdock/2013.1/src/exe/rbdock.cxx#4 $)

>  <Rbt.Library>
libRbt.so (2013.1, Build901 2013/11/27)

>  <Rbt.Parameter_File>
/export/apps/rDock/src/rDock_2013.1_src/data/scripts/dock_solv.prm

>  <Rbt.Receptor>
prm/pocket_docking_5.prm

>  <SCORE>
-26.6669

>  <SCORE.INTER>
-22.1964

>  <SCORE.INTER.CONST>
1

>  <SCORE.INTER.POLAR>
-3.45533

>  <SCORE.INTER.ROT>
8

>  <SCORE.INTER.SOLV>
6.81925

>  <SCORE.INTER.VDW>
-14.4863

>  <SCORE.INTER.norm>
-2.01786

>  <SCORE.INTRA>
-4.47043

>  <SCORE.INTRA.DIHEDRAL>
-11.878

>  <SCORE.INTRA.DIHEDRAL.0>
21.6454

>  <SCORE.INTRA.POLAR>
0

>  <SCORE.INTRA.POLAR.0>
0

>  <SCORE.INTRA.REPUL>
0

>  <SCORE.INTRA.REPUL.0>
0

>  <SCORE.INTRA.SOLV>
0.473096

>  <SCORE.INTRA.SOLV.lig_0>
-16.5947

>  <SCORE.INTRA.VDW>
1.23203

>  <SCORE.INTRA.VDW.0>
-0.691398

>  <SCORE.INTRA.norm>
-0.406403

>  <SCORE.RESTR>
0

>  <SCORE.RESTR.CAVITY>
0

>  <SCORE.RESTR.norm>
0

>  <SCORE.SYSTEM>
0

>  <SCORE.SYSTEM.CONST>
0

>  <SCORE.SYSTEM.DIHEDRAL>
0

>  <SCORE.SYSTEM.SOLV>
0

>  <SCORE.SYSTEM.norm>
0

>  <SCORE.heavy>
11

>  <SCORE.norm>
-2.42426

>  <RMSD>
1.901

$$$$
1akx_lig
 OpenBabel11021811383D
libRbt.so/2013.1/901 2013/11/27
 11 10  0  0  0  0  0  0  0  0999 V2000
   -2.5266   -4.7810    1.2722 N   0  0  0  0  0  0  0  0  0  0  0  0
   -1.1615   -4.6102    0.6930 C   0  0  2  0  0  0  0  0  0  0  0  0
   -0.1288   -4.5506    1.8255 C   0  0  0  0  0  0  0  0  0  0  0  0
    1.0576   -4.4740    1.5748 O   0  0  0  0  0  0  0  0  0  0  0  0
   -1.1075   -3.3126   -0.1247 C   0  0  0  0  0  0  0  0  0  0  0  0
   -1.4178   -3.6145   -1.5944 C   0  0  0  0  0  0  0  0  0  0  0  0
   -2.9101   -3.9063   -1.7519 C   0  0  0  0  0  0  0  0  0  0  0  0
   -3.5892   -2.7129   -2.3323 N   0  0  0  0  0  0  0  0  0  0  0  0
   -4.3758   -2.8415   -3.3702 C   0  0  0  0  0  0  0  0  0  0  0  0
   -5.5107   -3.4831   -3.2615 N   0  0  0  0  0  0  0  0  0  0  0  0
   -4.0289   -2.3216   -4.5170 N   0  0  0  0  0  0  0  0  0  0  0  0
  2  1  1  1  0  0  0
  2  3  1  0  0  0  0
  2  5  1  0  0  0  0
  3  4  1  0  0  0  0
  5  6  1  0  0  0  0
  6  7  1  0  0  0  0
  7  8  1  0  0  0  0
  8  9  1  0  0  0  0
  9 10  1  0  0  0  0
  9 11  1  0  0  0  0
M  END
>  <CHROM.1>
-175.90903781,176.69711920,-93.30855386,73.39253693,102.80729087,129.66223589
67.65335189,19.25613375,169.02352362,-2.36949802,-3.69132974,-1.05226491
0.87402582,0.19465271,2.04479805

>  <Name>
1akx_lig

>  <RI>
0

>  <Rbt.Current_Directory>
/home/itssahil/PROJECTS/Mol_Feturizer/New_Systems/rnas/1akx

>  <Rbt.Executable>
rbdock ($Id: //depot/dev/client3/rdock/2013.1/src/exe/rbdock.cxx#4 $)

>  <Rbt.Library>
libRbt.so (2013.1, Build901 2013/11/27)

>  <Rbt.Parameter_File>
/export/apps/rDock/src/rDock_2013.1_src/data/scripts/dock_solv.prm

>  <Rbt.Receptor>
prm/pocket_docking_2.prm

>  <SCORE>
-20.2989

>  <SCORE.INTER>
-16.6391

>  <SCORE.INTER.CONST>
1

>  <SCORE.INTER.POLAR>
-2.40422

>  <SCORE.INTER.ROT>
8

>  <SCORE.INTER.SOLV>
7.84397

>  <SCORE.INTER.VDW>
-14.6267

>  <SCORE.INTER.norm>
-1.51265

>  <SCORE.INTRA>
-3.65973

>  <SCORE.INTRA.DIHEDRAL>
-8.11549

>  <SCORE.INTRA.DIHEDRAL.0>
21.6454

>  <SCORE.INTRA.POLAR>
0

>  <SCORE.INTRA.POLAR.0>
0

>  <SCORE.INTRA.REPUL>
0

>  <SCORE.INTRA.REPUL.0>
0

>  <SCORE.INTRA.SOLV>
0.351897

>  <SCORE.INTRA.SOLV.lig_0>
-16.5947

>  <SCORE.INTRA.VDW>
0.222061

>  <SCORE.INTRA.VDW.0>
-0.691398

>  <SCORE.INTRA.norm>
-0.332703

>  <SCORE.RESTR>
0

>  <SCORE.RESTR.CAVITY>
0

>  <SCORE.RESTR.norm>
0

>  <SCORE.SYSTEM>
0

>  <SCORE.SYSTEM.CONST>
0

>  <SCORE.SYSTEM.DIHEDRAL>
0

>  <SCORE.SYSTEM.SOLV>
0

>  <SCORE.SYSTEM.norm>
0

>  <SCORE.heavy>
11

>  <SCORE.norm>
-1.84535

>  <RMSD>
1.934

$$$$
1akx_lig
 OpenBabel11021811383D
libRbt.so/2013.1/901 2013/11/27
 11 10  0  0  0  0  0  0  0  0999 V2000
    0.1445   -4.5528    0.8971 N   0  0  0  0  0  0  0  0  0  0  0  0
   -1.2551   -4.0525    1.0347 C   0  0  2  0  0  0  0  0  0  0  0  0
   -1.9523   -4.7914    2.1839 C   0  0  0  0  0  0  0  0  0  0  0  0
   -2.0129   -6.0049    2.1900 O   0  0  0  0  0  0  0  0  0  0  0  0
   -2.0194   -4.2939   -0.2742 C   0  0  0  0  0  0  0  0  0  0  0  0
   -3.4018   -3.6381   -0.1940 C   0  0  0  0  0  0  0  0  0  0  0  0
   -4.2005   -3.9745   -1.4533 C   0  0  0  0  0  0  0  0  0  0  0  0
   -4.4010   -2.7356   -2.2578 N   0  0  0  0  0  0  0  0  0  0  0  0
   -3.5472   -2.4128   -3.1954 C   0  0  0  0  0  0  0  0  0  0  0  0
   -3.9236   -2.3834   -4.4480 N   0  0  0  0  0  0  0  0  0  0  0  0
   -2.3162   -2.1127   -2.8782 N   0  0  0  0  0  0  0  0  0  0  0  0
  2  1  1  6  0  0  0
  2  3  1  0  0  0  0
  2  5  1  0  0  0  0
  3  4  1  0  0  0  0
  5  6  1  0  0  0  0
  6  7  1  0  0  0  0
  7  8  1  0  0  0  0
  8  9  1  0  0  0  0
  9 10  1  0  0  0  0
  9 11  1  0  0  0  0
M  END
>  <CHROM.1>
-59.98320555,-55.76688798,-173.48520659,-175.54211979,-112.33689335,91.95145976
115.41054935,160.64879872,-13.98743511,-2.58762604,-3.72695378,-0.77701949
-1.16060422,-0.12861654,-1.04568686

>  <Name>
1akx_lig

>  <RI>
0

>  <Rbt.Current_Directory>
/home/itssahil/PROJECTS/Mol_Feturizer/New_Systems/rnas/1akx

>  <Rbt.Executable>
rbdock ($Id: //depot/dev/client3/rdock/2013.1/src/exe/rbdock.cxx#4 $)

>  <Rbt.Library>
libRbt.so (2013.1, Build901 2013/11/27)

>  <Rbt.Parameter_File>
/export/apps/rDock/src/rDock_2013.1_src/data/scripts/dock_solv.prm

>  <Rbt.Receptor>
prm/pocket_docking_2.prm

>  <SCORE>
-31.4567

>  <SCORE.INTER>
-26.4076

>  <SCORE.INTER.CONST>
1

>  <SCORE.INTER.POLAR>
-4.43513

>  <SCORE.INTER.ROT>
8

>  <SCORE.INTER.SOLV>
6.93884

>  <SCORE.INTER.VDW>
-14.0676

>  <SCORE.INTER.norm>
-2.40069

>  <SCORE.INTRA>
-5.052

>  <SCORE.INTRA.DIHEDRAL>
-11.2298

>  <SCORE.INTRA.DIHEDRAL.0>
21.6454

>  <SCORE.INTRA.POLAR>
0

>  <SCORE.INTRA.POLAR.0>
0

>  <SCORE.INTRA.REPUL>
0

>  <SCORE.INTRA.REPUL.0>
0

>  <SCORE.INTRA.SOLV>
0.747197

>  <SCORE.INTRA.SOLV.lig_0>
-16.5947

>  <SCORE.INTRA.VDW>
0.18928

>  <SCORE.INTRA.VDW.0>
-0.691398

>  <SCORE.INTRA.norm>
-0.459273

>  <SCORE.RESTR>
0.00286637

>  <SCORE.RESTR.CAVITY>
0.00286637

>  <SCORE.RESTR.norm>
0.000260579

>  <SCORE.SYSTEM>
0

>  <SCORE.SYSTEM.CONST>
0

>  <SCORE.SYSTEM.DIHEDRAL>
0

>  <SCORE.SYSTEM.SOLV>
0

>  <SCORE.SYSTEM.norm>
0

>  <SCORE.heavy>
11

>  <SCORE.norm>
-2.8597

>  <RMSD>
1.958

$$$$
1akx_lig
 OpenBabel11021811383D
libRbt.so/2013.1/901 2013/11/27
 11 10  0  0  0  0  0  0  0  0999 V2000
   -3.0658   -3.7331    0.8724 N   0  0  0  0  0  0  0  0  0  0  0  0
   -2.1482   -4.8780    0.5974 C   0  0  2  0  0  0  0  0  0  0  0  0
   -1.6917   -5.4981    1.9240 C   0  0  0  0  0  0  0  0  0  0  0  0
   -1.1325   -4.8191    2.7621 O   0  0  0  0  0  0  0  0  0  0  0  0
   -0.9270   -4.3821   -0.1887 C   0  0  0  0  0  0  0  0  0  0  0  0
   -1.3520   -3.9805   -1.6048 C   0  0  0  0  0  0  0  0  0  0  0  0
   -1.7701   -2.5101   -1.6150 C   0  0  0  0  0  0  0  0  0  0  0  0
   -3.2144   -2.4087   -1.9698 N   0  0  0  0  0  0  0  0  0  0  0  0
   -3.6177   -2.6960   -3.1811 C   0  0  0  0  0  0  0  0  0  0  0  0
   -4.8626   -3.0340   -3.3985 N   0  0  0  0  0  0  0  0  0  0  0  0
   -2.7749   -2.6386   -4.1773 N   0  0  0  0  0  0  0  0  0  0  0  0
  2  1  1  1  0  0  0
  2  3  1  0  0  0  0
  2  5  1  0  0  0  0
  3  4  1  0  0  0  0
  5  6  1  0  0  0  0
  6  7  1  0  0  0  0
  7  8  1  0  0  0  0
  8  9  1  0  0  0  0
  9 10  1  0  0  0  0
  9 11  1  0  0  0  0
M  END
>  <CHROM.1>
-52.54946557,-57.01929013,-69.21923312,88.95431815,-116.42588762,-69.29798968
157.65933418,174.21759323,-104.81229160,-2.45424604,-3.66809344,-0.90258104
1.23084400,-0.12552988,1.92237121

>  <Name>
1akx_lig

>  <RI>
0

>  <Rbt.Current_Directory>
/home/itssahil/PROJECTS/Mol_Feturizer/New_Systems/rnas/1akx

>  <Rbt.Executable>
rbdock ($Id: //depot/dev/client3/rdock/2013.1/src/exe/rbdock.cxx#4 $)

>  <Rbt.Library>
libRbt.so (2013.1, Build901 2013/11/27)

>  <Rbt.Parameter_File>
/export/apps/rDock/src/rDock_2013.1_src/data/scripts/dock_solv.prm

>  <Rbt.Receptor>
prm/pocket_docking_2.prm

>  <SCORE>
-20.4442

>  <SCORE.INTER>
-16.1204

>  <SCORE.INTER.CONST>
1

>  <SCORE.INTER.POLAR>
-2.22177

>  <SCORE.INTER.ROT>
8

>  <SCORE.INTER.SOLV>
6.31963

>  <SCORE.INTER.VDW>
-14.3809

>  <SCORE.INTER.norm>
-1.46549

>  <SCORE.INTRA>
-4.34368

>  <SCORE.INTRA.DIHEDRAL>
-7.97456

>  <SCORE.INTRA.DIHEDRAL.0>
21.6454

>  <SCORE.INTRA.POLAR>
-0.767142

>  <SCORE.INTRA.POLAR.0>
0

>  <SCORE.INTRA.REPUL>
0

>  <SCORE.INTRA.REPUL.0>
0

>  <SCORE.INTRA.SOLV>
1.57666

>  <SCORE.INTRA.SOLV.lig_0>
-16.5947

>  <SCORE.INTRA.VDW>
1.46355

>  <SCORE.INTRA.VDW.0>
-0.691398

>  <SCORE.INTRA.norm>
-0.39488

>  <SCORE.RESTR>
0.0198111

>  <SCORE.RESTR.CAVITY>
0.0198111

>  <SCORE.RESTR.norm>
0.00180101

>  <SCORE.SYSTEM>
0

>  <SCORE.SYSTEM.CONST>
0

>  <SCORE.SYSTEM.DIHEDRAL>
0

>  <SCORE.SYSTEM.SOLV>
0

>  <SCORE.SYSTEM.norm>
0

>  <SCORE.heavy>
11

>  <SCORE.norm>
-1.85857

>  <RMSD>
1.976

$$$$
1akx_lig
 OpenBabel11021811383D
libRbt.so/2013.1/901 2013/11/27
 11 10  0  0  0  0  0  0  0  0999 V2000
   -0.8871   -5.9279    0.7048 N   0  0  0  0  0  0  0  0  0  0  0  0
   -1.0844   -4.4534    0.8277 C   0  0  2  0  0  0  0  0  0  0  0  0
   -0.8943   -4.0317    2.2902 C   0  0  0  0  0  0  0  0  0  0  0  0
    0.0754   -4.4065    2.9190 O   0  0  0  0  0  0  0  0  0  0  0  0
   -2.4991   -4.0824    0.3625 C   0  0  0  0  0  0  0  0  0  0  0  0
   -2.7124   -4.5623   -1.0768 C   0  0  0  0  0  0  0  0  0  0  0  0
   -4.0628   -4.0602   -1.5879 C   0  0  0  0  0  0  0  0  0  0  0  0
   -3.8782   -2.7438   -2.2626 N   0  0  0  0  0  0  0  0  0  0  0  0
   -3.2859   -2.6772   -3.4275 C   0  0  0  0  0  0  0  0  0  0  0  0
   -2.0000   -2.8965   -3.5266 N   0  0  0  0  0  0  0  0  0  0  0  0
   -3.9829   -2.3967   -4.4959 N   0  0  0  0  0  0  0  0  0  0  0  0
  2  1  1  1  0  0  0
  2  3  1  0  0  0  0
  2  5  1  0  0  0  0
  3  4  1  0  0  0  0
  5  6  1  0  0  0  0
  6  7  1  0  0  0  0
  7  8  1  0  0  0  0
  8  9  1  0  0  0  0
  9 10  1  0  0  0  0
  9 11  1  0  0  0  0
M  END
>  <CHROM.1>
-50.65328133,48.61597051,-57.09836196,-173.92951529,91.31200986,71.92304992
-70.75071767,74.20240679,-46.27559493,-2.26376779,-3.85380570,-0.85292040
-1.10520695,-0.16770370,-1.14520736

>  <Name>
1akx_lig

>  <RI>
0

>  <Rbt.Current_Directory>
/home/itssahil/PROJECTS/Mol_Feturizer/New_Systems/rnas/1akx

>  <Rbt.Executable>
rbdock ($Id: //depot/dev/client3/rdock/2013.1/src/exe/rbdock.cxx#4 $)

>  <Rbt.Library>
libRbt.so (2013.1, Build901 2013/11/27)

>  <Rbt.Parameter_File>
/export/apps/rDock/src/rDock_2013.1_src/data/scripts/dock_solv.prm

>  <Rbt.Receptor>
prm/pocket_docking_2.prm

>  <SCORE>
-24.8929

>  <SCORE.INTER>
-18.9097

>  <SCORE.INTER.CONST>
1

>  <SCORE.INTER.POLAR>
-3.23681

>  <SCORE.INTER.ROT>
8

>  <SCORE.INTER.SOLV>
6.30249

>  <SCORE.INTER.VDW>
-12.8513

>  <SCORE.INTER.norm>
-1.71906

>  <SCORE.INTRA>
-5.9832

>  <SCORE.INTRA.DIHEDRAL>
-13.0453

>  <SCORE.INTRA.DIHEDRAL.0>
21.6454

>  <SCORE.INTRA.POLAR>
0

>  <SCORE.INTRA.POLAR.0>
0

>  <SCORE.INTRA.REPUL>
0

>  <SCORE.INTRA.REPUL.0>
0

>  <SCORE.INTRA.SOLV>
0.644893

>  <SCORE.INTRA.SOLV.lig_0>
-16.5947

>  <SCORE.INTRA.VDW>
0.217009

>  <SCORE.INTRA.VDW.0>
-0.691398

>  <SCORE.INTRA.norm>
-0.543927

>  <SCORE.RESTR>
0

>  <SCORE.RESTR.CAVITY>
0

>  <SCORE.RESTR.norm>
0

>  <SCORE.SYSTEM>
0

>  <SCORE.SYSTEM.CONST>
0

>  <SCORE.SYSTEM.DIHEDRAL>
0

>  <SCORE.SYSTEM.SOLV>
0

>  <SCORE.SYSTEM.norm>
0

>  <SCORE.heavy>
11

>  <SCORE.norm>
-2.26299

>  <RMSD>
1.985

$$$$
1akx_lig
 OpenBabel11021811383D
libRbt.so/2013.1/901 2013/11/27
 11 10  0  0  0  0  0  0  0  0999 V2000
   -0.2869   -3.0126    0.4353 N   0  0  0  0  0  0  0  0  0  0  0  0
   -1.1001   -4.1659    0.9218 C   0  0  2  0  0  0  0  0  0  0  0  0
   -0.1699   -5.3272    1.2943 C   0  0  0  0  0  0  0  0  0  0  0  0
    0.7157   -5.1704    2.1111 O   0  0  0  0  0  0  0  0  0  0  0  0
   -2.0701   -4.6135   -0.1801 C   0  0  0  0  0  0  0  0  0  0  0  0
   -3.0820   -3.4982   -0.4623 C   0  0  0  0  0  0  0  0  0  0  0  0
   -4.0160   -3.9299   -1.5929 C   0  0  0  0  0  0  0  0  0  0  0  0
   -4.4696   -2.7266   -2.3468 N   0  0  0  0  0  0  0  0  0  0  0  0
   -3.8401   -2.3517   -3.4311 C   0  0  0  0  0  0  0  0  0  0  0  0
   -4.4393   -2.4048   -4.5928 N   0  0  0  0  0  0  0  0  0  0  0  0
   -2.6111   -1.9169   -3.3516 N   0  0  0  0  0  0  0  0  0  0  0  0
  2  1  1  6  0  0  0
  2  3  1  0  0  0  0
  2  5  1  0  0  0  0
  3  4  1  0  0  0  0
  5  6  1  0  0  0  0
  6  7  1  0  0  0  0
  7  8  1  0  0  0  0
  8  9  1  0  0  0  0
  9 10  1  0  0  0  0
  9 11  1  0  0  0  0
M  END
>  <CHROM.1>
172.81514745,56.60081369,-64.91527735,178.09480464,-150.11292127,94.97412741
113.86106863,160.78697312,4.73463645,-2.27153979,-3.52005501,-1.03589240
-0.89097093,-0.34426736,-0.87794049

>  <Name>
1akx_lig

>  <RI>
0

>  <Rbt.Current_Directory>
/home/itssahil/PROJECTS/Mol_Feturizer/New_Systems/rnas/1akx

>  <Rbt.Executable>
rbdock ($Id: //depot/dev/client3/rdock/2013.1/src/exe/rbdock.cxx#4 $)

>  <Rbt.Library>
libRbt.so (2013.1, Build901 2013/11/27)

>  <Rbt.Parameter_File>
/export/apps/rDock/src/rDock_2013.1_src/data/scripts/dock_solv.prm

>  <Rbt.Receptor>
prm/pocket_docking_2.prm

>  <SCORE>
-31.025

>  <SCORE.INTER>
-24.7587

>  <SCORE.INTER.CONST>
1

>  <SCORE.INTER.POLAR>
-3.74468

>  <SCORE.INTER.ROT>
8

>  <SCORE.INTER.SOLV>
8.13769

>  <SCORE.INTER.VDW>
-15.6694

>  <SCORE.INTER.norm>
-2.25079

>  <SCORE.INTRA>
-6.87052

>  <SCORE.INTRA.DIHEDRAL>
-13.8176

>  <SCORE.INTRA.DIHEDRAL.0>
21.6454

>  <SCORE.INTRA.POLAR>
0

>  <SCORE.INTRA.POLAR.0>
0

>  <SCORE.INTRA.REPUL>
0

>  <SCORE.INTRA.REPUL.0>
0

>  <SCORE.INTRA.SOLV>
0.479007

>  <SCORE.INTRA.SOLV.lig_0>
-16.5947

>  <SCORE.INTRA.VDW>
-0.20121

>  <SCORE.INTRA.VDW.0>
-0.691398

>  <SCORE.INTRA.norm>
-0.624593

>  <SCORE.RESTR>
0.604245

>  <SCORE.RESTR.CAVITY>
0.604245

>  <SCORE.RESTR.norm>
0.0549313

>  <SCORE.SYSTEM>
0

>  <SCORE.SYSTEM.CONST>
0

>  <SCORE.SYSTEM.DIHEDRAL>
0

>  <SCORE.SYSTEM.SOLV>
0

>  <SCORE.SYSTEM.norm>
0

>  <SCORE.heavy>
11

>  <SCORE.norm>
-2.82046

>  <RMSD>
1.988

$$$$
1akx_lig
 OpenBabel11021811383D
libRbt.so/2013.1/901 2013/11/27
 11 10  0  0  0  0  0  0  0  0999 V2000
   -0.9038   -6.0918    1.1233 N   0  0  0  0  0  0  0  0  0  0  0  0
   -0.5737   -4.7732    0.5064 C   0  0  2  0  0  0  0  0  0  0  0  0
    0.5315   -4.0893    1.3209 C   0  0  0  0  0  0  0  0  0  0  0  0
    1.5963   -4.6450    1.5039 O   0  0  0  0  0  0  0  0  0  0  0  0
   -1.8258   -3.8858    0.4867 C   0  0  0  0  0  0  0  0  0  0  0  0
   -1.7077   -2.8500   -0.6360 C   0  0  0  0  0  0  0  0  0  0  0  0
   -1.8791   -3.5411   -1.9887 C   0  0  0  0  0  0  0  0  0  0  0  0
   -2.3782   -2.5546   -2.9887 N   0  0  0  0  0  0  0  0  0  0  0  0
   -3.6610   -2.4442   -3.2226 C   0  0  0  0  0  0  0  0  0  0  0  0
   -4.0932   -2.2295   -4.4385 N   0  0  0  0  0  0  0  0  0  0  0  0
   -4.5129   -2.5553   -2.2388 N   0  0  0  0  0  0  0  0  0  0  0  0
  2  1  1  1  0  0  0
  2  3  1  0  0  0  0
  2  5  1  0  0  0  0
  3  4  1  0  0  0  0
  5  6  1  0  0  0  0
  6  7  1  0  0  0  0
  7  8  1  0  0  0  0
  8  9  1  0  0  0  0
  9 10  1  0  0  0  0
  9 11  1  0  0  0  0
M  END
>  <CHROM.1>
64.98443867,57.04216281,-155.02848773,72.19374264,154.46157403,-94.41235238
-142.10830042,-41.86067288,-144.39828233,-1.77291235,-3.62957106,-0.95987220
0.89100959,0.24590411,2.25290405

>  <Name>
1akx_lig

>  <RI>
0

>  <Rbt.Current_Directory>
/home/itssahil/PROJECTS/Mol_Feturizer/New_Systems/rnas/1akx

>  <Rbt.Executable>
rbdock ($Id: //depot/dev/client3/rdock/2013.1/src/exe/rbdock.cxx#4 $)

>  <Rbt.Library>
libRbt.so (2013.1, Build901 2013/11/27)

>  <Rbt.Parameter_File>
/export/apps/rDock/src/rDock_2013.1_src/data/scripts/dock_solv.prm

>  <Rbt.Receptor>
prm/pocket_docking_4.prm

>  <SCORE>
-29.9815

>  <SCORE.INTER>
-24.728

>  <SCORE.INTER.CONST>
1

>  <SCORE.INTER.POLAR>
-3.4529

>  <SCORE.INTER.ROT>
8

>  <SCORE.INTER.SOLV>
8.16493

>  <SCORE.INTER.VDW>
-16.6307

>  <SCORE.INTER.norm>
-2.248

>  <SCORE.INTRA>
-5.25345

>  <SCORE.INTRA.DIHEDRAL>
-11.8608

>  <SCORE.INTRA.DIHEDRAL.0>
21.6454

>  <SCORE.INTRA.POLAR>
0

>  <SCORE.INTRA.POLAR.0>
0

>  <SCORE.INTRA.REPUL>
0

>  <SCORE.INTRA.REPUL.0>
0

>  <SCORE.INTRA.SOLV>
0.476344

>  <SCORE.INTRA.SOLV.lig_0>
-16.5947

>  <SCORE.INTRA.VDW>
0.438776

>  <SCORE.INTRA.VDW.0>
-0.691398

>  <SCORE.INTRA.norm>
-0.477586

>  <SCORE.RESTR>
0

>  <SCORE.RESTR.CAVITY>
0

>  <SCORE.RESTR.norm>
0

>  <SCORE.SYSTEM>
0

>  <SCORE.SYSTEM.CONST>
0

>  <SCORE.SYSTEM.DIHEDRAL>
0

>  <SCORE.SYSTEM.SOLV>
0

>  <SCORE.SYSTEM.norm>
0

>  <SCORE.heavy>
11

>  <SCORE.norm>
-2.72559

>  <RMSD>
1.998

$$$$
1akx_lig
 OpenBabel11021811383D
libRbt.so/2013.1/901 2013/11/27
 11 10  0  0  0  0  0  0  0  0999 V2000
    0.8399   -4.7935    1.1327 N   0  0  0  0  0  0  0  0  0  0  0  0
   -0.4674   -4.0739    1.1680 C   0  0  2  0  0  0  0  0  0  0  0  0
   -1.1566   -4.3301    2.5142 C   0  0  0  0  0  0  0  0  0  0  0  0
   -1.3376   -5.4651    2.9082 O   0  0  0  0  0  0  0  0  0  0  0  0
   -1.3619   -4.5743    0.0258 C   0  0  0  0  0  0  0  0  0  0  0  0
   -2.0130   -3.3814   -0.6816 C   0  0  0  0  0  0  0  0  0  0  0  0
   -2.9803   -3.8876   -1.7516 C   0  0  0  0  0  0  0  0  0  0  0  0
   -3.5883   -2.7249   -2.4591 N   0  0  0  0  0  0  0  0  0  0  0  0
   -3.3124   -2.5015   -3.7186 C   0  0  0  0  0  0  0  0  0  0  0  0
   -4.2075   -1.9587   -4.5032 N   0  0  0  0  0  0  0  0  0  0  0  0
   -2.1364   -2.8162   -4.1920 N   0  0  0  0  0  0  0  0  0  0  0  0
  2  1  1  1  0  0  0
  2  3  1  0  0  0  0
  2  5  1  0  0  0  0
  3  4  1  0  0  0  0
  5  6  1  0  0  0  0
  6  7  1  0  0  0  0
  7  8  1  0  0  0  0
  8  9  1  0  0  0  0
  9 10  1  0  0  0  0
  9 11  1  0  0  0  0
M  END
>  <CHROM.1>
61.41829056,-53.63127647,-134.66877579,-175.93515395,-178.70326181,112.85815811
148.10624288,95.46662129,116.08333893,-1.95189731,-3.69021241,-0.87927326
-1.13685492,0.16974504,-1.26802053

>  <Name>
1akx_lig

>  <RI>
0

>  <Rbt.Current_Directory>
/home/itssahil/PROJECTS/Mol_Feturizer/New_Systems/rnas/1akx

>  <Rbt.Executable>
rbdock ($Id: //depot/dev/client3/rdock/2013.1/src/exe/rbdock.cxx#4 $)

>  <Rbt.Library>
libRbt.so (2013.1, Build901 2013/11/27)

>  <Rbt.Parameter_File>
/export/apps/rDock/src/rDock_2013.1_src/data/scripts/dock_solv.prm

>  <Rbt.Receptor>
prm/pocket_docking_2.prm

>  <SCORE>
-30.5619

>  <SCORE.INTER>
-24.9623

>  <SCORE.INTER.CONST>
1

>  <SCORE.INTER.POLAR>
-3.64608

>  <SCORE.INTER.ROT>
8

>  <SCORE.INTER.SOLV>
8.24001

>  <SCORE.INTER.VDW>
-16.1679

>  <SCORE.INTER.norm>
-2.2693

>  <SCORE.INTRA>
-5.60269

>  <SCORE.INTRA.DIHEDRAL>
-11.5689

>  <SCORE.INTRA.DIHEDRAL.0>
21.6454

>  <SCORE.INTRA.POLAR>
0

>  <SCORE.INTRA.POLAR.0>
0

>  <SCORE.INTRA.REPUL>
0

>  <SCORE.INTRA.REPUL.0>
0

>  <SCORE.INTRA.SOLV>
0.328758

>  <SCORE.INTRA.SOLV.lig_0>
-16.5947

>  <SCORE.INTRA.VDW>
0.017399

>  <SCORE.INTRA.VDW.0>
-0.691398

>  <SCORE.INTRA.norm>
-0.509335

>  <SCORE.RESTR>
0.00311808

>  <SCORE.RESTR.CAVITY>
0.00311808

>  <SCORE.RESTR.norm>
0.000283462

>  <SCORE.SYSTEM>
0

>  <SCORE.SYSTEM.CONST>
0

>  <SCORE.SYSTEM.DIHEDRAL>
0

>  <SCORE.SYSTEM.SOLV>
0

>  <SCORE.SYSTEM.norm>
0

>  <SCORE.heavy>
11

>  <SCORE.norm>
-2.77836

>  <RMSD>
2.024

$$$$
1akx_lig
 OpenBabel11021811383D
libRbt.so/2013.1/901 2013/11/27
 11 10  0  0  0  0  0  0  0  0999 V2000
   -4.0850   -6.8764    1.3237 N   0  0  0  0  0  0  0  0  0  0  0  0
   -3.1094   -6.4867    0.2633 C   0  0  2  0  0  0  0  0  0  0  0  0
   -1.6978   -6.9140    0.6845 C   0  0  0  0  0  0  0  0  0  0  0  0
   -1.4448   -8.0833    0.8964 O   0  0  0  0  0  0  0  0  0  0  0  0
   -3.1500   -4.9661    0.0597 C   0  0  0  0  0  0  0  0  0  0  0  0
   -4.4831   -4.5658   -0.5807 C   0  0  0  0  0  0  0  0  0  0  0  0
   -4.4885   -3.0612   -0.8512 C   0  0  0  0  0  0  0  0  0  0  0  0
   -3.3767   -2.7222   -1.7846 N   0  0  0  0  0  0  0  0  0  0  0  0
   -3.6116   -2.5726   -3.0632 C   0  0  0  0  0  0  0  0  0  0  0  0
   -4.7766   -2.8976   -3.5618 N   0  0  0  0  0  0  0  0  0  0  0  0
   -2.6810   -2.0909   -3.8430 N   0  0  0  0  0  0  0  0  0  0  0  0
  2  1  1  1  0  0  0
  2  3  1  0  0  0  0
  2  5  1  0  0  0  0
  3  4  1  0  0  0  0
  5  6  1  0  0  0  0
  6  7  1  0  0  0  0
  7  8  1  0  0  0  0
  8  9  1  0  0  0  0
  9 10  1  0  0  0  0
  9 11  1  0  0  0  0
M  END
>  <CHROM.1>
60.91800440,59.80284346,-69.06631996,-176.94783807,60.43054635,98.38272259
-9.48116828,-164.33164965,14.84646801,-3.35417947,-4.67749605,-0.95260232
1.36228610,-0.36831785,2.35834554

>  <Name>
1akx_lig

>  <RI>
0

>  <Rbt.Current_Directory>
/home/itssahil/PROJECTS/Mol_Feturizer/New_Systems/rnas/1akx

>  <Rbt.Executable>
rbdock ($Id: //depot/dev/client3/rdock/2013.1/src/exe/rbdock.cxx#4 $)

>  <Rbt.Library>
libRbt.so (2013.1, Build901 2013/11/27)

>  <Rbt.Parameter_File>
/export/apps/rDock/src/rDock_2013.1_src/data/scripts/dock_solv.prm

>  <Rbt.Receptor>
prm/pocket_docking_5.prm

>  <SCORE>
-23.0682

>  <SCORE.INTER>
-16.7216

>  <SCORE.INTER.CONST>
1

>  <SCORE.INTER.POLAR>
-2.98823

>  <SCORE.INTER.ROT>
8

>  <SCORE.INTER.SOLV>
5.71967

>  <SCORE.INTER.VDW>
-12.0269

>  <SCORE.INTER.norm>
-1.52015

>  <SCORE.INTRA>
-6.34657

>  <SCORE.INTRA.DIHEDRAL>
-16.4749

>  <SCORE.INTRA.DIHEDRAL.0>
21.6454

>  <SCORE.INTRA.POLAR>
0

>  <SCORE.INTRA.POLAR.0>
0

>  <SCORE.INTRA.REPUL>
0

>  <SCORE.INTRA.REPUL.0>
0

>  <SCORE.INTRA.SOLV>
0.579202

>  <SCORE.INTRA.SOLV.lig_0>
-16.5947

>  <SCORE.INTRA.VDW>
1.60127

>  <SCORE.INTRA.VDW.0>
-0.691398

>  <SCORE.INTRA.norm>
-0.576961

>  <SCORE.RESTR>
0

>  <SCORE.RESTR.CAVITY>
0

>  <SCORE.RESTR.norm>
0

>  <SCORE.SYSTEM>
0

>  <SCORE.SYSTEM.CONST>
0

>  <SCORE.SYSTEM.DIHEDRAL>
0

>  <SCORE.SYSTEM.SOLV>
0

>  <SCORE.SYSTEM.norm>
0

>  <SCORE.heavy>
11

>  <SCORE.norm>
-2.09711

>  <RMSD>
2.030

$$$$
1akx_lig
 OpenBabel11021811383D
libRbt.so/2013.1/901 2013/11/27
 11 10  0  0  0  0  0  0  0  0999 V2000
   -0.0663   -5.9025    1.3827 N   0  0  0  0  0  0  0  0  0  0  0  0
    0.6538   -4.6506    1.0052 C   0  0  2  0  0  0  0  0  0  0  0  0
    1.4271   -4.1192    2.2186 C   0  0  0  0  0  0  0  0  0  0  0  0
    2.3156   -4.7784    2.7207 O   0  0  0  0  0  0  0  0  0  0  0  0
   -0.3575   -3.5965    0.5346 C   0  0  0  0  0  0  0  0  0  0  0  0
   -1.0629   -4.0870   -0.7339 C   0  0  0  0  0  0  0  0  0  0  0  0
   -2.0866   -3.0450   -1.1846 C   0  0  0  0  0  0  0  0  0  0  0  0
   -2.9907   -3.6484   -2.2048 N   0  0  0  0  0  0  0  0  0  0  0  0
   -3.3861   -2.9443   -3.2345 C   0  0  0  0  0  0  0  0  0  0  0  0
   -2.5154   -2.2891   -3.9584 N   0  0  0  0  0  0  0  0  0  0  0  0
   -4.6543   -2.9009   -3.5438 N   0  0  0  0  0  0  0  0  0  0  0  0
  2  1  1  1  0  0  0
  2  3  1  0  0  0  0
  2  5  1  0  0  0  0
  3  4  1  0  0  0  0
  5  6  1  0  0  0  0
  6  7  1  0  0  0  0
  7  8  1  0  0  0  0
  8  9  1  0  0  0  0
  9 10  1  0  0  0  0
  9 11  1  0  0  0  0
M  END
>  <CHROM.1>
-173.99056032,62.40804451,-63.58667647,178.99698376,-166.50166840,-141.06403123
49.80382450,-10.64554652,-129.50556378,-1.16942277,-3.84221886,-0.64086332
0.72765916,0.53196209,2.43719812

>  <Name>
1akx_lig

>  <RI>
0

>  <Rbt.Current_Directory>
/home/itssahil/PROJECTS/Mol_Feturizer/New_Systems/rnas/1akx

>  <Rbt.Executable>
rbdock ($Id: //depot/dev/client3/rdock/2013.1/src/exe/rbdock.cxx#4 $)

>  <Rbt.Library>
libRbt.so (2013.1, Build901 2013/11/27)

>  <Rbt.Parameter_File>
/export/apps/rDock/src/rDock_2013.1_src/data/scripts/dock_solv.prm

>  <Rbt.Receptor>
prm/pocket_docking_6.prm

>  <SCORE>
-29.9699

>  <SCORE.INTER>
-22.1958

>  <SCORE.INTER.CONST>
1

>  <SCORE.INTER.POLAR>
-3.04262

>  <SCORE.INTER.ROT>
8

>  <SCORE.INTER.SOLV>
7.23439

>  <SCORE.INTER.VDW>
-15.9999

>  <SCORE.INTER.norm>
-2.0178

>  <SCORE.INTRA>
-7.77414

>  <SCORE.INTRA.DIHEDRAL>
-16.0214

>  <SCORE.INTRA.DIHEDRAL.0>
21.6454

>  <SCORE.INTRA.POLAR>
0

>  <SCORE.INTRA.POLAR.0>
0

>  <SCORE.INTRA.REPUL>
0

>  <SCORE.INTRA.REPUL.0>
0

>  <SCORE.INTRA.SOLV>
0.18751

>  <SCORE.INTRA.SOLV.lig_0>
-16.5947

>  <SCORE.INTRA.VDW>
0.142797

>  <SCORE.INTRA.VDW.0>
-0.691398

>  <SCORE.INTRA.norm>
-0.70674

>  <SCORE.RESTR>
0

>  <SCORE.RESTR.CAVITY>
0

>  <SCORE.RESTR.norm>
0

>  <SCORE.SYSTEM>
0

>  <SCORE.SYSTEM.CONST>
0

>  <SCORE.SYSTEM.DIHEDRAL>
0

>  <SCORE.SYSTEM.SOLV>
0

>  <SCORE.SYSTEM.norm>
0

>  <SCORE.heavy>
11

>  <SCORE.norm>
-2.72454

>  <RMSD>
2.032

$$$$
1akx_lig
 OpenBabel11021811383D
libRbt.so/2013.1/901 2013/11/27
 11 10  0  0  0  0  0  0  0  0999 V2000
    0.6202   -4.8299    0.9854 N   0  0  0  0  0  0  0  0  0  0  0  0
   -0.7448   -4.2299    1.0565 C   0  0  2  0  0  0  0  0  0  0  0  0
   -1.4485   -4.7085    2.3326 C   0  0  0  0  0  0  0  0  0  0  0  0
   -0.9879   -4.4468    3.4260 O   0  0  0  0  0  0  0  0  0  0  0  0
   -1.5590   -4.6548   -0.1731 C   0  0  0  0  0  0  0  0  0  0  0  0
   -2.6253   -3.5976   -0.4776 C   0  0  0  0  0  0  0  0  0  0  0  0
   -3.5324   -4.0961   -1.6025 C   0  0  0  0  0  0  0  0  0  0  0  0
   -4.1945   -2.9319   -2.2570 N   0  0  0  0  0  0  0  0  0  0  0  0
   -3.6901   -2.4139   -3.3477 C   0  0  0  0  0  0  0  0  0  0  0  0
   -2.4867   -1.9011   -3.3384 N   0  0  0  0  0  0  0  0  0  0  0  0
   -4.3891   -2.4147   -4.4511 N   0  0  0  0  0  0  0  0  0  0  0  0
  2  1  1  6  0  0  0
  2  3  1  0  0  0  0
  2  5  1  0  0  0  0
  3  4  1  0  0  0  0
  5  6  1  0  0  0  0
  6  7  1  0  0  0  0
  7  8  1  0  0  0  0
  8  9  1  0  0  0  0
  9 10  1  0  0  0  0
  9 11  1  0  0  0  0
M  END
>  <CHROM.1>
175.97688112,61.57636433,-153.13462139,-173.72153347,-158.00380364,96.21389722
-61.18906830,-4.74946410,-6.34700826,-2.24466125,-3.64884722,-0.71694590
-1.07978126,0.06133948,-1.23700833

>  <Name>
1akx_lig

>  <RI>
0

>  <Rbt.Current_Directory>
/home/itssahil/PROJECTS/Mol_Feturizer/New_Systems/rnas/1akx

>  <Rbt.Executable>
rbdock ($Id: //depot/dev/client3/rdock/2013.1/src/exe/rbdock.cxx#4 $)

>  <Rbt.Library>
libRbt.so (2013.1, Build901 2013/11/27)

>  <Rbt.Parameter_File>
/export/apps/rDock/src/rDock_2013.1_src/data/scripts/dock_solv.prm

>  <Rbt.Receptor>
prm/pocket_docking_2.prm

>  <SCORE>
-30.5712

>  <SCORE.INTER>
-24.1803

>  <SCORE.INTER.CONST>
1

>  <SCORE.INTER.POLAR>
-3.64445

>  <SCORE.INTER.ROT>
8

>  <SCORE.INTER.SOLV>
7.72069

>  <SCORE.INTER.VDW>
-15.4789

>  <SCORE.INTER.norm>
-2.19821

>  <SCORE.INTRA>
-6.39091

>  <SCORE.INTRA.DIHEDRAL>
-12.5391

>  <SCORE.INTRA.DIHEDRAL.0>
21.6454

>  <SCORE.INTRA.POLAR>
0

>  <SCORE.INTRA.POLAR.0>
0

>  <SCORE.INTRA.REPUL>
0

>  <SCORE.INTRA.REPUL.0>
0

>  <SCORE.INTRA.SOLV>
0.334401

>  <SCORE.INTRA.SOLV.lig_0>
-16.5947

>  <SCORE.INTRA.VDW>
-0.288576

>  <SCORE.INTRA.VDW.0>
-0.691398

>  <SCORE.INTRA.norm>
-0.580991

>  <SCORE.RESTR>
0

>  <SCORE.RESTR.CAVITY>
0

>  <SCORE.RESTR.norm>
0

>  <SCORE.SYSTEM>
0

>  <SCORE.SYSTEM.CONST>
0

>  <SCORE.SYSTEM.DIHEDRAL>
0

>  <SCORE.SYSTEM.SOLV>
0

>  <SCORE.SYSTEM.norm>
0

>  <SCORE.heavy>
11

>  <SCORE.norm>
-2.7792

>  <RMSD>
2.036

$$$$
1akx_lig
 OpenBabel11021811383D
libRbt.so/2013.1/901 2013/11/27
 11 10  0  0  0  0  0  0  0  0999 V2000
    1.0505   -4.6016    1.1331 N   0  0  0  0  0  0  0  0  0  0  0  0
   -0.1149   -3.7101    1.4071 C   0  0  2  0  0  0  0  0  0  0  0  0
   -0.2717   -3.5232    2.9215 C   0  0  0  0  0  0  0  0  0  0  0  0
   -0.3855   -4.4864    3.6532 O   0  0  0  0  0  0  0  0  0  0  0  0
   -1.3906   -4.3375    0.8289 C   0  0  0  0  0  0  0  0  0  0  0  0
   -2.4534   -3.2529    0.6248 C   0  0  0  0  0  0  0  0  0  0  0  0
   -2.1243   -2.4449   -0.6304 C   0  0  0  0  0  0  0  0  0  0  0  0
   -2.5150   -3.2261   -1.8384 N   0  0  0  0  0  0  0  0  0  0  0  0
   -3.1427   -2.6420   -2.8269 C   0  0  0  0  0  0  0  0  0  0  0  0
   -4.4504   -2.6344   -2.8646 N   0  0  0  0  0  0  0  0  0  0  0  0
   -2.4605   -2.0590   -3.7760 N   0  0  0  0  0  0  0  0  0  0  0  0
  2  1  1  1  0  0  0
  2  3  1  0  0  0  0
  2  5  1  0  0  0  0
  3  4  1  0  0  0  0
  5  6  1  0  0  0  0
  6  7  1  0  0  0  0
  7  8  1  0  0  0  0
  8  9  1  0  0  0  0
  9 10  1  0  0  0  0
  9 11  1  0  0  0  0
M  END
>  <CHROM.1>
-161.70437101,-55.56882633,-158.79098299,77.07600220,77.51679246,135.95355681
-92.17650247,-100.03944452,-12.24788111,-1.64051707,-3.37663095,-0.14312935
-1.03999411,0.21676049,-1.39217481

>  <Name>
1akx_lig

>  <RI>
0

>  <Rbt.Current_Directory>
/home/itssahil/PROJECTS/Mol_Feturizer/New_Systems/rnas/1akx

>  <Rbt.Executable>
rbdock ($Id: //depot/dev/client3/rdock/2013.1/src/exe/rbdock.cxx#4 $)

>  <Rbt.Library>
libRbt.so (2013.1, Build901 2013/11/27)

>  <Rbt.Parameter_File>
/export/apps/rDock/src/rDock_2013.1_src/data/scripts/dock_solv.prm

>  <Rbt.Receptor>
prm/pocket_docking_3.prm

>  <SCORE>
-25.3849

>  <SCORE.INTER>
-19.8865

>  <SCORE.INTER.CONST>
1

>  <SCORE.INTER.POLAR>
-2.96396

>  <SCORE.INTER.ROT>
8

>  <SCORE.INTER.SOLV>
6.43884

>  <SCORE.INTER.VDW>
-14.4574

>  <SCORE.INTER.norm>
-1.80786

>  <SCORE.INTRA>
-5.49846

>  <SCORE.INTRA.DIHEDRAL>
-12.1563

>  <SCORE.INTRA.DIHEDRAL.0>
21.6454

>  <SCORE.INTRA.POLAR>
0

>  <SCORE.INTRA.POLAR.0>
0

>  <SCORE.INTRA.REPUL>
0

>  <SCORE.INTRA.REPUL.0>
0

>  <SCORE.INTRA.SOLV>
0.558623

>  <SCORE.INTRA.SOLV.lig_0>
-16.5947

>  <SCORE.INTRA.VDW>
0.300379

>  <SCORE.INTRA.VDW.0>
-0.691398

>  <SCORE.INTRA.norm>
-0.49986

>  <SCORE.RESTR>
0

>  <SCORE.RESTR.CAVITY>
0

>  <SCORE.RESTR.norm>
0

>  <SCORE.SYSTEM>
0

>  <SCORE.SYSTEM.CONST>
0

>  <SCORE.SYSTEM.DIHEDRAL>
0

>  <SCORE.SYSTEM.SOLV>
0

>  <SCORE.SYSTEM.norm>
0

>  <SCORE.heavy>
11

>  <SCORE.norm>
-2.30772

>  <RMSD>
2.036

$$$$
1akx_lig
 OpenBabel11021811383D
libRbt.so/2013.1/901 2013/11/27
 11 10  0  0  0  0  0  0  0  0999 V2000
    0.5302   -4.5325    1.2774 N   0  0  0  0  0  0  0  0  0  0  0  0
   -0.9507   -4.4405    1.1145 C   0  0  2  0  0  0  0  0  0  0  0  0
   -1.6288   -5.5036    1.9878 C   0  0  0  0  0  0  0  0  0  0  0  0
   -2.8404   -5.5737    2.0450 O   0  0  0  0  0  0  0  0  0  0  0  0
   -1.3221   -4.6669   -0.3573 C   0  0  0  0  0  0  0  0  0  0  0  0
   -0.9505   -3.4293   -1.1805 C   0  0  0  0  0  0  0  0  0  0  0  0
   -2.0684   -2.3918   -1.0762 C   0  0  0  0  0  0  0  0  0  0  0  0
   -3.1853   -2.7745   -1.9862 N   0  0  0  0  0  0  0  0  0  0  0  0
   -3.0562   -2.6400   -3.2815 C   0  0  0  0  0  0  0  0  0  0  0  0
   -1.9207   -2.9274   -3.8640 N   0  0  0  0  0  0  0  0  0  0  0  0
   -4.0673   -2.2232   -3.9956 N   0  0  0  0  0  0  0  0  0  0  0  0
  2  1  1  6  0  0  0
  2  3  1  0  0  0  0
  2  5  1  0  0  0  0
  3  4  1  0  0  0  0
  5  6  1  0  0  0  0
  6  7  1  0  0  0  0
  7  8  1  0  0  0  0
  8  9  1  0  0  0  0
  9 10  1  0  0  0  0
  9 11  1  0  0  0  0
M  END
>  <CHROM.1>
170.61949409,177.27121314,-73.92827238,-83.44238420,-78.83983660,-73.07277561
39.46503312,-74.45856477,153.77588741,-1.94650802,-3.74375010,-0.85545088
-1.23790996,-0.06461501,-1.08079049

>  <Name>
1akx_lig

>  <RI>
0

>  <Rbt.Current_Directory>
/home/itssahil/PROJECTS/Mol_Feturizer/New_Systems/rnas/1akx

>  <Rbt.Executable>
rbdock ($Id: //depot/dev/client3/rdock/2013.1/src/exe/rbdock.cxx#4 $)

>  <Rbt.Library>
libRbt.so (2013.1, Build901 2013/11/27)

>  <Rbt.Parameter_File>
/export/apps/rDock/src/rDock_2013.1_src/data/scripts/dock_solv.prm

>  <Rbt.Receptor>
prm/pocket_docking_2.prm

>  <SCORE>
-27.6262

>  <SCORE.INTER>
-22.3291

>  <SCORE.INTER.CONST>
1

>  <SCORE.INTER.POLAR>
-3.26353

>  <SCORE.INTER.ROT>
8

>  <SCORE.INTER.SOLV>
7.29314

>  <SCORE.INTER.VDW>
-15.372

>  <SCORE.INTER.norm>
-2.02992

>  <SCORE.INTRA>
-5.33328

>  <SCORE.INTRA.DIHEDRAL>
-12.5826

>  <SCORE.INTRA.DIHEDRAL.0>
21.6454

>  <SCORE.INTRA.POLAR>
0

>  <SCORE.INTRA.POLAR.0>
0

>  <SCORE.INTRA.REPUL>
0

>  <SCORE.INTRA.REPUL.0>
0

>  <SCORE.INTRA.SOLV>
0.579861

>  <SCORE.INTRA.SOLV.lig_0>
-16.5947

>  <SCORE.INTRA.VDW>
0.668088

>  <SCORE.INTRA.VDW.0>
-0.691398

>  <SCORE.INTRA.norm>
-0.484844

>  <SCORE.RESTR>
0.0361843

>  <SCORE.RESTR.CAVITY>
0.0361843

>  <SCORE.RESTR.norm>
0.00328948

>  <SCORE.SYSTEM>
0

>  <SCORE.SYSTEM.CONST>
0

>  <SCORE.SYSTEM.DIHEDRAL>
0

>  <SCORE.SYSTEM.SOLV>
0

>  <SCORE.SYSTEM.norm>
0

>  <SCORE.heavy>
11

>  <SCORE.norm>
-2.51147

>  <RMSD>
2.041

$$$$
1akx_lig
 OpenBabel11021811383D
libRbt.so/2013.1/901 2013/11/27
 11 10  0  0  0  0  0  0  0  0999 V2000
   -0.6869   -3.2749   -0.4314 N   0  0  0  0  0  0  0  0  0  0  0  0
   -1.3711   -4.3537    0.3408 C   0  0  2  0  0  0  0  0  0  0  0  0
   -0.3398   -5.3994    0.7832 C   0  0  0  0  0  0  0  0  0  0  0  0
   -0.6928   -6.4064    1.3642 O   0  0  0  0  0  0  0  0  0  0  0  0
   -2.4378   -5.0197   -0.5390 C   0  0  0  0  0  0  0  0  0  0  0  0
   -3.7841   -4.3157   -0.3413 C   0  0  0  0  0  0  0  0  0  0  0  0
   -3.7143   -2.9057   -0.9279 C   0  0  0  0  0  0  0  0  0  0  0  0
   -4.2640   -2.9183   -2.3135 N   0  0  0  0  0  0  0  0  0  0  0  0
   -3.4699   -2.7479   -3.3395 C   0  0  0  0  0  0  0  0  0  0  0  0
   -3.9477   -2.3158   -4.4781 N   0  0  0  0  0  0  0  0  0  0  0  0
   -2.1945   -3.0045   -3.2239 N   0  0  0  0  0  0  0  0  0  0  0  0
  2  1  1  6  0  0  0
  2  3  1  0  0  0  0
  2  5  1  0  0  0  0
  3  4  1  0  0  0  0
  5  6  1  0  0  0  0
  6  7  1  0  0  0  0
  7  8  1  0  0  0  0
  8  9  1  0  0  0  0
  9 10  1  0  0  0  0
  9 11  1  0  0  0  0
M  END
>  <CHROM.1>
-12.33597150,-175.90704010,-91.56173681,68.52621615,95.76510066,-110.20224860
-157.03252124,136.17842377,-119.92238506,-2.41779670,-3.86150590,-1.22387843
-1.05731147,0.00175024,-0.99085841

>  <Name>
1akx_lig

>  <RI>
0

>  <Rbt.Current_Directory>
/home/afrankz/demos/rdock_decoys_rna/rnas/1akx

>  <Rbt.Executable>
rbdock ($Id: //depot/dev/client3/rdock/2013.1/src/exe/rbdock.cxx#4 $)

>  <Rbt.Library>
libRbt.so (2013.1, Build901 2013/11/27)

>  <Rbt.Parameter_File>
/export/apps/rDock/src/rDock_2013.1_src/data/scripts/dock_solv.prm

>  <Rbt.Receptor>
prm/pocket_docking_2.prm

>  <SCORE>
-31.1553

>  <SCORE.INTER>
-26.7646

>  <SCORE.INTER.CONST>
1

>  <SCORE.INTER.POLAR>
-4.43513

>  <SCORE.INTER.ROT>
8

>  <SCORE.INTER.SOLV>
6.43009

>  <SCORE.INTER.VDW>
-14.136

>  <SCORE.INTER.norm>
-2.43314

>  <SCORE.INTRA>
-4.45528

>  <SCORE.INTRA.DIHEDRAL>
-6.486

>  <SCORE.INTRA.DIHEDRAL.0>
21.6454

>  <SCORE.INTRA.POLAR>
-0.955938

>  <SCORE.INTRA.POLAR.0>
0

>  <SCORE.INTRA.REPUL>
0

>  <SCORE.INTRA.REPUL.0>
0

>  <SCORE.INTRA.SOLV>
1.51588

>  <SCORE.INTRA.SOLV.lig_0>
-16.5947

>  <SCORE.INTRA.VDW>
1.27997

>  <SCORE.INTRA.VDW.0>
-0.691398

>  <SCORE.INTRA.norm>
-0.405026

>  <SCORE.RESTR>
0.0645758

>  <SCORE.RESTR.CAVITY>
0.0645758

>  <SCORE.RESTR.norm>
0.00587053

>  <SCORE.SYSTEM>
0

>  <SCORE.SYSTEM.CONST>
0

>  <SCORE.SYSTEM.DIHEDRAL>
0

>  <SCORE.SYSTEM.SOLV>
0

>  <SCORE.SYSTEM.norm>
0

>  <SCORE.heavy>
11

>  <SCORE.norm>
-2.8323

>  <RMSD>
2.078

>  <RMSD>
2.078

$$$$
1akx_lig
 OpenBabel11021811383D
libRbt.so/2013.1/901 2013/11/27
 11 10  0  0  0  0  0  0  0  0999 V2000
   -0.6869   -3.2749   -0.4314 N   0  0  0  0  0  0  0  0  0  0  0  0
   -1.3711   -4.3537    0.3408 C   0  0  2  0  0  0  0  0  0  0  0  0
   -0.3398   -5.3994    0.7832 C   0  0  0  0  0  0  0  0  0  0  0  0
   -0.6928   -6.4064    1.3642 O   0  0  0  0  0  0  0  0  0  0  0  0
   -2.4378   -5.0197   -0.5390 C   0  0  0  0  0  0  0  0  0  0  0  0
   -3.7841   -4.3157   -0.3413 C   0  0  0  0  0  0  0  0  0  0  0  0
   -3.7143   -2.9057   -0.9279 C   0  0  0  0  0  0  0  0  0  0  0  0
   -4.2640   -2.9183   -2.3135 N   0  0  0  0  0  0  0  0  0  0  0  0
   -3.4699   -2.7479   -3.3395 C   0  0  0  0  0  0  0  0  0  0  0  0
   -3.9477   -2.3158   -4.4781 N   0  0  0  0  0  0  0  0  0  0  0  0
   -2.1945   -3.0045   -3.2239 N   0  0  0  0  0  0  0  0  0  0  0  0
  2  1  1  6  0  0  0
  2  3  1  0  0  0  0
  2  5  1  0  0  0  0
  3  4  1  0  0  0  0
  5  6  1  0  0  0  0
  6  7  1  0  0  0  0
  7  8  1  0  0  0  0
  8  9  1  0  0  0  0
  9 10  1  0  0  0  0
  9 11  1  0  0  0  0
M  END
>  <CHROM.1>
-12.33597150,-175.90704010,-91.56173681,68.52621615,95.76510066,-110.20224860
-157.03252124,136.17842377,-119.92238506,-2.41779670,-3.86150590,-1.22387843
-1.05731147,0.00175024,-0.99085841

>  <Name>
1akx_lig

>  <RI>
0

>  <Rbt.Current_Directory>
/home/afrankz/demos/rdock_decoys_rna/rnas/1akx

>  <Rbt.Executable>
rbdock ($Id: //depot/dev/client3/rdock/2013.1/src/exe/rbdock.cxx#4 $)

>  <Rbt.Library>
libRbt.so (2013.1, Build901 2013/11/27)

>  <Rbt.Parameter_File>
/export/apps/rDock/src/rDock_2013.1_src/data/scripts/dock_solv.prm

>  <Rbt.Receptor>
prm/pocket_docking_2.prm

>  <SCORE>
-31.1553

>  <SCORE.INTER>
-26.7646

>  <SCORE.INTER.CONST>
1

>  <SCORE.INTER.POLAR>
-4.43513

>  <SCORE.INTER.ROT>
8

>  <SCORE.INTER.SOLV>
6.43009

>  <SCORE.INTER.VDW>
-14.136

>  <SCORE.INTER.norm>
-2.43314

>  <SCORE.INTRA>
-4.45528

>  <SCORE.INTRA.DIHEDRAL>
-6.486

>  <SCORE.INTRA.DIHEDRAL.0>
21.6454

>  <SCORE.INTRA.POLAR>
-0.955938

>  <SCORE.INTRA.POLAR.0>
0

>  <SCORE.INTRA.REPUL>
0

>  <SCORE.INTRA.REPUL.0>
0

>  <SCORE.INTRA.SOLV>
1.51588

>  <SCORE.INTRA.SOLV.lig_0>
-16.5947

>  <SCORE.INTRA.VDW>
1.27997

>  <SCORE.INTRA.VDW.0>
-0.691398

>  <SCORE.INTRA.norm>
-0.405026

>  <SCORE.RESTR>
0.0645758

>  <SCORE.RESTR.CAVITY>
0.0645758

>  <SCORE.RESTR.norm>
0.00587053

>  <SCORE.SYSTEM>
0

>  <SCORE.SYSTEM.CONST>
0

>  <SCORE.SYSTEM.DIHEDRAL>
0

>  <SCORE.SYSTEM.SOLV>
0

>  <SCORE.SYSTEM.norm>
0

>  <SCORE.heavy>
11

>  <SCORE.norm>
-2.8323

>  <RMSD>
2.078

>  <RMSD>
2.078

$$$$
1akx_lig
 OpenBabel11021811383D
libRbt.so/2013.1/901 2013/11/27
 11 10  0  0  0  0  0  0  0  0999 V2000
   -3.2692   -6.7935    1.4611 N   0  0  0  0  0  0  0  0  0  0  0  0
   -2.7400   -6.3967    0.1230 C   0  0  2  0  0  0  0  0  0  0  0  0
   -1.4382   -7.1574   -0.1588 C   0  0  0  0  0  0  0  0  0  0  0  0
   -0.4093   -6.8507    0.4100 O   0  0  0  0  0  0  0  0  0  0  0  0
   -2.4707   -4.8859    0.1029 C   0  0  0  0  0  0  0  0  0  0  0  0
   -1.9900   -4.4650   -1.2897 C   0  0  0  0  0  0  0  0  0  0  0  0
   -1.7836   -2.9507   -1.3228 C   0  0  0  0  0  0  0  0  0  0  0  0
   -1.6107   -2.5055   -2.7349 N   0  0  0  0  0  0  0  0  0  0  0  0
   -2.5061   -2.8141   -3.6380 C   0  0  0  0  0  0  0  0  0  0  0  0
   -3.7770   -2.8276   -3.3283 N   0  0  0  0  0  0  0  0  0  0  0  0
   -2.1291   -3.1035   -4.8546 N   0  0  0  0  0  0  0  0  0  0  0  0
  2  1  1  1  0  0  0
  2  3  1  0  0  0  0
  2  5  1  0  0  0  0
  3  4  1  0  0  0  0
  5  6  1  0  0  0  0
  6  7  1  0  0  0  0
  7  8  1  0  0  0  0
  8  9  1  0  0  0  0
  9 10  1  0  0  0  0
  9 11  1  0  0  0  0
M  END
>  <CHROM.1>
59.83843423,-74.15962003,-177.35021326,177.46425756,-167.65108925,54.04834046
37.25112072,-85.64521025,41.86001850,-2.20280383,-4.62788097,-1.38029855
1.49623992,-0.32810411,2.28517275

>  <Name>
1akx_lig

>  <RI>
0

>  <Rbt.Current_Directory>
/home/itssahil/PROJECTS/Mol_Feturizer/New_Systems/rnas/1akx

>  <Rbt.Executable>
rbdock ($Id: //depot/dev/client3/rdock/2013.1/src/exe/rbdock.cxx#4 $)

>  <Rbt.Library>
libRbt.so (2013.1, Build901 2013/11/27)

>  <Rbt.Parameter_File>
/export/apps/rDock/src/rDock_2013.1_src/data/scripts/dock_solv.prm

>  <Rbt.Receptor>
prm/pocket_docking_3.prm

>  <SCORE>
-24.6481

>  <SCORE.INTER>
-19.2899

>  <SCORE.INTER.CONST>
1

>  <SCORE.INTER.POLAR>
-3.39316

>  <SCORE.INTER.ROT>
8

>  <SCORE.INTER.SOLV>
8.00349

>  <SCORE.INTER.VDW>
-13.1505

>  <SCORE.INTER.norm>
-1.75362

>  <SCORE.INTRA>
-5.3582

>  <SCORE.INTRA.DIHEDRAL>
-15.5344

>  <SCORE.INTRA.DIHEDRAL.0>
21.6454

>  <SCORE.INTRA.POLAR>
0

>  <SCORE.INTRA.POLAR.0>
0

>  <SCORE.INTRA.REPUL>
0

>  <SCORE.INTRA.REPUL.0>
0

>  <SCORE.INTRA.SOLV>
0.662042

>  <SCORE.INTRA.SOLV.lig_0>
-16.5947

>  <SCORE.INTRA.VDW>
2.07799

>  <SCORE.INTRA.VDW.0>
-0.691398

>  <SCORE.INTRA.norm>
-0.487109

>  <SCORE.RESTR>
0

>  <SCORE.RESTR.CAVITY>
0

>  <SCORE.RESTR.norm>
0

>  <SCORE.SYSTEM>
0

>  <SCORE.SYSTEM.CONST>
0

>  <SCORE.SYSTEM.DIHEDRAL>
0

>  <SCORE.SYSTEM.SOLV>
0

>  <SCORE.SYSTEM.norm>
0

>  <SCORE.heavy>
11

>  <SCORE.norm>
-2.24073

>  <RMSD>
2.081

$$$$
1akx_lig
 OpenBabel11021811383D
libRbt.so/2013.1/901 2013/11/27
 11 10  0  0  0  0  0  0  0  0999 V2000
    0.2248   -4.4965    0.8542 N   0  0  0  0  0  0  0  0  0  0  0  0
   -1.1343   -4.9155    0.4009 C   0  0  2  0  0  0  0  0  0  0  0  0
   -1.2886   -6.4311    0.5788 C   0  0  0  0  0  0  0  0  0  0  0  0
   -1.2108   -6.9337    1.6823 O   0  0  0  0  0  0  0  0  0  0  0  0
   -1.3208   -4.5468   -1.0771 C   0  0  0  0  0  0  0  0  0  0  0  0
   -1.1479   -3.0354   -1.2587 C   0  0  0  0  0  0  0  0  0  0  0  0
   -1.9063   -2.5806   -2.5057 C   0  0  0  0  0  0  0  0  0  0  0  0
   -3.3417   -2.3701   -2.1626 N   0  0  0  0  0  0  0  0  0  0  0  0
   -4.2808   -2.7652   -2.9839 C   0  0  0  0  0  0  0  0  0  0  0  0
   -4.2298   -2.4384   -4.2496 N   0  0  0  0  0  0  0  0  0  0  0  0
   -5.2691   -3.4938   -2.5387 N   0  0  0  0  0  0  0  0  0  0  0  0
  2  1  1  6  0  0  0
  2  3  1  0  0  0  0
  2  5  1  0  0  0  0
  3  4  1  0  0  0  0
  5  6  1  0  0  0  0
  6  7  1  0  0  0  0
  7  8  1  0  0  0  0
  8  9  1  0  0  0  0
  9 10  1  0  0  0  0
  9 11  1  0  0  0  0
M  END
>  <CHROM.1>
90.00363132,61.51052828,-58.98412042,-155.07101049,83.04976587,-138.56513846
-50.07913411,3.14982929,-122.06398777,-2.26747368,-4.00948988,-1.18746634
-0.94062174,-0.36810465,-0.67161518

>  <Name>
1akx_lig

>  <RI>
0

>  <Rbt.Current_Directory>
/home/itssahil/PROJECTS/Mol_Feturizer/New_Systems/rnas/1akx

>  <Rbt.Executable>
rbdock ($Id: //depot/dev/client3/rdock/2013.1/src/exe/rbdock.cxx#4 $)

>  <Rbt.Library>
libRbt.so (2013.1, Build901 2013/11/27)

>  <Rbt.Parameter_File>
/export/apps/rDock/src/rDock_2013.1_src/data/scripts/dock_solv.prm

>  <Rbt.Receptor>
prm/pocket_docking_2.prm

>  <SCORE>
-30.278

>  <SCORE.INTER>
-25.4624

>  <SCORE.INTER.CONST>
1

>  <SCORE.INTER.POLAR>
-3.18182

>  <SCORE.INTER.ROT>
8

>  <SCORE.INTER.SOLV>
7.51136

>  <SCORE.INTER.VDW>
-17.806

>  <SCORE.INTER.norm>
-2.31476

>  <SCORE.INTRA>
-4.8643

>  <SCORE.INTRA.DIHEDRAL>
-11.0008

>  <SCORE.INTRA.DIHEDRAL.0>
21.6454

>  <SCORE.INTRA.POLAR>
0

>  <SCORE.INTRA.POLAR.0>
0

>  <SCORE.INTRA.REPUL>
0

>  <SCORE.INTRA.REPUL.0>
0

>  <SCORE.INTRA.SOLV>
0.408031

>  <SCORE.INTRA.SOLV.lig_0>
-16.5947

>  <SCORE.INTRA.VDW>
0.432088

>  <SCORE.INTRA.VDW.0>
-0.691398

>  <SCORE.INTRA.norm>
-0.442209

>  <SCORE.RESTR>
0.0487148

>  <SCORE.RESTR.CAVITY>
0.0487148

>  <SCORE.RESTR.norm>
0.00442862

>  <SCORE.SYSTEM>
0

>  <SCORE.SYSTEM.CONST>
0

>  <SCORE.SYSTEM.DIHEDRAL>
0

>  <SCORE.SYSTEM.SOLV>
0

>  <SCORE.SYSTEM.norm>
0

>  <SCORE.heavy>
11

>  <SCORE.norm>
-2.75254

>  <RMSD>
2.096

$$$$
1akx_lig
 OpenBabel11021811383D
libRbt.so/2013.1/901 2013/11/27
 11 10  0  0  0  0  0  0  0  0999 V2000
    0.9194   -4.4433    1.1795 N   0  0  0  0  0  0  0  0  0  0  0  0
   -0.5686   -4.5213    1.2692 C   0  0  2  0  0  0  0  0  0  0  0  0
   -0.9644   -5.6058    2.2792 C   0  0  0  0  0  0  0  0  0  0  0  0
   -0.6992   -5.4771    3.4579 O   0  0  0  0  0  0  0  0  0  0  0  0
   -1.1506   -4.8618   -0.1095 C   0  0  0  0  0  0  0  0  0  0  0  0
   -1.2844   -3.5839   -0.9440 C   0  0  0  0  0  0  0  0  0  0  0  0
   -1.8248   -3.9334   -2.3306 C   0  0  0  0  0  0  0  0  0  0  0  0
   -2.2802   -2.6886   -3.0126 N   0  0  0  0  0  0  0  0  0  0  0  0
   -3.5552   -2.4789   -3.2199 C   0  0  0  0  0  0  0  0  0  0  0  0
   -3.9976   -2.2523   -4.4300 N   0  0  0  0  0  0  0  0  0  0  0  0
   -4.3895   -2.5024   -2.2152 N   0  0  0  0  0  0  0  0  0  0  0  0
  2  1  1  6  0  0  0
  2  3  1  0  0  0  0
  2  5  1  0  0  0  0
  3  4  1  0  0  0  0
  5  6  1  0  0  0  0
  6  7  1  0  0  0  0
  7  8  1  0  0  0  0
  8  9  1  0  0  0  0
  9 10  1  0  0  0  0
  9 11  1  0  0  0  0
M  END
>  <CHROM.1>
-76.44510155,65.70024488,-83.35730125,178.30911230,165.68367124,-110.41594717
-124.00408250,130.70807587,34.89663681,-1.78993488,-3.83623668,-0.72553682
-1.08189127,0.10628771,-1.18994764

>  <Name>
1akx_lig

>  <RI>
0

>  <Rbt.Current_Directory>
/home/itssahil/PROJECTS/Mol_Feturizer/New_Systems/rnas/1akx

>  <Rbt.Executable>
rbdock ($Id: //depot/dev/client3/rdock/2013.1/src/exe/rbdock.cxx#4 $)

>  <Rbt.Library>
libRbt.so (2013.1, Build901 2013/11/27)

>  <Rbt.Parameter_File>
/export/apps/rDock/src/rDock_2013.1_src/data/scripts/dock_solv.prm

>  <Rbt.Receptor>
prm/pocket_docking_8.prm

>  <SCORE>
-36.2072

>  <SCORE.INTER>
-29.2381

>  <SCORE.INTER.CONST>
1

>  <SCORE.INTER.POLAR>
-4.42065

>  <SCORE.INTER.ROT>
8

>  <SCORE.INTER.SOLV>
7.67856

>  <SCORE.INTER.VDW>
-16.2494

>  <SCORE.INTER.norm>
-2.65801

>  <SCORE.INTRA>
-6.96911

>  <SCORE.INTRA.DIHEDRAL>
-13.4036

>  <SCORE.INTRA.DIHEDRAL.0>
21.6454

>  <SCORE.INTRA.POLAR>
0

>  <SCORE.INTRA.POLAR.0>
0

>  <SCORE.INTRA.REPUL>
0

>  <SCORE.INTRA.REPUL.0>
0

>  <SCORE.INTRA.SOLV>
0.25261

>  <SCORE.INTRA.SOLV.lig_0>
-16.5947

>  <SCORE.INTRA.VDW>
-0.393601

>  <SCORE.INTRA.VDW.0>
-0.691398

>  <SCORE.INTRA.norm>
-0.633555

>  <SCORE.RESTR>
0

>  <SCORE.RESTR.CAVITY>
0

>  <SCORE.RESTR.norm>
0

>  <SCORE.SYSTEM>
0

>  <SCORE.SYSTEM.CONST>
0

>  <SCORE.SYSTEM.DIHEDRAL>
0

>  <SCORE.SYSTEM.SOLV>
0

>  <SCORE.SYSTEM.norm>
0

>  <SCORE.heavy>
11

>  <SCORE.norm>
-3.29156

>  <RMSD>
2.103

$$$$
1akx_lig
 OpenBabel11021811383D
libRbt.so/2013.1/901 2013/11/27
 11 10  0  0  0  0  0  0  0  0999 V2000
    0.8124   -4.7838    1.1488 N   0  0  0  0  0  0  0  0  0  0  0  0
   -0.4242   -3.9804    1.3801 C   0  0  2  0  0  0  0  0  0  0  0  0
   -1.0330   -4.3569    2.7367 C   0  0  0  0  0  0  0  0  0  0  0  0
   -1.2911   -5.5154    2.9966 O   0  0  0  0  0  0  0  0  0  0  0  0
   -1.4378   -4.2616    0.2626 C   0  0  0  0  0  0  0  0  0  0  0  0
   -1.2176   -3.2811   -0.8938 C   0  0  0  0  0  0  0  0  0  0  0  0
   -1.9201   -3.8033   -2.1472 C   0  0  0  0  0  0  0  0  0  0  0  0
   -2.3437   -2.6514   -2.9933 N   0  0  0  0  0  0  0  0  0  0  0  0
   -3.6140   -2.4262   -3.2125 C   0  0  0  0  0  0  0  0  0  0  0  0
   -4.0474   -2.2266   -4.4306 N   0  0  0  0  0  0  0  0  0  0  0  0
   -4.4529   -2.4071   -2.2115 N   0  0  0  0  0  0  0  0  0  0  0  0
  2  1  1  6  0  0  0
  2  3  1  0  0  0  0
  2  5  1  0  0  0  0
  3  4  1  0  0  0  0
  5  6  1  0  0  0  0
  6  7  1  0  0  0  0
  7  8  1  0  0  0  0
  8  9  1  0  0  0  0
  9 10  1  0  0  0  0
  9 11  1  0  0  0  0
M  END
>  <CHROM.1>
-178.49497121,-54.34093299,-89.68919832,163.41133332,150.15889568,-116.01180995
-130.71319797,130.30860293,29.78502568,-1.90392271,-3.61962635,-0.67202018
-1.08004162,0.17254717,-1.26124602

>  <Name>
1akx_lig

>  <RI>
0

>  <Rbt.Current_Directory>
/home/itssahil/PROJECTS/Mol_Feturizer/New_Systems/rnas/1akx

>  <Rbt.Executable>
rbdock ($Id: //depot/dev/client3/rdock/2013.1/src/exe/rbdock.cxx#4 $)

>  <Rbt.Library>
libRbt.so (2013.1, Build901 2013/11/27)

>  <Rbt.Parameter_File>
/export/apps/rDock/src/rDock_2013.1_src/data/scripts/dock_solv.prm

>  <Rbt.Receptor>
prm/pocket_docking_2.prm

>  <SCORE>
-34.799

>  <SCORE.INTER>
-29.886

>  <SCORE.INTER.CONST>
1

>  <SCORE.INTER.POLAR>
-4.43513

>  <SCORE.INTER.ROT>
8

>  <SCORE.INTER.SOLV>
7.72074

>  <SCORE.INTER.VDW>
-16.6472

>  <SCORE.INTER.norm>
-2.71691

>  <SCORE.INTRA>
-5.24164

>  <SCORE.INTRA.DIHEDRAL>
-10.0058

>  <SCORE.INTRA.DIHEDRAL.0>
21.6454

>  <SCORE.INTRA.POLAR>
0

>  <SCORE.INTRA.POLAR.0>
0

>  <SCORE.INTRA.REPUL>
0

>  <SCORE.INTRA.REPUL.0>
0

>  <SCORE.INTRA.SOLV>
0.421682

>  <SCORE.INTRA.SOLV.lig_0>
-16.5947

>  <SCORE.INTRA.VDW>
-0.449593

>  <SCORE.INTRA.VDW.0>
-0.691398

>  <SCORE.INTRA.norm>
-0.476513

>  <SCORE.RESTR>
0.328697

>  <SCORE.RESTR.CAVITY>
0.328697

>  <SCORE.RESTR.norm>
0.0298816

>  <SCORE.SYSTEM>
0

>  <SCORE.SYSTEM.CONST>
0

>  <SCORE.SYSTEM.DIHEDRAL>
0

>  <SCORE.SYSTEM.SOLV>
0

>  <SCORE.SYSTEM.norm>
0

>  <SCORE.heavy>
11

>  <SCORE.norm>
-3.16354

>  <RMSD>
2.125

$$$$
1akx_lig
 OpenBabel11021811383D
libRbt.so/2013.1/901 2013/11/27
 11 10  0  0  0  0  0  0  0  0999 V2000
    0.9823   -4.4030    1.1279 N   0  0  0  0  0  0  0  0  0  0  0  0
   -0.5021   -4.4556    1.2764 C   0  0  2  0  0  0  0  0  0  0  0  0
   -0.8746   -5.5115    2.3247 C   0  0  0  0  0  0  0  0  0  0  0  0
   -0.5193   -5.3859    3.4798 O   0  0  0  0  0  0  0  0  0  0  0  0
   -1.1421   -4.8166   -0.0710 C   0  0  0  0  0  0  0  0  0  0  0  0
   -1.2014   -3.5735   -0.9647 C   0  0  0  0  0  0  0  0  0  0  0  0
   -1.8359   -3.9389   -2.3066 C   0  0  0  0  0  0  0  0  0  0  0  0
   -2.2605   -2.6942   -3.0085 N   0  0  0  0  0  0  0  0  0  0  0  0
   -3.5306   -2.4501   -3.2079 C   0  0  0  0  0  0  0  0  0  0  0  0
   -3.9917   -2.3092   -4.4240 N   0  0  0  0  0  0  0  0  0  0  0  0
   -4.3415   -2.3530   -2.1886 N   0  0  0  0  0  0  0  0  0  0  0  0
  2  1  1  6  0  0  0
  2  3  1  0  0  0  0
  2  5  1  0  0  0  0
  3  4  1  0  0  0  0
  5  6  1  0  0  0  0
  6  7  1  0  0  0  0
  7  8  1  0  0  0  0
  8  9  1  0  0  0  0
  9 10  1  0  0  0  0
  9 11  1  0  0  0  0
M  END
>  <CHROM.1>
-76.48432292,62.95994171,-79.51363287,179.84463597,163.43853040,-113.48752352
-120.09304929,-53.02094512,24.78644802,-1.73628791,-3.79445984,-0.71644984
-1.06646486,0.14447055,-1.22082479

>  <Name>
1akx_lig

>  <RI>
0

>  <Rbt.Current_Directory>
/home/itssahil/PROJECTS/Mol_Feturizer/New_Systems/rnas/1akx

>  <Rbt.Executable>
rbdock ($Id: //depot/dev/client3/rdock/2013.1/src/exe/rbdock.cxx#4 $)

>  <Rbt.Library>
libRbt.so (2013.1, Build901 2013/11/27)

>  <Rbt.Parameter_File>
/export/apps/rDock/src/rDock_2013.1_src/data/scripts/dock_solv.prm

>  <Rbt.Receptor>
prm/pocket_docking_4.prm

>  <SCORE>
-36.3762

>  <SCORE.INTER>
-29.2376

>  <SCORE.INTER.CONST>
1

>  <SCORE.INTER.POLAR>
-4.4285

>  <SCORE.INTER.ROT>
8

>  <SCORE.INTER.SOLV>
7.88392

>  <SCORE.INTER.VDW>
-16.2914

>  <SCORE.INTER.norm>
-2.65796

>  <SCORE.INTRA>
-7.13862

>  <SCORE.INTRA.DIHEDRAL>
-13.7964

>  <SCORE.INTRA.DIHEDRAL.0>
21.6454

>  <SCORE.INTRA.POLAR>
0

>  <SCORE.INTRA.POLAR.0>
0

>  <SCORE.INTRA.REPUL>
0

>  <SCORE.INTRA.REPUL.0>
0

>  <SCORE.INTRA.SOLV>
0.256018

>  <SCORE.INTRA.SOLV.lig_0>
-16.5947

>  <SCORE.INTRA.VDW>
-0.36843

>  <SCORE.INTRA.VDW.0>
-0.691398

>  <SCORE.INTRA.norm>
-0.648966

>  <SCORE.RESTR>
0

>  <SCORE.RESTR.CAVITY>
0

>  <SCORE.RESTR.norm>
0

>  <SCORE.SYSTEM>
0

>  <SCORE.SYSTEM.CONST>
0

>  <SCORE.SYSTEM.DIHEDRAL>
0

>  <SCORE.SYSTEM.SOLV>
0

>  <SCORE.SYSTEM.norm>
0

>  <SCORE.heavy>
11

>  <SCORE.norm>
-3.30693

>  <RMSD>
2.133

$$$$
1akx_lig
 OpenBabel11021811383D
libRbt.so/2013.1/901 2013/11/27
 11 10  0  0  0  0  0  0  0  0999 V2000
   -1.2638   -6.1856   -0.0324 N   0  0  0  0  0  0  0  0  0  0  0  0
   -0.5546   -5.0708    0.6622 C   0  0  2  0  0  0  0  0  0  0  0  0
   -0.5196   -5.3474    2.1705 C   0  0  0  0  0  0  0  0  0  0  0  0
   -1.5516   -5.4941    2.7947 O   0  0  0  0  0  0  0  0  0  0  0  0
   -1.2873   -3.7489    0.3959 C   0  0  0  0  0  0  0  0  0  0  0  0
   -1.0048   -3.2804   -1.0352 C   0  0  0  0  0  0  0  0  0  0  0  0
   -2.2792   -2.6930   -1.6414 C   0  0  0  0  0  0  0  0  0  0  0  0
   -2.0205   -2.3048   -3.0573 N   0  0  0  0  0  0  0  0  0  0  0  0
   -2.8036   -2.7360   -4.0129 C   0  0  0  0  0  0  0  0  0  0  0  0
   -4.1033   -2.6921   -3.8702 N   0  0  0  0  0  0  0  0  0  0  0  0
   -2.2851   -3.2059   -5.1158 N   0  0  0  0  0  0  0  0  0  0  0  0
  2  1  1  6  0  0  0
  2  3  1  0  0  0  0
  2  5  1  0  0  0  0
  3  4  1  0  0  0  0
  5  6  1  0  0  0  0
  6  7  1  0  0  0  0
  7  8  1  0  0  0  0
  8  9  1  0  0  0  0
  9 10  1  0  0  0  0
  9 11  1  0  0  0  0
M  END
>  <CHROM.1>
-54.01596179,-58.52172834,-74.83647977,140.55142145,-177.01142710,127.37932044
45.68249690,-0.50000399,30.83452883,-1.81534539,-3.91962681,-1.18556551,-0.41541376
1.26264467,-2.28047067

>  <Name>
1akx_lig

>  <RI>
0

>  <Rbt.Current_Directory>
/home/itssahil/PROJECTS/Mol_Feturizer/New_Systems/rnas/1akx

>  <Rbt.Executable>
rbdock ($Id: //depot/dev/client3/rdock/2013.1/src/exe/rbdock.cxx#4 $)

>  <Rbt.Library>
libRbt.so (2013.1, Build901 2013/11/27)

>  <Rbt.Parameter_File>
/export/apps/rDock/src/rDock_2013.1_src/data/scripts/dock_solv.prm

>  <Rbt.Receptor>
prm/pocket_docking_3.prm

>  <SCORE>
-23.3965

>  <SCORE.INTER>
-17.9283

>  <SCORE.INTER.CONST>
1

>  <SCORE.INTER.POLAR>
-2.84156

>  <SCORE.INTER.ROT>
8

>  <SCORE.INTER.SOLV>
9.03608

>  <SCORE.INTER.VDW>
-14.4257

>  <SCORE.INTER.norm>
-1.62985

>  <SCORE.INTRA>
-5.4682

>  <SCORE.INTRA.DIHEDRAL>
-11.355

>  <SCORE.INTRA.DIHEDRAL.0>
21.6454

>  <SCORE.INTRA.POLAR>
0

>  <SCORE.INTRA.POLAR.0>
0

>  <SCORE.INTRA.REPUL>
0

>  <SCORE.INTRA.REPUL.0>
0

>  <SCORE.INTRA.SOLV>
0.370655

>  <SCORE.INTRA.SOLV.lig_0>
-16.5947

>  <SCORE.INTRA.VDW>
0.0239848

>  <SCORE.INTRA.VDW.0>
-0.691398

>  <SCORE.INTRA.norm>
-0.497109

>  <SCORE.RESTR>
0

>  <SCORE.RESTR.CAVITY>
0

>  <SCORE.RESTR.norm>
0

>  <SCORE.SYSTEM>
0

>  <SCORE.SYSTEM.CONST>
0

>  <SCORE.SYSTEM.DIHEDRAL>
0

>  <SCORE.SYSTEM.SOLV>
0

>  <SCORE.SYSTEM.norm>
0

>  <SCORE.heavy>
11

>  <SCORE.norm>
-2.12696

>  <RMSD>
2.147

$$$$
1akx_lig
 OpenBabel11021811383D
libRbt.so/2013.1/901 2013/11/27
 11 10  0  0  0  0  0  0  0  0999 V2000
    0.9547   -4.8541    0.8838 N   0  0  0  0  0  0  0  0  0  0  0  0
    0.3005   -3.7963    1.7092 C   0  0  2  0  0  0  0  0  0  0  0  0
   -0.3789   -4.4417    2.9236 C   0  0  0  0  0  0  0  0  0  0  0  0
   -0.9369   -3.7543    3.7557 O   0  0  0  0  0  0  0  0  0  0  0  0
   -0.7457   -3.0569    0.8640 C   0  0  0  0  0  0  0  0  0  0  0  0
   -1.6797   -4.0703    0.1948 C   0  0  0  0  0  0  0  0  0  0  0  0
   -2.8728   -3.3377   -0.4189 C   0  0  0  0  0  0  0  0  0  0  0  0
   -2.3935   -2.4305   -1.5004 N   0  0  0  0  0  0  0  0  0  0  0  0
   -3.0257   -2.3773   -2.6449 C   0  0  0  0  0  0  0  0  0  0  0  0
   -2.3759   -2.0930   -3.7442 N   0  0  0  0  0  0  0  0  0  0  0  0
   -4.3092   -2.6152   -2.6901 N   0  0  0  0  0  0  0  0  0  0  0  0
  2  1  1  6  0  0  0
  2  3  1  0  0  0  0
  2  5  1  0  0  0  0
  3  4  1  0  0  0  0
  5  6  1  0  0  0  0
  6  7  1  0  0  0  0
  7  8  1  0  0  0  0
  8  9  1  0  0  0  0
  9 10  1  0  0  0  0
  9 11  1  0  0  0  0
M  END
>  <CHROM.1>
47.76968286,177.56761122,51.14255402,169.09725628,63.79369923,135.42422667
-150.22440450,6.84306417,-126.20927888,-1.57869180,-3.35489073,-0.08623608
-1.04521807,0.28245719,-1.40639734

>  <Name>
1akx_lig

>  <RI>
0

>  <Rbt.Current_Directory>
/home/itssahil/PROJECTS/Mol_Feturizer/New_Systems/rnas/1akx

>  <Rbt.Executable>
rbdock ($Id: //depot/dev/client3/rdock/2013.1/src/exe/rbdock.cxx#4 $)

>  <Rbt.Library>
libRbt.so (2013.1, Build901 2013/11/27)

>  <Rbt.Parameter_File>
/export/apps/rDock/src/rDock_2013.1_src/data/scripts/dock_solv.prm

>  <Rbt.Receptor>
prm/pocket_docking_4.prm

>  <SCORE>
-25.6066

>  <SCORE.INTER>
-19.8939

>  <SCORE.INTER.CONST>
1

>  <SCORE.INTER.POLAR>
-2.96879

>  <SCORE.INTER.ROT>
8

>  <SCORE.INTER.SOLV>
7.21125

>  <SCORE.INTER.VDW>
-14.7037

>  <SCORE.INTER.norm>
-1.80854

>  <SCORE.INTRA>
-5.71268

>  <SCORE.INTRA.DIHEDRAL>
-15.6147

>  <SCORE.INTRA.DIHEDRAL.0>
21.6454

>  <SCORE.INTRA.POLAR>
0

>  <SCORE.INTRA.POLAR.0>
0

>  <SCORE.INTRA.REPUL>
0

>  <SCORE.INTRA.REPUL.0>
0

>  <SCORE.INTRA.SOLV>
0.330586

>  <SCORE.INTRA.SOLV.lig_0>
-16.5947

>  <SCORE.INTRA.VDW>
1.92938

>  <SCORE.INTRA.VDW.0>
-0.691398

>  <SCORE.INTRA.norm>
-0.519334

>  <SCORE.RESTR>
0

>  <SCORE.RESTR.CAVITY>
0

>  <SCORE.RESTR.norm>
0

>  <SCORE.SYSTEM>
0

>  <SCORE.SYSTEM.CONST>
0

>  <SCORE.SYSTEM.DIHEDRAL>
0

>  <SCORE.SYSTEM.SOLV>
0

>  <SCORE.SYSTEM.norm>
0

>  <SCORE.heavy>
11

>  <SCORE.norm>
-2.32787

>  <RMSD>
2.147

$$$$
1akx_lig
 OpenBabel11021811383D
libRbt.so/2013.1/901 2013/11/27
 11 10  0  0  0  0  0  0  0  0999 V2000
    0.8257   -4.7714    1.0820 N   0  0  0  0  0  0  0  0  0  0  0  0
   -0.2978   -3.8583    1.4453 C   0  0  2  0  0  0  0  0  0  0  0  0
   -1.2764   -4.5935    2.3698 C   0  0  0  0  0  0  0  0  0  0  0  0
   -2.2588   -4.0259    2.8045 O   0  0  0  0  0  0  0  0  0  0  0  0
   -1.0280   -3.4082    0.1727 C   0  0  0  0  0  0  0  0  0  0  0  0
   -1.4312   -4.6342   -0.6529 C   0  0  0  0  0  0  0  0  0  0  0  0
   -1.7580   -4.2024   -2.0825 C   0  0  0  0  0  0  0  0  0  0  0  0
   -3.0416   -3.4444   -2.0894 N   0  0  0  0  0  0  0  0  0  0  0  0
   -3.4392   -2.8306   -3.1745 C   0  0  0  0  0  0  0  0  0  0  0  0
   -2.5903   -2.1362   -3.8876 N   0  0  0  0  0  0  0  0  0  0  0  0
   -4.6872   -2.9173   -3.5500 N   0  0  0  0  0  0  0  0  0  0  0  0
  2  1  1  6  0  0  0
  2  3  1  0  0  0  0
  2  5  1  0  0  0  0
  3  4  1  0  0  0  0
  5  6  1  0  0  0  0
  6  7  1  0  0  0  0
  7  8  1  0  0  0  0
  8  9  1  0  0  0  0
  9 10  1  0  0  0  0
  9 11  1  0  0  0  0
M  END
>  <CHROM.1>
-78.38665880,178.89697008,52.82387087,-162.73250550,-71.04539541,171.41721324
-43.60910276,170.78681821,42.09957226,-1.91164035,-3.70917339,-0.69491585
-1.08427250,0.20079474,-1.38992454

>  <Name>
1akx_lig

>  <RI>
0

>  <Rbt.Current_Directory>
/home/itssahil/PROJECTS/Mol_Feturizer/New_Systems/rnas/1akx

>  <Rbt.Executable>
rbdock ($Id: //depot/dev/client3/rdock/2013.1/src/exe/rbdock.cxx#4 $)

>  <Rbt.Library>
libRbt.so (2013.1, Build901 2013/11/27)

>  <Rbt.Parameter_File>
/export/apps/rDock/src/rDock_2013.1_src/data/scripts/dock_solv.prm

>  <Rbt.Receptor>
prm/pocket_docking_3.prm

>  <SCORE>
-29.5317

>  <SCORE.INTER>
-24.2947

>  <SCORE.INTER.CONST>
1

>  <SCORE.INTER.POLAR>
-3.94772

>  <SCORE.INTER.ROT>
8

>  <SCORE.INTER.SOLV>
6.74418

>  <SCORE.INTER.VDW>
-14.2188

>  <SCORE.INTER.norm>
-2.20861

>  <SCORE.INTRA>
-5.23695

>  <SCORE.INTRA.DIHEDRAL>
-14.2403

>  <SCORE.INTRA.DIHEDRAL.0>
21.6454

>  <SCORE.INTRA.POLAR>
0

>  <SCORE.INTRA.POLAR.0>
0

>  <SCORE.INTRA.REPUL>
0

>  <SCORE.INTRA.REPUL.0>
0

>  <SCORE.INTRA.SOLV>
0.308399

>  <SCORE.INTRA.SOLV.lig_0>
-16.5947

>  <SCORE.INTRA.VDW>
1.729

>  <SCORE.INTRA.VDW.0>
-0.691398

>  <SCORE.INTRA.norm>
-0.476087

>  <SCORE.RESTR>
0

>  <SCORE.RESTR.CAVITY>
0

>  <SCORE.RESTR.norm>
0

>  <SCORE.SYSTEM>
0

>  <SCORE.SYSTEM.CONST>
0

>  <SCORE.SYSTEM.DIHEDRAL>
0

>  <SCORE.SYSTEM.SOLV>
0

>  <SCORE.SYSTEM.norm>
0

>  <SCORE.heavy>
11

>  <SCORE.norm>
-2.6847

>  <RMSD>
2.182

$$$$
1akx_lig
 OpenBabel11021811383D
libRbt.so/2013.1/901 2013/11/27
 11 10  0  0  0  0  0  0  0  0999 V2000
   -0.5480   -5.7000    1.5733 N   0  0  0  0  0  0  0  0  0  0  0  0
    0.3518   -4.6910    0.9406 C   0  0  2  0  0  0  0  0  0  0  0  0
    1.3960   -4.2241    1.9626 C   0  0  0  0  0  0  0  0  0  0  0  0
    1.0496   -3.7049    3.0050 O   0  0  0  0  0  0  0  0  0  0  0  0
   -0.4762   -3.4905    0.4623 C   0  0  0  0  0  0  0  0  0  0  0  0
   -1.7219   -3.9847   -0.2802 C   0  0  0  0  0  0  0  0  0  0  0  0
   -2.4746   -2.7903   -0.8665 C   0  0  0  0  0  0  0  0  0  0  0  0
   -1.7386   -2.2777   -2.0572 N   0  0  0  0  0  0  0  0  0  0  0  0
   -2.1210   -2.6122   -3.2632 C   0  0  0  0  0  0  0  0  0  0  0  0
   -3.0947   -1.9644   -3.8493 N   0  0  0  0  0  0  0  0  0  0  0  0
   -1.5234   -3.5925   -3.8860 N   0  0  0  0  0  0  0  0  0  0  0  0
  2  1  1  1  0  0  0
  2  3  1  0  0  0  0
  2  5  1  0  0  0  0
  3  4  1  0  0  0  0
  5  6  1  0  0  0  0
  6  7  1  0  0  0  0
  7  8  1  0  0  0  0
  8  9  1  0  0  0  0
  9 10  1  0  0  0  0
  9 11  1  0  0  0  0
M  END
>  <CHROM.1>
-166.33314984,-59.18308957,-45.99549215,-174.77288572,74.58937010,99.20694542
82.81919060,128.61617999,53.44689616,-0.99719832,-3.56449292,-0.57095960
0.09581035,1.09582060,-2.91250042

>  <Name>
1akx_lig

>  <RI>
0

>  <Rbt.Current_Directory>
/home/afrankz/demos/rdock_decoys_rna/rnas/1akx

>  <Rbt.Executable>
rbdock ($Id: //depot/dev/client3/rdock/2013.1/src/exe/rbdock.cxx#4 $)

>  <Rbt.Library>
libRbt.so (2013.1, Build901 2013/11/27)

>  <Rbt.Parameter_File>
/export/apps/rDock/src/rDock_2013.1_src/data/scripts/dock_solv.prm

>  <Rbt.Receptor>
prm/pocket_docking_4.prm

>  <SCORE>
-24.7211

>  <SCORE.INTER>
-18.0554

>  <SCORE.INTER.CONST>
1

>  <SCORE.INTER.POLAR>
-3.14378

>  <SCORE.INTER.ROT>
8

>  <SCORE.INTER.SOLV>
8.60707

>  <SCORE.INTER.VDW>
-13.36

>  <SCORE.INTER.norm>
-1.6414

>  <SCORE.INTRA>
-6.66564

>  <SCORE.INTRA.DIHEDRAL>
-14.7661

>  <SCORE.INTRA.DIHEDRAL.0>
21.6454

>  <SCORE.INTRA.POLAR>
0

>  <SCORE.INTRA.POLAR.0>
0

>  <SCORE.INTRA.REPUL>
0

>  <SCORE.INTRA.REPUL.0>
0

>  <SCORE.INTRA.SOLV>
0.653662

>  <SCORE.INTRA.SOLV.lig_0>
-16.5947

>  <SCORE.INTRA.VDW>
0.390596

>  <SCORE.INTRA.VDW.0>
-0.691398

>  <SCORE.INTRA.norm>
-0.605967

>  <SCORE.RESTR>
0

>  <SCORE.RESTR.CAVITY>
0

>  <SCORE.RESTR.norm>
0

>  <SCORE.SYSTEM>
0

>  <SCORE.SYSTEM.CONST>
0

>  <SCORE.SYSTEM.DIHEDRAL>
0

>  <SCORE.SYSTEM.SOLV>
0

>  <SCORE.SYSTEM.norm>
0

>  <SCORE.heavy>
11

>  <SCORE.norm>
-2.24737

>  <RMSD>
2.193

>  <RMSD>
2.193

$$$$
1akx_lig
 OpenBabel11021811383D
libRbt.so/2013.1/901 2013/11/27
 11 10  0  0  0  0  0  0  0  0999 V2000
   -0.5480   -5.7000    1.5733 N   0  0  0  0  0  0  0  0  0  0  0  0
    0.3518   -4.6910    0.9406 C   0  0  2  0  0  0  0  0  0  0  0  0
    1.3960   -4.2241    1.9626 C   0  0  0  0  0  0  0  0  0  0  0  0
    1.0496   -3.7049    3.0050 O   0  0  0  0  0  0  0  0  0  0  0  0
   -0.4762   -3.4905    0.4623 C   0  0  0  0  0  0  0  0  0  0  0  0
   -1.7219   -3.9847   -0.2802 C   0  0  0  0  0  0  0  0  0  0  0  0
   -2.4746   -2.7903   -0.8665 C   0  0  0  0  0  0  0  0  0  0  0  0
   -1.7386   -2.2777   -2.0572 N   0  0  0  0  0  0  0  0  0  0  0  0
   -2.1210   -2.6122   -3.2632 C   0  0  0  0  0  0  0  0  0  0  0  0
   -3.0947   -1.9644   -3.8493 N   0  0  0  0  0  0  0  0  0  0  0  0
   -1.5234   -3.5925   -3.8860 N   0  0  0  0  0  0  0  0  0  0  0  0
  2  1  1  1  0  0  0
  2  3  1  0  0  0  0
  2  5  1  0  0  0  0
  3  4  1  0  0  0  0
  5  6  1  0  0  0  0
  6  7  1  0  0  0  0
  7  8  1  0  0  0  0
  8  9  1  0  0  0  0
  9 10  1  0  0  0  0
  9 11  1  0  0  0  0
M  END
>  <CHROM.1>
-166.33314984,-59.18308957,-45.99549215,-174.77288572,74.58937010,99.20694542
82.81919060,128.61617999,53.44689616,-0.99719832,-3.56449292,-0.57095960
0.09581035,1.09582060,-2.91250042

>  <Name>
1akx_lig

>  <RI>
0

>  <Rbt.Current_Directory>
/home/afrankz/demos/rdock_decoys_rna/rnas/1akx

>  <Rbt.Executable>
rbdock ($Id: //depot/dev/client3/rdock/2013.1/src/exe/rbdock.cxx#4 $)

>  <Rbt.Library>
libRbt.so (2013.1, Build901 2013/11/27)

>  <Rbt.Parameter_File>
/export/apps/rDock/src/rDock_2013.1_src/data/scripts/dock_solv.prm

>  <Rbt.Receptor>
prm/pocket_docking_4.prm

>  <SCORE>
-24.7211

>  <SCORE.INTER>
-18.0554

>  <SCORE.INTER.CONST>
1

>  <SCORE.INTER.POLAR>
-3.14378

>  <SCORE.INTER.ROT>
8

>  <SCORE.INTER.SOLV>
8.60707

>  <SCORE.INTER.VDW>
-13.36

>  <SCORE.INTER.norm>
-1.6414

>  <SCORE.INTRA>
-6.66564

>  <SCORE.INTRA.DIHEDRAL>
-14.7661

>  <SCORE.INTRA.DIHEDRAL.0>
21.6454

>  <SCORE.INTRA.POLAR>
0

>  <SCORE.INTRA.POLAR.0>
0

>  <SCORE.INTRA.REPUL>
0

>  <SCORE.INTRA.REPUL.0>
0

>  <SCORE.INTRA.SOLV>
0.653662

>  <SCORE.INTRA.SOLV.lig_0>
-16.5947

>  <SCORE.INTRA.VDW>
0.390596

>  <SCORE.INTRA.VDW.0>
-0.691398

>  <SCORE.INTRA.norm>
-0.605967

>  <SCORE.RESTR>
0

>  <SCORE.RESTR.CAVITY>
0

>  <SCORE.RESTR.norm>
0

>  <SCORE.SYSTEM>
0

>  <SCORE.SYSTEM.CONST>
0

>  <SCORE.SYSTEM.DIHEDRAL>
0

>  <SCORE.SYSTEM.SOLV>
0

>  <SCORE.SYSTEM.norm>
0

>  <SCORE.heavy>
11

>  <SCORE.norm>
-2.24737

>  <RMSD>
2.193

>  <RMSD>
2.193

$$$$
1akx_lig
 OpenBabel11021811383D
libRbt.so/2013.1/901 2013/11/27
 11 10  0  0  0  0  0  0  0  0999 V2000
   -1.5322   -6.9226    0.9861 N   0  0  0  0  0  0  0  0  0  0  0  0
   -2.1676   -5.5734    0.9225 C   0  0  2  0  0  0  0  0  0  0  0  0
   -2.8551   -5.2678    2.2591 C   0  0  0  0  0  0  0  0  0  0  0  0
   -2.2152   -5.2494    3.2917 O   0  0  0  0  0  0  0  0  0  0  0  0
   -3.2031   -5.5445   -0.2099 C   0  0  0  0  0  0  0  0  0  0  0  0
   -3.5113   -4.0931   -0.5918 C   0  0  0  0  0  0  0  0  0  0  0  0
   -4.5344   -4.0698   -1.7274 C   0  0  0  0  0  0  0  0  0  0  0  0
   -4.5812   -2.7042   -2.3234 N   0  0  0  0  0  0  0  0  0  0  0  0
   -3.6952   -2.3437   -3.2164 C   0  0  0  0  0  0  0  0  0  0  0  0
   -4.0451   -2.1909   -4.4676 N   0  0  0  0  0  0  0  0  0  0  0  0
   -2.4584   -2.1295   -2.8551 N   0  0  0  0  0  0  0  0  0  0  0  0
  2  1  1  1  0  0  0
  2  3  1  0  0  0  0
  2  5  1  0  0  0  0
  3  4  1  0  0  0  0
  5  6  1  0  0  0  0
  6  7  1  0  0  0  0
  7  8  1  0  0  0  0
  8  9  1  0  0  0  0
  9 10  1  0  0  0  0
  9 11  1  0  0  0  0
M  END
>  <CHROM.1>
59.38396349,59.17751459,-161.16492205,179.54533986,-166.04868124,82.29087391
109.07792260,150.32557986,165.48887692,-3.13283364,-4.19743787,-0.71974433
-1.17091170,0.88448775,-1.31368978

>  <Name>
1akx_lig

>  <RI>
0

>  <Rbt.Current_Directory>
/home/itssahil/PROJECTS/Mol_Feturizer/New_Systems/rnas/1akx

>  <Rbt.Executable>
rbdock ($Id: //depot/dev/client3/rdock/2013.1/src/exe/rbdock.cxx#4 $)

>  <Rbt.Library>
libRbt.so (2013.1, Build901 2013/11/27)

>  <Rbt.Parameter_File>
/export/apps/rDock/src/rDock_2013.1_src/data/scripts/dock_solv.prm

>  <Rbt.Receptor>
prm/pocket_docking_2.prm

>  <SCORE>
-27.5224

>  <SCORE.INTER>
-20.2582

>  <SCORE.INTER.CONST>
1

>  <SCORE.INTER.POLAR>
-3.45102

>  <SCORE.INTER.ROT>
8

>  <SCORE.INTER.SOLV>
6.4913

>  <SCORE.INTER.VDW>
-13.0992

>  <SCORE.INTER.norm>
-1.84166

>  <SCORE.INTRA>
-7.26416

>  <SCORE.INTRA.DIHEDRAL>
-14.8169

>  <SCORE.INTRA.DIHEDRAL.0>
21.6454

>  <SCORE.INTRA.POLAR>
0

>  <SCORE.INTRA.POLAR.0>
0

>  <SCORE.INTRA.REPUL>
0

>  <SCORE.INTRA.REPUL.0>
0

>  <SCORE.INTRA.SOLV>
0.367098

>  <SCORE.INTRA.SOLV.lig_0>
-16.5947

>  <SCORE.INTRA.VDW>
-0.0392794

>  <SCORE.INTRA.VDW.0>
-0.691398

>  <SCORE.INTRA.norm>
-0.660378

>  <SCORE.RESTR>
0

>  <SCORE.RESTR.CAVITY>
0

>  <SCORE.RESTR.norm>
0

>  <SCORE.SYSTEM>
0

>  <SCORE.SYSTEM.CONST>
0

>  <SCORE.SYSTEM.DIHEDRAL>
0

>  <SCORE.SYSTEM.SOLV>
0

>  <SCORE.SYSTEM.norm>
0

>  <SCORE.heavy>
11

>  <SCORE.norm>
-2.50204

>  <RMSD>
2.226

$$$$
1akx_lig
 OpenBabel11021811383D
libRbt.so/2013.1/901 2013/11/27
 11 10  0  0  0  0  0  0  0  0999 V2000
    1.1733   -4.5232    1.4095 N   0  0  0  0  0  0  0  0  0  0  0  0
   -0.1381   -5.1293    1.7849 C   0  0  2  0  0  0  0  0  0  0  0  0
    0.0890   -6.2438    2.8140 C   0  0  0  0  0  0  0  0  0  0  0  0
   -0.8525   -6.8552    3.2788 O   0  0  0  0  0  0  0  0  0  0  0  0
   -0.8140   -5.7096    0.5352 C   0  0  0  0  0  0  0  0  0  0  0  0
   -1.3892   -4.5731   -0.3162 C   0  0  0  0  0  0  0  0  0  0  0  0
   -2.0138   -5.1517   -1.5859 C   0  0  0  0  0  0  0  0  0  0  0  0
   -2.5717   -4.0436   -2.4123 N   0  0  0  0  0  0  0  0  0  0  0  0
   -1.7704   -3.2147   -3.0313 C   0  0  0  0  0  0  0  0  0  0  0  0
   -1.7837   -3.1364   -4.3371 N   0  0  0  0  0  0  0  0  0  0  0  0
   -0.9589   -2.4583   -2.3419 N   0  0  0  0  0  0  0  0  0  0  0  0
  2  1  1  6  0  0  0
  2  3  1  0  0  0  0
  2  5  1  0  0  0  0
  3  4  1  0  0  0  0
  5  6  1  0  0  0  0
  6  7  1  0  0  0  0
  7  8  1  0  0  0  0
  8  9  1  0  0  0  0
  9 10  1  0  0  0  0
  9 11  1  0  0  0  0
M  END
>  <CHROM.1>
156.58146600,178.49560190,-75.34287739,177.83344171,-179.96718676,71.06816883
117.78073721,91.70327323,-55.06688516,-0.97636164,-4.61426062,-0.39148927
-1.24893609,-0.59648491,-0.94281224

>  <Name>
1akx_lig

>  <RI>
0

>  <Rbt.Current_Directory>
/home/itssahil/PROJECTS/Mol_Feturizer/New_Systems/rnas/1akx

>  <Rbt.Executable>
rbdock ($Id: //depot/dev/client3/rdock/2013.1/src/exe/rbdock.cxx#4 $)

>  <Rbt.Library>
libRbt.so (2013.1, Build901 2013/11/27)

>  <Rbt.Parameter_File>
/export/apps/rDock/src/rDock_2013.1_src/data/scripts/dock_solv.prm

>  <Rbt.Receptor>
prm/pocket_docking_3.prm

>  <SCORE>
-24.2335

>  <SCORE.INTER>
-17.5942

>  <SCORE.INTER.CONST>
1

>  <SCORE.INTER.POLAR>
-2.92762

>  <SCORE.INTER.ROT>
8

>  <SCORE.INTER.SOLV>
8.06585

>  <SCORE.INTER.VDW>
-13.5927

>  <SCORE.INTER.norm>
-1.59947

>  <SCORE.INTRA>
-6.63927

>  <SCORE.INTRA.DIHEDRAL>
-14.7239

>  <SCORE.INTRA.DIHEDRAL.0>
21.6454

>  <SCORE.INTRA.POLAR>
0

>  <SCORE.INTRA.POLAR.0>
0

>  <SCORE.INTRA.REPUL>
0

>  <SCORE.INTRA.REPUL.0>
0

>  <SCORE.INTRA.SOLV>
0.262648

>  <SCORE.INTRA.SOLV.lig_0>
-16.5947

>  <SCORE.INTRA.VDW>
0.591359

>  <SCORE.INTRA.VDW.0>
-0.691398

>  <SCORE.INTRA.norm>
-0.60357

>  <SCORE.RESTR>
0

>  <SCORE.RESTR.CAVITY>
0

>  <SCORE.RESTR.norm>
0

>  <SCORE.SYSTEM>
0

>  <SCORE.SYSTEM.CONST>
0

>  <SCORE.SYSTEM.DIHEDRAL>
0

>  <SCORE.SYSTEM.SOLV>
0

>  <SCORE.SYSTEM.norm>
0

>  <SCORE.heavy>
11

>  <SCORE.norm>
-2.20304

>  <RMSD>
2.241

$$$$
1akx_lig
 OpenBabel11021811383D
libRbt.so/2013.1/901 2013/11/27
 11 10  0  0  0  0  0  0  0  0999 V2000
   -3.1260   -3.5335    1.6907 N   0  0  0  0  0  0  0  0  0  0  0  0
   -3.2585   -4.9064    1.1198 C   0  0  2  0  0  0  0  0  0  0  0  0
   -1.9816   -5.7060    1.4079 C   0  0  0  0  0  0  0  0  0  0  0  0
   -1.6967   -6.0244    2.5453 O   0  0  0  0  0  0  0  0  0  0  0  0
   -3.4801   -4.8148   -0.3961 C   0  0  0  0  0  0  0  0  0  0  0  0
   -4.9495   -4.4909   -0.6850 C   0  0  0  0  0  0  0  0  0  0  0  0
   -5.1074   -4.1025   -2.1551 C   0  0  0  0  0  0  0  0  0  0  0  0
   -4.5270   -2.7470   -2.3740 N   0  0  0  0  0  0  0  0  0  0  0  0
   -3.6477   -2.5517   -3.3233 C   0  0  0  0  0  0  0  0  0  0  0  0
   -2.3685   -2.6465   -3.0665 N   0  0  0  0  0  0  0  0  0  0  0  0
   -4.0497   -2.2671   -4.5330 N   0  0  0  0  0  0  0  0  0  0  0  0
  2  1  1  6  0  0  0
  2  3  1  0  0  0  0
  2  5  1  0  0  0  0
  3  4  1  0  0  0  0
  5  6  1  0  0  0  0
  6  7  1  0  0  0  0
  7  8  1  0  0  0  0
  8  9  1  0  0  0  0
  9 10  1  0  0  0  0
  9 11  1  0  0  0  0
M  END
>  <CHROM.1>
-174.84672712,67.77634276,-80.23052286,167.79285456,-72.69648350,127.74943810
-92.46632173,-137.83516708,-35.49141336,-3.44125629,-3.94411860,-0.87515104
-1.31851800,-0.13865766,-1.07377376

>  <Name>
1akx_lig

>  <RI>
0

>  <Rbt.Current_Directory>
/home/itssahil/PROJECTS/Mol_Feturizer/New_Systems/rnas/1akx

>  <Rbt.Executable>
rbdock ($Id: //depot/dev/client3/rdock/2013.1/src/exe/rbdock.cxx#4 $)

>  <Rbt.Library>
libRbt.so (2013.1, Build901 2013/11/27)

>  <Rbt.Parameter_File>
/export/apps/rDock/src/rDock_2013.1_src/data/scripts/dock_solv.prm

>  <Rbt.Receptor>
prm/pocket_docking_3.prm

>  <SCORE>
-27.2128

>  <SCORE.INTER>
-19.5468

>  <SCORE.INTER.CONST>
1

>  <SCORE.INTER.POLAR>
-3.45533

>  <SCORE.INTER.ROT>
8

>  <SCORE.INTER.SOLV>
5.84888

>  <SCORE.INTER.VDW>
-12.3964

>  <SCORE.INTER.norm>
-1.77698

>  <SCORE.INTRA>
-7.66606

>  <SCORE.INTRA.DIHEDRAL>
-13.8752

>  <SCORE.INTRA.DIHEDRAL.0>
21.6454

>  <SCORE.INTRA.POLAR>
0

>  <SCORE.INTRA.POLAR.0>
0

>  <SCORE.INTRA.REPUL>
0

>  <SCORE.INTRA.REPUL.0>
0

>  <SCORE.INTRA.SOLV>
0.519241

>  <SCORE.INTRA.SOLV.lig_0>
-16.5947

>  <SCORE.INTRA.VDW>
-0.988061

>  <SCORE.INTRA.VDW.0>
-0.691398

>  <SCORE.INTRA.norm>
-0.696914

>  <SCORE.RESTR>
0

>  <SCORE.RESTR.CAVITY>
0

>  <SCORE.RESTR.norm>
0

>  <SCORE.SYSTEM>
0

>  <SCORE.SYSTEM.CONST>
0

>  <SCORE.SYSTEM.DIHEDRAL>
0

>  <SCORE.SYSTEM.SOLV>
0

>  <SCORE.SYSTEM.norm>
0

>  <SCORE.heavy>
11

>  <SCORE.norm>
-2.47389

>  <RMSD>
2.242

$$$$
1akx_lig
 OpenBabel11021811383D
libRbt.so/2013.1/901 2013/11/27
 11 10  0  0  0  0  0  0  0  0999 V2000
   -1.8244   -1.6692    1.1366 N   0  0  0  0  0  0  0  0  0  0  0  0
   -1.6777   -3.0886    0.6987 C   0  0  2  0  0  0  0  0  0  0  0  0
   -0.9309   -3.8827    1.7778 C   0  0  0  0  0  0  0  0  0  0  0  0
   -0.7652   -5.0804    1.6584 O   0  0  0  0  0  0  0  0  0  0  0  0
   -0.8928   -3.1427   -0.6190 C   0  0  0  0  0  0  0  0  0  0  0  0
   -1.3387   -4.3591   -1.4369 C   0  0  0  0  0  0  0  0  0  0  0  0
   -2.8605   -4.3477   -1.5811 C   0  0  0  0  0  0  0  0  0  0  0  0
   -3.3173   -2.9642   -1.8967 N   0  0  0  0  0  0  0  0  0  0  0  0
   -3.5798   -2.6221   -3.1322 C   0  0  0  0  0  0  0  0  0  0  0  0
   -2.6589   -2.0563   -3.8692 N   0  0  0  0  0  0  0  0  0  0  0  0
   -4.7640   -2.8525   -3.6328 N   0  0  0  0  0  0  0  0  0  0  0  0
  2  1  1  1  0  0  0
  2  3  1  0  0  0  0
  2  5  1  0  0  0  0
  3  4  1  0  0  0  0
  5  6  1  0  0  0  0
  6  7  1  0  0  0  0
  7  8  1  0  0  0  0
  8  9  1  0  0  0  0
  9 10  1  0  0  0  0
  9 11  1  0  0  0  0
M  END
>  <CHROM.1>
61.64561214,176.01117485,-150.23293412,52.41652191,43.43533024,98.71224701
-93.92297896,7.08500739,-152.47618301,-2.25228532,-3.24205415,-0.98911333
0.22763137,-1.05754489,0.48879301

>  <Name>
1akx_lig

>  <RI>
0

>  <Rbt.Current_Directory>
/home/itssahil/PROJECTS/Mol_Feturizer/New_Systems/rnas/1akx

>  <Rbt.Executable>
rbdock ($Id: //depot/dev/client3/rdock/2013.1/src/exe/rbdock.cxx#4 $)

>  <Rbt.Library>
libRbt.so (2013.1, Build901 2013/11/27)

>  <Rbt.Parameter_File>
/export/apps/rDock/src/rDock_2013.1_src/data/scripts/dock_solv.prm

>  <Rbt.Receptor>
prm/pocket_docking_2.prm

>  <SCORE>
-28.4962

>  <SCORE.INTER>
-25.219

>  <SCORE.INTER.CONST>
1

>  <SCORE.INTER.POLAR>
-3.96372

>  <SCORE.INTER.ROT>
8

>  <SCORE.INTER.SOLV>
6.70261

>  <SCORE.INTER.VDW>
-14.7678

>  <SCORE.INTER.norm>
-2.29264

>  <SCORE.INTRA>
-4.52563

>  <SCORE.INTRA.DIHEDRAL>
-12.6695

>  <SCORE.INTRA.DIHEDRAL.0>
21.6454

>  <SCORE.INTRA.POLAR>
0

>  <SCORE.INTRA.POLAR.0>
0

>  <SCORE.INTRA.REPUL>
0

>  <SCORE.INTRA.REPUL.0>
0

>  <SCORE.INTRA.SOLV>
1.31506

>  <SCORE.INTRA.SOLV.lig_0>
-16.5947

>  <SCORE.INTRA.VDW>
1.15157

>  <SCORE.INTRA.VDW.0>
-0.691398

>  <SCORE.INTRA.norm>
-0.411421

>  <SCORE.RESTR>
1.24849

>  <SCORE.RESTR.CAVITY>
1.24849

>  <SCORE.RESTR.norm>
0.113499

>  <SCORE.SYSTEM>
0

>  <SCORE.SYSTEM.CONST>
0

>  <SCORE.SYSTEM.DIHEDRAL>
0

>  <SCORE.SYSTEM.SOLV>
0

>  <SCORE.SYSTEM.norm>
0

>  <SCORE.heavy>
11

>  <SCORE.norm>
-2.59056

>  <RMSD>
2.273

$$$$
1akx_lig
 OpenBabel11021811383D
libRbt.so/2013.1/901 2013/11/27
 11 10  0  0  0  0  0  0  0  0999 V2000
   -1.3290   -2.1012    2.5610 N   0  0  0  0  0  0  0  0  0  0  0  0
   -0.6714   -3.1947    1.7866 C   0  0  2  0  0  0  0  0  0  0  0  0
    0.7021   -3.4999    2.3973 C   0  0  0  0  0  0  0  0  0  0  0  0
    1.3865   -4.4019    1.9564 O   0  0  0  0  0  0  0  0  0  0  0  0
   -0.5019   -2.7604    0.3243 C   0  0  0  0  0  0  0  0  0  0  0  0
   -1.8666   -2.7454   -0.3719 C   0  0  0  0  0  0  0  0  0  0  0  0
   -1.6850   -2.3755   -1.8440 C   0  0  0  0  0  0  0  0  0  0  0  0
   -3.0089   -2.4051   -2.5287 N   0  0  0  0  0  0  0  0  0  0  0  0
   -3.0750   -2.4727   -3.8338 C   0  0  0  0  0  0  0  0  0  0  0  0
   -4.1217   -2.0076   -4.4658 N   0  0  0  0  0  0  0  0  0  0  0  0
   -2.0888   -3.0009   -4.5080 N   0  0  0  0  0  0  0  0  0  0  0  0
  2  1  1  1  0  0  0
  2  3  1  0  0  0  0
  2  5  1  0  0  0  0
  3  4  1  0  0  0  0
  5  6  1  0  0  0  0
  6  7  1  0  0  0  0
  7  8  1  0  0  0  0
  8  9  1  0  0  0  0
  9 10  1  0  0  0  0
  9 11  1  0  0  0  0
M  END
>  <CHROM.1>
-175.08733753,176.72264251,-71.78890449,-177.38529610,178.17353484,-161.95522993
-154.16218340,-108.36406317,150.87658210,-1.49327245,-2.80605911,-0.77861608
0.98372185,-0.55675086,1.38039321

>  <Name>
1akx_lig

>  <RI>
0

>  <Rbt.Current_Directory>
/home/itssahil/PROJECTS/Mol_Feturizer/New_Systems/rnas/1akx

>  <Rbt.Executable>
rbdock ($Id: //depot/dev/client3/rdock/2013.1/src/exe/rbdock.cxx#4 $)

>  <Rbt.Library>
libRbt.so (2013.1, Build901 2013/11/27)

>  <Rbt.Parameter_File>
/export/apps/rDock/src/rDock_2013.1_src/data/scripts/dock_solv.prm

>  <Rbt.Receptor>
prm/pocket_docking_4.prm

>  <SCORE>
-23.0758

>  <SCORE.INTER>
-16.2505

>  <SCORE.INTER.CONST>
1

>  <SCORE.INTER.POLAR>
-1.88486

>  <SCORE.INTER.ROT>
8

>  <SCORE.INTER.SOLV>
9.08989

>  <SCORE.INTER.VDW>
-16.5141

>  <SCORE.INTER.norm>
-1.47732

>  <SCORE.INTRA>
-6.82523

>  <SCORE.INTRA.DIHEDRAL>
-16.1576

>  <SCORE.INTRA.DIHEDRAL.0>
21.6454

>  <SCORE.INTRA.POLAR>
0

>  <SCORE.INTRA.POLAR.0>
0

>  <SCORE.INTRA.REPUL>
0

>  <SCORE.INTRA.REPUL.0>
0

>  <SCORE.INTRA.SOLV>
-0.0440977

>  <SCORE.INTRA.SOLV.lig_0>
-16.5947

>  <SCORE.INTRA.VDW>
1.27561

>  <SCORE.INTRA.VDW.0>
-0.691398

>  <SCORE.INTRA.norm>
-0.620476

>  <SCORE.RESTR>
0

>  <SCORE.RESTR.CAVITY>
0

>  <SCORE.RESTR.norm>
0

>  <SCORE.SYSTEM>
0

>  <SCORE.SYSTEM.CONST>
0

>  <SCORE.SYSTEM.DIHEDRAL>
0

>  <SCORE.SYSTEM.SOLV>
0

>  <SCORE.SYSTEM.norm>
0

>  <SCORE.heavy>
11

>  <SCORE.norm>
-2.0978

>  <RMSD>
2.276

$$$$
1akx_lig
 OpenBabel11021811383D
libRbt.so/2013.1/901 2013/11/27
 11 10  0  0  0  0  0  0  0  0999 V2000
    0.5167   -4.8255    0.4365 N   0  0  0  0  0  0  0  0  0  0  0  0
   -0.1120   -3.7147    1.2102 C   0  0  2  0  0  0  0  0  0  0  0  0
   -0.3724   -4.1767    2.6495 C   0  0  0  0  0  0  0  0  0  0  0  0
    0.5463   -4.5413    3.3559 O   0  0  0  0  0  0  0  0  0  0  0  0
   -1.4371   -3.3118    0.5489 C   0  0  0  0  0  0  0  0  0  0  0  0
   -1.1581   -2.6318   -0.7954 C   0  0  0  0  0  0  0  0  0  0  0  0
   -1.8000   -3.4427   -1.9211 C   0  0  0  0  0  0  0  0  0  0  0  0
   -2.3316   -2.5140   -2.9590 N   0  0  0  0  0  0  0  0  0  0  0  0
   -3.6191   -2.4412   -3.1816 C   0  0  0  0  0  0  0  0  0  0  0  0
   -4.0691   -2.2710   -4.3981 N   0  0  0  0  0  0  0  0  0  0  0  0
   -4.4577   -2.5453   -2.1856 N   0  0  0  0  0  0  0  0  0  0  0  0
  2  1  1  6  0  0  0
  2  3  1  0  0  0  0
  2  5  1  0  0  0  0
  3  4  1  0  0  0  0
  5  6  1  0  0  0  0
  6  7  1  0  0  0  0
  7  8  1  0  0  0  0
  8  9  1  0  0  0  0
  9 10  1  0  0  0  0
  9 11  1  0  0  0  0
M  END
>  <CHROM.1>
-39.33925521,59.68975445,-69.23093215,118.83278005,143.16037628,-114.78681624
-143.17893716,-42.34848998,-151.45874971,-1.66096762,-3.33048247,-0.67145276
-0.95169646,0.33467161,-1.47213994

>  <Name>
1akx_lig

>  <RI>
0

>  <Rbt.Current_Directory>
/home/afrankz/demos/rdock_decoys_rna/rnas/1akx

>  <Rbt.Executable>
rbdock ($Id: //depot/dev/client3/rdock/2013.1/src/exe/rbdock.cxx#4 $)

>  <Rbt.Library>
libRbt.so (2013.1, Build901 2013/11/27)

>  <Rbt.Parameter_File>
/export/apps/rDock/src/rDock_2013.1_src/data/scripts/dock_solv.prm

>  <Rbt.Receptor>
prm/pocket_docking_4.prm

>  <SCORE>
-34.0127

>  <SCORE.INTER>
-31.3

>  <SCORE.INTER.CONST>
1

>  <SCORE.INTER.POLAR>
-4.43513

>  <SCORE.INTER.ROT>
8

>  <SCORE.INTER.SOLV>
8.08098

>  <SCORE.INTER.VDW>
-17.7099

>  <SCORE.INTER.norm>
-2.84546

>  <SCORE.INTRA>
-2.71262

>  <SCORE.INTRA.DIHEDRAL>
-5.71748

>  <SCORE.INTRA.DIHEDRAL.0>
21.6454

>  <SCORE.INTRA.POLAR>
0

>  <SCORE.INTRA.POLAR.0>
0

>  <SCORE.INTRA.REPUL>
0

>  <SCORE.INTRA.REPUL.0>
0

>  <SCORE.INTRA.SOLV>
0.455942

>  <SCORE.INTRA.SOLV.lig_0>
-16.5947

>  <SCORE.INTRA.VDW>
-0.0818506

>  <SCORE.INTRA.VDW.0>
-0.691398

>  <SCORE.INTRA.norm>
-0.246602

>  <SCORE.RESTR>
0

>  <SCORE.RESTR.CAVITY>
0

>  <SCORE.RESTR.norm>
0

>  <SCORE.SYSTEM>
0

>  <SCORE.SYSTEM.CONST>
0

>  <SCORE.SYSTEM.DIHEDRAL>
0

>  <SCORE.SYSTEM.SOLV>
0

>  <SCORE.SYSTEM.norm>
0

>  <SCORE.heavy>
11

>  <SCORE.norm>
-3.09206

>  <RMSD>
2.299

>  <RMSD>
2.299

$$$$
1akx_lig
 OpenBabel11021811383D
libRbt.so/2013.1/901 2013/11/27
 11 10  0  0  0  0  0  0  0  0999 V2000
    0.5167   -4.8255    0.4365 N   0  0  0  0  0  0  0  0  0  0  0  0
   -0.1120   -3.7147    1.2102 C   0  0  2  0  0  0  0  0  0  0  0  0
   -0.3724   -4.1767    2.6495 C   0  0  0  0  0  0  0  0  0  0  0  0
    0.5463   -4.5413    3.3559 O   0  0  0  0  0  0  0  0  0  0  0  0
   -1.4371   -3.3118    0.5489 C   0  0  0  0  0  0  0  0  0  0  0  0
   -1.1581   -2.6318   -0.7954 C   0  0  0  0  0  0  0  0  0  0  0  0
   -1.8000   -3.4427   -1.9211 C   0  0  0  0  0  0  0  0  0  0  0  0
   -2.3316   -2.5140   -2.9590 N   0  0  0  0  0  0  0  0  0  0  0  0
   -3.6191   -2.4412   -3.1816 C   0  0  0  0  0  0  0  0  0  0  0  0
   -4.0691   -2.2710   -4.3981 N   0  0  0  0  0  0  0  0  0  0  0  0
   -4.4577   -2.5453   -2.1856 N   0  0  0  0  0  0  0  0  0  0  0  0
  2  1  1  6  0  0  0
  2  3  1  0  0  0  0
  2  5  1  0  0  0  0
  3  4  1  0  0  0  0
  5  6  1  0  0  0  0
  6  7  1  0  0  0  0
  7  8  1  0  0  0  0
  8  9  1  0  0  0  0
  9 10  1  0  0  0  0
  9 11  1  0  0  0  0
M  END
>  <CHROM.1>
-39.33925521,59.68975445,-69.23093215,118.83278005,143.16037628,-114.78681624
-143.17893716,-42.34848998,-151.45874971,-1.66096762,-3.33048247,-0.67145276
-0.95169646,0.33467161,-1.47213994

>  <Name>
1akx_lig

>  <RI>
0

>  <Rbt.Current_Directory>
/home/afrankz/demos/rdock_decoys_rna/rnas/1akx

>  <Rbt.Executable>
rbdock ($Id: //depot/dev/client3/rdock/2013.1/src/exe/rbdock.cxx#4 $)

>  <Rbt.Library>
libRbt.so (2013.1, Build901 2013/11/27)

>  <Rbt.Parameter_File>
/export/apps/rDock/src/rDock_2013.1_src/data/scripts/dock_solv.prm

>  <Rbt.Receptor>
prm/pocket_docking_4.prm

>  <SCORE>
-34.0127

>  <SCORE.INTER>
-31.3

>  <SCORE.INTER.CONST>
1

>  <SCORE.INTER.POLAR>
-4.43513

>  <SCORE.INTER.ROT>
8

>  <SCORE.INTER.SOLV>
8.08098

>  <SCORE.INTER.VDW>
-17.7099

>  <SCORE.INTER.norm>
-2.84546

>  <SCORE.INTRA>
-2.71262

>  <SCORE.INTRA.DIHEDRAL>
-5.71748

>  <SCORE.INTRA.DIHEDRAL.0>
21.6454

>  <SCORE.INTRA.POLAR>
0

>  <SCORE.INTRA.POLAR.0>
0

>  <SCORE.INTRA.REPUL>
0

>  <SCORE.INTRA.REPUL.0>
0

>  <SCORE.INTRA.SOLV>
0.455942

>  <SCORE.INTRA.SOLV.lig_0>
-16.5947

>  <SCORE.INTRA.VDW>
-0.0818506

>  <SCORE.INTRA.VDW.0>
-0.691398

>  <SCORE.INTRA.norm>
-0.246602

>  <SCORE.RESTR>
0

>  <SCORE.RESTR.CAVITY>
0

>  <SCORE.RESTR.norm>
0

>  <SCORE.SYSTEM>
0

>  <SCORE.SYSTEM.CONST>
0

>  <SCORE.SYSTEM.DIHEDRAL>
0

>  <SCORE.SYSTEM.SOLV>
0

>  <SCORE.SYSTEM.norm>
0

>  <SCORE.heavy>
11

>  <SCORE.norm>
-3.09206

>  <RMSD>
2.299

>  <RMSD>
2.299

$$$$
1akx_lig
 OpenBabel11021811383D
libRbt.so/2013.1/901 2013/11/27
 11 10  0  0  0  0  0  0  0  0999 V2000
   -1.0473   -5.4463    0.1234 N   0  0  0  0  0  0  0  0  0  0  0  0
    0.0389   -4.6284    0.7393 C   0  0  2  0  0  0  0  0  0  0  0  0
    0.4845   -5.2772    2.0558 C   0  0  0  0  0  0  0  0  0  0  0  0
    1.3283   -4.7464    2.7504 O   0  0  0  0  0  0  0  0  0  0  0  0
   -0.4764   -3.2086    1.0112 C   0  0  0  0  0  0  0  0  0  0  0  0
   -0.4111   -2.3796   -0.2756 C   0  0  0  0  0  0  0  0  0  0  0  0
   -1.7267   -2.5203   -1.0413 C   0  0  0  0  0  0  0  0  0  0  0  0
   -1.5351   -2.0540   -2.4442 N   0  0  0  0  0  0  0  0  0  0  0  0
   -2.1216   -2.6793   -3.4328 C   0  0  0  0  0  0  0  0  0  0  0  0
   -1.5608   -3.7305   -3.9730 N   0  0  0  0  0  0  0  0  0  0  0  0
   -3.2743   -2.2554   -3.8773 N   0  0  0  0  0  0  0  0  0  0  0  0
  2  1  1  1  0  0  0
  2  3  1  0  0  0  0
  2  5  1  0  0  0  0
  3  4  1  0  0  0  0
  5  6  1  0  0  0  0
  6  7  1  0  0  0  0
  7  8  1  0  0  0  0
  8  9  1  0  0  0  0
  9 10  1  0  0  0  0
  9 11  1  0  0  0  0
M  END
>  <CHROM.1>
-173.00447815,-177.19753562,-81.42077432,90.15205739,-163.90505107,141.85878205
-85.26446526,-115.12144646,-72.14365757,-0.95378643,-3.56649738,-0.79063953
0.20247807,1.11225091,-2.98398852

>  <Name>
1akx_lig

>  <RI>
0

>  <Rbt.Current_Directory>
/home/itssahil/PROJECTS/Mol_Feturizer/New_Systems/rnas/1akx

>  <Rbt.Executable>
rbdock ($Id: //depot/dev/client3/rdock/2013.1/src/exe/rbdock.cxx#4 $)

>  <Rbt.Library>
libRbt.so (2013.1, Build901 2013/11/27)

>  <Rbt.Parameter_File>
/export/apps/rDock/src/rDock_2013.1_src/data/scripts/dock_solv.prm

>  <Rbt.Receptor>
prm/pocket_docking_3.prm

>  <SCORE>
-23.8007

>  <SCORE.INTER>
-18.2001

>  <SCORE.INTER.CONST>
1

>  <SCORE.INTER.POLAR>
-3.78172

>  <SCORE.INTER.ROT>
8

>  <SCORE.INTER.SOLV>
9.77577

>  <SCORE.INTER.VDW>
-11.7196

>  <SCORE.INTER.norm>
-1.65455

>  <SCORE.INTRA>
-5.60062

>  <SCORE.INTRA.DIHEDRAL>
-11.0228

>  <SCORE.INTRA.DIHEDRAL.0>
21.6454

>  <SCORE.INTRA.POLAR>
0

>  <SCORE.INTRA.POLAR.0>
0

>  <SCORE.INTRA.REPUL>
0.0193073

>  <SCORE.INTRA.REPUL.0>
0

>  <SCORE.INTRA.SOLV>
0.317702

>  <SCORE.INTRA.SOLV.lig_0>
-16.5947

>  <SCORE.INTRA.VDW>
-0.344617

>  <SCORE.INTRA.VDW.0>
-0.691398

>  <SCORE.INTRA.norm>
-0.509147

>  <SCORE.RESTR>
0

>  <SCORE.RESTR.CAVITY>
0

>  <SCORE.RESTR.norm>
0

>  <SCORE.SYSTEM>
0

>  <SCORE.SYSTEM.CONST>
0

>  <SCORE.SYSTEM.DIHEDRAL>
0

>  <SCORE.SYSTEM.SOLV>
0

>  <SCORE.SYSTEM.norm>
0

>  <SCORE.heavy>
11

>  <SCORE.norm>
-2.1637

>  <RMSD>
2.305

$$$$
1akx_lig
 OpenBabel11021811383D
libRbt.so/2013.1/901 2013/11/27
 11 10  0  0  0  0  0  0  0  0999 V2000
    0.3667   -3.0716    1.2144 N   0  0  0  0  0  0  0  0  0  0  0  0
   -0.0999   -4.4044    1.6981 C   0  0  2  0  0  0  0  0  0  0  0  0
    1.0249   -5.0847    2.4885 C   0  0  0  0  0  0  0  0  0  0  0  0
    2.1739   -5.0297    2.0974 O   0  0  0  0  0  0  0  0  0  0  0  0
   -0.4916   -5.2792    0.4995 C   0  0  0  0  0  0  0  0  0  0  0  0
   -1.6364   -4.6155   -0.2727 C   0  0  0  0  0  0  0  0  0  0  0  0
   -1.4805   -4.9042   -1.7657 C   0  0  0  0  0  0  0  0  0  0  0  0
   -1.2264   -3.6278   -2.4928 N   0  0  0  0  0  0  0  0  0  0  0  0
   -2.1409   -3.1254   -3.2825 C   0  0  0  0  0  0  0  0  0  0  0  0
   -3.2655   -2.6770   -2.7870 N   0  0  0  0  0  0  0  0  0  0  0  0
   -1.9266   -3.0658   -4.5696 N   0  0  0  0  0  0  0  0  0  0  0  0
  2  1  1  6  0  0  0
  2  3  1  0  0  0  0
  2  5  1  0  0  0  0
  3  4  1  0  0  0  0
  5  6  1  0  0  0  0
  6  7  1  0  0  0  0
  7  8  1  0  0  0  0
  8  9  1  0  0  0  0
  9 10  1  0  0  0  0
  9 11  1  0  0  0  0
M  END
>  <CHROM.1>
-165.38238162,-41.34421633,-61.00815090,145.55218499,-115.18964370,-109.97392152
66.98667838,-15.98855868,-157.29738435,-0.77353502,-4.03363760,-0.67312409
-1.02299150,-0.24254897,-1.14866385

>  <Name>
1akx_lig

>  <RI>
0

>  <Rbt.Current_Directory>
/home/afrankz/demos/rdock_decoys_rna/rnas/1akx

>  <Rbt.Executable>
rbdock ($Id: //depot/dev/client3/rdock/2013.1/src/exe/rbdock.cxx#4 $)

>  <Rbt.Library>
libRbt.so (2013.1, Build901 2013/11/27)

>  <Rbt.Parameter_File>
/export/apps/rDock/src/rDock_2013.1_src/data/scripts/dock_solv.prm

>  <Rbt.Receptor>
prm/pocket_docking_4.prm

>  <SCORE>
-25.4543

>  <SCORE.INTER>
-22.4361

>  <SCORE.INTER.CONST>
1

>  <SCORE.INTER.POLAR>
-3.74446

>  <SCORE.INTER.ROT>
8

>  <SCORE.INTER.SOLV>
8.36933

>  <SCORE.INTER.VDW>
-14.199

>  <SCORE.INTER.norm>
-2.03965

>  <SCORE.INTRA>
-3.01819

>  <SCORE.INTRA.DIHEDRAL>
-5.98496

>  <SCORE.INTRA.DIHEDRAL.0>
21.6454

>  <SCORE.INTRA.POLAR>
0

>  <SCORE.INTRA.POLAR.0>
0

>  <SCORE.INTRA.REPUL>
0

>  <SCORE.INTRA.REPUL.0>
0

>  <SCORE.INTRA.SOLV>
0.70694

>  <SCORE.INTRA.SOLV.lig_0>
-16.5947

>  <SCORE.INTRA.VDW>
-0.379176

>  <SCORE.INTRA.VDW.0>
-0.691398

>  <SCORE.INTRA.norm>
-0.274381

>  <SCORE.RESTR>
0

>  <SCORE.RESTR.CAVITY>
0

>  <SCORE.RESTR.norm>
0

>  <SCORE.SYSTEM>
0

>  <SCORE.SYSTEM.CONST>
0

>  <SCORE.SYSTEM.DIHEDRAL>
0

>  <SCORE.SYSTEM.SOLV>
0

>  <SCORE.SYSTEM.norm>
0

>  <SCORE.heavy>
11

>  <SCORE.norm>
-2.31403

>  <RMSD>
2.323

>  <RMSD>
2.323

$$$$
1akx_lig
 OpenBabel11021811383D
libRbt.so/2013.1/901 2013/11/27
 11 10  0  0  0  0  0  0  0  0999 V2000
    0.3667   -3.0716    1.2144 N   0  0  0  0  0  0  0  0  0  0  0  0
   -0.0999   -4.4044    1.6981 C   0  0  2  0  0  0  0  0  0  0  0  0
    1.0249   -5.0847    2.4885 C   0  0  0  0  0  0  0  0  0  0  0  0
    2.1739   -5.0297    2.0974 O   0  0  0  0  0  0  0  0  0  0  0  0
   -0.4916   -5.2792    0.4995 C   0  0  0  0  0  0  0  0  0  0  0  0
   -1.6364   -4.6155   -0.2727 C   0  0  0  0  0  0  0  0  0  0  0  0
   -1.4805   -4.9042   -1.7657 C   0  0  0  0  0  0  0  0  0  0  0  0
   -1.2264   -3.6278   -2.4928 N   0  0  0  0  0  0  0  0  0  0  0  0
   -2.1409   -3.1254   -3.2825 C   0  0  0  0  0  0  0  0  0  0  0  0
   -3.2655   -2.6770   -2.7870 N   0  0  0  0  0  0  0  0  0  0  0  0
   -1.9266   -3.0658   -4.5696 N   0  0  0  0  0  0  0  0  0  0  0  0
  2  1  1  6  0  0  0
  2  3  1  0  0  0  0
  2  5  1  0  0  0  0
  3  4  1  0  0  0  0
  5  6  1  0  0  0  0
  6  7  1  0  0  0  0
  7  8  1  0  0  0  0
  8  9  1  0  0  0  0
  9 10  1  0  0  0  0
  9 11  1  0  0  0  0
M  END
>  <CHROM.1>
-165.38238162,-41.34421633,-61.00815090,145.55218499,-115.18964370,-109.97392152
66.98667838,-15.98855868,-157.29738435,-0.77353502,-4.03363760,-0.67312409
-1.02299150,-0.24254897,-1.14866385

>  <Name>
1akx_lig

>  <RI>
0

>  <Rbt.Current_Directory>
/home/afrankz/demos/rdock_decoys_rna/rnas/1akx

>  <Rbt.Executable>
rbdock ($Id: //depot/dev/client3/rdock/2013.1/src/exe/rbdock.cxx#4 $)

>  <Rbt.Library>
libRbt.so (2013.1, Build901 2013/11/27)

>  <Rbt.Parameter_File>
/export/apps/rDock/src/rDock_2013.1_src/data/scripts/dock_solv.prm

>  <Rbt.Receptor>
prm/pocket_docking_4.prm

>  <SCORE>
-25.4543

>  <SCORE.INTER>
-22.4361

>  <SCORE.INTER.CONST>
1

>  <SCORE.INTER.POLAR>
-3.74446

>  <SCORE.INTER.ROT>
8

>  <SCORE.INTER.SOLV>
8.36933

>  <SCORE.INTER.VDW>
-14.199

>  <SCORE.INTER.norm>
-2.03965

>  <SCORE.INTRA>
-3.01819

>  <SCORE.INTRA.DIHEDRAL>
-5.98496

>  <SCORE.INTRA.DIHEDRAL.0>
21.6454

>  <SCORE.INTRA.POLAR>
0

>  <SCORE.INTRA.POLAR.0>
0

>  <SCORE.INTRA.REPUL>
0

>  <SCORE.INTRA.REPUL.0>
0

>  <SCORE.INTRA.SOLV>
0.70694

>  <SCORE.INTRA.SOLV.lig_0>
-16.5947

>  <SCORE.INTRA.VDW>
-0.379176

>  <SCORE.INTRA.VDW.0>
-0.691398

>  <SCORE.INTRA.norm>
-0.274381

>  <SCORE.RESTR>
0

>  <SCORE.RESTR.CAVITY>
0

>  <SCORE.RESTR.norm>
0

>  <SCORE.SYSTEM>
0

>  <SCORE.SYSTEM.CONST>
0

>  <SCORE.SYSTEM.DIHEDRAL>
0

>  <SCORE.SYSTEM.SOLV>
0

>  <SCORE.SYSTEM.norm>
0

>  <SCORE.heavy>
11

>  <SCORE.norm>
-2.31403

>  <RMSD>
2.323

>  <RMSD>
2.323

$$$$
1akx_lig
 OpenBabel11021811383D
libRbt.so/2013.1/901 2013/11/27
 11 10  0  0  0  0  0  0  0  0999 V2000
   -2.4662   -1.8774    1.4617 N   0  0  0  0  0  0  0  0  0  0  0  0
   -2.1288   -3.1636    0.7834 C   0  0  2  0  0  0  0  0  0  0  0  0
   -1.1859   -3.9808    1.6756 C   0  0  0  0  0  0  0  0  0  0  0  0
   -0.7420   -5.0448    1.2921 O   0  0  0  0  0  0  0  0  0  0  0  0
   -1.4468   -2.8737   -0.5606 C   0  0  0  0  0  0  0  0  0  0  0  0
   -1.7172   -4.0238   -1.5360 C   0  0  0  0  0  0  0  0  0  0  0  0
   -3.2079   -4.0695   -1.8714 C   0  0  0  0  0  0  0  0  0  0  0  0
   -3.6183   -2.7719   -2.4798 N   0  0  0  0  0  0  0  0  0  0  0  0
   -3.3349   -2.5111   -3.7304 C   0  0  0  0  0  0  0  0  0  0  0  0
   -2.1581   -2.8118   -4.2161 N   0  0  0  0  0  0  0  0  0  0  0  0
   -4.2332   -1.9542   -4.4978 N   0  0  0  0  0  0  0  0  0  0  0  0
  2  1  1  1  0  0  0
  2  3  1  0  0  0  0
  2  5  1  0  0  0  0
  3  4  1  0  0  0  0
  5  6  1  0  0  0  0
  6  7  1  0  0  0  0
  7  8  1  0  0  0  0
  8  9  1  0  0  0  0
  9 10  1  0  0  0  0
  9 11  1  0  0  0  0
M  END
>  <CHROM.1>
61.06392258,-177.10774509,-152.00286725,66.09121685,59.14934012,77.61183781
-42.49695777,114.68264591,-83.75879293,-2.39323438,-3.15866584,-1.24357844
0.97298643,-0.90781448,1.30090100

>  <Name>
1akx_lig

>  <RI>
0

>  <Rbt.Current_Directory>
/home/itssahil/PROJECTS/Mol_Feturizer/New_Systems/rnas/1akx

>  <Rbt.Executable>
rbdock ($Id: //depot/dev/client3/rdock/2013.1/src/exe/rbdock.cxx#4 $)

>  <Rbt.Library>
libRbt.so (2013.1, Build901 2013/11/27)

>  <Rbt.Parameter_File>
/export/apps/rDock/src/rDock_2013.1_src/data/scripts/dock_solv.prm

>  <Rbt.Receptor>
prm/pocket_docking_3.prm

>  <SCORE>
-30.1869

>  <SCORE.INTER>
-24.5357

>  <SCORE.INTER.CONST>
1

>  <SCORE.INTER.POLAR>
-3.67553

>  <SCORE.INTER.ROT>
8

>  <SCORE.INTER.SOLV>
7.54978

>  <SCORE.INTER.VDW>
-15.5553

>  <SCORE.INTER.norm>
-2.23052

>  <SCORE.INTRA>
-5.67323

>  <SCORE.INTRA.DIHEDRAL>
-14.022

>  <SCORE.INTRA.DIHEDRAL.0>
21.6454

>  <SCORE.INTRA.POLAR>
0

>  <SCORE.INTRA.POLAR.0>
0

>  <SCORE.INTRA.REPUL>
0

>  <SCORE.INTRA.REPUL.0>
0

>  <SCORE.INTRA.SOLV>
0.964472

>  <SCORE.INTRA.SOLV.lig_0>
-16.5947

>  <SCORE.INTRA.VDW>
0.855554

>  <SCORE.INTRA.VDW.0>
-0.691398

>  <SCORE.INTRA.norm>
-0.515748

>  <SCORE.RESTR>
0.0219706

>  <SCORE.RESTR.CAVITY>
0.0219706

>  <SCORE.RESTR.norm>
0.00199733

>  <SCORE.SYSTEM>
0

>  <SCORE.SYSTEM.CONST>
0

>  <SCORE.SYSTEM.DIHEDRAL>
0

>  <SCORE.SYSTEM.SOLV>
0

>  <SCORE.SYSTEM.norm>
0

>  <SCORE.heavy>
11

>  <SCORE.norm>
-2.74427

>  <RMSD>
2.340

$$$$
1akx_lig
 OpenBabel11021811383D
libRbt.so/2013.1/901 2013/11/27
 11 10  0  0  0  0  0  0  0  0999 V2000
    1.0401   -5.0282    1.4689 N   0  0  0  0  0  0  0  0  0  0  0  0
   -0.2136   -4.3235    1.0689 C   0  0  2  0  0  0  0  0  0  0  0  0
   -1.3799   -4.8257    1.9293 C   0  0  0  0  0  0  0  0  0  0  0  0
   -2.5062   -4.4089    1.7452 O   0  0  0  0  0  0  0  0  0  0  0  0
   -0.5083   -4.5974   -0.4121 C   0  0  0  0  0  0  0  0  0  0  0  0
   -1.3388   -3.4494   -0.9948 C   0  0  0  0  0  0  0  0  0  0  0  0
   -1.8280   -3.8307   -2.3921 C   0  0  0  0  0  0  0  0  0  0  0  0
   -2.3421   -2.6152   -3.0853 N   0  0  0  0  0  0  0  0  0  0  0  0
   -3.6294   -2.4406   -3.2427 C   0  0  0  0  0  0  0  0  0  0  0  0
   -4.4307   -2.4768   -2.2093 N   0  0  0  0  0  0  0  0  0  0  0  0
   -4.1147   -2.2232   -4.4357 N   0  0  0  0  0  0  0  0  0  0  0  0
  2  1  1  1  0  0  0
  2  3  1  0  0  0  0
  2  5  1  0  0  0  0
  3  4  1  0  0  0  0
  5  6  1  0  0  0  0
  6  7  1  0  0  0  0
  7  8  1  0  0  0  0
  8  9  1  0  0  0  0
  9 10  1  0  0  0  0
  9 11  1  0  0  0  0
M  END
>  <CHROM.1>
-66.46977064,-177.97930521,-154.09798034,-170.56707070,-166.32194137,-105.97011101
54.56540528,-150.55445875,-45.90024607,-1.94087125,-3.65387208,-0.95275332
-0.99835957,0.23726608,-1.27932791

>  <Name>
1akx_lig

>  <RI>
0

>  <Rbt.Current_Directory>
/home/afrankz/demos/rdock_decoys_rna/rnas/1akx

>  <Rbt.Executable>
rbdock ($Id: //depot/dev/client3/rdock/2013.1/src/exe/rbdock.cxx#4 $)

>  <Rbt.Library>
libRbt.so (2013.1, Build901 2013/11/27)

>  <Rbt.Parameter_File>
/export/apps/rDock/src/rDock_2013.1_src/data/scripts/dock_solv.prm

>  <Rbt.Receptor>
prm/pocket_docking_7.prm

>  <SCORE>
-32.4691

>  <SCORE.INTER>
-25.8296

>  <SCORE.INTER.CONST>
1

>  <SCORE.INTER.POLAR>
-3.43199

>  <SCORE.INTER.ROT>
8

>  <SCORE.INTER.SOLV>
8.13578

>  <SCORE.INTER.VDW>
-17.425

>  <SCORE.INTER.norm>
-2.34815

>  <SCORE.INTRA>
-6.63943

>  <SCORE.INTRA.DIHEDRAL>
-13.3752

>  <SCORE.INTRA.DIHEDRAL.0>
21.6454

>  <SCORE.INTRA.POLAR>
0

>  <SCORE.INTRA.POLAR.0>
0

>  <SCORE.INTRA.REPUL>
0

>  <SCORE.INTRA.REPUL.0>
0

>  <SCORE.INTRA.SOLV>
0.212434

>  <SCORE.INTRA.SOLV.lig_0>
-16.5947

>  <SCORE.INTRA.VDW>
-0.058023

>  <SCORE.INTRA.VDW.0>
-0.691398

>  <SCORE.INTRA.norm>
-0.603585

>  <SCORE.RESTR>
0

>  <SCORE.RESTR.CAVITY>
0

>  <SCORE.RESTR.norm>
0

>  <SCORE.SYSTEM>
0

>  <SCORE.SYSTEM.CONST>
0

>  <SCORE.SYSTEM.DIHEDRAL>
0

>  <SCORE.SYSTEM.SOLV>
0

>  <SCORE.SYSTEM.norm>
0

>  <SCORE.heavy>
11

>  <SCORE.norm>
-2.95173

>  <RMSD>
2.346

>  <RMSD>
2.346

$$$$
1akx_lig
 OpenBabel11021811383D
libRbt.so/2013.1/901 2013/11/27
 11 10  0  0  0  0  0  0  0  0999 V2000
    1.0401   -5.0282    1.4689 N   0  0  0  0  0  0  0  0  0  0  0  0
   -0.2136   -4.3235    1.0689 C   0  0  2  0  0  0  0  0  0  0  0  0
   -1.3799   -4.8257    1.9293 C   0  0  0  0  0  0  0  0  0  0  0  0
   -2.5062   -4.4089    1.7452 O   0  0  0  0  0  0  0  0  0  0  0  0
   -0.5083   -4.5974   -0.4121 C   0  0  0  0  0  0  0  0  0  0  0  0
   -1.3388   -3.4494   -0.9948 C   0  0  0  0  0  0  0  0  0  0  0  0
   -1.8280   -3.8307   -2.3921 C   0  0  0  0  0  0  0  0  0  0  0  0
   -2.3421   -2.6152   -3.0853 N   0  0  0  0  0  0  0  0  0  0  0  0
   -3.6294   -2.4406   -3.2427 C   0  0  0  0  0  0  0  0  0  0  0  0
   -4.4307   -2.4768   -2.2093 N   0  0  0  0  0  0  0  0  0  0  0  0
   -4.1147   -2.2232   -4.4357 N   0  0  0  0  0  0  0  0  0  0  0  0
  2  1  1  1  0  0  0
  2  3  1  0  0  0  0
  2  5  1  0  0  0  0
  3  4  1  0  0  0  0
  5  6  1  0  0  0  0
  6  7  1  0  0  0  0
  7  8  1  0  0  0  0
  8  9  1  0  0  0  0
  9 10  1  0  0  0  0
  9 11  1  0  0  0  0
M  END
>  <CHROM.1>
-66.46977064,-177.97930521,-154.09798034,-170.56707070,-166.32194137,-105.97011101
54.56540528,-150.55445875,-45.90024607,-1.94087125,-3.65387208,-0.95275332
-0.99835957,0.23726608,-1.27932791

>  <Name>
1akx_lig

>  <RI>
0

>  <Rbt.Current_Directory>
/home/afrankz/demos/rdock_decoys_rna/rnas/1akx

>  <Rbt.Executable>
rbdock ($Id: //depot/dev/client3/rdock/2013.1/src/exe/rbdock.cxx#4 $)

>  <Rbt.Library>
libRbt.so (2013.1, Build901 2013/11/27)

>  <Rbt.Parameter_File>
/export/apps/rDock/src/rDock_2013.1_src/data/scripts/dock_solv.prm

>  <Rbt.Receptor>
prm/pocket_docking_7.prm

>  <SCORE>
-32.4691

>  <SCORE.INTER>
-25.8296

>  <SCORE.INTER.CONST>
1

>  <SCORE.INTER.POLAR>
-3.43199

>  <SCORE.INTER.ROT>
8

>  <SCORE.INTER.SOLV>
8.13578

>  <SCORE.INTER.VDW>
-17.425

>  <SCORE.INTER.norm>
-2.34815

>  <SCORE.INTRA>
-6.63943

>  <SCORE.INTRA.DIHEDRAL>
-13.3752

>  <SCORE.INTRA.DIHEDRAL.0>
21.6454

>  <SCORE.INTRA.POLAR>
0

>  <SCORE.INTRA.POLAR.0>
0

>  <SCORE.INTRA.REPUL>
0

>  <SCORE.INTRA.REPUL.0>
0

>  <SCORE.INTRA.SOLV>
0.212434

>  <SCORE.INTRA.SOLV.lig_0>
-16.5947

>  <SCORE.INTRA.VDW>
-0.058023

>  <SCORE.INTRA.VDW.0>
-0.691398

>  <SCORE.INTRA.norm>
-0.603585

>  <SCORE.RESTR>
0

>  <SCORE.RESTR.CAVITY>
0

>  <SCORE.RESTR.norm>
0

>  <SCORE.SYSTEM>
0

>  <SCORE.SYSTEM.CONST>
0

>  <SCORE.SYSTEM.DIHEDRAL>
0

>  <SCORE.SYSTEM.SOLV>
0

>  <SCORE.SYSTEM.norm>
0

>  <SCORE.heavy>
11

>  <SCORE.norm>
-2.95173

>  <RMSD>
2.346

>  <RMSD>
2.346

$$$$
1akx_lig
 OpenBabel11021811383D
libRbt.so/2013.1/901 2013/11/27
 11 10  0  0  0  0  0  0  0  0999 V2000
    0.6348   -4.9656    1.0284 N   0  0  0  0  0  0  0  0  0  0  0  0
   -0.6388   -4.2439    0.7364 C   0  0  2  0  0  0  0  0  0  0  0  0
   -1.7591   -4.8038    1.6219 C   0  0  0  0  0  0  0  0  0  0  0  0
   -1.6645   -4.7677    2.8327 O   0  0  0  0  0  0  0  0  0  0  0  0
   -1.0078   -4.4277   -0.7420 C   0  0  0  0  0  0  0  0  0  0  0  0
   -1.8539   -3.2412   -1.2150 C   0  0  0  0  0  0  0  0  0  0  0  0
   -2.0060   -3.2961   -2.7351 C   0  0  0  0  0  0  0  0  0  0  0  0
   -2.8697   -2.1682   -3.1870 N   0  0  0  0  0  0  0  0  0  0  0  0
   -4.1231   -2.3806   -3.4970 C   0  0  0  0  0  0  0  0  0  0  0  0
   -4.5189   -2.2906   -4.7407 N   0  0  0  0  0  0  0  0  0  0  0  0
   -4.9806   -2.6897   -2.5615 N   0  0  0  0  0  0  0  0  0  0  0  0
  2  1  1  6  0  0  0
  2  3  1  0  0  0  0
  2  5  1  0  0  0  0
  3  4  1  0  0  0  0
  5  6  1  0  0  0  0
  6  7  1  0  0  0  0
  7  8  1  0  0  0  0
  8  9  1  0  0  0  0
  9 10  1  0  0  0  0
  9 11  1  0  0  0  0
M  END
>  <CHROM.1>
-76.03439120,59.15214609,-153.38037526,169.83840381,178.00880138,-102.00167961
-110.52651878,-30.44344204,42.61918801,-2.25450342,-3.57749252,-1.11639368
-1.02995548,0.18382788,-1.25814681

>  <Name>
1akx_lig

>  <RI>
0

>  <Rbt.Current_Directory>
/home/itssahil/PROJECTS/Mol_Feturizer/New_Systems/rnas/1akx

>  <Rbt.Executable>
rbdock ($Id: //depot/dev/client3/rdock/2013.1/src/exe/rbdock.cxx#4 $)

>  <Rbt.Library>
libRbt.so (2013.1, Build901 2013/11/27)

>  <Rbt.Parameter_File>
/export/apps/rDock/src/rDock_2013.1_src/data/scripts/dock_solv.prm

>  <Rbt.Receptor>
prm/pocket_docking_2.prm

>  <SCORE>
-29.8671

>  <SCORE.INTER>
-23.2684

>  <SCORE.INTER.CONST>
1

>  <SCORE.INTER.POLAR>
-2.947

>  <SCORE.INTER.ROT>
8

>  <SCORE.INTER.SOLV>
8.94375

>  <SCORE.INTER.VDW>
-17.6035

>  <SCORE.INTER.norm>
-2.11531

>  <SCORE.INTRA>
-6.79438

>  <SCORE.INTRA.DIHEDRAL>
-13.3824

>  <SCORE.INTRA.DIHEDRAL.0>
21.6454

>  <SCORE.INTRA.POLAR>
0

>  <SCORE.INTRA.POLAR.0>
0

>  <SCORE.INTRA.REPUL>
0

>  <SCORE.INTRA.REPUL.0>
0

>  <SCORE.INTRA.SOLV>
0.238322

>  <SCORE.INTRA.SOLV.lig_0>
-16.5947

>  <SCORE.INTRA.VDW>
-0.222346

>  <SCORE.INTRA.VDW.0>
-0.691398

>  <SCORE.INTRA.norm>
-0.617671

>  <SCORE.RESTR>
0.195633

>  <SCORE.RESTR.CAVITY>
0.195633

>  <SCORE.RESTR.norm>
0.0177848

>  <SCORE.SYSTEM>
0

>  <SCORE.SYSTEM.CONST>
0

>  <SCORE.SYSTEM.DIHEDRAL>
0

>  <SCORE.SYSTEM.SOLV>
0

>  <SCORE.SYSTEM.norm>
0

>  <SCORE.heavy>
11

>  <SCORE.norm>
-2.71519

>  <RMSD>
2.364

$$$$
1akx_lig
 OpenBabel11021811383D
libRbt.so/2013.1/901 2013/11/27
 11 10  0  0  0  0  0  0  0  0999 V2000
   -1.8436   -4.1166    2.5848 N   0  0  0  0  0  0  0  0  0  0  0  0
   -2.1878   -3.7874    1.1702 C   0  0  2  0  0  0  0  0  0  0  0  0
   -2.9609   -4.9560    0.5461 C   0  0  0  0  0  0  0  0  0  0  0  0
   -4.0363   -5.2954    0.9982 O   0  0  0  0  0  0  0  0  0  0  0  0
   -0.9013   -3.5341    0.3726 C   0  0  0  0  0  0  0  0  0  0  0  0
   -1.2072   -2.6359   -0.8303 C   0  0  0  0  0  0  0  0  0  0  0  0
   -1.8941   -3.4585   -1.9205 C   0  0  0  0  0  0  0  0  0  0  0  0
   -2.3894   -2.5465   -2.9906 N   0  0  0  0  0  0  0  0  0  0  0  0
   -3.6719   -2.4458   -3.2299 C   0  0  0  0  0  0  0  0  0  0  0  0
   -4.1021   -2.2635   -4.4518 N   0  0  0  0  0  0  0  0  0  0  0  0
   -4.5256   -2.5342   -2.2454 N   0  0  0  0  0  0  0  0  0  0  0  0
  2  1  1  1  0  0  0
  2  3  1  0  0  0  0
  2  5  1  0  0  0  0
  3  4  1  0  0  0  0
  5  6  1  0  0  0  0
  6  7  1  0  0  0  0
  7  8  1  0  0  0  0
  8  9  1  0  0  0  0
  9 10  1  0  0  0  0
  9 11  1  0  0  0  0
M  END
>  <CHROM.1>
58.90841785,62.14098070,-155.38963441,-76.46409254,170.82794194,-116.38881254
-144.99608034,135.41479670,-150.13632074,-2.73776002,-3.42276009,-0.89034824
-1.30969656,-0.32367179,-1.12155360

>  <Name>
1akx_lig

>  <RI>
0

>  <Rbt.Current_Directory>
/home/itssahil/PROJECTS/Mol_Feturizer/New_Systems/rnas/1akx

>  <Rbt.Executable>
rbdock ($Id: //depot/dev/client3/rdock/2013.1/src/exe/rbdock.cxx#4 $)

>  <Rbt.Library>
libRbt.so (2013.1, Build901 2013/11/27)

>  <Rbt.Parameter_File>
/export/apps/rDock/src/rDock_2013.1_src/data/scripts/dock_solv.prm

>  <Rbt.Receptor>
prm/pocket_docking_2.prm

>  <SCORE>
-28.0975

>  <SCORE.INTER>
-22.4376

>  <SCORE.INTER.CONST>
1

>  <SCORE.INTER.POLAR>
-3.45533

>  <SCORE.INTER.ROT>
8

>  <SCORE.INTER.SOLV>
6.57752

>  <SCORE.INTER.VDW>
-14.5665

>  <SCORE.INTER.norm>
-2.03978

>  <SCORE.INTRA>
-5.67649

>  <SCORE.INTRA.DIHEDRAL>
-13.3288

>  <SCORE.INTRA.DIHEDRAL.0>
21.6454

>  <SCORE.INTRA.POLAR>
0

>  <SCORE.INTRA.POLAR.0>
0

>  <SCORE.INTRA.REPUL>
0

>  <SCORE.INTRA.REPUL.0>
0

>  <SCORE.INTRA.SOLV>
0.618741

>  <SCORE.INTRA.SOLV.lig_0>
-16.5947

>  <SCORE.INTRA.VDW>
0.678548

>  <SCORE.INTRA.VDW.0>
-0.691398

>  <SCORE.INTRA.norm>
-0.516044

>  <SCORE.RESTR>
0.0165339

>  <SCORE.RESTR.CAVITY>
0.0165339

>  <SCORE.RESTR.norm>
0.00150308

>  <SCORE.SYSTEM>
0

>  <SCORE.SYSTEM.CONST>
0

>  <SCORE.SYSTEM.DIHEDRAL>
0

>  <SCORE.SYSTEM.SOLV>
0

>  <SCORE.SYSTEM.norm>
0

>  <SCORE.heavy>
11

>  <SCORE.norm>
-2.55432

>  <RMSD>
2.365

$$$$
1akx_lig
 OpenBabel11021811383D
libRbt.so/2013.1/901 2013/11/27
 11 10  0  0  0  0  0  0  0  0999 V2000
    0.4561   -6.5256    2.8171 N   0  0  0  0  0  0  0  0  0  0  0  0
    0.8094   -5.2073    2.2127 C   0  0  2  0  0  0  0  0  0  0  0  0
    1.1881   -4.2199    3.3237 C   0  0  0  0  0  0  0  0  0  0  0  0
    0.3760   -3.9023    4.1698 O   0  0  0  0  0  0  0  0  0  0  0  0
   -0.3902   -4.6637    1.4248 C   0  0  0  0  0  0  0  0  0  0  0  0
    0.0166   -3.3896    0.6775 C   0  0  0  0  0  0  0  0  0  0  0  0
   -1.1982   -2.8149   -0.0513 C   0  0  0  0  0  0  0  0  0  0  0  0
   -1.5993   -3.7394   -1.1498 N   0  0  0  0  0  0  0  0  0  0  0  0
   -2.1082   -3.2650   -2.2581 C   0  0  0  0  0  0  0  0  0  0  0  0
   -1.3870   -3.2210   -3.3487 N   0  0  0  0  0  0  0  0  0  0  0  0
   -3.3430   -2.8397   -2.2764 N   0  0  0  0  0  0  0  0  0  0  0  0
  2  1  1  1  0  0  0
  2  3  1  0  0  0  0
  2  5  1  0  0  0  0
  3  4  1  0  0  0  0
  5  6  1  0  0  0  0
  6  7  1  0  0  0  0
  7  8  1  0  0  0  0
  8  9  1  0  0  0  0
  9 10  1  0  0  0  0
  9 11  1  0  0  0  0
M  END
>  <CHROM.1>
-170.40523480,-62.20983942,-173.80113489,-177.29940232,-67.61082182,-146.80140617
104.85124668,101.12135501,-33.08993624,-0.67083667,-4.00837889,0.50411196
-0.27896169,1.10385881,-2.51439156

>  <Name>
1akx_lig

>  <RI>
0

>  <Rbt.Current_Directory>
/home/itssahil/PROJECTS/Mol_Feturizer/New_Systems/rnas/1akx

>  <Rbt.Executable>
rbdock ($Id: //depot/dev/client3/rdock/2013.1/src/exe/rbdock.cxx#4 $)

>  <Rbt.Library>
libRbt.so (2013.1, Build901 2013/11/27)

>  <Rbt.Parameter_File>
/export/apps/rDock/src/rDock_2013.1_src/data/scripts/dock_solv.prm

>  <Rbt.Receptor>
prm/pocket_docking_4.prm

>  <SCORE>
-21.9546

>  <SCORE.INTER>
-14.9229

>  <SCORE.INTER.CONST>
1

>  <SCORE.INTER.POLAR>
-2.49885

>  <SCORE.INTER.ROT>
8

>  <SCORE.INTER.SOLV>
5.10569

>  <SCORE.INTER.VDW>
-12.2543

>  <SCORE.INTER.norm>
-1.35663

>  <SCORE.INTRA>
-7.03168

>  <SCORE.INTRA.DIHEDRAL>
-16.2107

>  <SCORE.INTRA.DIHEDRAL.0>
21.6454

>  <SCORE.INTRA.POLAR>
0

>  <SCORE.INTRA.POLAR.0>
0

>  <SCORE.INTRA.REPUL>
0

>  <SCORE.INTRA.REPUL.0>
0

>  <SCORE.INTRA.SOLV>
0.462032

>  <SCORE.INTRA.SOLV.lig_0>
-16.5947

>  <SCORE.INTRA.VDW>
0.842665

>  <SCORE.INTRA.VDW.0>
-0.691398

>  <SCORE.INTRA.norm>
-0.639243

>  <SCORE.RESTR>
0

>  <SCORE.RESTR.CAVITY>
0

>  <SCORE.RESTR.norm>
0

>  <SCORE.SYSTEM>
0

>  <SCORE.SYSTEM.CONST>
0

>  <SCORE.SYSTEM.DIHEDRAL>
0

>  <SCORE.SYSTEM.SOLV>
0

>  <SCORE.SYSTEM.norm>
0

>  <SCORE.heavy>
11

>  <SCORE.norm>
-1.99587

>  <RMSD>
2.371

$$$$
1akx_lig
 OpenBabel11021811383D
libRbt.so/2013.1/901 2013/11/27
 11 10  0  0  0  0  0  0  0  0999 V2000
    0.1290   -4.5628    0.8997 N   0  0  0  0  0  0  0  0  0  0  0  0
   -1.3019   -4.1405    0.8509 C   0  0  2  0  0  0  0  0  0  0  0  0
   -2.1575   -5.1390    1.6406 C   0  0  0  0  0  0  0  0  0  0  0  0
   -3.3687   -5.0428    1.6478 O   0  0  0  0  0  0  0  0  0  0  0  0
   -1.7758   -4.0941   -0.6081 C   0  0  0  0  0  0  0  0  0  0  0  0
   -1.3665   -2.7609   -1.2425 C   0  0  0  0  0  0  0  0  0  0  0  0
   -2.0196   -2.6280   -2.6182 C   0  0  0  0  0  0  0  0  0  0  0  0
   -3.4935   -2.4766   -2.4539 N   0  0  0  0  0  0  0  0  0  0  0  0
   -4.2974   -2.7202   -3.4573 C   0  0  0  0  0  0  0  0  0  0  0  0
   -5.3516   -3.4762   -3.2888 N   0  0  0  0  0  0  0  0  0  0  0  0
   -4.0491   -2.2009   -4.6298 N   0  0  0  0  0  0  0  0  0  0  0  0
  2  1  1  6  0  0  0
  2  3  1  0  0  0  0
  2  5  1  0  0  0  0
  3  4  1  0  0  0  0
  5  6  1  0  0  0  0
  6  7  1  0  0  0  0
  7  8  1  0  0  0  0
  8  9  1  0  0  0  0
  9 10  1  0  0  0  0
  9 11  1  0  0  0  0
M  END
>  <CHROM.1>
52.66288355,-174.42899755,-82.89918455,-171.43391198,68.04609374,-160.71841107
131.91144246,-166.68013685,171.79603898,-2.65248632,-3.58211570,-1.20509598
-1.07360394,-0.20613089,-1.06350258

>  <Name>
1akx_lig

>  <RI>
0

>  <Rbt.Current_Directory>
/home/itssahil/PROJECTS/Mol_Feturizer/New_Systems/rnas/1akx

>  <Rbt.Executable>
rbdock ($Id: //depot/dev/client3/rdock/2013.1/src/exe/rbdock.cxx#4 $)

>  <Rbt.Library>
libRbt.so (2013.1, Build901 2013/11/27)

>  <Rbt.Parameter_File>
/export/apps/rDock/src/rDock_2013.1_src/data/scripts/dock_solv.prm

>  <Rbt.Receptor>
prm/pocket_docking_2.prm

>  <SCORE>
-32.0401

>  <SCORE.INTER>
-25.2771

>  <SCORE.INTER.CONST>
1

>  <SCORE.INTER.POLAR>
-3.47371

>  <SCORE.INTER.ROT>
8

>  <SCORE.INTER.SOLV>
8.15309

>  <SCORE.INTER.VDW>
-16.9234

>  <SCORE.INTER.norm>
-2.29792

>  <SCORE.INTRA>
-6.80203

>  <SCORE.INTRA.DIHEDRAL>
-14.1826

>  <SCORE.INTRA.DIHEDRAL.0>
21.6454

>  <SCORE.INTRA.POLAR>
0

>  <SCORE.INTRA.POLAR.0>
0

>  <SCORE.INTRA.REPUL>
0

>  <SCORE.INTRA.REPUL.0>
0

>  <SCORE.INTRA.SOLV>
0.19374

>  <SCORE.INTRA.SOLV.lig_0>
-16.5947

>  <SCORE.INTRA.VDW>
0.192424

>  <SCORE.INTRA.VDW.0>
-0.691398

>  <SCORE.INTRA.norm>
-0.618366

>  <SCORE.RESTR>
0.0390275

>  <SCORE.RESTR.CAVITY>
0.0390275

>  <SCORE.RESTR.norm>
0.00354795

>  <SCORE.SYSTEM>
0

>  <SCORE.SYSTEM.CONST>
0

>  <SCORE.SYSTEM.DIHEDRAL>
0

>  <SCORE.SYSTEM.SOLV>
0

>  <SCORE.SYSTEM.norm>
0

>  <SCORE.heavy>
11

>  <SCORE.norm>
-2.91273

>  <RMSD>
2.383

$$$$
1akx_lig
 OpenBabel11021811383D
libRbt.so/2013.1/901 2013/11/27
 11 10  0  0  0  0  0  0  0  0999 V2000
   -1.6841   -4.0865    2.6471 N   0  0  0  0  0  0  0  0  0  0  0  0
   -2.1540   -3.7860    1.2625 C   0  0  2  0  0  0  0  0  0  0  0  0
   -3.1108   -4.8903    0.7957 C   0  0  0  0  0  0  0  0  0  0  0  0
   -3.7478   -4.7611   -0.2307 O   0  0  0  0  0  0  0  0  0  0  0  0
   -0.9494   -3.7109    0.3145 C   0  0  0  0  0  0  0  0  0  0  0  0
   -1.2527   -2.7396   -0.8308 C   0  0  0  0  0  0  0  0  0  0  0  0
   -1.8709   -3.5057   -2.0003 C   0  0  0  0  0  0  0  0  0  0  0  0
   -2.3792   -2.5372   -3.0130 N   0  0  0  0  0  0  0  0  0  0  0  0
   -3.6628   -2.4440   -3.2504 C   0  0  0  0  0  0  0  0  0  0  0  0
   -4.0938   -2.2182   -4.4647 N   0  0  0  0  0  0  0  0  0  0  0  0
   -4.5164   -2.5835   -2.2717 N   0  0  0  0  0  0  0  0  0  0  0  0
  2  1  1  1  0  0  0
  2  3  1  0  0  0  0
  2  5  1  0  0  0  0
  3  4  1  0  0  0  0
  5  6  1  0  0  0  0
  6  7  1  0  0  0  0
  7  8  1  0  0  0  0
  8  9  1  0  0  0  0
  9 10  1  0  0  0  0
  9 11  1  0  0  0  0
M  END
>  <CHROM.1>
-61.35380830,170.35546010,-150.27876448,-91.15195277,170.31264054,-114.08030607
-143.69542765,-38.87405156,142.65000296,-2.70500310,-3.38852434,-0.99551091
-1.25030970,-0.27821753,-1.14789033

>  <Name>
1akx_lig

>  <RI>
0

>  <Rbt.Current_Directory>
/home/itssahil/PROJECTS/Mol_Feturizer/New_Systems/rnas/1akx

>  <Rbt.Executable>
rbdock ($Id: //depot/dev/client3/rdock/2013.1/src/exe/rbdock.cxx#4 $)

>  <Rbt.Library>
libRbt.so (2013.1, Build901 2013/11/27)

>  <Rbt.Parameter_File>
/export/apps/rDock/src/rDock_2013.1_src/data/scripts/dock_solv.prm

>  <Rbt.Receptor>
prm/pocket_docking_2.prm

>  <SCORE>
-29.3557

>  <SCORE.INTER>
-21.9487

>  <SCORE.INTER.CONST>
1

>  <SCORE.INTER.POLAR>
-3.45367

>  <SCORE.INTER.ROT>
8

>  <SCORE.INTER.SOLV>
6.55106

>  <SCORE.INTER.VDW>
-14.2372

>  <SCORE.INTER.norm>
-1.99533

>  <SCORE.INTRA>
-7.44059

>  <SCORE.INTRA.DIHEDRAL>
-10.0205

>  <SCORE.INTRA.DIHEDRAL.0>
21.6454

>  <SCORE.INTRA.POLAR>
-1

>  <SCORE.INTRA.POLAR.0>
0

>  <SCORE.INTRA.REPUL>
0

>  <SCORE.INTRA.REPUL.0>
0

>  <SCORE.INTRA.SOLV>
1.25389

>  <SCORE.INTRA.SOLV.lig_0>
-16.5947

>  <SCORE.INTRA.VDW>
0.342738

>  <SCORE.INTRA.VDW.0>
-0.691398

>  <SCORE.INTRA.norm>
-0.676417

>  <SCORE.RESTR>
0.0335861

>  <SCORE.RESTR.CAVITY>
0.0335861

>  <SCORE.RESTR.norm>
0.00305328

>  <SCORE.SYSTEM>
0

>  <SCORE.SYSTEM.CONST>
0

>  <SCORE.SYSTEM.DIHEDRAL>
0

>  <SCORE.SYSTEM.SOLV>
0

>  <SCORE.SYSTEM.norm>
0

>  <SCORE.heavy>
11

>  <SCORE.norm>
-2.6687

>  <RMSD>
2.412

$$$$
1akx_lig
 OpenBabel11021811383D
libRbt.so/2013.1/901 2013/11/27
 11 10  0  0  0  0  0  0  0  0999 V2000
   -1.6319   -2.3977    0.4082 N   0  0  0  0  0  0  0  0  0  0  0  0
   -1.8208   -3.8784    0.4175 C   0  0  2  0  0  0  0  0  0  0  0  0
   -0.4518   -4.5688    0.4594 C   0  0  0  0  0  0  0  0  0  0  0  0
    0.2712   -4.4467    1.4282 O   0  0  0  0  0  0  0  0  0  0  0  0
   -2.5786   -4.3091   -0.8457 C   0  0  0  0  0  0  0  0  0  0  0  0
   -4.0871   -4.1725   -0.6153 C   0  0  0  0  0  0  0  0  0  0  0  0
   -4.8015   -4.0608   -1.9622 C   0  0  0  0  0  0  0  0  0  0  0  0
   -4.7246   -2.6536   -2.4480 N   0  0  0  0  0  0  0  0  0  0  0  0
   -4.0111   -2.3588   -3.5047 C   0  0  0  0  0  0  0  0  0  0  0  0
   -2.7695   -1.9682   -3.3736 N   0  0  0  0  0  0  0  0  0  0  0  0
   -4.5393   -2.4613   -4.6948 N   0  0  0  0  0  0  0  0  0  0  0  0
  2  1  1  6  0  0  0
  2  3  1  0  0  0  0
  2  5  1  0  0  0  0
  3  4  1  0  0  0  0
  5  6  1  0  0  0  0
  6  7  1  0  0  0  0
  7  8  1  0  0  0  0
  8  9  1  0  0  0  0
  9 10  1  0  0  0  0
  9 11  1  0  0  0  0
M  END
>  <CHROM.1>
-61.38392634,65.30209736,-85.07499400,158.00692603,-81.81196767,112.04336987
-93.40444630,-168.45303636,-17.91625816,-2.80099524,-3.34101506,-1.34583760
-0.85157188,-0.36342099,-0.94225085

>  <Name>
1akx_lig

>  <RI>
0

>  <Rbt.Current_Directory>
/home/afrankz/demos/rdock_decoys_rna/rnas/1akx

>  <Rbt.Executable>
rbdock ($Id: //depot/dev/client3/rdock/2013.1/src/exe/rbdock.cxx#4 $)

>  <Rbt.Library>
libRbt.so (2013.1, Build901 2013/11/27)

>  <Rbt.Parameter_File>
/export/apps/rDock/src/rDock_2013.1_src/data/scripts/dock_solv.prm

>  <Rbt.Receptor>
prm/pocket_docking_2.prm

>  <SCORE>
-26.7778

>  <SCORE.INTER>
-20.3999

>  <SCORE.INTER.CONST>
1

>  <SCORE.INTER.POLAR>
-2.80118

>  <SCORE.INTER.ROT>
8

>  <SCORE.INTER.SOLV>
8.01438

>  <SCORE.INTER.VDW>
-15.8674

>  <SCORE.INTER.norm>
-1.85453

>  <SCORE.INTRA>
-6.475

>  <SCORE.INTRA.DIHEDRAL>
-11.1236

>  <SCORE.INTRA.DIHEDRAL.0>
21.6454

>  <SCORE.INTRA.POLAR>
0

>  <SCORE.INTRA.POLAR.0>
0

>  <SCORE.INTRA.REPUL>
0

>  <SCORE.INTRA.REPUL.0>
0

>  <SCORE.INTRA.SOLV>
0.959319

>  <SCORE.INTRA.SOLV.lig_0>
-16.5947

>  <SCORE.INTRA.VDW>
-1.39289

>  <SCORE.INTRA.VDW.0>
-0.691398

>  <SCORE.INTRA.norm>
-0.588637

>  <SCORE.RESTR>
0.0970656

>  <SCORE.RESTR.CAVITY>
0.0970656

>  <SCORE.RESTR.norm>
0.00882415

>  <SCORE.SYSTEM>
0

>  <SCORE.SYSTEM.CONST>
0

>  <SCORE.SYSTEM.DIHEDRAL>
0

>  <SCORE.SYSTEM.SOLV>
0

>  <SCORE.SYSTEM.norm>
0

>  <SCORE.heavy>
11

>  <SCORE.norm>
-2.43435

>  <RMSD>
2.414

>  <RMSD>
2.414

$$$$
1akx_lig
 OpenBabel11021811383D
libRbt.so/2013.1/901 2013/11/27
 11 10  0  0  0  0  0  0  0  0999 V2000
   -1.6319   -2.3977    0.4082 N   0  0  0  0  0  0  0  0  0  0  0  0
   -1.8208   -3.8784    0.4175 C   0  0  2  0  0  0  0  0  0  0  0  0
   -0.4518   -4.5688    0.4594 C   0  0  0  0  0  0  0  0  0  0  0  0
    0.2712   -4.4467    1.4282 O   0  0  0  0  0  0  0  0  0  0  0  0
   -2.5786   -4.3091   -0.8457 C   0  0  0  0  0  0  0  0  0  0  0  0
   -4.0871   -4.1725   -0.6153 C   0  0  0  0  0  0  0  0  0  0  0  0
   -4.8015   -4.0608   -1.9622 C   0  0  0  0  0  0  0  0  0  0  0  0
   -4.7246   -2.6536   -2.4480 N   0  0  0  0  0  0  0  0  0  0  0  0
   -4.0111   -2.3588   -3.5047 C   0  0  0  0  0  0  0  0  0  0  0  0
   -2.7695   -1.9682   -3.3736 N   0  0  0  0  0  0  0  0  0  0  0  0
   -4.5393   -2.4613   -4.6948 N   0  0  0  0  0  0  0  0  0  0  0  0
  2  1  1  6  0  0  0
  2  3  1  0  0  0  0
  2  5  1  0  0  0  0
  3  4  1  0  0  0  0
  5  6  1  0  0  0  0
  6  7  1  0  0  0  0
  7  8  1  0  0  0  0
  8  9  1  0  0  0  0
  9 10  1  0  0  0  0
  9 11  1  0  0  0  0
M  END
>  <CHROM.1>
-61.38392634,65.30209736,-85.07499400,158.00692603,-81.81196767,112.04336987
-93.40444630,-168.45303636,-17.91625816,-2.80099524,-3.34101506,-1.34583760
-0.85157188,-0.36342099,-0.94225085

>  <Name>
1akx_lig

>  <RI>
0

>  <Rbt.Current_Directory>
/home/afrankz/demos/rdock_decoys_rna/rnas/1akx

>  <Rbt.Executable>
rbdock ($Id: //depot/dev/client3/rdock/2013.1/src/exe/rbdock.cxx#4 $)

>  <Rbt.Library>
libRbt.so (2013.1, Build901 2013/11/27)

>  <Rbt.Parameter_File>
/export/apps/rDock/src/rDock_2013.1_src/data/scripts/dock_solv.prm

>  <Rbt.Receptor>
prm/pocket_docking_2.prm

>  <SCORE>
-26.7778

>  <SCORE.INTER>
-20.3999

>  <SCORE.INTER.CONST>
1

>  <SCORE.INTER.POLAR>
-2.80118

>  <SCORE.INTER.ROT>
8

>  <SCORE.INTER.SOLV>
8.01438

>  <SCORE.INTER.VDW>
-15.8674

>  <SCORE.INTER.norm>
-1.85453

>  <SCORE.INTRA>
-6.475

>  <SCORE.INTRA.DIHEDRAL>
-11.1236

>  <SCORE.INTRA.DIHEDRAL.0>
21.6454

>  <SCORE.INTRA.POLAR>
0

>  <SCORE.INTRA.POLAR.0>
0

>  <SCORE.INTRA.REPUL>
0

>  <SCORE.INTRA.REPUL.0>
0

>  <SCORE.INTRA.SOLV>
0.959319

>  <SCORE.INTRA.SOLV.lig_0>
-16.5947

>  <SCORE.INTRA.VDW>
-1.39289

>  <SCORE.INTRA.VDW.0>
-0.691398

>  <SCORE.INTRA.norm>
-0.588637

>  <SCORE.RESTR>
0.0970656

>  <SCORE.RESTR.CAVITY>
0.0970656

>  <SCORE.RESTR.norm>
0.00882415

>  <SCORE.SYSTEM>
0

>  <SCORE.SYSTEM.CONST>
0

>  <SCORE.SYSTEM.DIHEDRAL>
0

>  <SCORE.SYSTEM.SOLV>
0

>  <SCORE.SYSTEM.norm>
0

>  <SCORE.heavy>
11

>  <SCORE.norm>
-2.43435

>  <RMSD>
2.414

>  <RMSD>
2.414

$$$$
1akx_lig
 OpenBabel11021811383D
libRbt.so/2013.1/901 2013/11/27
 11 10  0  0  0  0  0  0  0  0999 V2000
   -0.9525   -2.1825    1.3477 N   0  0  0  0  0  0  0  0  0  0  0  0
   -2.2213   -2.9543    1.1974 C   0  0  2  0  0  0  0  0  0  0  0  0
   -1.9070   -4.4553    1.1680 C   0  0  0  0  0  0  0  0  0  0  0  0
   -1.4668   -5.0126    2.1539 O   0  0  0  0  0  0  0  0  0  0  0  0
   -2.9206   -2.5470   -0.1066 C   0  0  0  0  0  0  0  0  0  0  0  0
   -4.3575   -3.0787   -0.1105 C   0  0  0  0  0  0  0  0  0  0  0  0
   -5.0048   -2.7915   -1.4653 C   0  0  0  0  0  0  0  0  0  0  0  0
   -4.2797   -3.5426   -2.5294 N   0  0  0  0  0  0  0  0  0  0  0  0
   -3.4736   -2.9148   -3.3470 C   0  0  0  0  0  0  0  0  0  0  0  0
   -3.9302   -2.4089   -4.4637 N   0  0  0  0  0  0  0  0  0  0  0  0
   -2.2096   -2.7877   -3.0434 N   0  0  0  0  0  0  0  0  0  0  0  0
  2  1  1  6  0  0  0
  2  3  1  0  0  0  0
  2  5  1  0  0  0  0
  3  4  1  0  0  0  0
  5  6  1  0  0  0  0
  6  7  1  0  0  0  0
  7  8  1  0  0  0  0
  8  9  1  0  0  0  0
  9 10  1  0  0  0  0
  9 11  1  0  0  0  0
M  END
>  <CHROM.1>
-174.49814750,66.65102978,-166.88289062,-174.43024649,63.94328289,-105.35214301
-89.29062193,-20.09517685,-158.85410245,-2.92240180,-3.14810590,-0.84231168
-1.14588559,-0.25016618,-1.27343799

>  <Name>
1akx_lig

>  <RI>
0

>  <Rbt.Current_Directory>
/home/itssahil/PROJECTS/Mol_Feturizer/New_Systems/rnas/1akx

>  <Rbt.Executable>
rbdock ($Id: //depot/dev/client3/rdock/2013.1/src/exe/rbdock.cxx#4 $)

>  <Rbt.Library>
libRbt.so (2013.1, Build901 2013/11/27)

>  <Rbt.Parameter_File>
/export/apps/rDock/src/rDock_2013.1_src/data/scripts/dock_solv.prm

>  <Rbt.Receptor>
prm/pocket_docking_3.prm

>  <SCORE>
-28.7239

>  <SCORE.INTER>
-21.1296

>  <SCORE.INTER.CONST>
1

>  <SCORE.INTER.POLAR>
-3.45533

>  <SCORE.INTER.ROT>
8

>  <SCORE.INTER.SOLV>
5.3875

>  <SCORE.INTER.VDW>
-13.2978

>  <SCORE.INTER.norm>
-1.92087

>  <SCORE.INTRA>
-7.59432

>  <SCORE.INTRA.DIHEDRAL>
-15.765

>  <SCORE.INTRA.DIHEDRAL.0>
21.6454

>  <SCORE.INTRA.POLAR>
0

>  <SCORE.INTRA.POLAR.0>
0

>  <SCORE.INTRA.REPUL>
0

>  <SCORE.INTRA.REPUL.0>
0

>  <SCORE.INTRA.SOLV>
0.841502

>  <SCORE.INTRA.SOLV.lig_0>
-16.5947

>  <SCORE.INTRA.VDW>
-0.132543

>  <SCORE.INTRA.VDW.0>
-0.691398

>  <SCORE.INTRA.norm>
-0.690392

>  <SCORE.RESTR>
0

>  <SCORE.RESTR.CAVITY>
0

>  <SCORE.RESTR.norm>
0

>  <SCORE.SYSTEM>
0

>  <SCORE.SYSTEM.CONST>
0

>  <SCORE.SYSTEM.DIHEDRAL>
0

>  <SCORE.SYSTEM.SOLV>
0

>  <SCORE.SYSTEM.norm>
0

>  <SCORE.heavy>
11

>  <SCORE.norm>
-2.61127

>  <RMSD>
2.434

$$$$
1akx_lig
 OpenBabel11021811383D
libRbt.so/2013.1/901 2013/11/27
 11 10  0  0  0  0  0  0  0  0999 V2000
    0.0190   -2.5204   -0.0753 N   0  0  0  0  0  0  0  0  0  0  0  0
   -0.7951   -3.1268    1.0191 C   0  0  2  0  0  0  0  0  0  0  0  0
    0.1359   -3.6471    2.1215 C   0  0  0  0  0  0  0  0  0  0  0  0
    0.8745   -2.8865    2.7148 O   0  0  0  0  0  0  0  0  0  0  0  0
   -1.6304   -4.2857    0.4582 C   0  0  0  0  0  0  0  0  0  0  0  0
   -3.0960   -3.8556    0.3381 C   0  0  0  0  0  0  0  0  0  0  0  0
   -3.2310   -2.8030   -0.7622 C   0  0  0  0  0  0  0  0  0  0  0  0
   -3.0982   -3.4593   -2.0941 N   0  0  0  0  0  0  0  0  0  0  0  0
   -3.4723   -2.8309   -3.1792 C   0  0  0  0  0  0  0  0  0  0  0  0
   -2.5981   -2.1675   -3.8912 N   0  0  0  0  0  0  0  0  0  0  0  0
   -4.7224   -2.8717   -3.5556 N   0  0  0  0  0  0  0  0  0  0  0  0
  2  1  1  6  0  0  0
  2  3  1  0  0  0  0
  2  5  1  0  0  0  0
  3  4  1  0  0  0  0
  5  6  1  0  0  0  0
  6  7  1  0  0  0  0
  7  8  1  0  0  0  0
  8  9  1  0  0  0  0
  9 10  1  0  0  0  0
  9 11  1  0  0  0  0
M  END
>  <CHROM.1>
57.62275368,60.72229657,-105.49785924,68.74505295,73.69132296,164.59393304
95.28029835,-5.32637835,-137.88139350,-1.93613440,-3.10681377,-0.66673939
-0.87074292,-0.37328730,-1.18577139

>  <Name>
1akx_lig

>  <RI>
0

>  <Rbt.Current_Directory>
/home/itssahil/PROJECTS/Mol_Feturizer/New_Systems/rnas/1akx

>  <Rbt.Executable>
rbdock ($Id: //depot/dev/client3/rdock/2013.1/src/exe/rbdock.cxx#4 $)

>  <Rbt.Library>
libRbt.so (2013.1, Build901 2013/11/27)

>  <Rbt.Parameter_File>
/export/apps/rDock/src/rDock_2013.1_src/data/scripts/dock_solv.prm

>  <Rbt.Receptor>
prm/pocket_docking_5.prm

>  <SCORE>
-29.1321

>  <SCORE.INTER>
-23.8814

>  <SCORE.INTER.CONST>
1

>  <SCORE.INTER.POLAR>
-3.90185

>  <SCORE.INTER.ROT>
8

>  <SCORE.INTER.SOLV>
6.66199

>  <SCORE.INTER.VDW>
-14.0688

>  <SCORE.INTER.norm>
-2.17104

>  <SCORE.INTRA>
-5.25073

>  <SCORE.INTRA.DIHEDRAL>
-10.7638

>  <SCORE.INTRA.DIHEDRAL.0>
21.6454

>  <SCORE.INTRA.POLAR>
0

>  <SCORE.INTRA.POLAR.0>
0

>  <SCORE.INTRA.REPUL>
0

>  <SCORE.INTRA.REPUL.0>
0

>  <SCORE.INTRA.SOLV>
0.750047

>  <SCORE.INTRA.SOLV.lig_0>
-16.5947

>  <SCORE.INTRA.VDW>
-0.243864

>  <SCORE.INTRA.VDW.0>
-0.691398

>  <SCORE.INTRA.norm>
-0.477339

>  <SCORE.RESTR>
0

>  <SCORE.RESTR.CAVITY>
0

>  <SCORE.RESTR.norm>
0

>  <SCORE.SYSTEM>
0

>  <SCORE.SYSTEM.CONST>
0

>  <SCORE.SYSTEM.DIHEDRAL>
0

>  <SCORE.SYSTEM.SOLV>
0

>  <SCORE.SYSTEM.norm>
0

>  <SCORE.heavy>
11

>  <SCORE.norm>
-2.64838

>  <RMSD>
2.437

$$$$
1akx_lig
 OpenBabel11021811383D
libRbt.so/2013.1/901 2013/11/27
 11 10  0  0  0  0  0  0  0  0999 V2000
    0.7926   -4.7024    0.8855 N   0  0  0  0  0  0  0  0  0  0  0  0
    0.1567   -3.4649    1.4264 C   0  0  2  0  0  0  0  0  0  0  0  0
   -0.7199   -3.8249    2.6324 C   0  0  0  0  0  0  0  0  0  0  0  0
   -0.2227   -4.2860    3.6405 O   0  0  0  0  0  0  0  0  0  0  0  0
   -0.7050   -2.8105    0.3379 C   0  0  0  0  0  0  0  0  0  0  0  0
   -1.7715   -3.8004   -0.1417 C   0  0  0  0  0  0  0  0  0  0  0  0
   -1.3162   -4.4481   -1.4493 C   0  0  0  0  0  0  0  0  0  0  0  0
   -1.1544   -3.3958   -2.4928 N   0  0  0  0  0  0  0  0  0  0  0  0
   -2.1438   -3.1100   -3.3001 C   0  0  0  0  0  0  0  0  0  0  0  0
   -3.3365   -2.8672   -2.8207 N   0  0  0  0  0  0  0  0  0  0  0  0
   -1.9375   -3.0610   -4.5889 N   0  0  0  0  0  0  0  0  0  0  0  0
  2  1  1  6  0  0  0
  2  3  1  0  0  0  0
  2  5  1  0  0  0  0
  3  4  1  0  0  0  0
  5  6  1  0  0  0  0
  6  7  1  0  0  0  0
  7  8  1  0  0  0  0
  8  9  1  0  0  0  0
  9 10  1  0  0  0  0
  9 11  1  0  0  0  0
M  END
>  <CHROM.1>
167.29359721,63.87007539,58.31716102,-99.47301525,-61.55694889,-93.00342785
50.12645962,74.33293280,33.62011191,-1.11274528,-3.63158133,-0.54832203,-1.20254942
0.38692198,-1.55855255

>  <Name>
1akx_lig

>  <RI>
0

>  <Rbt.Current_Directory>
/home/itssahil/PROJECTS/Mol_Feturizer/New_Systems/rnas/1akx

>  <Rbt.Executable>
rbdock ($Id: //depot/dev/client3/rdock/2013.1/src/exe/rbdock.cxx#4 $)

>  <Rbt.Library>
libRbt.so (2013.1, Build901 2013/11/27)

>  <Rbt.Parameter_File>
/export/apps/rDock/src/rDock_2013.1_src/data/scripts/dock_solv.prm

>  <Rbt.Receptor>
prm/pocket_docking_3.prm

>  <SCORE>
-27.7347

>  <SCORE.INTER>
-23.444

>  <SCORE.INTER.CONST>
1

>  <SCORE.INTER.POLAR>
-3.60687

>  <SCORE.INTER.ROT>
8

>  <SCORE.INTER.SOLV>
7.70755

>  <SCORE.INTER.VDW>
-15.1089

>  <SCORE.INTER.norm>
-2.13127

>  <SCORE.INTRA>
-4.29073

>  <SCORE.INTRA.DIHEDRAL>
-11.8657

>  <SCORE.INTRA.DIHEDRAL.0>
21.6454

>  <SCORE.INTRA.POLAR>
0

>  <SCORE.INTRA.POLAR.0>
0

>  <SCORE.INTRA.REPUL>
0

>  <SCORE.INTRA.REPUL.0>
0

>  <SCORE.INTRA.SOLV>
0.972462

>  <SCORE.INTRA.SOLV.lig_0>
-16.5947

>  <SCORE.INTRA.VDW>
1.15587

>  <SCORE.INTRA.VDW.0>
-0.691398

>  <SCORE.INTRA.norm>
-0.390067

>  <SCORE.RESTR>
0

>  <SCORE.RESTR.CAVITY>
0

>  <SCORE.RESTR.norm>
0

>  <SCORE.SYSTEM>
0

>  <SCORE.SYSTEM.CONST>
0

>  <SCORE.SYSTEM.DIHEDRAL>
0

>  <SCORE.SYSTEM.SOLV>
0

>  <SCORE.SYSTEM.norm>
0

>  <SCORE.heavy>
11

>  <SCORE.norm>
-2.52134

>  <RMSD>
2.468

$$$$
1akx_lig
 OpenBabel11021811383D
libRbt.so/2013.1/901 2013/11/27
 11 10  0  0  0  0  0  0  0  0999 V2000
   -2.6808   -5.0324    1.1192 N   0  0  0  0  0  0  0  0  0  0  0  0
   -1.7487   -3.9409    1.5289 C   0  0  2  0  0  0  0  0  0  0  0  0
   -2.2034   -3.3569    2.8724 C   0  0  0  0  0  0  0  0  0  0  0  0
   -1.5209   -2.5342    3.4499 O   0  0  0  0  0  0  0  0  0  0  0  0
   -1.7449   -2.8387    0.4610 C   0  0  0  0  0  0  0  0  0  0  0  0
   -1.1396   -3.3799   -0.8383 C   0  0  0  0  0  0  0  0  0  0  0  0
   -1.3978   -2.3893   -1.9736 C   0  0  0  0  0  0  0  0  0  0  0  0
   -2.8593   -2.3379   -2.2628 N   0  0  0  0  0  0  0  0  0  0  0  0
   -3.3123   -2.6971   -3.4367 C   0  0  0  0  0  0  0  0  0  0  0  0
   -4.6003   -2.7901   -3.6459 N   0  0  0  0  0  0  0  0  0  0  0  0
   -2.4748   -2.9575   -4.4046 N   0  0  0  0  0  0  0  0  0  0  0  0
  2  1  1  6  0  0  0
  2  3  1  0  0  0  0
  2  5  1  0  0  0  0
  3  4  1  0  0  0  0
  5  6  1  0  0  0  0
  6  7  1  0  0  0  0
  7  8  1  0  0  0  0
  8  9  1  0  0  0  0
  9 10  1  0  0  0  0
  9 11  1  0  0  0  0
M  END
>  <CHROM.1>
-175.60304974,173.52230659,-66.21407596,168.36323571,-67.09826376,-117.76479555
172.63062555,-5.08131561,-126.45589686,-2.37172172,-3.13385506,-0.65784816
1.32611371,0.51881453,1.80873435

>  <Name>
1akx_lig

>  <RI>
0

>  <Rbt.Current_Directory>
/home/itssahil/PROJECTS/Mol_Feturizer/New_Systems/rnas/1akx

>  <Rbt.Executable>
rbdock ($Id: //depot/dev/client3/rdock/2013.1/src/exe/rbdock.cxx#4 $)

>  <Rbt.Library>
libRbt.so (2013.1, Build901 2013/11/27)

>  <Rbt.Parameter_File>
/export/apps/rDock/src/rDock_2013.1_src/data/scripts/dock_solv.prm

>  <Rbt.Receptor>
prm/pocket_docking_3.prm

>  <SCORE>
-22.5499

>  <SCORE.INTER>
-15.6726

>  <SCORE.INTER.CONST>
1

>  <SCORE.INTER.POLAR>
-2.22245

>  <SCORE.INTER.ROT>
8

>  <SCORE.INTER.SOLV>
7.15301

>  <SCORE.INTER.VDW>
-14.3579

>  <SCORE.INTER.norm>
-1.42478

>  <SCORE.INTRA>
-6.87739

>  <SCORE.INTRA.DIHEDRAL>
-15.7543

>  <SCORE.INTRA.DIHEDRAL.0>
21.6454

>  <SCORE.INTRA.POLAR>
0

>  <SCORE.INTRA.POLAR.0>
0

>  <SCORE.INTRA.REPUL>
0

>  <SCORE.INTRA.REPUL.0>
0

>  <SCORE.INTRA.SOLV>
0.291778

>  <SCORE.INTRA.SOLV.lig_0>
-16.5947

>  <SCORE.INTRA.VDW>
0.853886

>  <SCORE.INTRA.VDW.0>
-0.691398

>  <SCORE.INTRA.norm>
-0.625217

>  <SCORE.RESTR>
0

>  <SCORE.RESTR.CAVITY>
0

>  <SCORE.RESTR.norm>
0

>  <SCORE.SYSTEM>
0

>  <SCORE.SYSTEM.CONST>
0

>  <SCORE.SYSTEM.DIHEDRAL>
0

>  <SCORE.SYSTEM.SOLV>
0

>  <SCORE.SYSTEM.norm>
0

>  <SCORE.heavy>
11

>  <SCORE.norm>
-2.05

>  <RMSD>
2.486

$$$$
1akx_lig
 OpenBabel11021811383D
libRbt.so/2013.1/901 2013/11/27
 11 10  0  0  0  0  0  0  0  0999 V2000
    0.7644   -4.8201    0.7414 N   0  0  0  0  0  0  0  0  0  0  0  0
    0.3686   -3.6770    1.6159 C   0  0  2  0  0  0  0  0  0  0  0  0
    0.3149   -4.1441    3.0759 C   0  0  0  0  0  0  0  0  0  0  0  0
    0.0392   -3.3620    3.9639 O   0  0  0  0  0  0  0  0  0  0  0  0
   -1.0101   -3.1551    1.1891 C   0  0  0  0  0  0  0  0  0  0  0  0
   -0.9084   -2.4930   -0.1888 C   0  0  0  0  0  0  0  0  0  0  0  0
   -1.1063   -3.5473   -1.2780 C   0  0  0  0  0  0  0  0  0  0  0  0
   -1.5351   -2.8803   -2.5403 N   0  0  0  0  0  0  0  0  0  0  0  0
   -2.8016   -2.8396   -2.8673 C   0  0  0  0  0  0  0  0  0  0  0  0
   -3.2152   -2.0224   -3.8014 N   0  0  0  0  0  0  0  0  0  0  0  0
   -3.6544   -3.6227   -2.2628 N   0  0  0  0  0  0  0  0  0  0  0  0
  2  1  1  6  0  0  0
  2  3  1  0  0  0  0
  2  5  1  0  0  0  0
  3  4  1  0  0  0  0
  5  6  1  0  0  0  0
  6  7  1  0  0  0  0
  7  8  1  0  0  0  0
  8  9  1  0  0  0  0
  9 10  1  0  0  0  0
  9 11  1  0  0  0  0
M  END
>  <CHROM.1>
-161.17251610,178.45285648,-68.37033976,87.88128248,158.09360545,-98.08549523
165.14655784,-147.22204196,-48.81398691,-1.16607382,-3.34015494,-0.23273446
-0.99496726,0.50899400,-1.68439298

>  <Name>
1akx_lig

>  <RI>
0

>  <Rbt.Current_Directory>
/home/itssahil/PROJECTS/Mol_Feturizer/New_Systems/rnas/1akx

>  <Rbt.Executable>
rbdock ($Id: //depot/dev/client3/rdock/2013.1/src/exe/rbdock.cxx#4 $)

>  <Rbt.Library>
libRbt.so (2013.1, Build901 2013/11/27)

>  <Rbt.Parameter_File>
/export/apps/rDock/src/rDock_2013.1_src/data/scripts/dock_solv.prm

>  <Rbt.Receptor>
prm/pocket_docking_6.prm

>  <SCORE>
-27.8737

>  <SCORE.INTER>
-23.3345

>  <SCORE.INTER.CONST>
1

>  <SCORE.INTER.POLAR>
-3.39505

>  <SCORE.INTER.ROT>
8

>  <SCORE.INTER.SOLV>
6.88224

>  <SCORE.INTER.VDW>
-15.4669

>  <SCORE.INTER.norm>
-2.12131

>  <SCORE.INTRA>
-4.53919

>  <SCORE.INTRA.DIHEDRAL>
-11.4103

>  <SCORE.INTRA.DIHEDRAL.0>
21.6454

>  <SCORE.INTRA.POLAR>
0

>  <SCORE.INTRA.POLAR.0>
0

>  <SCORE.INTRA.REPUL>
0

>  <SCORE.INTRA.REPUL.0>
0

>  <SCORE.INTRA.SOLV>
0.352497

>  <SCORE.INTRA.SOLV.lig_0>
-16.5947

>  <SCORE.INTRA.VDW>
0.989726

>  <SCORE.INTRA.VDW.0>
-0.691398

>  <SCORE.INTRA.norm>
-0.412654

>  <SCORE.RESTR>
0

>  <SCORE.RESTR.CAVITY>
0

>  <SCORE.RESTR.norm>
0

>  <SCORE.SYSTEM>
0

>  <SCORE.SYSTEM.CONST>
0

>  <SCORE.SYSTEM.DIHEDRAL>
0

>  <SCORE.SYSTEM.SOLV>
0

>  <SCORE.SYSTEM.norm>
0

>  <SCORE.heavy>
11

>  <SCORE.norm>
-2.53397

>  <RMSD>
2.498

$$$$
1akx_lig
 OpenBabel11021811383D
libRbt.so/2013.1/901 2013/11/27
 11 10  0  0  0  0  0  0  0  0999 V2000
   -0.6335   -3.4893   -0.6516 N   0  0  0  0  0  0  0  0  0  0  0  0
   -1.8439   -3.8648    0.1373 C   0  0  2  0  0  0  0  0  0  0  0  0
   -1.4165   -4.6183    1.4031 C   0  0  0  0  0  0  0  0  0  0  0  0
   -0.6107   -4.1290    2.1696 O   0  0  0  0  0  0  0  0  0  0  0  0
   -2.7562   -4.7589   -0.7133 C   0  0  0  0  0  0  0  0  0  0  0  0
   -4.2175   -4.3428   -0.5160 C   0  0  0  0  0  0  0  0  0  0  0  0
   -4.7776   -3.8046   -1.8327 C   0  0  0  0  0  0  0  0  0  0  0  0
   -3.9831   -2.6180   -2.2602 N   0  0  0  0  0  0  0  0  0  0  0  0
   -3.3071   -2.6457   -3.3803 C   0  0  0  0  0  0  0  0  0  0  0  0
   -2.0330   -2.9422   -3.3741 N   0  0  0  0  0  0  0  0  0  0  0  0
   -3.9090   -2.3823   -4.5092 N   0  0  0  0  0  0  0  0  0  0  0  0
  2  1  1  6  0  0  0
  2  3  1  0  0  0  0
  2  5  1  0  0  0  0
  3  4  1  0  0  0  0
  5  6  1  0  0  0  0
  6  7  1  0  0  0  0
  7  8  1  0  0  0  0
  8  9  1  0  0  0  0
  9 10  1  0  0  0  0
  9 11  1  0  0  0  0
M  END
>  <CHROM.1>
59.65818048,54.20589827,-138.08278425,115.16662432,-60.33551448,117.26269793
-96.41513345,72.02823243,-53.75361282,-2.62551988,-3.57276206,-1.25114576
-1.08300134,-0.18842880,-1.16237372

>  <Name>
1akx_lig

>  <RI>
0

>  <Rbt.Current_Directory>
/home/afrankz/demos/rdock_decoys_rna/rnas/1akx

>  <Rbt.Executable>
rbdock ($Id: //depot/dev/client3/rdock/2013.1/src/exe/rbdock.cxx#4 $)

>  <Rbt.Library>
libRbt.so (2013.1, Build901 2013/11/27)

>  <Rbt.Parameter_File>
/export/apps/rDock/src/rDock_2013.1_src/data/scripts/dock_solv.prm

>  <Rbt.Receptor>
prm/pocket_docking_2.prm

>  <SCORE>
-28.1207

>  <SCORE.INTER>
-21.3247

>  <SCORE.INTER.CONST>
1

>  <SCORE.INTER.POLAR>
-3.45507

>  <SCORE.INTER.ROT>
8

>  <SCORE.INTER.SOLV>
6.24706

>  <SCORE.INTER.VDW>
-13.7153

>  <SCORE.INTER.norm>
-1.93861

>  <SCORE.INTRA>
-6.87829

>  <SCORE.INTRA.DIHEDRAL>
-6.04653

>  <SCORE.INTRA.DIHEDRAL.0>
21.6454

>  <SCORE.INTRA.POLAR>
-0.992115

>  <SCORE.INTRA.POLAR.0>
0

>  <SCORE.INTRA.REPUL>
0

>  <SCORE.INTRA.REPUL.0>
0

>  <SCORE.INTRA.SOLV>
1.86811

>  <SCORE.INTRA.SOLV.lig_0>
-16.5947

>  <SCORE.INTRA.VDW>
-1.41589

>  <SCORE.INTRA.VDW.0>
-0.691398

>  <SCORE.INTRA.norm>
-0.625299

>  <SCORE.RESTR>
0.0823399

>  <SCORE.RESTR.CAVITY>
0.0823399

>  <SCORE.RESTR.norm>
0.00748545

>  <SCORE.SYSTEM>
0

>  <SCORE.SYSTEM.CONST>
0

>  <SCORE.SYSTEM.DIHEDRAL>
0

>  <SCORE.SYSTEM.SOLV>
0

>  <SCORE.SYSTEM.norm>
0

>  <SCORE.heavy>
11

>  <SCORE.norm>
-2.55642

>  <RMSD>
2.523

>  <RMSD>
2.523

$$$$
1akx_lig
 OpenBabel11021811383D
libRbt.so/2013.1/901 2013/11/27
 11 10  0  0  0  0  0  0  0  0999 V2000
   -0.6335   -3.4893   -0.6516 N   0  0  0  0  0  0  0  0  0  0  0  0
   -1.8439   -3.8648    0.1373 C   0  0  2  0  0  0  0  0  0  0  0  0
   -1.4165   -4.6183    1.4031 C   0  0  0  0  0  0  0  0  0  0  0  0
   -0.6107   -4.1290    2.1696 O   0  0  0  0  0  0  0  0  0  0  0  0
   -2.7562   -4.7589   -0.7133 C   0  0  0  0  0  0  0  0  0  0  0  0
   -4.2175   -4.3428   -0.5160 C   0  0  0  0  0  0  0  0  0  0  0  0
   -4.7776   -3.8046   -1.8327 C   0  0  0  0  0  0  0  0  0  0  0  0
   -3.9831   -2.6180   -2.2602 N   0  0  0  0  0  0  0  0  0  0  0  0
   -3.3071   -2.6457   -3.3803 C   0  0  0  0  0  0  0  0  0  0  0  0
   -2.0330   -2.9422   -3.3741 N   0  0  0  0  0  0  0  0  0  0  0  0
   -3.9090   -2.3823   -4.5092 N   0  0  0  0  0  0  0  0  0  0  0  0
  2  1  1  6  0  0  0
  2  3  1  0  0  0  0
  2  5  1  0  0  0  0
  3  4  1  0  0  0  0
  5  6  1  0  0  0  0
  6  7  1  0  0  0  0
  7  8  1  0  0  0  0
  8  9  1  0  0  0  0
  9 10  1  0  0  0  0
  9 11  1  0  0  0  0
M  END
>  <CHROM.1>
59.65818048,54.20589827,-138.08278425,115.16662432,-60.33551448,117.26269793
-96.41513345,72.02823243,-53.75361282,-2.62551988,-3.57276206,-1.25114576
-1.08300134,-0.18842880,-1.16237372

>  <Name>
1akx_lig

>  <RI>
0

>  <Rbt.Current_Directory>
/home/afrankz/demos/rdock_decoys_rna/rnas/1akx

>  <Rbt.Executable>
rbdock ($Id: //depot/dev/client3/rdock/2013.1/src/exe/rbdock.cxx#4 $)

>  <Rbt.Library>
libRbt.so (2013.1, Build901 2013/11/27)

>  <Rbt.Parameter_File>
/export/apps/rDock/src/rDock_2013.1_src/data/scripts/dock_solv.prm

>  <Rbt.Receptor>
prm/pocket_docking_2.prm

>  <SCORE>
-28.1207

>  <SCORE.INTER>
-21.3247

>  <SCORE.INTER.CONST>
1

>  <SCORE.INTER.POLAR>
-3.45507

>  <SCORE.INTER.ROT>
8

>  <SCORE.INTER.SOLV>
6.24706

>  <SCORE.INTER.VDW>
-13.7153

>  <SCORE.INTER.norm>
-1.93861

>  <SCORE.INTRA>
-6.87829

>  <SCORE.INTRA.DIHEDRAL>
-6.04653

>  <SCORE.INTRA.DIHEDRAL.0>
21.6454

>  <SCORE.INTRA.POLAR>
-0.992115

>  <SCORE.INTRA.POLAR.0>
0

>  <SCORE.INTRA.REPUL>
0

>  <SCORE.INTRA.REPUL.0>
0

>  <SCORE.INTRA.SOLV>
1.86811

>  <SCORE.INTRA.SOLV.lig_0>
-16.5947

>  <SCORE.INTRA.VDW>
-1.41589

>  <SCORE.INTRA.VDW.0>
-0.691398

>  <SCORE.INTRA.norm>
-0.625299

>  <SCORE.RESTR>
0.0823399

>  <SCORE.RESTR.CAVITY>
0.0823399

>  <SCORE.RESTR.norm>
0.00748545

>  <SCORE.SYSTEM>
0

>  <SCORE.SYSTEM.CONST>
0

>  <SCORE.SYSTEM.DIHEDRAL>
0

>  <SCORE.SYSTEM.SOLV>
0

>  <SCORE.SYSTEM.norm>
0

>  <SCORE.heavy>
11

>  <SCORE.norm>
-2.55642

>  <RMSD>
2.523

>  <RMSD>
2.523

$$$$
1akx_lig
 OpenBabel11021811383D
libRbt.so/2013.1/901 2013/11/27
 11 10  0  0  0  0  0  0  0  0999 V2000
   -3.4744   -2.2767    1.2718 N   0  0  0  0  0  0  0  0  0  0  0  0
   -2.5326   -3.2075    0.5828 C   0  0  2  0  0  0  0  0  0  0  0  0
   -1.8076   -4.0670    1.6260 C   0  0  0  0  0  0  0  0  0  0  0  0
   -1.0046   -4.9106    1.2797 O   0  0  0  0  0  0  0  0  0  0  0  0
   -1.5073   -2.3992   -0.2239 C   0  0  0  0  0  0  0  0  0  0  0  0
   -0.8534   -3.2988   -1.2777 C   0  0  0  0  0  0  0  0  0  0  0  0
   -1.9088   -3.7567   -2.2844 C   0  0  0  0  0  0  0  0  0  0  0  0
   -2.3834   -2.5833   -3.0720 N   0  0  0  0  0  0  0  0  0  0  0  0
   -3.6636   -2.3930   -3.2651 C   0  0  0  0  0  0  0  0  0  0  0  0
   -4.4902   -2.3924   -2.2511 N   0  0  0  0  0  0  0  0  0  0  0  0
   -4.1164   -2.1966   -4.4744 N   0  0  0  0  0  0  0  0  0  0  0  0
  2  1  1  1  0  0  0
  2  3  1  0  0  0  0
  2  5  1  0  0  0  0
  3  4  1  0  0  0  0
  5  6  1  0  0  0  0
  6  7  1  0  0  0  0
  7  8  1  0  0  0  0
  8  9  1  0  0  0  0
  9 10  1  0  0  0  0
  9 11  1  0  0  0  0
M  END
>  <CHROM.1>
-70.06886388,178.94591874,-161.24437157,64.24088207,67.12659547,-133.58038093
51.75453783,-156.52468541,-48.44664318,-2.56313555,-3.02519273,-1.09108999
1.14791732,-0.49490519,1.64519687

>  <Name>
1akx_lig

>  <RI>
0

>  <Rbt.Current_Directory>
/home/itssahil/PROJECTS/Mol_Feturizer/New_Systems/rnas/1akx

>  <Rbt.Executable>
rbdock ($Id: //depot/dev/client3/rdock/2013.1/src/exe/rbdock.cxx#4 $)

>  <Rbt.Library>
libRbt.so (2013.1, Build901 2013/11/27)

>  <Rbt.Parameter_File>
/export/apps/rDock/src/rDock_2013.1_src/data/scripts/dock_solv.prm

>  <Rbt.Receptor>
prm/pocket_docking_2.prm

>  <SCORE>
-34.9482

>  <SCORE.INTER>
-29.4802

>  <SCORE.INTER.CONST>
1

>  <SCORE.INTER.POLAR>
-4.41981

>  <SCORE.INTER.ROT>
8

>  <SCORE.INTER.SOLV>
7.09369

>  <SCORE.INTER.VDW>
-16.2187

>  <SCORE.INTER.norm>
-2.68002

>  <SCORE.INTRA>
-6.49446

>  <SCORE.INTRA.DIHEDRAL>
-15.0275

>  <SCORE.INTRA.DIHEDRAL.0>
21.6454

>  <SCORE.INTRA.POLAR>
0

>  <SCORE.INTRA.POLAR.0>
0

>  <SCORE.INTRA.REPUL>
0

>  <SCORE.INTRA.REPUL.0>
0

>  <SCORE.INTRA.SOLV>
1.28222

>  <SCORE.INTRA.SOLV.lig_0>
-16.5947

>  <SCORE.INTRA.VDW>
0.37819

>  <SCORE.INTRA.VDW.0>
-0.691398

>  <SCORE.INTRA.norm>
-0.590405

>  <SCORE.RESTR>
1.02648

>  <SCORE.RESTR.CAVITY>
1.02648

>  <SCORE.RESTR.norm>
0.0933161

>  <SCORE.SYSTEM>
0

>  <SCORE.SYSTEM.CONST>
0

>  <SCORE.SYSTEM.DIHEDRAL>
0

>  <SCORE.SYSTEM.SOLV>
0

>  <SCORE.SYSTEM.norm>
0

>  <SCORE.heavy>
11

>  <SCORE.norm>
-3.17711

>  <RMSD>
2.525

$$$$
1akx_lig
 OpenBabel11021811383D
libRbt.so/2013.1/901 2013/11/27
 11 10  0  0  0  0  0  0  0  0999 V2000
   -0.9966   -7.1004   -1.6337 N   0  0  0  0  0  0  0  0  0  0  0  0
   -0.9557   -5.9693   -0.6605 C   0  0  2  0  0  0  0  0  0  0  0  0
   -1.3938   -6.4676    0.7224 C   0  0  0  0  0  0  0  0  0  0  0  0
   -0.7997   -7.3768    1.2670 O   0  0  0  0  0  0  0  0  0  0  0  0
   -1.8975   -4.8519   -1.1296 C   0  0  0  0  0  0  0  0  0  0  0  0
   -1.6308   -3.5779   -0.3213 C   0  0  0  0  0  0  0  0  0  0  0  0
   -2.3341   -2.3946   -0.9862 C   0  0  0  0  0  0  0  0  0  0  0  0
   -1.6758   -2.0967   -2.2901 N   0  0  0  0  0  0  0  0  0  0  0  0
   -2.1610   -2.5886   -3.4014 C   0  0  0  0  0  0  0  0  0  0  0  0
   -1.5551   -3.5795   -4.0035 N   0  0  0  0  0  0  0  0  0  0  0  0
   -3.2580   -2.0922   -3.9076 N   0  0  0  0  0  0  0  0  0  0  0  0
  2  1  1  6  0  0  0
  2  3  1  0  0  0  0
  2  5  1  0  0  0  0
  3  4  1  0  0  0  0
  5  6  1  0  0  0  0
  6  7  1  0  0  0  0
  7  8  1  0  0  0  0
  8  9  1  0  0  0  0
  9 10  1  0  0  0  0
  9 11  1  0  0  0  0
M  END
>  <CHROM.1>
70.17922826,57.96748244,-167.44299999,167.44634815,-68.25750015,95.74864344
-105.69162374,-117.91423156,121.46805814,-1.68892270,-4.41260284,-1.52368400
-0.53525316,1.30389730,-1.68687245

>  <Name>
1akx_lig

>  <RI>
0

>  <Rbt.Current_Directory>
/home/itssahil/PROJECTS/Mol_Feturizer/New_Systems/rnas/1akx

>  <Rbt.Executable>
rbdock ($Id: //depot/dev/client3/rdock/2013.1/src/exe/rbdock.cxx#4 $)

>  <Rbt.Library>
libRbt.so (2013.1, Build901 2013/11/27)

>  <Rbt.Parameter_File>
/export/apps/rDock/src/rDock_2013.1_src/data/scripts/dock_solv.prm

>  <Rbt.Receptor>
prm/pocket_docking_4.prm

>  <SCORE>
-28.093

>  <SCORE.INTER>
-21.5234

>  <SCORE.INTER.CONST>
1

>  <SCORE.INTER.POLAR>
-4.09584

>  <SCORE.INTER.ROT>
8

>  <SCORE.INTER.SOLV>
9.76763

>  <SCORE.INTER.VDW>
-12.8853

>  <SCORE.INTER.norm>
-1.95667

>  <SCORE.INTRA>
-6.69029

>  <SCORE.INTRA.DIHEDRAL>
-15.078

>  <SCORE.INTRA.DIHEDRAL.0>
21.6454

>  <SCORE.INTRA.POLAR>
0

>  <SCORE.INTRA.POLAR.0>
0

>  <SCORE.INTRA.REPUL>
0

>  <SCORE.INTRA.REPUL.0>
0

>  <SCORE.INTRA.SOLV>
0.95477

>  <SCORE.INTRA.SOLV.lig_0>
-16.5947

>  <SCORE.INTRA.VDW>
0.371305

>  <SCORE.INTRA.VDW.0>
-0.691398

>  <SCORE.INTRA.norm>
-0.608208

>  <SCORE.RESTR>
0.12069

>  <SCORE.RESTR.CAVITY>
0.12069

>  <SCORE.RESTR.norm>
0.0109718

>  <SCORE.SYSTEM>
0

>  <SCORE.SYSTEM.CONST>
0

>  <SCORE.SYSTEM.DIHEDRAL>
0

>  <SCORE.SYSTEM.SOLV>
0

>  <SCORE.SYSTEM.norm>
0

>  <SCORE.heavy>
11

>  <SCORE.norm>
-2.55391

>  <RMSD>
2.568

$$$$
1akx_lig
 OpenBabel11021811383D
libRbt.so/2013.1/901 2013/11/27
 11 10  0  0  0  0  0  0  0  0999 V2000
   -1.6172   -4.5627   -1.4038 N   0  0  0  0  0  0  0  0  0  0  0  0
   -2.2778   -5.2038   -0.2288 C   0  0  2  0  0  0  0  0  0  0  0  0
   -1.7417   -6.6305   -0.0555 C   0  0  0  0  0  0  0  0  0  0  0  0
   -0.5494   -6.8308    0.0648 O   0  0  0  0  0  0  0  0  0  0  0  0
   -3.7959   -5.2455   -0.4506 C   0  0  0  0  0  0  0  0  0  0  0  0
   -4.3542   -3.8189   -0.4736 C   0  0  0  0  0  0  0  0  0  0  0  0
   -4.6468   -3.4080   -1.9166 C   0  0  0  0  0  0  0  0  0  0  0  0
   -3.5576   -2.5167   -2.4079 N   0  0  0  0  0  0  0  0  0  0  0  0
   -3.3236   -2.4068   -3.6907 C   0  0  0  0  0  0  0  0  0  0  0  0
   -4.2396   -1.9212   -4.4886 N   0  0  0  0  0  0  0  0  0  0  0  0
   -2.1686   -2.7777   -4.1748 N   0  0  0  0  0  0  0  0  0  0  0  0
  2  1  1  6  0  0  0
  2  3  1  0  0  0  0
  2  5  1  0  0  0  0
  3  4  1  0  0  0  0
  5  6  1  0  0  0  0
  6  7  1  0  0  0  0
  7  8  1  0  0  0  0
  8  9  1  0  0  0  0
  9 10  1  0  0  0  0
  9 11  1  0  0  0  0
M  END
>  <CHROM.1>
177.38368232,55.93389163,-65.78884998,103.40689294,-101.97200978,156.36772497
62.66957127,-89.00760587,-59.30704903,-2.88518236,-4.10553170,-1.79157091
-1.16984154,0.39620974,-0.92010628

>  <Name>
1akx_lig

>  <RI>
0

>  <Rbt.Current_Directory>
/home/itssahil/PROJECTS/Mol_Feturizer/New_Systems/rnas/1akx

>  <Rbt.Executable>
rbdock ($Id: //depot/dev/client3/rdock/2013.1/src/exe/rbdock.cxx#4 $)

>  <Rbt.Library>
libRbt.so (2013.1, Build901 2013/11/27)

>  <Rbt.Parameter_File>
/export/apps/rDock/src/rDock_2013.1_src/data/scripts/dock_solv.prm

>  <Rbt.Receptor>
prm/pocket_docking_3.prm

>  <SCORE>
-29.5654

>  <SCORE.INTER>
-24.1301

>  <SCORE.INTER.CONST>
1

>  <SCORE.INTER.POLAR>
-3.64742

>  <SCORE.INTER.ROT>
8

>  <SCORE.INTER.SOLV>
7.98955

>  <SCORE.INTER.VDW>
-15.5252

>  <SCORE.INTER.norm>
-2.19365

>  <SCORE.INTRA>
-5.43526

>  <SCORE.INTRA.DIHEDRAL>
-7.21693

>  <SCORE.INTRA.DIHEDRAL.0>
21.6454

>  <SCORE.INTRA.POLAR>
-0.671054

>  <SCORE.INTRA.POLAR.0>
0

>  <SCORE.INTRA.REPUL>
0

>  <SCORE.INTRA.REPUL.0>
0

>  <SCORE.INTRA.SOLV>
1.79673

>  <SCORE.INTRA.SOLV.lig_0>
-16.5947

>  <SCORE.INTRA.VDW>
-0.443576

>  <SCORE.INTRA.VDW.0>
-0.691398

>  <SCORE.INTRA.norm>
-0.494115

>  <SCORE.RESTR>
0

>  <SCORE.RESTR.CAVITY>
0

>  <SCORE.RESTR.norm>
0

>  <SCORE.SYSTEM>
0

>  <SCORE.SYSTEM.CONST>
0

>  <SCORE.SYSTEM.DIHEDRAL>
0

>  <SCORE.SYSTEM.SOLV>
0

>  <SCORE.SYSTEM.norm>
0

>  <SCORE.heavy>
11

>  <SCORE.norm>
-2.68776

>  <RMSD>
2.571

$$$$
1akx_lig
 OpenBabel11021811383D
libRbt.so/2013.1/901 2013/11/27
 11 10  0  0  0  0  0  0  0  0999 V2000
    0.8473   -4.8020    1.0841 N   0  0  0  0  0  0  0  0  0  0  0  0
    0.3095   -3.4171    0.9388 C   0  0  2  0  0  0  0  0  0  0  0  0
    0.9450   -2.5075    1.9978 C   0  0  0  0  0  0  0  0  0  0  0  0
    0.7335   -2.6954    3.1794 O   0  0  0  0  0  0  0  0  0  0  0  0
   -1.2145   -3.4347    1.1196 C   0  0  0  0  0  0  0  0  0  0  0  0
   -1.8752   -4.0448   -0.1207 C   0  0  0  0  0  0  0  0  0  0  0  0
   -1.9913   -2.9816   -1.2129 C   0  0  0  0  0  0  0  0  0  0  0  0
   -2.8058   -3.5174   -2.3407 N   0  0  0  0  0  0  0  0  0  0  0  0
   -2.5864   -3.1097   -3.5646 C   0  0  0  0  0  0  0  0  0  0  0  0
   -1.3950   -3.2221   -4.0932 N   0  0  0  0  0  0  0  0  0  0  0  0
   -3.5626   -2.5944   -4.2628 N   0  0  0  0  0  0  0  0  0  0  0  0
  2  1  1  1  0  0  0
  2  3  1  0  0  0  0
  2  5  1  0  0  0  0
  3  4  1  0  0  0  0
  5  6  1  0  0  0  0
  6  7  1  0  0  0  0
  7  8  1  0  0  0  0
  8  9  1  0  0  0  0
  9 10  1  0  0  0  0
  9 11  1  0  0  0  0
M  END
>  <CHROM.1>
65.30394478,-64.87533781,-73.72100975,-81.60932919,-171.94043097,-149.90759356
56.21323250,117.98029835,-4.80813496,-1.12934334,-3.32306554,-0.67513963
-1.01784484,0.33184374,-1.72115705

>  <Name>
1akx_lig

>  <RI>
0

>  <Rbt.Current_Directory>
/home/itssahil/PROJECTS/Mol_Feturizer/New_Systems/rnas/1akx

>  <Rbt.Executable>
rbdock ($Id: //depot/dev/client3/rdock/2013.1/src/exe/rbdock.cxx#4 $)

>  <Rbt.Library>
libRbt.so (2013.1, Build901 2013/11/27)

>  <Rbt.Parameter_File>
/export/apps/rDock/src/rDock_2013.1_src/data/scripts/dock_solv.prm

>  <Rbt.Receptor>
prm/pocket_docking_4.prm

>  <SCORE>
-25.0639

>  <SCORE.INTER>
-18.4173

>  <SCORE.INTER.CONST>
1

>  <SCORE.INTER.POLAR>
-3.18899

>  <SCORE.INTER.ROT>
8

>  <SCORE.INTER.SOLV>
7.70065

>  <SCORE.INTER.VDW>
-13.1485

>  <SCORE.INTER.norm>
-1.6743

>  <SCORE.INTRA>
-6.64655

>  <SCORE.INTRA.DIHEDRAL>
-13.9627

>  <SCORE.INTRA.DIHEDRAL.0>
21.6454

>  <SCORE.INTRA.POLAR>
0

>  <SCORE.INTRA.POLAR.0>
0

>  <SCORE.INTRA.REPUL>
0

>  <SCORE.INTRA.REPUL.0>
0

>  <SCORE.INTRA.SOLV>
0.329724

>  <SCORE.INTRA.SOLV.lig_0>
-16.5947

>  <SCORE.INTRA.VDW>
0.16996

>  <SCORE.INTRA.VDW.0>
-0.691398

>  <SCORE.INTRA.norm>
-0.604232

>  <SCORE.RESTR>
0

>  <SCORE.RESTR.CAVITY>
0

>  <SCORE.RESTR.norm>
0

>  <SCORE.SYSTEM>
0

>  <SCORE.SYSTEM.CONST>
0

>  <SCORE.SYSTEM.DIHEDRAL>
0

>  <SCORE.SYSTEM.SOLV>
0

>  <SCORE.SYSTEM.norm>
0

>  <SCORE.heavy>
11

>  <SCORE.norm>
-2.27854

>  <RMSD>
2.591

$$$$
1akx_lig
 OpenBabel11021811383D
libRbt.so/2013.1/901 2013/11/27
 11 10  0  0  0  0  0  0  0  0999 V2000
    0.4390   -2.1389    0.1782 N   0  0  0  0  0  0  0  0  0  0  0  0
   -0.5612   -2.5415    1.2104 C   0  0  2  0  0  0  0  0  0  0  0  0
    0.1243   -3.4016    2.2795 C   0  0  0  0  0  0  0  0  0  0  0  0
   -0.4958   -3.7902    3.2494 O   0  0  0  0  0  0  0  0  0  0  0  0
   -1.6906   -3.3426    0.5485 C   0  0  0  0  0  0  0  0  0  0  0  0
   -2.4256   -2.4593   -0.4648 C   0  0  0  0  0  0  0  0  0  0  0  0
   -3.5902   -3.2405   -1.0734 C   0  0  0  0  0  0  0  0  0  0  0  0
   -4.0935   -2.5204   -2.2778 N   0  0  0  0  0  0  0  0  0  0  0  0
   -3.4126   -2.5476   -3.3949 C   0  0  0  0  0  0  0  0  0  0  0  0
   -4.0111   -2.3274   -4.5371 N   0  0  0  0  0  0  0  0  0  0  0  0
   -2.1293   -2.7895   -3.3681 N   0  0  0  0  0  0  0  0  0  0  0  0
  2  1  1  6  0  0  0
  2  3  1  0  0  0  0
  2  5  1  0  0  0  0
  3  4  1  0  0  0  0
  5  6  1  0  0  0  0
  6  7  1  0  0  0  0
  7  8  1  0  0  0  0
  8  9  1  0  0  0  0
  9 10  1  0  0  0  0
  9 11  1  0  0  0  0
M  END
>  <CHROM.1>
-67.62496048,176.75593530,-62.84803494,-177.36290503,-166.32948224,74.83086447
157.09552287,-50.56061145,71.10291852,-1.96018163,-2.81650669,-0.72569844
-1.01368556,-0.22468638,-1.31466064

>  <Name>
1akx_lig

>  <RI>
0

>  <Rbt.Current_Directory>
/home/itssahil/PROJECTS/Mol_Feturizer/New_Systems/rnas/1akx

>  <Rbt.Executable>
rbdock ($Id: //depot/dev/client3/rdock/2013.1/src/exe/rbdock.cxx#4 $)

>  <Rbt.Library>
libRbt.so (2013.1, Build901 2013/11/27)

>  <Rbt.Parameter_File>
/export/apps/rDock/src/rDock_2013.1_src/data/scripts/dock_solv.prm

>  <Rbt.Receptor>
prm/pocket_docking_8.prm

>  <SCORE>
-34.4899

>  <SCORE.INTER>
-27.9018

>  <SCORE.INTER.CONST>
1

>  <SCORE.INTER.POLAR>
-4.0834

>  <SCORE.INTER.ROT>
8

>  <SCORE.INTER.SOLV>
7.91191

>  <SCORE.INTER.VDW>
-16.5605

>  <SCORE.INTER.norm>
-2.53653

>  <SCORE.INTRA>
-6.58806

>  <SCORE.INTRA.DIHEDRAL>
-15.9268

>  <SCORE.INTRA.DIHEDRAL.0>
21.6454

>  <SCORE.INTRA.POLAR>
0

>  <SCORE.INTRA.POLAR.0>
0

>  <SCORE.INTRA.REPUL>
0

>  <SCORE.INTRA.REPUL.0>
0

>  <SCORE.INTRA.SOLV>
0.350922

>  <SCORE.INTRA.SOLV.lig_0>
-16.5947

>  <SCORE.INTRA.VDW>
1.19989

>  <SCORE.INTRA.VDW.0>
-0.691398

>  <SCORE.INTRA.norm>
-0.598915

>  <SCORE.RESTR>
0

>  <SCORE.RESTR.CAVITY>
0

>  <SCORE.RESTR.norm>
0

>  <SCORE.SYSTEM>
0

>  <SCORE.SYSTEM.CONST>
0

>  <SCORE.SYSTEM.DIHEDRAL>
0

>  <SCORE.SYSTEM.SOLV>
0

>  <SCORE.SYSTEM.norm>
0

>  <SCORE.heavy>
11

>  <SCORE.norm>
-3.13544

>  <RMSD>
2.598

$$$$
1akx_lig
 OpenBabel11021811383D
libRbt.so/2013.1/901 2013/11/27
 11 10  0  0  0  0  0  0  0  0999 V2000
    0.1175   -4.9795    0.2528 N   0  0  0  0  0  0  0  0  0  0  0  0
   -0.9354   -3.9732    0.5796 C   0  0  2  0  0  0  0  0  0  0  0  0
   -1.7583   -4.4639    1.7775 C   0  0  0  0  0  0  0  0  0  0  0  0
   -2.6268   -3.7630    2.2577 O   0  0  0  0  0  0  0  0  0  0  0  0
   -1.8548   -3.7770   -0.6335 C   0  0  0  0  0  0  0  0  0  0  0  0
   -1.1565   -2.8956   -1.6741 C   0  0  0  0  0  0  0  0  0  0  0  0
   -2.0298   -2.7919   -2.9245 C   0  0  0  0  0  0  0  0  0  0  0  0
   -3.4058   -2.3722   -2.5336 N   0  0  0  0  0  0  0  0  0  0  0  0
   -4.4278   -2.6722   -3.2939 C   0  0  0  0  0  0  0  0  0  0  0  0
   -5.4400   -3.3407   -2.8040 N   0  0  0  0  0  0  0  0  0  0  0  0
   -4.4393   -2.2971   -4.5449 N   0  0  0  0  0  0  0  0  0  0  0  0
  2  1  1  6  0  0  0
  2  3  1  0  0  0  0
  2  5  1  0  0  0  0
  3  4  1  0  0  0  0
  5  6  1  0  0  0  0
  6  7  1  0  0  0  0
  7  8  1  0  0  0  0
  8  9  1  0  0  0  0
  9 10  1  0  0  0  0
  9 11  1  0  0  0  0
M  END
>  <CHROM.1>
-170.99370606,176.06252937,-77.25475418,175.65052453,51.96714210,-155.01575734
123.76007088,-137.48024818,-8.33299161,-2.55700304,-3.41036673,-1.22746232
-1.00194618,0.12679828,-1.30773571

>  <Name>
1akx_lig

>  <RI>
0

>  <Rbt.Current_Directory>
/home/itssahil/PROJECTS/Mol_Feturizer/New_Systems/rnas/1akx

>  <Rbt.Executable>
rbdock ($Id: //depot/dev/client3/rdock/2013.1/src/exe/rbdock.cxx#4 $)

>  <Rbt.Library>
libRbt.so (2013.1, Build901 2013/11/27)

>  <Rbt.Parameter_File>
/export/apps/rDock/src/rDock_2013.1_src/data/scripts/dock_solv.prm

>  <Rbt.Receptor>
prm/pocket_docking_3.prm

>  <SCORE>
-33.4322

>  <SCORE.INTER>
-26.2889

>  <SCORE.INTER.CONST>
1

>  <SCORE.INTER.POLAR>
-3.19043

>  <SCORE.INTER.ROT>
8

>  <SCORE.INTER.SOLV>
8.60346

>  <SCORE.INTER.VDW>
-18.6923

>  <SCORE.INTER.norm>
-2.3899

>  <SCORE.INTRA>
-7.16089

>  <SCORE.INTRA.DIHEDRAL>
-15.1539

>  <SCORE.INTRA.DIHEDRAL.0>
21.6454

>  <SCORE.INTRA.POLAR>
0

>  <SCORE.INTRA.POLAR.0>
0

>  <SCORE.INTRA.REPUL>
0

>  <SCORE.INTRA.REPUL.0>
0

>  <SCORE.INTRA.SOLV>
0.261595

>  <SCORE.INTRA.SOLV.lig_0>
-16.5947

>  <SCORE.INTRA.VDW>
0.285244

>  <SCORE.INTRA.VDW.0>
-0.691398

>  <SCORE.INTRA.norm>
-0.65099

>  <SCORE.RESTR>
0.0175045

>  <SCORE.RESTR.CAVITY>
0.0175045

>  <SCORE.RESTR.norm>
0.00159132

>  <SCORE.SYSTEM>
0

>  <SCORE.SYSTEM.CONST>
0

>  <SCORE.SYSTEM.DIHEDRAL>
0

>  <SCORE.SYSTEM.SOLV>
0

>  <SCORE.SYSTEM.norm>
0

>  <SCORE.heavy>
11

>  <SCORE.norm>
-3.03929

>  <RMSD>
2.622

$$$$
1akx_lig
 OpenBabel11021811383D
libRbt.so/2013.1/901 2013/11/27
 11 10  0  0  0  0  0  0  0  0999 V2000
   -2.2418   -1.6141    1.5456 N   0  0  0  0  0  0  0  0  0  0  0  0
   -1.6520   -2.9540    1.2544 C   0  0  2  0  0  0  0  0  0  0  0  0
   -1.1758   -3.5989    2.5620 C   0  0  0  0  0  0  0  0  0  0  0  0
   -1.9756   -3.9190    3.4188 O   0  0  0  0  0  0  0  0  0  0  0  0
   -0.4657   -2.7969    0.2935 C   0  0  0  0  0  0  0  0  0  0  0  0
   -0.9036   -3.1523   -1.1310 C   0  0  0  0  0  0  0  0  0  0  0  0
   -2.0392   -2.2244   -1.5629 C   0  0  0  0  0  0  0  0  0  0  0  0
   -2.3603   -2.4698   -2.9978 N   0  0  0  0  0  0  0  0  0  0  0  0
   -3.5857   -2.7513   -3.3605 C   0  0  0  0  0  0  0  0  0  0  0  0
   -4.0511   -2.3166   -4.5032 N   0  0  0  0  0  0  0  0  0  0  0  0
   -4.3443   -3.4744   -2.5811 N   0  0  0  0  0  0  0  0  0  0  0  0
  2  1  1  1  0  0  0
  2  3  1  0  0  0  0
  2  5  1  0  0  0  0
  3  4  1  0  0  0  0
  5  6  1  0  0  0  0
  6  7  1  0  0  0  0
  7  8  1  0  0  0  0
  8  9  1  0  0  0  0
  9 10  1  0  0  0  0
  9 11  1  0  0  0  0
M  END
>  <CHROM.1>
-171.97639543,65.97917217,-100.62382131,59.67976635,173.74917446,125.75314355
144.68655148,166.47540632,172.24915346,-2.29838669,-2.82739703,-0.63735721
1.23031380,0.21022503,1.73579005

>  <Name>
1akx_lig

>  <RI>
0

>  <Rbt.Current_Directory>
/home/itssahil/PROJECTS/Mol_Feturizer/New_Systems/rnas/1akx

>  <Rbt.Executable>
rbdock ($Id: //depot/dev/client3/rdock/2013.1/src/exe/rbdock.cxx#4 $)

>  <Rbt.Library>
libRbt.so (2013.1, Build901 2013/11/27)

>  <Rbt.Parameter_File>
/export/apps/rDock/src/rDock_2013.1_src/data/scripts/dock_solv.prm

>  <Rbt.Receptor>
prm/pocket_docking_6.prm

>  <SCORE>
-32.1516

>  <SCORE.INTER>
-27.5037

>  <SCORE.INTER.CONST>
1

>  <SCORE.INTER.POLAR>
-4.41996

>  <SCORE.INTER.ROT>
8

>  <SCORE.INTER.SOLV>
6.87327

>  <SCORE.INTER.VDW>
-14.8271

>  <SCORE.INTER.norm>
-2.50034

>  <SCORE.INTRA>
-4.64782

>  <SCORE.INTRA.DIHEDRAL>
-11.9185

>  <SCORE.INTRA.DIHEDRAL.0>
21.6454

>  <SCORE.INTRA.POLAR>
0

>  <SCORE.INTRA.POLAR.0>
0

>  <SCORE.INTRA.REPUL>
0

>  <SCORE.INTRA.REPUL.0>
0

>  <SCORE.INTRA.SOLV>
0.389242

>  <SCORE.INTRA.SOLV.lig_0>
-16.5947

>  <SCORE.INTRA.VDW>
1.11681

>  <SCORE.INTRA.VDW.0>
-0.691398

>  <SCORE.INTRA.norm>
-0.422529

>  <SCORE.RESTR>
0

>  <SCORE.RESTR.CAVITY>
0

>  <SCORE.RESTR.norm>
0

>  <SCORE.SYSTEM>
0

>  <SCORE.SYSTEM.CONST>
0

>  <SCORE.SYSTEM.DIHEDRAL>
0

>  <SCORE.SYSTEM.SOLV>
0

>  <SCORE.SYSTEM.norm>
0

>  <SCORE.heavy>
11

>  <SCORE.norm>
-2.92287

>  <RMSD>
2.653

$$$$
1akx_lig
 OpenBabel11021811383D
libRbt.so/2013.1/901 2013/11/27
 11 10  0  0  0  0  0  0  0  0999 V2000
   -3.7845   -3.7756    2.9124 N   0  0  0  0  0  0  0  0  0  0  0  0
   -4.5818   -4.3495    1.7885 C   0  0  2  0  0  0  0  0  0  0  0  0
   -4.0483   -5.7454    1.4430 C   0  0  0  0  0  0  0  0  0  0  0  0
   -2.8873   -5.8992    1.1194 O   0  0  0  0  0  0  0  0  0  0  0  0
   -4.4727   -3.4357    0.5603 C   0  0  0  0  0  0  0  0  0  0  0  0
   -5.6314   -3.7207   -0.4007 C   0  0  0  0  0  0  0  0  0  0  0  0
   -5.4196   -2.9448   -1.7006 C   0  0  0  0  0  0  0  0  0  0  0  0
   -4.2138   -3.4721   -2.4009 N   0  0  0  0  0  0  0  0  0  0  0  0
   -3.5177   -2.6953   -3.1911 C   0  0  0  0  0  0  0  0  0  0  0  0
   -3.9843   -2.3632   -4.3672 N   0  0  0  0  0  0  0  0  0  0  0  0
   -2.3554   -2.2450   -2.8007 N   0  0  0  0  0  0  0  0  0  0  0  0
  2  1  1  1  0  0  0
  2  3  1  0  0  0  0
  2  5  1  0  0  0  0
  3  4  1  0  0  0  0
  5  6  1  0  0  0  0
  6  7  1  0  0  0  0
  7  8  1  0  0  0  0
  8  9  1  0  0  0  0
  9 10  1  0  0  0  0
  9 11  1  0  0  0  0
M  END
>  <CHROM.1>
60.67056289,-57.98171410,-160.23128797,-172.60425120,65.95841533,-152.27547776
-73.66166881,-10.67259670,-6.33963277,-4.03181687,-3.68958239,-0.63303498
1.60818196,-0.29682209,1.97316215

>  <Name>
1akx_lig

>  <RI>
0

>  <Rbt.Current_Directory>
/home/itssahil/PROJECTS/Mol_Feturizer/New_Systems/rnas/1akx

>  <Rbt.Executable>
rbdock ($Id: //depot/dev/client3/rdock/2013.1/src/exe/rbdock.cxx#4 $)

>  <Rbt.Library>
libRbt.so (2013.1, Build901 2013/11/27)

>  <Rbt.Parameter_File>
/export/apps/rDock/src/rDock_2013.1_src/data/scripts/dock_solv.prm

>  <Rbt.Receptor>
prm/pocket_docking_3.prm

>  <SCORE>
-28.2268

>  <SCORE.INTER>
-20.9139

>  <SCORE.INTER.CONST>
1

>  <SCORE.INTER.POLAR>
-3.45451

>  <SCORE.INTER.ROT>
8

>  <SCORE.INTER.SOLV>
5.55328

>  <SCORE.INTER.VDW>
-13.212

>  <SCORE.INTER.norm>
-1.90126

>  <SCORE.INTRA>
-7.31299

>  <SCORE.INTRA.DIHEDRAL>
-15.034

>  <SCORE.INTRA.DIHEDRAL.0>
21.6454

>  <SCORE.INTRA.POLAR>
0

>  <SCORE.INTRA.POLAR.0>
0

>  <SCORE.INTRA.REPUL>
0

>  <SCORE.INTRA.REPUL.0>
0

>  <SCORE.INTRA.SOLV>
0.59228

>  <SCORE.INTRA.SOLV.lig_0>
-16.5947

>  <SCORE.INTRA.VDW>
-0.0921363

>  <SCORE.INTRA.VDW.0>
-0.691398

>  <SCORE.INTRA.norm>
-0.664817

>  <SCORE.RESTR>
0

>  <SCORE.RESTR.CAVITY>
0

>  <SCORE.RESTR.norm>
0

>  <SCORE.SYSTEM>
0

>  <SCORE.SYSTEM.CONST>
0

>  <SCORE.SYSTEM.DIHEDRAL>
0

>  <SCORE.SYSTEM.SOLV>
0

>  <SCORE.SYSTEM.norm>
0

>  <SCORE.heavy>
11

>  <SCORE.norm>
-2.56608

>  <RMSD>
2.700

$$$$
1akx_lig
 OpenBabel11021811383D
libRbt.so/2013.1/901 2013/11/27
 11 10  0  0  0  0  0  0  0  0999 V2000
   -1.7308   -1.3953    1.3615 N   0  0  0  0  0  0  0  0  0  0  0  0
   -2.3144   -2.6007    2.0207 C   0  0  2  0  0  0  0  0  0  0  0  0
   -1.2293   -3.3129    2.8381 C   0  0  0  0  0  0  0  0  0  0  0  0
   -0.6753   -2.7426    3.7568 O   0  0  0  0  0  0  0  0  0  0  0  0
   -2.8672   -3.5548    0.9532 C   0  0  0  0  0  0  0  0  0  0  0  0
   -4.0034   -2.8702    0.1866 C   0  0  0  0  0  0  0  0  0  0  0  0
   -4.2620   -3.6198   -1.1204 C   0  0  0  0  0  0  0  0  0  0  0  0
   -4.5413   -2.6381   -2.2069 N   0  0  0  0  0  0  0  0  0  0  0  0
   -3.6573   -2.4274   -3.1485 C   0  0  0  0  0  0  0  0  0  0  0  0
   -2.3883   -2.3205   -2.8492 N   0  0  0  0  0  0  0  0  0  0  0  0
   -4.0435   -2.3298   -4.3924 N   0  0  0  0  0  0  0  0  0  0  0  0
  2  1  1  6  0  0  0
  2  3  1  0  0  0  0
  2  5  1  0  0  0  0
  3  4  1  0  0  0  0
  5  6  1  0  0  0  0
  6  7  1  0  0  0  0
  7  8  1  0  0  0  0
  8  9  1  0  0  0  0
  9 10  1  0  0  0  0
  9 11  1  0  0  0  0
M  END
>  <CHROM.1>
62.47223531,61.07816795,-62.81402583,162.82387879,-140.59717006,108.21112794
-42.66669737,-157.31367377,146.39351989,-2.85037153,-2.66950576,-0.25688865
-1.12043795,-0.51167724,-1.30573429

>  <Name>
1akx_lig

>  <RI>
0

>  <Rbt.Current_Directory>
/home/itssahil/PROJECTS/Mol_Feturizer/New_Systems/rnas/1akx

>  <Rbt.Executable>
rbdock ($Id: //depot/dev/client3/rdock/2013.1/src/exe/rbdock.cxx#4 $)

>  <Rbt.Library>
libRbt.so (2013.1, Build901 2013/11/27)

>  <Rbt.Parameter_File>
/export/apps/rDock/src/rDock_2013.1_src/data/scripts/dock_solv.prm

>  <Rbt.Receptor>
prm/pocket_docking_4.prm

>  <SCORE>
-32.3337

>  <SCORE.INTER>
-26.797

>  <SCORE.INTER.CONST>
1

>  <SCORE.INTER.POLAR>
-4.43513

>  <SCORE.INTER.ROT>
8

>  <SCORE.INTER.SOLV>
6.7918

>  <SCORE.INTER.VDW>
-14.2782

>  <SCORE.INTER.norm>
-2.43609

>  <SCORE.INTRA>
-5.54141

>  <SCORE.INTRA.DIHEDRAL>
-11.5701

>  <SCORE.INTRA.DIHEDRAL.0>
21.6454

>  <SCORE.INTRA.POLAR>
0

>  <SCORE.INTRA.POLAR.0>
0

>  <SCORE.INTRA.REPUL>
0

>  <SCORE.INTRA.REPUL.0>
0

>  <SCORE.INTRA.SOLV>
0.468339

>  <SCORE.INTRA.SOLV.lig_0>
-16.5947

>  <SCORE.INTRA.VDW>
0.00947622

>  <SCORE.INTRA.VDW.0>
-0.691398

>  <SCORE.INTRA.norm>
-0.503765

>  <SCORE.RESTR>
0.00471429

>  <SCORE.RESTR.CAVITY>
0.00471429

>  <SCORE.RESTR.norm>
0.000428572

>  <SCORE.SYSTEM>
0

>  <SCORE.SYSTEM.CONST>
0

>  <SCORE.SYSTEM.DIHEDRAL>
0

>  <SCORE.SYSTEM.SOLV>
0

>  <SCORE.SYSTEM.norm>
0

>  <SCORE.heavy>
11

>  <SCORE.norm>
-2.93943

>  <RMSD>
2.702

$$$$
1akx_lig
 OpenBabel11021811383D
libRbt.so/2013.1/901 2013/11/27
 11 10  0  0  0  0  0  0  0  0999 V2000
   -1.4877   -7.5373    0.1825 N   0  0  0  0  0  0  0  0  0  0  0  0
   -2.0213   -6.5914   -0.8415 C   0  0  2  0  0  0  0  0  0  0  0  0
   -0.8589   -5.8269   -1.4873 C   0  0  0  0  0  0  0  0  0  0  0  0
   -1.0630   -5.0475   -2.3968 O   0  0  0  0  0  0  0  0  0  0  0  0
   -2.9849   -5.6002   -0.1747 C   0  0  0  0  0  0  0  0  0  0  0  0
   -3.7374   -4.8086   -1.2491 C   0  0  0  0  0  0  0  0  0  0  0  0
   -3.4514   -3.3166   -1.0786 C   0  0  0  0  0  0  0  0  0  0  0  0
   -4.0158   -2.5688   -2.2381 N   0  0  0  0  0  0  0  0  0  0  0  0
   -3.3843   -2.5547   -3.3842 C   0  0  0  0  0  0  0  0  0  0  0  0
   -2.0949   -2.7713   -3.4290 N   0  0  0  0  0  0  0  0  0  0  0  0
   -4.0456   -2.3298   -4.4879 N   0  0  0  0  0  0  0  0  0  0  0  0
  2  1  1  1  0  0  0
  2  3  1  0  0  0  0
  2  5  1  0  0  0  0
  3  4  1  0  0  0  0
  5  6  1  0  0  0  0
  6  7  1  0  0  0  0
  7  8  1  0  0  0  0
  8  9  1  0  0  0  0
  9 10  1  0  0  0  0
  9 11  1  0  0  0  0
M  END
>  <CHROM.1>
57.87416995,176.45683912,-169.13572786,-120.36824720,171.66796087,-78.37312869
-23.65007623,69.45950657,132.68742834,-2.62673710,-4.45606057,-1.89073467
1.16933082,-0.51836368,2.30999272

>  <Name>
1akx_lig

>  <RI>
0

>  <Rbt.Current_Directory>
/home/itssahil/PROJECTS/Mol_Feturizer/New_Systems/rnas/1akx

>  <Rbt.Executable>
rbdock ($Id: //depot/dev/client3/rdock/2013.1/src/exe/rbdock.cxx#4 $)

>  <Rbt.Library>
libRbt.so (2013.1, Build901 2013/11/27)

>  <Rbt.Parameter_File>
/export/apps/rDock/src/rDock_2013.1_src/data/scripts/dock_solv.prm

>  <Rbt.Receptor>
prm/pocket_docking_6.prm

>  <SCORE>
-32.6381

>  <SCORE.INTER>
-25.7969

>  <SCORE.INTER.CONST>
1

>  <SCORE.INTER.POLAR>
-4.02184

>  <SCORE.INTER.ROT>
8

>  <SCORE.INTER.SOLV>
7.79132

>  <SCORE.INTER.VDW>
-15.3222

>  <SCORE.INTER.norm>
-2.34517

>  <SCORE.INTRA>
-6.8412

>  <SCORE.INTRA.DIHEDRAL>
-9.94626

>  <SCORE.INTRA.DIHEDRAL.0>
21.6454

>  <SCORE.INTRA.POLAR>
-1

>  <SCORE.INTRA.POLAR.0>
0

>  <SCORE.INTRA.REPUL>
0.00565767

>  <SCORE.INTRA.REPUL.0>
0

>  <SCORE.INTRA.SOLV>
1.51159

>  <SCORE.INTRA.SOLV.lig_0>
-16.5947

>  <SCORE.INTRA.VDW>
0.747849

>  <SCORE.INTRA.VDW.0>
-0.691398

>  <SCORE.INTRA.norm>
-0.621927

>  <SCORE.RESTR>
0

>  <SCORE.RESTR.CAVITY>
0

>  <SCORE.RESTR.norm>
0

>  <SCORE.SYSTEM>
0

>  <SCORE.SYSTEM.CONST>
0

>  <SCORE.SYSTEM.DIHEDRAL>
0

>  <SCORE.SYSTEM.SOLV>
0

>  <SCORE.SYSTEM.norm>
0

>  <SCORE.heavy>
11

>  <SCORE.norm>
-2.9671

>  <RMSD>
2.705

$$$$
1akx_lig
 OpenBabel11021811383D
libRbt.so/2013.1/901 2013/11/27
 11 10  0  0  0  0  0  0  0  0999 V2000
   -3.7265   -7.0414   -0.4918 N   0  0  0  0  0  0  0  0  0  0  0  0
   -2.8541   -6.1037   -1.2585 C   0  0  2  0  0  0  0  0  0  0  0  0
   -1.4293   -6.6681   -1.3242 C   0  0  0  0  0  0  0  0  0  0  0  0
   -0.8358   -6.9642   -0.3062 O   0  0  0  0  0  0  0  0  0  0  0  0
   -2.8362   -4.7342   -0.5660 C   0  0  0  0  0  0  0  0  0  0  0  0
   -4.2431   -4.1279   -0.5830 C   0  0  0  0  0  0  0  0  0  0  0  0
   -4.5987   -3.7020   -2.0075 C   0  0  0  0  0  0  0  0  0  0  0  0
   -3.7143   -2.5760   -2.4226 N   0  0  0  0  0  0  0  0  0  0  0  0
   -3.4000   -2.4144   -3.6826 C   0  0  0  0  0  0  0  0  0  0  0  0
   -4.2624   -1.8907   -4.5152 N   0  0  0  0  0  0  0  0  0  0  0  0
   -2.2180   -2.7717   -4.1085 N   0  0  0  0  0  0  0  0  0  0  0  0
  2  1  1  1  0  0  0
  2  3  1  0  0  0  0
  2  5  1  0  0  0  0
  3  4  1  0  0  0  0
  5  6  1  0  0  0  0
  6  7  1  0  0  0  0
  7  8  1  0  0  0  0
  8  9  1  0  0  0  0
  9 10  1  0  0  0  0
  9 11  1  0  0  0  0
M  END
>  <CHROM.1>
-52.74058323,-54.87866266,-63.49694011,-71.11148586,-66.55440279,150.39584755
77.19138381,-88.44864781,-66.55959508,-3.09262359,-4.47064292,-1.94004911
1.27768085,-0.42011015,2.39072345

>  <Name>
1akx_lig

>  <RI>
0

>  <Rbt.Current_Directory>
/home/itssahil/PROJECTS/Mol_Feturizer/New_Systems/rnas/1akx

>  <Rbt.Executable>
rbdock ($Id: //depot/dev/client3/rdock/2013.1/src/exe/rbdock.cxx#4 $)

>  <Rbt.Library>
libRbt.so (2013.1, Build901 2013/11/27)

>  <Rbt.Parameter_File>
/export/apps/rDock/src/rDock_2013.1_src/data/scripts/dock_solv.prm

>  <Rbt.Receptor>
prm/pocket_docking_5.prm

>  <SCORE>
-30.5993

>  <SCORE.INTER>
-23.1433

>  <SCORE.INTER.CONST>
1

>  <SCORE.INTER.POLAR>
-3.66633

>  <SCORE.INTER.ROT>
8

>  <SCORE.INTER.SOLV>
7.86706

>  <SCORE.INTER.VDW>
-14.7635

>  <SCORE.INTER.norm>
-2.10394

>  <SCORE.INTRA>
-7.45597

>  <SCORE.INTRA.DIHEDRAL>
-15.9073

>  <SCORE.INTRA.DIHEDRAL.0>
21.6454

>  <SCORE.INTRA.POLAR>
0

>  <SCORE.INTRA.POLAR.0>
0

>  <SCORE.INTRA.REPUL>
0

>  <SCORE.INTRA.REPUL.0>
0

>  <SCORE.INTRA.SOLV>
0.763465

>  <SCORE.INTRA.SOLV.lig_0>
-16.5947

>  <SCORE.INTRA.VDW>
0.115938

>  <SCORE.INTRA.VDW.0>
-0.691398

>  <SCORE.INTRA.norm>
-0.677815

>  <SCORE.RESTR>
0

>  <SCORE.RESTR.CAVITY>
0

>  <SCORE.RESTR.norm>
0

>  <SCORE.SYSTEM>
0

>  <SCORE.SYSTEM.CONST>
0

>  <SCORE.SYSTEM.DIHEDRAL>
0

>  <SCORE.SYSTEM.SOLV>
0

>  <SCORE.SYSTEM.norm>
0

>  <SCORE.heavy>
11

>  <SCORE.norm>
-2.78175

>  <RMSD>
2.720

$$$$
1akx_lig
 OpenBabel11021811383D
libRbt.so/2013.1/901 2013/11/27
 11 10  0  0  0  0  0  0  0  0999 V2000
   -2.9640   -5.1417    1.5464 N   0  0  0  0  0  0  0  0  0  0  0  0
   -3.9473   -5.9988    0.8206 C   0  0  2  0  0  0  0  0  0  0  0  0
   -3.9934   -7.3875    1.4701 C   0  0  0  0  0  0  0  0  0  0  0  0
   -4.4506   -7.5313    2.5866 O   0  0  0  0  0  0  0  0  0  0  0  0
   -3.5295   -6.1296   -0.6504 C   0  0  0  0  0  0  0  0  0  0  0  0
   -4.3511   -5.1627   -1.5091 C   0  0  0  0  0  0  0  0  0  0  0  0
   -4.0144   -3.7229   -1.1214 C   0  0  0  0  0  0  0  0  0  0  0  0
   -4.4762   -2.7998   -2.1971 N   0  0  0  0  0  0  0  0  0  0  0  0
   -3.6492   -2.4140   -3.1350 C   0  0  0  0  0  0  0  0  0  0  0  0
   -4.0662   -2.2816   -4.3678 N   0  0  0  0  0  0  0  0  0  0  0  0
   -2.4043   -2.1541   -2.8371 N   0  0  0  0  0  0  0  0  0  0  0  0
  2  1  1  1  0  0  0
  2  3  1  0  0  0  0
  2  5  1  0  0  0  0
  3  4  1  0  0  0  0
  5  6  1  0  0  0  0
  6  7  1  0  0  0  0
  7  8  1  0  0  0  0
  8  9  1  0  0  0  0
  9 10  1  0  0  0  0
  9 11  1  0  0  0  0
M  END
>  <CHROM.1>
63.30853332,68.29403033,-99.75077046,64.91550890,163.03626471,-94.77836519
141.94935060,-28.79461835,162.47179800,-3.78423264,-4.58409871,-0.84109870
-1.63644970,-0.81490874,-0.89345414

>  <Name>
1akx_lig

>  <RI>
0

>  <Rbt.Current_Directory>
/home/afrankz/demos/rdock_decoys_rna/rnas/1akx

>  <Rbt.Executable>
rbdock ($Id: //depot/dev/client3/rdock/2013.1/src/exe/rbdock.cxx#4 $)

>  <Rbt.Library>
libRbt.so (2013.1, Build901 2013/11/27)

>  <Rbt.Parameter_File>
/export/apps/rDock/src/rDock_2013.1_src/data/scripts/dock_solv.prm

>  <Rbt.Receptor>
prm/pocket_docking_4.prm

>  <SCORE>
-24.0353

>  <SCORE.INTER>
-19.4219

>  <SCORE.INTER.CONST>
1

>  <SCORE.INTER.POLAR>
-3.45533

>  <SCORE.INTER.ROT>
8

>  <SCORE.INTER.SOLV>
6.07728

>  <SCORE.INTER.VDW>
-12.3893

>  <SCORE.INTER.norm>
-1.76563

>  <SCORE.INTRA>
-4.61336

>  <SCORE.INTRA.DIHEDRAL>
-11.0741

>  <SCORE.INTRA.DIHEDRAL.0>
21.6454

>  <SCORE.INTRA.POLAR>
0

>  <SCORE.INTRA.POLAR.0>
0

>  <SCORE.INTRA.REPUL>
0

>  <SCORE.INTRA.REPUL.0>
0

>  <SCORE.INTRA.SOLV>
0.440661

>  <SCORE.INTRA.SOLV.lig_0>
-16.5947

>  <SCORE.INTRA.VDW>
0.703334

>  <SCORE.INTRA.VDW.0>
-0.691398

>  <SCORE.INTRA.norm>
-0.419397

>  <SCORE.RESTR>
0

>  <SCORE.RESTR.CAVITY>
0

>  <SCORE.RESTR.norm>
0

>  <SCORE.SYSTEM>
0

>  <SCORE.SYSTEM.CONST>
0

>  <SCORE.SYSTEM.DIHEDRAL>
0

>  <SCORE.SYSTEM.SOLV>
0

>  <SCORE.SYSTEM.norm>
0

>  <SCORE.heavy>
11

>  <SCORE.norm>
-2.18503

>  <RMSD>
2.736

>  <RMSD>
2.736

$$$$
1akx_lig
 OpenBabel11021811383D
libRbt.so/2013.1/901 2013/11/27
 11 10  0  0  0  0  0  0  0  0999 V2000
   -2.9640   -5.1417    1.5464 N   0  0  0  0  0  0  0  0  0  0  0  0
   -3.9473   -5.9988    0.8206 C   0  0  2  0  0  0  0  0  0  0  0  0
   -3.9934   -7.3875    1.4701 C   0  0  0  0  0  0  0  0  0  0  0  0
   -4.4506   -7.5313    2.5866 O   0  0  0  0  0  0  0  0  0  0  0  0
   -3.5295   -6.1296   -0.6504 C   0  0  0  0  0  0  0  0  0  0  0  0
   -4.3511   -5.1627   -1.5091 C   0  0  0  0  0  0  0  0  0  0  0  0
   -4.0144   -3.7229   -1.1214 C   0  0  0  0  0  0  0  0  0  0  0  0
   -4.4762   -2.7998   -2.1971 N   0  0  0  0  0  0  0  0  0  0  0  0
   -3.6492   -2.4140   -3.1350 C   0  0  0  0  0  0  0  0  0  0  0  0
   -4.0662   -2.2816   -4.3678 N   0  0  0  0  0  0  0  0  0  0  0  0
   -2.4043   -2.1541   -2.8371 N   0  0  0  0  0  0  0  0  0  0  0  0
  2  1  1  1  0  0  0
  2  3  1  0  0  0  0
  2  5  1  0  0  0  0
  3  4  1  0  0  0  0
  5  6  1  0  0  0  0
  6  7  1  0  0  0  0
  7  8  1  0  0  0  0
  8  9  1  0  0  0  0
  9 10  1  0  0  0  0
  9 11  1  0  0  0  0
M  END
>  <CHROM.1>
63.30853332,68.29403033,-99.75077046,64.91550890,163.03626471,-94.77836519
141.94935060,-28.79461835,162.47179800,-3.78423264,-4.58409871,-0.84109870
-1.63644970,-0.81490874,-0.89345414

>  <Name>
1akx_lig

>  <RI>
0

>  <Rbt.Current_Directory>
/home/afrankz/demos/rdock_decoys_rna/rnas/1akx

>  <Rbt.Executable>
rbdock ($Id: //depot/dev/client3/rdock/2013.1/src/exe/rbdock.cxx#4 $)

>  <Rbt.Library>
libRbt.so (2013.1, Build901 2013/11/27)

>  <Rbt.Parameter_File>
/export/apps/rDock/src/rDock_2013.1_src/data/scripts/dock_solv.prm

>  <Rbt.Receptor>
prm/pocket_docking_4.prm

>  <SCORE>
-24.0353

>  <SCORE.INTER>
-19.4219

>  <SCORE.INTER.CONST>
1

>  <SCORE.INTER.POLAR>
-3.45533

>  <SCORE.INTER.ROT>
8

>  <SCORE.INTER.SOLV>
6.07728

>  <SCORE.INTER.VDW>
-12.3893

>  <SCORE.INTER.norm>
-1.76563

>  <SCORE.INTRA>
-4.61336

>  <SCORE.INTRA.DIHEDRAL>
-11.0741

>  <SCORE.INTRA.DIHEDRAL.0>
21.6454

>  <SCORE.INTRA.POLAR>
0

>  <SCORE.INTRA.POLAR.0>
0

>  <SCORE.INTRA.REPUL>
0

>  <SCORE.INTRA.REPUL.0>
0

>  <SCORE.INTRA.SOLV>
0.440661

>  <SCORE.INTRA.SOLV.lig_0>
-16.5947

>  <SCORE.INTRA.VDW>
0.703334

>  <SCORE.INTRA.VDW.0>
-0.691398

>  <SCORE.INTRA.norm>
-0.419397

>  <SCORE.RESTR>
0

>  <SCORE.RESTR.CAVITY>
0

>  <SCORE.RESTR.norm>
0

>  <SCORE.SYSTEM>
0

>  <SCORE.SYSTEM.CONST>
0

>  <SCORE.SYSTEM.DIHEDRAL>
0

>  <SCORE.SYSTEM.SOLV>
0

>  <SCORE.SYSTEM.norm>
0

>  <SCORE.heavy>
11

>  <SCORE.norm>
-2.18503

>  <RMSD>
2.736

>  <RMSD>
2.736

$$$$
1akx_lig
 OpenBabel11021811383D
libRbt.so/2013.1/901 2013/11/27
 11 10  0  0  0  0  0  0  0  0999 V2000
    0.0802   -4.2099    0.4995 N   0  0  0  0  0  0  0  0  0  0  0  0
   -0.4791   -2.8722    0.1445 C   0  0  2  0  0  0  0  0  0  0  0  0
    0.4528   -1.7723    0.6686 C   0  0  0  0  0  0  0  0  0  0  0  0
    0.7992   -1.7606    1.8331 O   0  0  0  0  0  0  0  0  0  0  0  0
   -1.8707   -2.7127    0.7716 C   0  0  0  0  0  0  0  0  0  0  0  0
   -2.7781   -3.8596    0.3147 C   0  0  0  0  0  0  0  0  0  0  0  0
   -2.7195   -3.9818   -1.2080 C   0  0  0  0  0  0  0  0  0  0  0  0
   -3.3342   -2.7722   -1.8256 N   0  0  0  0  0  0  0  0  0  0  0  0
   -3.6314   -2.7611   -3.0999 C   0  0  0  0  0  0  0  0  0  0  0  0
   -4.8685   -2.9317   -3.4897 N   0  0  0  0  0  0  0  0  0  0  0  0
   -2.6898   -2.5727   -3.9853 N   0  0  0  0  0  0  0  0  0  0  0  0
  2  1  1  1  0  0  0
  2  3  1  0  0  0  0
  2  5  1  0  0  0  0
  3  4  1  0  0  0  0
  5  6  1  0  0  0  0
  6  7  1  0  0  0  0
  7  8  1  0  0  0  0
  8  9  1  0  0  0  0
  9 10  1  0  0  0  0
  9 11  1  0  0  0  0
M  END
>  <CHROM.1>
179.41205746,-52.41010699,-56.35415150,-50.63358091,-66.77597048,-166.82636632
101.88402127,-173.61894100,-125.25865164,-1.89565046,-2.93433817,-0.86492896
0.66686750,0.52428875,2.06735254

>  <Name>
1akx_lig

>  <RI>
0

>  <Rbt.Current_Directory>
/home/itssahil/PROJECTS/Mol_Feturizer/New_Systems/rnas/1akx

>  <Rbt.Executable>
rbdock ($Id: //depot/dev/client3/rdock/2013.1/src/exe/rbdock.cxx#4 $)

>  <Rbt.Library>
libRbt.so (2013.1, Build901 2013/11/27)

>  <Rbt.Parameter_File>
/export/apps/rDock/src/rDock_2013.1_src/data/scripts/dock_solv.prm

>  <Rbt.Receptor>
prm/pocket_docking_5.prm

>  <SCORE>
-27.4883

>  <SCORE.INTER>
-21.756

>  <SCORE.INTER.CONST>
1

>  <SCORE.INTER.POLAR>
-3.20698

>  <SCORE.INTER.ROT>
8

>  <SCORE.INTER.SOLV>
7.16728

>  <SCORE.INTER.VDW>
-15.1365

>  <SCORE.INTER.norm>
-1.97781

>  <SCORE.INTRA>
-5.73236

>  <SCORE.INTRA.DIHEDRAL>
-16.0547

>  <SCORE.INTRA.DIHEDRAL.0>
21.6454

>  <SCORE.INTRA.POLAR>
0

>  <SCORE.INTRA.POLAR.0>
0

>  <SCORE.INTRA.REPUL>
0

>  <SCORE.INTRA.REPUL.0>
0

>  <SCORE.INTRA.SOLV>
0.803179

>  <SCORE.INTRA.SOLV.lig_0>
-16.5947

>  <SCORE.INTRA.VDW>
1.89338

>  <SCORE.INTRA.VDW.0>
-0.691398

>  <SCORE.INTRA.norm>
-0.521123

>  <SCORE.RESTR>
0

>  <SCORE.RESTR.CAVITY>
0

>  <SCORE.RESTR.norm>
0

>  <SCORE.SYSTEM>
0

>  <SCORE.SYSTEM.CONST>
0

>  <SCORE.SYSTEM.DIHEDRAL>
0

>  <SCORE.SYSTEM.SOLV>
0

>  <SCORE.SYSTEM.norm>
0

>  <SCORE.heavy>
11

>  <SCORE.norm>
-2.49894

>  <RMSD>
2.761

$$$$
1akx_lig
 OpenBabel11021811383D
libRbt.so/2013.1/901 2013/11/27
 11 10  0  0  0  0  0  0  0  0999 V2000
    0.3460   -4.4320    0.6169 N   0  0  0  0  0  0  0  0  0  0  0  0
   -0.7221   -3.9672   -0.3166 C   0  0  2  0  0  0  0  0  0  0  0  0
   -0.5638   -2.4622   -0.5668 C   0  0  0  0  0  0  0  0  0  0  0  0
   -0.6557   -1.6714    0.3510 O   0  0  0  0  0  0  0  0  0  0  0  0
   -2.1005   -4.2470    0.2975 C   0  0  0  0  0  0  0  0  0  0  0  0
   -3.1538   -4.3284   -0.8121 C   0  0  0  0  0  0  0  0  0  0  0  0
   -3.5345   -2.9171   -1.2596 C   0  0  0  0  0  0  0  0  0  0  0  0
   -4.3056   -2.9928   -2.5331 N   0  0  0  0  0  0  0  0  0  0  0  0
   -3.7603   -2.6064   -3.6582 C   0  0  0  0  0  0  0  0  0  0  0  0
   -4.4578   -1.9217   -4.5277 N   0  0  0  0  0  0  0  0  0  0  0  0
   -2.5129   -2.9003   -3.9104 N   0  0  0  0  0  0  0  0  0  0  0  0
  2  1  1  1  0  0  0
  2  3  1  0  0  0  0
  2  5  1  0  0  0  0
  3  4  1  0  0  0  0
  5  6  1  0  0  0  0
  6  7  1  0  0  0  0
  7  8  1  0  0  0  0
  8  9  1  0  0  0  0
  9 10  1  0  0  0  0
  9 11  1  0  0  0  0
M  END
>  <CHROM.1>
-175.93063797,-61.70237945,-156.80073065,-78.65732587,166.95118261,-108.10467729
-139.00759721,-73.66103383,7.92049195,-2.28203591,-3.11959549,-1.49104844
0.76296048,0.47935263,2.27736483

>  <Name>
1akx_lig

>  <RI>
0

>  <Rbt.Current_Directory>
/home/itssahil/PROJECTS/Mol_Feturizer/New_Systems/rnas/1akx

>  <Rbt.Executable>
rbdock ($Id: //depot/dev/client3/rdock/2013.1/src/exe/rbdock.cxx#4 $)

>  <Rbt.Library>
libRbt.so (2013.1, Build901 2013/11/27)

>  <Rbt.Parameter_File>
/export/apps/rDock/src/rDock_2013.1_src/data/scripts/dock_solv.prm

>  <Rbt.Receptor>
prm/pocket_docking_6.prm

>  <SCORE>
-31.9752

>  <SCORE.INTER>
-26.7678

>  <SCORE.INTER.CONST>
1

>  <SCORE.INTER.POLAR>
-3.95629

>  <SCORE.INTER.ROT>
8

>  <SCORE.INTER.SOLV>
8.88932

>  <SCORE.INTER.VDW>
-16.554

>  <SCORE.INTER.norm>
-2.43343

>  <SCORE.INTRA>
-5.2109

>  <SCORE.INTRA.DIHEDRAL>
-12.9119

>  <SCORE.INTRA.DIHEDRAL.0>
21.6454

>  <SCORE.INTRA.POLAR>
0

>  <SCORE.INTRA.POLAR.0>
0

>  <SCORE.INTRA.REPUL>
0

>  <SCORE.INTRA.REPUL.0>
0

>  <SCORE.INTRA.SOLV>
0.946106

>  <SCORE.INTRA.SOLV.lig_0>
-16.5947

>  <SCORE.INTRA.VDW>
0.77199

>  <SCORE.INTRA.VDW.0>
-0.691398

>  <SCORE.INTRA.norm>
-0.473719

>  <SCORE.RESTR>
0.00348691

>  <SCORE.RESTR.CAVITY>
0.00348691

>  <SCORE.RESTR.norm>
0.000316992

>  <SCORE.SYSTEM>
0

>  <SCORE.SYSTEM.CONST>
0

>  <SCORE.SYSTEM.DIHEDRAL>
0

>  <SCORE.SYSTEM.SOLV>
0

>  <SCORE.SYSTEM.norm>
0

>  <SCORE.heavy>
11

>  <SCORE.norm>
-2.90684

>  <RMSD>
2.861

$$$$
1akx_lig
 OpenBabel11021811383D
libRbt.so/2013.1/901 2013/11/27
 11 10  0  0  0  0  0  0  0  0999 V2000
   -2.3055   -1.8400    1.1514 N   0  0  0  0  0  0  0  0  0  0  0  0
   -1.8673   -3.2052    0.7363 C   0  0  2  0  0  0  0  0  0  0  0  0
   -1.2238   -3.1355   -0.6543 C   0  0  0  0  0  0  0  0  0  0  0  0
   -0.3130   -2.3621   -0.8743 O   0  0  0  0  0  0  0  0  0  0  0  0
   -3.0793   -4.1460    0.6985 C   0  0  0  0  0  0  0  0  0  0  0  0
   -4.2206   -3.4874   -0.0832 C   0  0  0  0  0  0  0  0  0  0  0  0
   -4.0958   -3.8415   -1.5651 C   0  0  0  0  0  0  0  0  0  0  0  0
   -4.2612   -2.6072   -2.3844 N   0  0  0  0  0  0  0  0  0  0  0  0
   -3.5826   -2.4557   -3.4930 C   0  0  0  0  0  0  0  0  0  0  0  0
   -4.1592   -1.9565   -4.5558 N   0  0  0  0  0  0  0  0  0  0  0  0
   -2.3230   -2.7987   -3.5360 N   0  0  0  0  0  0  0  0  0  0  0  0
  2  1  1  6  0  0  0
  2  3  1  0  0  0  0
  2  5  1  0  0  0  0
  3  4  1  0  0  0  0
  5  6  1  0  0  0  0
  6  7  1  0  0  0  0
  7  8  1  0  0  0  0
  8  9  1  0  0  0  0
  9 10  1  0  0  0  0
  9 11  1  0  0  0  0
M  END
>  <CHROM.1>
-74.85816647,53.66697196,48.87868472,89.26673293,-133.14762623,145.25168253
138.35501416,90.13826598,68.89995911,-2.83835857,-2.84349505,-1.34677133
1.18087061,0.24864530,1.78520491

>  <Name>
1akx_lig

>  <RI>
0

>  <Rbt.Current_Directory>
/home/itssahil/PROJECTS/Mol_Feturizer/New_Systems/rnas/1akx

>  <Rbt.Executable>
rbdock ($Id: //depot/dev/client3/rdock/2013.1/src/exe/rbdock.cxx#4 $)

>  <Rbt.Library>
libRbt.so (2013.1, Build901 2013/11/27)

>  <Rbt.Parameter_File>
/export/apps/rDock/src/rDock_2013.1_src/data/scripts/dock_solv.prm

>  <Rbt.Receptor>
prm/pocket_docking_3.prm

>  <SCORE>
-28.2893

>  <SCORE.INTER>
-26.4148

>  <SCORE.INTER.CONST>
1

>  <SCORE.INTER.POLAR>
-3.93252

>  <SCORE.INTER.ROT>
8

>  <SCORE.INTER.SOLV>
8.30454

>  <SCORE.INTER.VDW>
-16.2029

>  <SCORE.INTER.norm>
-2.40134

>  <SCORE.INTRA>
-1.89108

>  <SCORE.INTRA.DIHEDRAL>
-7.86368

>  <SCORE.INTRA.DIHEDRAL.0>
21.6454

>  <SCORE.INTRA.POLAR>
0

>  <SCORE.INTRA.POLAR.0>
0

>  <SCORE.INTRA.REPUL>
0

>  <SCORE.INTRA.REPUL.0>
0

>  <SCORE.INTRA.SOLV>
1.65192

>  <SCORE.INTRA.SOLV.lig_0>
-16.5947

>  <SCORE.INTRA.VDW>
1.2148

>  <SCORE.INTRA.VDW.0>
-0.691398

>  <SCORE.INTRA.norm>
-0.171917

>  <SCORE.RESTR>
0.0165835

>  <SCORE.RESTR.CAVITY>
0.0165835

>  <SCORE.RESTR.norm>
0.00150759

>  <SCORE.SYSTEM>
0

>  <SCORE.SYSTEM.CONST>
0

>  <SCORE.SYSTEM.DIHEDRAL>
0

>  <SCORE.SYSTEM.SOLV>
0

>  <SCORE.SYSTEM.norm>
0

>  <SCORE.heavy>
11

>  <SCORE.norm>
-2.57175

>  <RMSD>
2.866

$$$$
1akx_lig
 OpenBabel11021811383D
libRbt.so/2013.1/901 2013/11/27
 11 10  0  0  0  0  0  0  0  0999 V2000
   -4.0405   -3.2161    2.5597 N   0  0  0  0  0  0  0  0  0  0  0  0
   -4.3515   -3.8951    1.2672 C   0  0  2  0  0  0  0  0  0  0  0  0
   -3.0454   -4.2090    0.5267 C   0  0  0  0  0  0  0  0  0  0  0  0
   -2.1859   -4.8876    1.0529 O   0  0  0  0  0  0  0  0  0  0  0  0
   -5.2288   -2.9797    0.4025 C   0  0  0  0  0  0  0  0  0  0  0  0
   -5.9017   -3.8012   -0.7018 C   0  0  0  0  0  0  0  0  0  0  0  0
   -4.9442   -3.9487   -1.8843 C   0  0  0  0  0  0  0  0  0  0  0  0
   -4.6421   -2.6019   -2.4475 N   0  0  0  0  0  0  0  0  0  0  0  0
   -3.6471   -2.4444   -3.2827 C   0  0  0  0  0  0  0  0  0  0  0  0
   -3.8517   -2.5171   -4.5728 N   0  0  0  0  0  0  0  0  0  0  0  0
   -2.4465   -2.2075   -2.8261 N   0  0  0  0  0  0  0  0  0  0  0  0
  2  1  1  1  0  0  0
  2  3  1  0  0  0  0
  2  5  1  0  0  0  0
  3  4  1  0  0  0  0
  5  6  1  0  0  0  0
  6  7  1  0  0  0  0
  7  8  1  0  0  0  0
  8  9  1  0  0  0  0
  9 10  1  0  0  0  0
  9 11  1  0  0  0  0
M  END
>  <CHROM.1>
-179.65917864,57.38568377,-162.62037179,-84.01163357,-62.38596250,166.15527232
92.82114535,171.34708986,-164.08500675,-3.98365555,-3.31881907,-0.88642798
1.57204654,-0.09347015,1.82638152

>  <Name>
1akx_lig

>  <RI>
0

>  <Rbt.Current_Directory>
/home/itssahil/PROJECTS/Mol_Feturizer/New_Systems/rnas/1akx

>  <Rbt.Executable>
rbdock ($Id: //depot/dev/client3/rdock/2013.1/src/exe/rbdock.cxx#4 $)

>  <Rbt.Library>
libRbt.so (2013.1, Build901 2013/11/27)

>  <Rbt.Parameter_File>
/export/apps/rDock/src/rDock_2013.1_src/data/scripts/dock_solv.prm

>  <Rbt.Receptor>
prm/pocket_docking_3.prm

>  <SCORE>
-28.621

>  <SCORE.INTER>
-22.7739

>  <SCORE.INTER.CONST>
1

>  <SCORE.INTER.POLAR>
-3.45533

>  <SCORE.INTER.ROT>
8

>  <SCORE.INTER.SOLV>
6.33813

>  <SCORE.INTER.VDW>
-14.7109

>  <SCORE.INTER.norm>
-2.07036

>  <SCORE.INTRA>
-5.84706

>  <SCORE.INTRA.DIHEDRAL>
-13.5505

>  <SCORE.INTRA.DIHEDRAL.0>
21.6454

>  <SCORE.INTRA.POLAR>
0

>  <SCORE.INTRA.POLAR.0>
0

>  <SCORE.INTRA.REPUL>
0

>  <SCORE.INTRA.REPUL.0>
0

>  <SCORE.INTRA.SOLV>
0.82684

>  <SCORE.INTRA.SOLV.lig_0>
-16.5947

>  <SCORE.INTRA.VDW>
0.514771

>  <SCORE.INTRA.VDW.0>
-0.691398

>  <SCORE.INTRA.norm>
-0.531551

>  <SCORE.RESTR>
0

>  <SCORE.RESTR.CAVITY>
0

>  <SCORE.RESTR.norm>
0

>  <SCORE.SYSTEM>
0

>  <SCORE.SYSTEM.CONST>
0

>  <SCORE.SYSTEM.DIHEDRAL>
0

>  <SCORE.SYSTEM.SOLV>
0

>  <SCORE.SYSTEM.norm>
0

>  <SCORE.heavy>
11

>  <SCORE.norm>
-2.60191

>  <RMSD>
2.869

$$$$
1akx_lig
 OpenBabel11021811383D
libRbt.so/2013.1/901 2013/11/27
 11 10  0  0  0  0  0  0  0  0999 V2000
   -0.4264   -4.6477   -0.4745 N   0  0  0  0  0  0  0  0  0  0  0  0
   -1.5901   -3.7241   -0.3303 C   0  0  2  0  0  0  0  0  0  0  0  0
   -1.4114   -2.8684    0.9301 C   0  0  0  0  0  0  0  0  0  0  0  0
   -0.4815   -2.0917    1.0215 O   0  0  0  0  0  0  0  0  0  0  0  0
   -2.8852   -4.5403   -0.2216 C   0  0  0  0  0  0  0  0  0  0  0  0
   -4.0951   -3.6049   -0.3139 C   0  0  0  0  0  0  0  0  0  0  0  0
   -4.4286   -3.3446   -1.7829 C   0  0  0  0  0  0  0  0  0  0  0  0
   -3.4109   -2.4245   -2.3659 N   0  0  0  0  0  0  0  0  0  0  0  0
   -3.2082   -2.3994   -3.6585 C   0  0  0  0  0  0  0  0  0  0  0  0
   -2.0625   -2.7914   -4.1537 N   0  0  0  0  0  0  0  0  0  0  0  0
   -4.1559   -1.9871   -4.4571 N   0  0  0  0  0  0  0  0  0  0  0  0
  2  1  1  1  0  0  0
  2  3  1  0  0  0  0
  2  5  1  0  0  0  0
  3  4  1  0  0  0  0
  5  6  1  0  0  0  0
  6  7  1  0  0  0  0
  7  8  1  0  0  0  0
  8  9  1  0  0  0  0
  9 10  1  0  0  0  0
  9 11  1  0  0  0  0
M  END
>  <CHROM.1>
-49.46947342,63.42935705,-170.41050975,84.35426771,-73.69133512,157.24259507
-114.30054105,118.77498887,-97.00406917,-2.50637753,-3.12355302,-1.46169182
-1.05755352,-0.09304843,-1.29280031

>  <Name>
1akx_lig

>  <RI>
0

>  <Rbt.Current_Directory>
/home/itssahil/PROJECTS/Mol_Feturizer/New_Systems/rnas/1akx

>  <Rbt.Executable>
rbdock ($Id: //depot/dev/client3/rdock/2013.1/src/exe/rbdock.cxx#4 $)

>  <Rbt.Library>
libRbt.so (2013.1, Build901 2013/11/27)

>  <Rbt.Parameter_File>
/export/apps/rDock/src/rDock_2013.1_src/data/scripts/dock_solv.prm

>  <Rbt.Receptor>
prm/pocket_docking_7.prm

>  <SCORE>
-30.8307

>  <SCORE.INTER>
-24.6992

>  <SCORE.INTER.CONST>
1

>  <SCORE.INTER.POLAR>
-3.64772

>  <SCORE.INTER.ROT>
8

>  <SCORE.INTER.SOLV>
8.63406

>  <SCORE.INTER.VDW>
-16.1184

>  <SCORE.INTER.norm>
-2.24538

>  <SCORE.INTRA>
-6.13146

>  <SCORE.INTRA.DIHEDRAL>
-13.3245

>  <SCORE.INTRA.DIHEDRAL.0>
21.6454

>  <SCORE.INTRA.POLAR>
0

>  <SCORE.INTRA.POLAR.0>
0

>  <SCORE.INTRA.REPUL>
0

>  <SCORE.INTRA.REPUL.0>
0

>  <SCORE.INTRA.SOLV>
0.908431

>  <SCORE.INTRA.SOLV.lig_0>
-16.5947

>  <SCORE.INTRA.VDW>
0.0765529

>  <SCORE.INTRA.VDW.0>
-0.691398

>  <SCORE.INTRA.norm>
-0.557406

>  <SCORE.RESTR>
0

>  <SCORE.RESTR.CAVITY>
0

>  <SCORE.RESTR.norm>
0

>  <SCORE.SYSTEM>
0

>  <SCORE.SYSTEM.CONST>
0

>  <SCORE.SYSTEM.DIHEDRAL>
0

>  <SCORE.SYSTEM.SOLV>
0

>  <SCORE.SYSTEM.norm>
0

>  <SCORE.heavy>
11

>  <SCORE.norm>
-2.80279

>  <RMSD>
2.869

$$$$
1akx_lig
 OpenBabel11021811383D
libRbt.so/2013.1/901 2013/11/27
 11 10  0  0  0  0  0  0  0  0999 V2000
   -2.4026   -2.1051    0.8098 N   0  0  0  0  0  0  0  0  0  0  0  0
   -2.4360   -3.4033    0.0737 C   0  0  2  0  0  0  0  0  0  0  0  0
   -2.6154   -4.5536    1.0724 C   0  0  0  0  0  0  0  0  0  0  0  0
   -3.6203   -4.6299    1.7511 O   0  0  0  0  0  0  0  0  0  0  0  0
   -1.1240   -3.5906   -0.7002 C   0  0  0  0  0  0  0  0  0  0  0  0
   -1.0005   -2.5085   -1.7778 C   0  0  0  0  0  0  0  0  0  0  0  0
   -1.9779   -2.8060   -2.9149 C   0  0  0  0  0  0  0  0  0  0  0  0
   -3.3517   -2.3958   -2.5066 N   0  0  0  0  0  0  0  0  0  0  0  0
   -4.3827   -2.7164   -3.2460 C   0  0  0  0  0  0  0  0  0  0  0  0
   -5.3770   -3.3938   -2.7323 N   0  0  0  0  0  0  0  0  0  0  0  0
   -4.4215   -2.3528   -4.4999 N   0  0  0  0  0  0  0  0  0  0  0  0
  2  1  1  1  0  0  0
  2  3  1  0  0  0  0
  2  5  1  0  0  0  0
  3  4  1  0  0  0  0
  5  6  1  0  0  0  0
  6  7  1  0  0  0  0
  7  8  1  0  0  0  0
  8  9  1  0  0  0  0
  9 10  1  0  0  0  0
  9 11  1  0  0  0  0
M  END
>  <CHROM.1>
-42.39014637,62.76517797,-64.45002822,-72.92270595,78.09034435,-170.86338536
123.47631020,-127.29262199,-5.82446487,-3.02070426,-3.11428492,-1.31184950
-1.22543474,-0.26084667,-1.23415396

>  <Name>
1akx_lig

>  <RI>
0

>  <Rbt.Current_Directory>
/home/itssahil/PROJECTS/Mol_Feturizer/New_Systems/rnas/1akx

>  <Rbt.Executable>
rbdock ($Id: //depot/dev/client3/rdock/2013.1/src/exe/rbdock.cxx#4 $)

>  <Rbt.Library>
libRbt.so (2013.1, Build901 2013/11/27)

>  <Rbt.Parameter_File>
/export/apps/rDock/src/rDock_2013.1_src/data/scripts/dock_solv.prm

>  <Rbt.Receptor>
prm/pocket_docking_4.prm

>  <SCORE>
-32.5532

>  <SCORE.INTER>
-26.2375

>  <SCORE.INTER.CONST>
1

>  <SCORE.INTER.POLAR>
-3.18767

>  <SCORE.INTER.ROT>
8

>  <SCORE.INTER.SOLV>
7.66946

>  <SCORE.INTER.VDW>
-18.3559

>  <SCORE.INTER.norm>
-2.38523

>  <SCORE.INTRA>
-6.31572

>  <SCORE.INTRA.DIHEDRAL>
-14.2063

>  <SCORE.INTRA.DIHEDRAL.0>
21.6454

>  <SCORE.INTRA.POLAR>
0

>  <SCORE.INTRA.POLAR.0>
0

>  <SCORE.INTRA.REPUL>
0

>  <SCORE.INTRA.REPUL.0>
0

>  <SCORE.INTRA.SOLV>
1.19908

>  <SCORE.INTRA.SOLV.lig_0>
-16.5947

>  <SCORE.INTRA.VDW>
0.187913

>  <SCORE.INTRA.VDW.0>
-0.691398

>  <SCORE.INTRA.norm>
-0.574156

>  <SCORE.RESTR>
0

>  <SCORE.RESTR.CAVITY>
0

>  <SCORE.RESTR.norm>
0

>  <SCORE.SYSTEM>
0

>  <SCORE.SYSTEM.CONST>
0

>  <SCORE.SYSTEM.DIHEDRAL>
0

>  <SCORE.SYSTEM.SOLV>
0

>  <SCORE.SYSTEM.norm>
0

>  <SCORE.heavy>
11

>  <SCORE.norm>
-2.95938

>  <RMSD>
2.891

$$$$
1akx_lig
 OpenBabel11021811383D
libRbt.so/2013.1/901 2013/11/27
 11 10  0  0  0  0  0  0  0  0999 V2000
   -3.9775   -2.5165    2.5955 N   0  0  0  0  0  0  0  0  0  0  0  0
   -3.8914   -3.4315    1.4193 C   0  0  2  0  0  0  0  0  0  0  0  0
   -2.4879   -3.3468    0.8064 C   0  0  0  0  0  0  0  0  0  0  0  0
   -1.5110   -3.6623    1.4564 O   0  0  0  0  0  0  0  0  0  0  0  0
   -4.9379   -3.0251    0.3728 C   0  0  0  0  0  0  0  0  0  0  0  0
   -5.0431   -4.1117   -0.7021 C   0  0  0  0  0  0  0  0  0  0  0  0
   -5.2007   -3.4585   -2.0752 C   0  0  0  0  0  0  0  0  0  0  0  0
   -3.9887   -2.6452   -2.3785 N   0  0  0  0  0  0  0  0  0  0  0  0
   -3.5970   -2.4819   -3.6163 C   0  0  0  0  0  0  0  0  0  0  0  0
   -4.3861   -1.9068   -4.4870 N   0  0  0  0  0  0  0  0  0  0  0  0
   -2.4110   -2.8892   -3.9817 N   0  0  0  0  0  0  0  0  0  0  0  0
  2  1  1  1  0  0  0
  2  3  1  0  0  0  0
  2  5  1  0  0  0  0
  3  4  1  0  0  0  0
  5  6  1  0  0  0  0
  6  7  1  0  0  0  0
  7  8  1  0  0  0  0
  8  9  1  0  0  0  0
  9 10  1  0  0  0  0
  9 11  1  0  0  0  0
M  END
>  <CHROM.1>
57.69171405,61.67214852,-168.98535174,-140.35631341,62.46849655,149.88639257
60.35059614,-85.62857677,-162.17661205,-3.73095218,-3.01640907,-0.95109149
1.48306151,-0.01837056,1.68916845

>  <Name>
1akx_lig

>  <RI>
0

>  <Rbt.Current_Directory>
/home/itssahil/PROJECTS/Mol_Feturizer/New_Systems/rnas/1akx

>  <Rbt.Executable>
rbdock ($Id: //depot/dev/client3/rdock/2013.1/src/exe/rbdock.cxx#4 $)

>  <Rbt.Library>
libRbt.so (2013.1, Build901 2013/11/27)

>  <Rbt.Parameter_File>
/export/apps/rDock/src/rDock_2013.1_src/data/scripts/dock_solv.prm

>  <Rbt.Receptor>
prm/pocket_docking_3.prm

>  <SCORE>
-24.9028

>  <SCORE.INTER>
-19.6257

>  <SCORE.INTER.CONST>
1

>  <SCORE.INTER.POLAR>
-2.74873

>  <SCORE.INTER.ROT>
8

>  <SCORE.INTER.SOLV>
6.82842

>  <SCORE.INTER.VDW>
-15.1308

>  <SCORE.INTER.norm>
-1.78415

>  <SCORE.INTRA>
-5.27712

>  <SCORE.INTRA.DIHEDRAL>
-11.7858

>  <SCORE.INTRA.DIHEDRAL.0>
21.6454

>  <SCORE.INTRA.POLAR>
0

>  <SCORE.INTRA.POLAR.0>
0

>  <SCORE.INTRA.REPUL>
0

>  <SCORE.INTRA.REPUL.0>
0

>  <SCORE.INTRA.SOLV>
0.602895

>  <SCORE.INTRA.SOLV.lig_0>
-16.5947

>  <SCORE.INTRA.VDW>
0.314346

>  <SCORE.INTRA.VDW.0>
-0.691398

>  <SCORE.INTRA.norm>
-0.479738

>  <SCORE.RESTR>
0

>  <SCORE.RESTR.CAVITY>
0

>  <SCORE.RESTR.norm>
0

>  <SCORE.SYSTEM>
0

>  <SCORE.SYSTEM.CONST>
0

>  <SCORE.SYSTEM.DIHEDRAL>
0

>  <SCORE.SYSTEM.SOLV>
0

>  <SCORE.SYSTEM.norm>
0

>  <SCORE.heavy>
11

>  <SCORE.norm>
-2.26389

>  <RMSD>
2.901

$$$$
1akx_lig
 OpenBabel11021811383D
libRbt.so/2013.1/901 2013/11/27
 11 10  0  0  0  0  0  0  0  0999 V2000
   -4.4905   -1.3714    2.0153 N   0  0  0  0  0  0  0  0  0  0  0  0
   -3.8006   -2.6812    2.2061 C   0  0  2  0  0  0  0  0  0  0  0  0
   -2.5627   -2.4837    3.0902 C   0  0  0  0  0  0  0  0  0  0  0  0
   -1.8724   -3.4325    3.4056 O   0  0  0  0  0  0  0  0  0  0  0  0
   -3.3774   -3.2441    0.8425 C   0  0  0  0  0  0  0  0  0  0  0  0
   -2.3849   -2.2874    0.1738 C   0  0  0  0  0  0  0  0  0  0  0  0
   -1.7490   -2.9739   -1.0350 C   0  0  0  0  0  0  0  0  0  0  0  0
   -2.8216   -3.4567   -1.9509 N   0  0  0  0  0  0  0  0  0  0  0  0
   -3.2498   -2.6945   -2.9246 C   0  0  0  0  0  0  0  0  0  0  0  0
   -2.4068   -2.2014   -3.7950 N   0  0  0  0  0  0  0  0  0  0  0  0
   -4.5246   -2.4307   -3.0309 N   0  0  0  0  0  0  0  0  0  0  0  0
  2  1  1  6  0  0  0
  2  3  1  0  0  0  0
  2  5  1  0  0  0  0
  3  4  1  0  0  0  0
  5  6  1  0  0  0  0
  6  7  1  0  0  0  0
  7  8  1  0  0  0  0
  8  9  1  0  0  0  0
  9 10  1  0  0  0  0
  9 11  1  0  0  0  0
M  END
>  <CHROM.1>
72.92296602,177.87849024,61.91485478,168.44172726,54.90250773,91.65293166
54.72963691,-20.87408419,-128.95533047,-3.04599253,-2.63768536,-0.10405130
1.53635046,-0.43077988,1.56332748

>  <Name>
1akx_lig

>  <RI>
0

>  <Rbt.Current_Directory>
/home/itssahil/PROJECTS/Mol_Feturizer/New_Systems/rnas/1akx

>  <Rbt.Executable>
rbdock ($Id: //depot/dev/client3/rdock/2013.1/src/exe/rbdock.cxx#4 $)

>  <Rbt.Library>
libRbt.so (2013.1, Build901 2013/11/27)

>  <Rbt.Parameter_File>
/export/apps/rDock/src/rDock_2013.1_src/data/scripts/dock_solv.prm

>  <Rbt.Receptor>
prm/pocket_docking_6.prm

>  <SCORE>
-28.8906

>  <SCORE.INTER>
-23.4973

>  <SCORE.INTER.CONST>
1

>  <SCORE.INTER.POLAR>
-3.83

>  <SCORE.INTER.ROT>
8

>  <SCORE.INTER.SOLV>
5.59294

>  <SCORE.INTER.VDW>
-13.6958

>  <SCORE.INTER.norm>
-2.13612

>  <SCORE.INTRA>
-5.39334

>  <SCORE.INTRA.DIHEDRAL>
-15.7803

>  <SCORE.INTRA.DIHEDRAL.0>
21.6454

>  <SCORE.INTRA.POLAR>
0

>  <SCORE.INTRA.POLAR.0>
0

>  <SCORE.INTRA.REPUL>
0

>  <SCORE.INTRA.REPUL.0>
0

>  <SCORE.INTRA.SOLV>
0.59513

>  <SCORE.INTRA.SOLV.lig_0>
-16.5947

>  <SCORE.INTRA.VDW>
2.19925

>  <SCORE.INTRA.VDW.0>
-0.691398

>  <SCORE.INTRA.norm>
-0.490303

>  <SCORE.RESTR>
0

>  <SCORE.RESTR.CAVITY>
0

>  <SCORE.RESTR.norm>
0

>  <SCORE.SYSTEM>
0

>  <SCORE.SYSTEM.CONST>
0

>  <SCORE.SYSTEM.DIHEDRAL>
0

>  <SCORE.SYSTEM.SOLV>
0

>  <SCORE.SYSTEM.norm>
0

>  <SCORE.heavy>
11

>  <SCORE.norm>
-2.62642

>  <RMSD>
2.913

$$$$
1akx_lig
 OpenBabel11021811383D
libRbt.so/2013.1/901 2013/11/27
 11 10  0  0  0  0  0  0  0  0999 V2000
    0.8849   -3.6638    1.3000 N   0  0  0  0  0  0  0  0  0  0  0  0
   -0.1876   -2.6262    1.2628 C   0  0  2  0  0  0  0  0  0  0  0  0
   -0.4889   -2.1501    2.6894 C   0  0  0  0  0  0  0  0  0  0  0  0
    0.3716   -1.6062    3.3527 O   0  0  0  0  0  0  0  0  0  0  0  0
   -1.4571   -3.2196    0.6370 C   0  0  0  0  0  0  0  0  0  0  0  0
   -1.8693   -2.3887   -0.5824 C   0  0  0  0  0  0  0  0  0  0  0  0
   -1.9333   -3.2890   -1.8162 C   0  0  0  0  0  0  0  0  0  0  0  0
   -2.4077   -2.4943   -2.9848 N   0  0  0  0  0  0  0  0  0  0  0  0
   -3.6727   -2.5043   -3.3193 C   0  0  0  0  0  0  0  0  0  0  0  0
   -4.0312   -2.2426   -4.5500 N   0  0  0  0  0  0  0  0  0  0  0  0
   -4.5801   -2.7830   -2.4221 N   0  0  0  0  0  0  0  0  0  0  0  0
  2  1  1  1  0  0  0
  2  3  1  0  0  0  0
  2  5  1  0  0  0  0
  3  4  1  0  0  0  0
  5  6  1  0  0  0  0
  6  7  1  0  0  0  0
  7  8  1  0  0  0  0
  8  9  1  0  0  0  0
  9 10  1  0  0  0  0
  9 11  1  0  0  0  0
M  END
>  <CHROM.1>
-52.80109892,62.05258729,-122.53188137,122.65711046,176.87805680,-95.92307344
-155.21008288,145.37028759,-117.47491369,-1.74793944,-2.63835583,-0.58712992
-0.91257824,0.41929369,-1.88314641

>  <Name>
1akx_lig

>  <RI>
0

>  <Rbt.Current_Directory>
/home/itssahil/PROJECTS/Mol_Feturizer/New_Systems/rnas/1akx

>  <Rbt.Executable>
rbdock ($Id: //depot/dev/client3/rdock/2013.1/src/exe/rbdock.cxx#4 $)

>  <Rbt.Library>
libRbt.so (2013.1, Build901 2013/11/27)

>  <Rbt.Parameter_File>
/export/apps/rDock/src/rDock_2013.1_src/data/scripts/dock_solv.prm

>  <Rbt.Receptor>
prm/pocket_docking_5.prm

>  <SCORE>
-31.0914

>  <SCORE.INTER>
-28.8496

>  <SCORE.INTER.CONST>
1

>  <SCORE.INTER.POLAR>
-4.42098

>  <SCORE.INTER.ROT>
8

>  <SCORE.INTER.SOLV>
7.19916

>  <SCORE.INTER.VDW>
-15.8295

>  <SCORE.INTER.norm>
-2.62269

>  <SCORE.INTRA>
-2.24181

>  <SCORE.INTRA.DIHEDRAL>
-4.7222

>  <SCORE.INTRA.DIHEDRAL.0>
21.6454

>  <SCORE.INTRA.POLAR>
0

>  <SCORE.INTRA.POLAR.0>
0

>  <SCORE.INTRA.REPUL>
0

>  <SCORE.INTRA.REPUL.0>
0

>  <SCORE.INTRA.SOLV>
0.329552

>  <SCORE.INTRA.SOLV.lig_0>
-16.5947

>  <SCORE.INTRA.VDW>
-0.0454834

>  <SCORE.INTRA.VDW.0>
-0.691398

>  <SCORE.INTRA.norm>
-0.203801

>  <SCORE.RESTR>
0

>  <SCORE.RESTR.CAVITY>
0

>  <SCORE.RESTR.norm>
0

>  <SCORE.SYSTEM>
0

>  <SCORE.SYSTEM.CONST>
0

>  <SCORE.SYSTEM.DIHEDRAL>
0

>  <SCORE.SYSTEM.SOLV>
0

>  <SCORE.SYSTEM.norm>
0

>  <SCORE.heavy>
11

>  <SCORE.norm>
-2.82649

>  <RMSD>
2.952

$$$$
1akx_lig
 OpenBabel11021811383D
libRbt.so/2013.1/901 2013/11/27
 11 10  0  0  0  0  0  0  0  0999 V2000
   -2.5781   -0.4905    1.9897 N   0  0  0  0  0  0  0  0  0  0  0  0
   -2.0107   -1.8689    2.0685 C   0  0  2  0  0  0  0  0  0  0  0  0
   -0.5337   -1.8389    1.6558 C   0  0  0  0  0  0  0  0  0  0  0  0
    0.1279   -2.8580    1.6576 O   0  0  0  0  0  0  0  0  0  0  0  0
   -2.7905   -2.8012    1.1314 C   0  0  0  0  0  0  0  0  0  0  0  0
   -2.5409   -2.3968   -0.3252 C   0  0  0  0  0  0  0  0  0  0  0  0
   -3.5098   -3.1491   -1.2374 C   0  0  0  0  0  0  0  0  0  0  0  0
   -2.7446   -3.8173   -2.3284 N   0  0  0  0  0  0  0  0  0  0  0  0
   -2.5801   -3.2189   -3.4805 C   0  0  0  0  0  0  0  0  0  0  0  0
   -3.5885   -2.6239   -4.0641 N   0  0  0  0  0  0  0  0  0  0  0  0
   -1.4029   -3.2106   -4.0463 N   0  0  0  0  0  0  0  0  0  0  0  0
  2  1  1  6  0  0  0
  2  3  1  0  0  0  0
  2  5  1  0  0  0  0
  3  4  1  0  0  0  0
  5  6  1  0  0  0  0
  6  7  1  0  0  0  0
  7  8  1  0  0  0  0
  8  9  1  0  0  0  0
  9 10  1  0  0  0  0
  9 11  1  0  0  0  0
M  END
>  <CHROM.1>
-48.35227164,179.45847994,67.08595506,-169.57605141,-128.22857612,-93.75508405
-45.07239915,179.34259743,-68.76131813,-2.18321141,-2.54854320,-0.65647453
1.34910022,-0.30843407,1.25588313

>  <Name>
1akx_lig

>  <RI>
0

>  <Rbt.Current_Directory>
/home/itssahil/PROJECTS/Mol_Feturizer/New_Systems/rnas/1akx

>  <Rbt.Executable>
rbdock ($Id: //depot/dev/client3/rdock/2013.1/src/exe/rbdock.cxx#4 $)

>  <Rbt.Library>
libRbt.so (2013.1, Build901 2013/11/27)

>  <Rbt.Parameter_File>
/export/apps/rDock/src/rDock_2013.1_src/data/scripts/dock_solv.prm

>  <Rbt.Receptor>
prm/pocket_docking_8.prm

>  <SCORE>
-25.3665

>  <SCORE.INTER>
-22.5927

>  <SCORE.INTER.CONST>
1

>  <SCORE.INTER.POLAR>
-4.24694

>  <SCORE.INTER.ROT>
8

>  <SCORE.INTER.SOLV>
7.02826

>  <SCORE.INTER.VDW>
-12.1815

>  <SCORE.INTER.norm>
-2.05389

>  <SCORE.INTRA>
-2.77372

>  <SCORE.INTRA.DIHEDRAL>
-10.6076

>  <SCORE.INTRA.DIHEDRAL.0>
21.6454

>  <SCORE.INTRA.POLAR>
0

>  <SCORE.INTRA.POLAR.0>
0

>  <SCORE.INTRA.REPUL>
0

>  <SCORE.INTRA.REPUL.0>
0

>  <SCORE.INTRA.SOLV>
0.316348

>  <SCORE.INTRA.SOLV.lig_0>
-16.5947

>  <SCORE.INTRA.VDW>
2.37189

>  <SCORE.INTRA.VDW.0>
-0.691398

>  <SCORE.INTRA.norm>
-0.252156

>  <SCORE.RESTR>
0

>  <SCORE.RESTR.CAVITY>
0

>  <SCORE.RESTR.norm>
0

>  <SCORE.SYSTEM>
0

>  <SCORE.SYSTEM.CONST>
0

>  <SCORE.SYSTEM.DIHEDRAL>
0

>  <SCORE.SYSTEM.SOLV>
0

>  <SCORE.SYSTEM.norm>
0

>  <SCORE.heavy>
11

>  <SCORE.norm>
-2.30604

>  <RMSD>
2.988

$$$$
1akx_lig
 OpenBabel11021811383D
libRbt.so/2013.1/901 2013/11/27
 11 10  0  0  0  0  0  0  0  0999 V2000
   -1.3203   -6.2408    0.3158 N   0  0  0  0  0  0  0  0  0  0  0  0
   -2.2625   -5.3823   -0.4610 C   0  0  2  0  0  0  0  0  0  0  0  0
   -3.4158   -6.2412   -0.9949 C   0  0  0  0  0  0  0  0  0  0  0  0
   -4.3268   -5.7324   -1.6173 O   0  0  0  0  0  0  0  0  0  0  0  0
   -1.5176   -4.7303   -1.6338 C   0  0  0  0  0  0  0  0  0  0  0  0
   -1.4371   -3.2157   -1.4171 C   0  0  0  0  0  0  0  0  0  0  0  0
   -2.8476   -2.6265   -1.3995 C   0  0  0  0  0  0  0  0  0  0  0  0
   -3.6008   -3.1100   -2.5916 N   0  0  0  0  0  0  0  0  0  0  0  0
   -3.3228   -2.6422   -3.7816 C   0  0  0  0  0  0  0  0  0  0  0  0
   -2.1340   -2.8194   -4.2983 N   0  0  0  0  0  0  0  0  0  0  0  0
   -4.2380   -2.0015   -4.4583 N   0  0  0  0  0  0  0  0  0  0  0  0
  2  1  1  6  0  0  0
  2  3  1  0  0  0  0
  2  5  1  0  0  0  0
  3  4  1  0  0  0  0
  5  6  1  0  0  0  0
  6  7  1  0  0  0  0
  7  8  1  0  0  0  0
  8  9  1  0  0  0  0
  9 10  1  0  0  0  0
  9 11  1  0  0  0  0
M  END
>  <CHROM.1>
-56.53897369,177.32752168,-113.14022708,-62.79687561,-50.02138126,-73.15803979
61.73569132,-65.65371666,105.71749129,-2.77204570,-4.08775654,-2.04391943
-1.31443484,-0.41060290,-0.68884826

>  <Name>
1akx_lig

>  <RI>
0

>  <Rbt.Current_Directory>
/home/itssahil/PROJECTS/Mol_Feturizer/New_Systems/rnas/1akx

>  <Rbt.Executable>
rbdock ($Id: //depot/dev/client3/rdock/2013.1/src/exe/rbdock.cxx#4 $)

>  <Rbt.Library>
libRbt.so (2013.1, Build901 2013/11/27)

>  <Rbt.Parameter_File>
/export/apps/rDock/src/rDock_2013.1_src/data/scripts/dock_solv.prm

>  <Rbt.Receptor>
prm/pocket_docking_4.prm

>  <SCORE>
-25.6248

>  <SCORE.INTER>
-19.5003

>  <SCORE.INTER.CONST>
1

>  <SCORE.INTER.POLAR>
-2.50507

>  <SCORE.INTER.ROT>
8

>  <SCORE.INTER.SOLV>
7.44059

>  <SCORE.INTER.VDW>
-16.0635

>  <SCORE.INTER.norm>
-1.77276

>  <SCORE.INTRA>
-6.12452

>  <SCORE.INTRA.DIHEDRAL>
-10.6981

>  <SCORE.INTRA.DIHEDRAL.0>
21.6454

>  <SCORE.INTRA.POLAR>
-0.651846

>  <SCORE.INTRA.POLAR.0>
0

>  <SCORE.INTRA.REPUL>
0

>  <SCORE.INTRA.REPUL.0>
0

>  <SCORE.INTRA.SOLV>
1.79474

>  <SCORE.INTRA.SOLV.lig_0>
-16.5947

>  <SCORE.INTRA.VDW>
0.54346

>  <SCORE.INTRA.VDW.0>
-0.691398

>  <SCORE.INTRA.norm>
-0.556775

>  <SCORE.RESTR>
0

>  <SCORE.RESTR.CAVITY>
0

>  <SCORE.RESTR.norm>
0

>  <SCORE.SYSTEM>
0

>  <SCORE.SYSTEM.CONST>
0

>  <SCORE.SYSTEM.DIHEDRAL>
0

>  <SCORE.SYSTEM.SOLV>
0

>  <SCORE.SYSTEM.norm>
0

>  <SCORE.heavy>
11

>  <SCORE.norm>
-2.32953

>  <RMSD>
3.001

$$$$
1akx_lig
 OpenBabel11021811383D
libRbt.so/2013.1/901 2013/11/27
 11 10  0  0  0  0  0  0  0  0999 V2000
   -3.3430   -2.2491    1.2648 N   0  0  0  0  0  0  0  0  0  0  0  0
   -2.0822   -2.7039    1.9219 C   0  0  2  0  0  0  0  0  0  0  0  0
   -1.1624   -1.4986    2.1541 C   0  0  0  0  0  0  0  0  0  0  0  0
   -1.2412   -0.5166    1.4429 O   0  0  0  0  0  0  0  0  0  0  0  0
   -1.3747   -3.7289    1.0251 C   0  0  0  0  0  0  0  0  0  0  0  0
   -1.3150   -3.2037   -0.4129 C   0  0  0  0  0  0  0  0  0  0  0  0
   -2.4886   -3.7695   -1.2125 C   0  0  0  0  0  0  0  0  0  0  0  0
   -3.2625   -2.6478   -1.8167 N   0  0  0  0  0  0  0  0  0  0  0  0
   -3.5367   -2.6497   -3.0962 C   0  0  0  0  0  0  0  0  0  0  0  0
   -4.7471   -2.9230   -3.5104 N   0  0  0  0  0  0  0  0  0  0  0  0
   -2.5994   -2.3714   -3.9622 N   0  0  0  0  0  0  0  0  0  0  0  0
  2  1  1  6  0  0  0
  2  3  1  0  0  0  0
  2  5  1  0  0  0  0
  3  4  1  0  0  0  0
  5  6  1  0  0  0  0
  6  7  1  0  0  0  0
  7  8  1  0  0  0  0
  8  9  1  0  0  0  0
  9 10  1  0  0  0  0
  9 11  1  0  0  0  0
M  END
>  <CHROM.1>
157.05803669,-26.31375531,47.59631495,-95.57428604,124.78367358,128.35648194
105.35330900,8.22111001,-161.14476567,-2.50860508,-2.53279332,-0.59638685
0.23401182,-1.18951268,0.09423383

>  <Name>
1akx_lig

>  <RI>
0

>  <Rbt.Current_Directory>
/home/itssahil/PROJECTS/Mol_Feturizer/New_Systems/rnas/1akx

>  <Rbt.Executable>
rbdock ($Id: //depot/dev/client3/rdock/2013.1/src/exe/rbdock.cxx#4 $)

>  <Rbt.Library>
libRbt.so (2013.1, Build901 2013/11/27)

>  <Rbt.Parameter_File>
/export/apps/rDock/src/rDock_2013.1_src/data/scripts/dock_solv.prm

>  <Rbt.Receptor>
prm/pocket_docking_5.prm

>  <SCORE>
-26.2342

>  <SCORE.INTER>
-27.1714

>  <SCORE.INTER.CONST>
1

>  <SCORE.INTER.POLAR>
-4.58621

>  <SCORE.INTER.ROT>
8

>  <SCORE.INTER.SOLV>
6.61341

>  <SCORE.INTER.VDW>
-13.9647

>  <SCORE.INTER.norm>
-2.47012

>  <SCORE.INTRA>
0.937197

>  <SCORE.INTRA.DIHEDRAL>
-2.57674

>  <SCORE.INTRA.DIHEDRAL.0>
21.6454

>  <SCORE.INTRA.POLAR>
0

>  <SCORE.INTRA.POLAR.0>
0

>  <SCORE.INTRA.REPUL>
0

>  <SCORE.INTRA.REPUL.0>
0

>  <SCORE.INTRA.SOLV>
1.60035

>  <SCORE.INTRA.SOLV.lig_0>
-16.5947

>  <SCORE.INTRA.VDW>
1.42539

>  <SCORE.INTRA.VDW.0>
-0.691398

>  <SCORE.INTRA.norm>
0.0851998

>  <SCORE.RESTR>
0

>  <SCORE.RESTR.CAVITY>
0

>  <SCORE.RESTR.norm>
0

>  <SCORE.SYSTEM>
0

>  <SCORE.SYSTEM.CONST>
0

>  <SCORE.SYSTEM.DIHEDRAL>
0

>  <SCORE.SYSTEM.SOLV>
0

>  <SCORE.SYSTEM.norm>
0

>  <SCORE.heavy>
11

>  <SCORE.norm>
-2.38492

>  <RMSD>
3.040

$$$$
1akx_lig
 OpenBabel11021811383D
libRbt.so/2013.1/901 2013/11/27
 11 10  0  0  0  0  0  0  0  0999 V2000
   -2.0333   -5.3168   -1.0962 N   0  0  0  0  0  0  0  0  0  0  0  0
   -2.0501   -3.8335   -0.9295 C   0  0  2  0  0  0  0  0  0  0  0  0
   -0.6556   -3.3494   -0.5128 C   0  0  0  0  0  0  0  0  0  0  0  0
   -0.4297   -2.1635   -0.3762 O   0  0  0  0  0  0  0  0  0  0  0  0
   -3.0742   -3.4475    0.1464 C   0  0  0  0  0  0  0  0  0  0  0  0
   -4.4859   -3.7997   -0.3336 C   0  0  0  0  0  0  0  0  0  0  0  0
   -4.9288   -2.7958   -1.3981 C   0  0  0  0  0  0  0  0  0  0  0  0
   -4.5492   -3.3049   -2.7468 N   0  0  0  0  0  0  0  0  0  0  0  0
   -3.8398   -2.5611   -3.5568 C   0  0  0  0  0  0  0  0  0  0  0  0
   -2.5438   -2.4703   -3.4032 N   0  0  0  0  0  0  0  0  0  0  0  0
   -4.4278   -1.9123   -4.5259 N   0  0  0  0  0  0  0  0  0  0  0  0
  2  1  1  1  0  0  0
  2  3  1  0  0  0  0
  2  5  1  0  0  0  0
  3  4  1  0  0  0  0
  5  6  1  0  0  0  0
  6  7  1  0  0  0  0
  7  8  1  0  0  0  0
  8  9  1  0  0  0  0
  9 10  1  0  0  0  0
  9 11  1  0  0  0  0
M  END
>  <CHROM.1>
62.79363077,176.91693436,-65.60240120,-74.14254565,91.05526510,-126.08313945
79.84332608,-87.74515149,136.68700446,-2.97280320,-3.18973705,-1.73728056
0.83571229,0.20114046,2.08309955

>  <Name>
1akx_lig

>  <RI>
0

>  <Rbt.Current_Directory>
/home/afrankz/demos/rdock_decoys_rna/rnas/1akx

>  <Rbt.Executable>
rbdock ($Id: //depot/dev/client3/rdock/2013.1/src/exe/rbdock.cxx#4 $)

>  <Rbt.Library>
libRbt.so (2013.1, Build901 2013/11/27)

>  <Rbt.Parameter_File>
/export/apps/rDock/src/rDock_2013.1_src/data/scripts/dock_solv.prm

>  <Rbt.Receptor>
prm/pocket_docking_3.prm

>  <SCORE>
-22.9732

>  <SCORE.INTER>
-16.4021

>  <SCORE.INTER.CONST>
1

>  <SCORE.INTER.POLAR>
-1.78389

>  <SCORE.INTER.ROT>
8

>  <SCORE.INTER.SOLV>
7.66693

>  <SCORE.INTER.VDW>
-16.4774

>  <SCORE.INTER.norm>
-1.4911

>  <SCORE.INTRA>
-6.58211

>  <SCORE.INTRA.DIHEDRAL>
-12.9473

>  <SCORE.INTRA.DIHEDRAL.0>
21.6454

>  <SCORE.INTRA.POLAR>
0

>  <SCORE.INTRA.POLAR.0>
0

>  <SCORE.INTRA.REPUL>
0

>  <SCORE.INTRA.REPUL.0>
0

>  <SCORE.INTRA.SOLV>
1.87128

>  <SCORE.INTRA.SOLV.lig_0>
-16.5947

>  <SCORE.INTRA.VDW>
-1.04408

>  <SCORE.INTRA.VDW.0>
-0.691398

>  <SCORE.INTRA.norm>
-0.598374

>  <SCORE.RESTR>
0.0109896

>  <SCORE.RESTR.CAVITY>
0.0109896

>  <SCORE.RESTR.norm>
0.000999051

>  <SCORE.SYSTEM>
0

>  <SCORE.SYSTEM.CONST>
0

>  <SCORE.SYSTEM.DIHEDRAL>
0

>  <SCORE.SYSTEM.SOLV>
0

>  <SCORE.SYSTEM.norm>
0

>  <SCORE.heavy>
11

>  <SCORE.norm>
-2.08848

>  <RMSD>
3.065

>  <RMSD>
3.065

$$$$
1akx_lig
 OpenBabel11021811383D
libRbt.so/2013.1/901 2013/11/27
 11 10  0  0  0  0  0  0  0  0999 V2000
   -2.0333   -5.3168   -1.0962 N   0  0  0  0  0  0  0  0  0  0  0  0
   -2.0501   -3.8335   -0.9295 C   0  0  2  0  0  0  0  0  0  0  0  0
   -0.6556   -3.3494   -0.5128 C   0  0  0  0  0  0  0  0  0  0  0  0
   -0.4297   -2.1635   -0.3762 O   0  0  0  0  0  0  0  0  0  0  0  0
   -3.0742   -3.4475    0.1464 C   0  0  0  0  0  0  0  0  0  0  0  0
   -4.4859   -3.7997   -0.3336 C   0  0  0  0  0  0  0  0  0  0  0  0
   -4.9288   -2.7958   -1.3981 C   0  0  0  0  0  0  0  0  0  0  0  0
   -4.5492   -3.3049   -2.7468 N   0  0  0  0  0  0  0  0  0  0  0  0
   -3.8398   -2.5611   -3.5568 C   0  0  0  0  0  0  0  0  0  0  0  0
   -2.5438   -2.4703   -3.4032 N   0  0  0  0  0  0  0  0  0  0  0  0
   -4.4278   -1.9123   -4.5259 N   0  0  0  0  0  0  0  0  0  0  0  0
  2  1  1  1  0  0  0
  2  3  1  0  0  0  0
  2  5  1  0  0  0  0
  3  4  1  0  0  0  0
  5  6  1  0  0  0  0
  6  7  1  0  0  0  0
  7  8  1  0  0  0  0
  8  9  1  0  0  0  0
  9 10  1  0  0  0  0
  9 11  1  0  0  0  0
M  END
>  <CHROM.1>
62.79363077,176.91693436,-65.60240120,-74.14254565,91.05526510,-126.08313945
79.84332608,-87.74515149,136.68700446,-2.97280320,-3.18973705,-1.73728056
0.83571229,0.20114046,2.08309955

>  <Name>
1akx_lig

>  <RI>
0

>  <Rbt.Current_Directory>
/home/afrankz/demos/rdock_decoys_rna/rnas/1akx

>  <Rbt.Executable>
rbdock ($Id: //depot/dev/client3/rdock/2013.1/src/exe/rbdock.cxx#4 $)

>  <Rbt.Library>
libRbt.so (2013.1, Build901 2013/11/27)

>  <Rbt.Parameter_File>
/export/apps/rDock/src/rDock_2013.1_src/data/scripts/dock_solv.prm

>  <Rbt.Receptor>
prm/pocket_docking_3.prm

>  <SCORE>
-22.9732

>  <SCORE.INTER>
-16.4021

>  <SCORE.INTER.CONST>
1

>  <SCORE.INTER.POLAR>
-1.78389

>  <SCORE.INTER.ROT>
8

>  <SCORE.INTER.SOLV>
7.66693

>  <SCORE.INTER.VDW>
-16.4774

>  <SCORE.INTER.norm>
-1.4911

>  <SCORE.INTRA>
-6.58211

>  <SCORE.INTRA.DIHEDRAL>
-12.9473

>  <SCORE.INTRA.DIHEDRAL.0>
21.6454

>  <SCORE.INTRA.POLAR>
0

>  <SCORE.INTRA.POLAR.0>
0

>  <SCORE.INTRA.REPUL>
0

>  <SCORE.INTRA.REPUL.0>
0

>  <SCORE.INTRA.SOLV>
1.87128

>  <SCORE.INTRA.SOLV.lig_0>
-16.5947

>  <SCORE.INTRA.VDW>
-1.04408

>  <SCORE.INTRA.VDW.0>
-0.691398

>  <SCORE.INTRA.norm>
-0.598374

>  <SCORE.RESTR>
0.0109896

>  <SCORE.RESTR.CAVITY>
0.0109896

>  <SCORE.RESTR.norm>
0.000999051

>  <SCORE.SYSTEM>
0

>  <SCORE.SYSTEM.CONST>
0

>  <SCORE.SYSTEM.DIHEDRAL>
0

>  <SCORE.SYSTEM.SOLV>
0

>  <SCORE.SYSTEM.norm>
0

>  <SCORE.heavy>
11

>  <SCORE.norm>
-2.08848

>  <RMSD>
3.065

>  <RMSD>
3.065

$$$$
1akx_lig
 OpenBabel11021811383D
libRbt.so/2013.1/901 2013/11/27
 11 10  0  0  0  0  0  0  0  0999 V2000
    0.0707   -3.4771    0.9925 N   0  0  0  0  0  0  0  0  0  0  0  0
   -1.1979   -2.6923    0.9386 C   0  0  2  0  0  0  0  0  0  0  0  0
   -2.0109   -2.9454    2.2144 C   0  0  0  0  0  0  0  0  0  0  0  0
   -3.0935   -2.4165    2.3709 O   0  0  0  0  0  0  0  0  0  0  0  0
   -2.0155   -3.1184   -0.2883 C   0  0  0  0  0  0  0  0  0  0  0  0
   -1.2852   -2.6975   -1.5677 C   0  0  0  0  0  0  0  0  0  0  0  0
   -1.8036   -3.5214   -2.7465 C   0  0  0  0  0  0  0  0  0  0  0  0
   -2.5269   -2.6274   -3.6950 N   0  0  0  0  0  0  0  0  0  0  0  0
   -3.8263   -2.4948   -3.6155 C   0  0  0  0  0  0  0  0  0  0  0  0
   -4.4857   -1.8822   -4.5649 N   0  0  0  0  0  0  0  0  0  0  0  0
   -4.4675   -2.9817   -2.5870 N   0  0  0  0  0  0  0  0  0  0  0  0
  2  1  1  1  0  0  0
  2  3  1  0  0  0  0
  2  5  1  0  0  0  0
  3  4  1  0  0  0  0
  5  6  1  0  0  0  0
  6  7  1  0  0  0  0
  7  8  1  0  0  0  0
  8  9  1  0  0  0  0
  9 10  1  0  0  0  0
  9 11  1  0  0  0  0
M  END
>  <CHROM.1>
59.74954956,-178.98718916,-67.18676864,160.04369682,113.45493807,-94.78381978
-169.36513505,114.74733918,-57.46912401,-2.43164882,-2.80480737,-1.13522458
-1.16783452,0.23565515,-1.58194214

>  <Name>
1akx_lig

>  <RI>
0

>  <Rbt.Current_Directory>
/home/itssahil/PROJECTS/Mol_Feturizer/New_Systems/rnas/1akx

>  <Rbt.Executable>
rbdock ($Id: //depot/dev/client3/rdock/2013.1/src/exe/rbdock.cxx#4 $)

>  <Rbt.Library>
libRbt.so (2013.1, Build901 2013/11/27)

>  <Rbt.Parameter_File>
/export/apps/rDock/src/rDock_2013.1_src/data/scripts/dock_solv.prm

>  <Rbt.Receptor>
prm/pocket_docking_3.prm

>  <SCORE>
-29.7316

>  <SCORE.INTER>
-25.6723

>  <SCORE.INTER.CONST>
1

>  <SCORE.INTER.POLAR>
-3.7599

>  <SCORE.INTER.ROT>
8

>  <SCORE.INTER.SOLV>
7.74128

>  <SCORE.INTER.VDW>
-16.0956

>  <SCORE.INTER.norm>
-2.33385

>  <SCORE.INTRA>
-4.13306

>  <SCORE.INTRA.DIHEDRAL>
-9.75176

>  <SCORE.INTRA.DIHEDRAL.0>
21.6454

>  <SCORE.INTRA.POLAR>
0

>  <SCORE.INTRA.POLAR.0>
0

>  <SCORE.INTRA.REPUL>
0

>  <SCORE.INTRA.REPUL.0>
0

>  <SCORE.INTRA.SOLV>
0.409698

>  <SCORE.INTRA.SOLV.lig_0>
-16.5947

>  <SCORE.INTRA.VDW>
0.537976

>  <SCORE.INTRA.VDW.0>
-0.691398

>  <SCORE.INTRA.norm>
-0.375732

>  <SCORE.RESTR>
0.0737645

>  <SCORE.RESTR.CAVITY>
0.0737645

>  <SCORE.RESTR.norm>
0.00670586

>  <SCORE.SYSTEM>
0

>  <SCORE.SYSTEM.CONST>
0

>  <SCORE.SYSTEM.DIHEDRAL>
0

>  <SCORE.SYSTEM.SOLV>
0

>  <SCORE.SYSTEM.norm>
0

>  <SCORE.heavy>
11

>  <SCORE.norm>
-2.70288

>  <RMSD>
3.080

$$$$
1akx_lig
 OpenBabel11021811383D
libRbt.so/2013.1/901 2013/11/27
 11 10  0  0  0  0  0  0  0  0999 V2000
   -4.5162   -1.0090    2.0823 N   0  0  0  0  0  0  0  0  0  0  0  0
   -4.1569   -2.4165    2.4259 C   0  0  2  0  0  0  0  0  0  0  0  0
   -2.6515   -2.5068    2.7056 C   0  0  0  0  0  0  0  0  0  0  0  0
   -2.1489   -3.5603    3.0428 O   0  0  0  0  0  0  0  0  0  0  0  0
   -4.5219   -3.3415    1.2569 C   0  0  0  0  0  0  0  0  0  0  0  0
   -3.7353   -2.9309    0.0079 C   0  0  0  0  0  0  0  0  0  0  0  0
   -3.9624   -3.9596   -1.0999 C   0  0  0  0  0  0  0  0  0  0  0  0
   -3.0261   -3.6875   -2.2275 N   0  0  0  0  0  0  0  0  0  0  0  0
   -3.4114   -2.9581   -3.2433 C   0  0  0  0  0  0  0  0  0  0  0  0
   -4.6806   -2.8699   -3.5476 N   0  0  0  0  0  0  0  0  0  0  0  0
   -2.5254   -2.3107   -3.9517 N   0  0  0  0  0  0  0  0  0  0  0  0
  2  1  1  6  0  0  0
  2  3  1  0  0  0  0
  2  5  1  0  0  0  0
  3  4  1  0  0  0  0
  5  6  1  0  0  0  0
  6  7  1  0  0  0  0
  7  8  1  0  0  0  0
  8  9  1  0  0  0  0
  9 10  1  0  0  0  0
  9 11  1  0  0  0  0
M  END
>  <CHROM.1>
-64.98932766,177.91667426,60.99516089,172.73231653,-170.59332026,-94.49463085
-25.20516042,-123.31975533,171.16900945,-3.56857378,-2.83532210,-0.25170946
1.55858397,-0.61666392,1.49753451

>  <Name>
1akx_lig

>  <RI>
0

>  <Rbt.Current_Directory>
/home/itssahil/PROJECTS/Mol_Feturizer/New_Systems/rnas/1akx

>  <Rbt.Executable>
rbdock ($Id: //depot/dev/client3/rdock/2013.1/src/exe/rbdock.cxx#4 $)

>  <Rbt.Library>
libRbt.so (2013.1, Build901 2013/11/27)

>  <Rbt.Parameter_File>
/export/apps/rDock/src/rDock_2013.1_src/data/scripts/dock_solv.prm

>  <Rbt.Receptor>
prm/pocket_docking_4.prm

>  <SCORE>
-32.5079

>  <SCORE.INTER>
-26.5627

>  <SCORE.INTER.CONST>
1

>  <SCORE.INTER.POLAR>
-4.83116

>  <SCORE.INTER.ROT>
8

>  <SCORE.INTER.SOLV>
5.39251

>  <SCORE.INTER.VDW>
-12.3355

>  <SCORE.INTER.norm>
-2.4148

>  <SCORE.INTRA>
-5.94514

>  <SCORE.INTRA.DIHEDRAL>
-16.2148

>  <SCORE.INTRA.DIHEDRAL.0>
21.6454

>  <SCORE.INTRA.POLAR>
0

>  <SCORE.INTRA.POLAR.0>
0

>  <SCORE.INTRA.REPUL>
0

>  <SCORE.INTRA.REPUL.0>
0

>  <SCORE.INTRA.SOLV>
0.278748

>  <SCORE.INTRA.SOLV.lig_0>
-16.5947

>  <SCORE.INTRA.VDW>
2.02288

>  <SCORE.INTRA.VDW.0>
-0.691398

>  <SCORE.INTRA.norm>
-0.540467

>  <SCORE.RESTR>
0

>  <SCORE.RESTR.CAVITY>
0

>  <SCORE.RESTR.norm>
0

>  <SCORE.SYSTEM>
0

>  <SCORE.SYSTEM.CONST>
0

>  <SCORE.SYSTEM.DIHEDRAL>
0

>  <SCORE.SYSTEM.SOLV>
0

>  <SCORE.SYSTEM.norm>
0

>  <SCORE.heavy>
11

>  <SCORE.norm>
-2.95526

>  <RMSD>
3.096

$$$$
1akx_lig
 OpenBabel11021811383D
libRbt.so/2013.1/901 2013/11/27
 11 10  0  0  0  0  0  0  0  0999 V2000
   -5.6258   -3.0023    2.8897 N   0  0  0  0  0  0  0  0  0  0  0  0
   -5.1191   -3.6324    1.6349 C   0  0  2  0  0  0  0  0  0  0  0  0
   -4.6996   -5.0795    1.9221 C   0  0  0  0  0  0  0  0  0  0  0  0
   -4.5092   -5.8590    1.0097 O   0  0  0  0  0  0  0  0  0  0  0  0
   -3.9145   -2.8393    1.1103 C   0  0  0  0  0  0  0  0  0  0  0  0
   -3.5668   -3.3049   -0.3074 C   0  0  0  0  0  0  0  0  0  0  0  0
   -4.6589   -2.8514   -1.2762 C   0  0  0  0  0  0  0  0  0  0  0  0
   -4.3888   -3.4200   -2.6275 N   0  0  0  0  0  0  0  0  0  0  0  0
   -3.5455   -2.8292   -3.4350 C   0  0  0  0  0  0  0  0  0  0  0  0
   -3.9621   -2.3200   -4.5658 N   0  0  0  0  0  0  0  0  0  0  0  0
   -2.2841   -2.7423   -3.1072 N   0  0  0  0  0  0  0  0  0  0  0  0
  2  1  1  1  0  0  0
  2  3  1  0  0  0  0
  2  5  1  0  0  0  0
  3  4  1  0  0  0  0
  5  6  1  0  0  0  0
  6  7  1  0  0  0  0
  7  8  1  0  0  0  0
  8  9  1  0  0  0  0
  9 10  1  0  0  0  0
  9 11  1  0  0  0  0
M  END
>  <CHROM.1>
-46.52346412,165.34933970,-168.79320466,69.99070759,-174.41116986,-82.75614055
-115.69617247,159.04449046,-158.98597204,-4.21060230,-3.44440887,-0.61735986
2.50165493,-1.26481511,2.71963368

>  <Name>
1akx_lig

>  <RI>
0

>  <Rbt.Current_Directory>
/home/itssahil/PROJECTS/Mol_Feturizer/New_Systems/rnas/1akx

>  <Rbt.Executable>
rbdock ($Id: //depot/dev/client3/rdock/2013.1/src/exe/rbdock.cxx#4 $)

>  <Rbt.Library>
libRbt.so (2013.1, Build901 2013/11/27)

>  <Rbt.Parameter_File>
/export/apps/rDock/src/rDock_2013.1_src/data/scripts/dock_solv.prm

>  <Rbt.Receptor>
prm/pocket_docking_4.prm

>  <SCORE>
-30.6443

>  <SCORE.INTER>
-24.5392

>  <SCORE.INTER.CONST>
1

>  <SCORE.INTER.POLAR>
-4.30386

>  <SCORE.INTER.ROT>
8

>  <SCORE.INTER.SOLV>
5.56143

>  <SCORE.INTER.VDW>
-12.8004

>  <SCORE.INTER.norm>
-2.23084

>  <SCORE.INTRA>
-6.13091

>  <SCORE.INTRA.DIHEDRAL>
-14.6615

>  <SCORE.INTRA.DIHEDRAL.0>
21.6454

>  <SCORE.INTRA.POLAR>
0

>  <SCORE.INTRA.POLAR.0>
0

>  <SCORE.INTRA.REPUL>
0

>  <SCORE.INTRA.REPUL.0>
0

>  <SCORE.INTRA.SOLV>
0.503315

>  <SCORE.INTRA.SOLV.lig_0>
-16.5947

>  <SCORE.INTRA.VDW>
0.948167

>  <SCORE.INTRA.VDW.0>
-0.691398

>  <SCORE.INTRA.norm>
-0.557356

>  <SCORE.RESTR>
0.0258348

>  <SCORE.RESTR.CAVITY>
0.0258348

>  <SCORE.RESTR.norm>
0.00234862

>  <SCORE.SYSTEM>
0

>  <SCORE.SYSTEM.CONST>
0

>  <SCORE.SYSTEM.DIHEDRAL>
0

>  <SCORE.SYSTEM.SOLV>
0

>  <SCORE.SYSTEM.norm>
0

>  <SCORE.heavy>
11

>  <SCORE.norm>
-2.78585

>  <RMSD>
3.107

$$$$
1akx_lig
 OpenBabel11021811383D
libRbt.so/2013.1/901 2013/11/27
 11 10  0  0  0  0  0  0  0  0999 V2000
   -4.9253   -4.9923    1.5011 N   0  0  0  0  0  0  0  0  0  0  0  0
   -3.8846   -3.9566    1.7702 C   0  0  2  0  0  0  0  0  0  0  0  0
   -4.2674   -3.1599    3.0238 C   0  0  0  0  0  0  0  0  0  0  0  0
   -4.3667   -3.7142    4.1004 O   0  0  0  0  0  0  0  0  0  0  0  0
   -3.7781   -3.0088    0.5678 C   0  0  0  0  0  0  0  0  0  0  0  0
   -2.8539   -3.6188   -0.4910 C   0  0  0  0  0  0  0  0  0  0  0  0
   -3.6549   -3.9151   -1.7588 C   0  0  0  0  0  0  0  0  0  0  0  0
   -3.9717   -2.6352   -2.4545 N   0  0  0  0  0  0  0  0  0  0  0  0
   -3.5265   -2.4150   -3.6651 C   0  0  0  0  0  0  0  0  0  0  0  0
   -4.3118   -1.8914   -4.5710 N   0  0  0  0  0  0  0  0  0  0  0  0
   -2.2915   -2.7135   -3.9678 N   0  0  0  0  0  0  0  0  0  0  0  0
  2  1  1  6  0  0  0
  2  3  1  0  0  0  0
  2  5  1  0  0  0  0
  3  4  1  0  0  0  0
  5  6  1  0  0  0  0
  6  7  1  0  0  0  0
  7  8  1  0  0  0  0
  8  9  1  0  0  0  0
  9 10  1  0  0  0  0
  9 11  1  0  0  0  0
M  END
>  <CHROM.1>
177.41000782,61.84866032,-83.94598739,115.42868863,73.09894356,118.52907766
136.40940615,97.06696646,103.66578704,-3.82623869,-3.28424751,-0.54868783
1.70859318,0.39495381,1.72645817

>  <Name>
1akx_lig

>  <RI>
0

>  <Rbt.Current_Directory>
/home/afrankz/demos/rdock_decoys_rna/rnas/1akx

>  <Rbt.Executable>
rbdock ($Id: //depot/dev/client3/rdock/2013.1/src/exe/rbdock.cxx#4 $)

>  <Rbt.Library>
libRbt.so (2013.1, Build901 2013/11/27)

>  <Rbt.Parameter_File>
/export/apps/rDock/src/rDock_2013.1_src/data/scripts/dock_solv.prm

>  <Rbt.Receptor>
prm/pocket_docking_8.prm

>  <SCORE>
-20.6108

>  <SCORE.INTER>
-16.3026

>  <SCORE.INTER.CONST>
1

>  <SCORE.INTER.POLAR>
-2.65521

>  <SCORE.INTER.ROT>
8

>  <SCORE.INTER.SOLV>
6.86541

>  <SCORE.INTER.VDW>
-13.2395

>  <SCORE.INTER.norm>
-1.48205

>  <SCORE.INTRA>
-4.30823

>  <SCORE.INTRA.DIHEDRAL>
-8.13697

>  <SCORE.INTRA.DIHEDRAL.0>
21.6454

>  <SCORE.INTRA.POLAR>
0

>  <SCORE.INTRA.POLAR.0>
0

>  <SCORE.INTRA.REPUL>
0

>  <SCORE.INTRA.REPUL.0>
0

>  <SCORE.INTRA.SOLV>
0.455156

>  <SCORE.INTRA.SOLV.lig_0>
-16.5947

>  <SCORE.INTRA.VDW>
-0.467318

>  <SCORE.INTRA.VDW.0>
-0.691398

>  <SCORE.INTRA.norm>
-0.391657

>  <SCORE.RESTR>
0

>  <SCORE.RESTR.CAVITY>
0

>  <SCORE.RESTR.norm>
0

>  <SCORE.SYSTEM>
0

>  <SCORE.SYSTEM.CONST>
0

>  <SCORE.SYSTEM.DIHEDRAL>
0

>  <SCORE.SYSTEM.SOLV>
0

>  <SCORE.SYSTEM.norm>
0

>  <SCORE.heavy>
11

>  <SCORE.norm>
-1.87371

>  <RMSD>
3.134

>  <RMSD>
3.134

$$$$
1akx_lig
 OpenBabel11021811383D
libRbt.so/2013.1/901 2013/11/27
 11 10  0  0  0  0  0  0  0  0999 V2000
   -4.9253   -4.9923    1.5011 N   0  0  0  0  0  0  0  0  0  0  0  0
   -3.8846   -3.9566    1.7702 C   0  0  2  0  0  0  0  0  0  0  0  0
   -4.2674   -3.1599    3.0238 C   0  0  0  0  0  0  0  0  0  0  0  0
   -4.3667   -3.7142    4.1004 O   0  0  0  0  0  0  0  0  0  0  0  0
   -3.7781   -3.0088    0.5678 C   0  0  0  0  0  0  0  0  0  0  0  0
   -2.8539   -3.6188   -0.4910 C   0  0  0  0  0  0  0  0  0  0  0  0
   -3.6549   -3.9151   -1.7588 C   0  0  0  0  0  0  0  0  0  0  0  0
   -3.9717   -2.6352   -2.4545 N   0  0  0  0  0  0  0  0  0  0  0  0
   -3.5265   -2.4150   -3.6651 C   0  0  0  0  0  0  0  0  0  0  0  0
   -4.3118   -1.8914   -4.5710 N   0  0  0  0  0  0  0  0  0  0  0  0
   -2.2915   -2.7135   -3.9678 N   0  0  0  0  0  0  0  0  0  0  0  0
  2  1  1  6  0  0  0
  2  3  1  0  0  0  0
  2  5  1  0  0  0  0
  3  4  1  0  0  0  0
  5  6  1  0  0  0  0
  6  7  1  0  0  0  0
  7  8  1  0  0  0  0
  8  9  1  0  0  0  0
  9 10  1  0  0  0  0
  9 11  1  0  0  0  0
M  END
>  <CHROM.1>
177.41000782,61.84866032,-83.94598739,115.42868863,73.09894356,118.52907766
136.40940615,97.06696646,103.66578704,-3.82623869,-3.28424751,-0.54868783
1.70859318,0.39495381,1.72645817

>  <Name>
1akx_lig

>  <RI>
0

>  <Rbt.Current_Directory>
/home/afrankz/demos/rdock_decoys_rna/rnas/1akx

>  <Rbt.Executable>
rbdock ($Id: //depot/dev/client3/rdock/2013.1/src/exe/rbdock.cxx#4 $)

>  <Rbt.Library>
libRbt.so (2013.1, Build901 2013/11/27)

>  <Rbt.Parameter_File>
/export/apps/rDock/src/rDock_2013.1_src/data/scripts/dock_solv.prm

>  <Rbt.Receptor>
prm/pocket_docking_8.prm

>  <SCORE>
-20.6108

>  <SCORE.INTER>
-16.3026

>  <SCORE.INTER.CONST>
1

>  <SCORE.INTER.POLAR>
-2.65521

>  <SCORE.INTER.ROT>
8

>  <SCORE.INTER.SOLV>
6.86541

>  <SCORE.INTER.VDW>
-13.2395

>  <SCORE.INTER.norm>
-1.48205

>  <SCORE.INTRA>
-4.30823

>  <SCORE.INTRA.DIHEDRAL>
-8.13697

>  <SCORE.INTRA.DIHEDRAL.0>
21.6454

>  <SCORE.INTRA.POLAR>
0

>  <SCORE.INTRA.POLAR.0>
0

>  <SCORE.INTRA.REPUL>
0

>  <SCORE.INTRA.REPUL.0>
0

>  <SCORE.INTRA.SOLV>
0.455156

>  <SCORE.INTRA.SOLV.lig_0>
-16.5947

>  <SCORE.INTRA.VDW>
-0.467318

>  <SCORE.INTRA.VDW.0>
-0.691398

>  <SCORE.INTRA.norm>
-0.391657

>  <SCORE.RESTR>
0

>  <SCORE.RESTR.CAVITY>
0

>  <SCORE.RESTR.norm>
0

>  <SCORE.SYSTEM>
0

>  <SCORE.SYSTEM.CONST>
0

>  <SCORE.SYSTEM.DIHEDRAL>
0

>  <SCORE.SYSTEM.SOLV>
0

>  <SCORE.SYSTEM.norm>
0

>  <SCORE.heavy>
11

>  <SCORE.norm>
-1.87371

>  <RMSD>
3.134

>  <RMSD>
3.134

$$$$
1akx_lig
 OpenBabel11021811383D
libRbt.so/2013.1/901 2013/11/27
 11 10  0  0  0  0  0  0  0  0999 V2000
    0.9081   -3.0989    1.2663 N   0  0  0  0  0  0  0  0  0  0  0  0
    0.1718   -1.8004    1.2654 C   0  0  2  0  0  0  0  0  0  0  0  0
    0.2865   -1.1459    2.6479 C   0  0  0  0  0  0  0  0  0  0  0  0
   -0.0454   -1.7527    3.6468 O   0  0  0  0  0  0  0  0  0  0  0  0
   -1.3057   -2.0462    0.9308 C   0  0  0  0  0  0  0  0  0  0  0  0
   -1.4264   -2.6221   -0.4838 C   0  0  0  0  0  0  0  0  0  0  0  0
   -2.9028   -2.7966   -0.8401 C   0  0  0  0  0  0  0  0  0  0  0  0
   -3.0168   -3.5415   -2.1263 N   0  0  0  0  0  0  0  0  0  0  0  0
   -3.4026   -2.9243   -3.2138 C   0  0  0  0  0  0  0  0  0  0  0  0
   -4.6662   -2.9127   -3.5521 N   0  0  0  0  0  0  0  0  0  0  0  0
   -2.5229   -2.3122   -3.9606 N   0  0  0  0  0  0  0  0  0  0  0  0
  2  1  1  1  0  0  0
  2  3  1  0  0  0  0
  2  5  1  0  0  0  0
  3  4  1  0  0  0  0
  5  6  1  0  0  0  0
  6  7  1  0  0  0  0
  7  8  1  0  0  0  0
  8  9  1  0  0  0  0
  9 10  1  0  0  0  0
  9 11  1  0  0  0  0
M  END
>  <CHROM.1>
-41.05026882,-54.67953489,-63.12786432,-177.05417922,-171.62196031,-108.40563051
-92.97462552,-139.12569401,-5.08762479,-1.61733748,-2.47422619,-0.41295551
-0.98863269,0.07042279,-1.78380212

>  <Name>
1akx_lig

>  <RI>
0

>  <Rbt.Current_Directory>
/home/itssahil/PROJECTS/Mol_Feturizer/New_Systems/rnas/1akx

>  <Rbt.Executable>
rbdock ($Id: //depot/dev/client3/rdock/2013.1/src/exe/rbdock.cxx#4 $)

>  <Rbt.Library>
libRbt.so (2013.1, Build901 2013/11/27)

>  <Rbt.Parameter_File>
/export/apps/rDock/src/rDock_2013.1_src/data/scripts/dock_solv.prm

>  <Rbt.Receptor>
prm/pocket_docking_6.prm

>  <SCORE>
-33.1683

>  <SCORE.INTER>
-25.353

>  <SCORE.INTER.CONST>
1

>  <SCORE.INTER.POLAR>
-4.00684

>  <SCORE.INTER.ROT>
8

>  <SCORE.INTER.SOLV>
6.275

>  <SCORE.INTER.VDW>
-14.5709

>  <SCORE.INTER.norm>
-2.30482

>  <SCORE.INTRA>
-7.81528

>  <SCORE.INTRA.DIHEDRAL>
-15.5949

>  <SCORE.INTRA.DIHEDRAL.0>
21.6454

>  <SCORE.INTRA.POLAR>
0

>  <SCORE.INTRA.POLAR.0>
0

>  <SCORE.INTRA.REPUL>
0

>  <SCORE.INTRA.REPUL.0>
0

>  <SCORE.INTRA.SOLV>
0.400421

>  <SCORE.INTRA.SOLV.lig_0>
-16.5947

>  <SCORE.INTRA.VDW>
-0.218047

>  <SCORE.INTRA.VDW.0>
-0.691398

>  <SCORE.INTRA.norm>
-0.71048

>  <SCORE.RESTR>
0

>  <SCORE.RESTR.CAVITY>
0

>  <SCORE.RESTR.norm>
0

>  <SCORE.SYSTEM>
0

>  <SCORE.SYSTEM.CONST>
0

>  <SCORE.SYSTEM.DIHEDRAL>
0

>  <SCORE.SYSTEM.SOLV>
0

>  <SCORE.SYSTEM.norm>
0

>  <SCORE.heavy>
11

>  <SCORE.norm>
-3.0153

>  <RMSD>
3.140

$$$$
1akx_lig
 OpenBabel11021811383D
libRbt.so/2013.1/901 2013/11/27
 11 10  0  0  0  0  0  0  0  0999 V2000
   -5.0308   -2.2680    0.7780 N   0  0  0  0  0  0  0  0  0  0  0  0
   -4.3768   -3.3971    1.5030 C   0  0  2  0  0  0  0  0  0  0  0  0
   -3.6334   -2.8551    2.7303 C   0  0  0  0  0  0  0  0  0  0  0  0
   -3.0748   -3.6136    3.4977 O   0  0  0  0  0  0  0  0  0  0  0  0
   -3.3855   -4.1039    0.5686 C   0  0  0  0  0  0  0  0  0  0  0  0
   -2.4123   -3.0793   -0.0231 C   0  0  0  0  0  0  0  0  0  0  0  0
   -1.7252   -3.6770   -1.2509 C   0  0  0  0  0  0  0  0  0  0  0  0
   -2.7235   -3.8411   -2.3458 N   0  0  0  0  0  0  0  0  0  0  0  0
   -2.5627   -3.2159   -3.4840 C   0  0  0  0  0  0  0  0  0  0  0  0
   -3.5602   -2.5650   -4.0252 N   0  0  0  0  0  0  0  0  0  0  0  0
   -1.3998   -3.2368   -4.0784 N   0  0  0  0  0  0  0  0  0  0  0  0
  2  1  1  6  0  0  0
  2  3  1  0  0  0  0
  2  5  1  0  0  0  0
  3  4  1  0  0  0  0
  5  6  1  0  0  0  0
  6  7  1  0  0  0  0
  7  8  1  0  0  0  0
  8  9  1  0  0  0  0
  9 10  1  0  0  0  0
  9 11  1  0  0  0  0
M  END
>  <CHROM.1>
-70.27862312,176.88754920,53.42661650,-162.59988918,68.46354842,119.37943909
-132.67576971,6.91624772,-70.70685758,-3.10159818,-3.23515434,-0.58242716
1.81320077,-0.40818352,1.67670600

>  <Name>
1akx_lig

>  <RI>
0

>  <Rbt.Current_Directory>
/home/afrankz/demos/rdock_decoys_rna/rnas/1akx

>  <Rbt.Executable>
rbdock ($Id: //depot/dev/client3/rdock/2013.1/src/exe/rbdock.cxx#4 $)

>  <Rbt.Library>
libRbt.so (2013.1, Build901 2013/11/27)

>  <Rbt.Parameter_File>
/export/apps/rDock/src/rDock_2013.1_src/data/scripts/dock_solv.prm

>  <Rbt.Receptor>
prm/pocket_docking_8.prm

>  <SCORE>
-30.1367

>  <SCORE.INTER>
-24.1852

>  <SCORE.INTER.CONST>
1

>  <SCORE.INTER.POLAR>
-5.04431

>  <SCORE.INTER.ROT>
8

>  <SCORE.INTER.SOLV>
6.80371

>  <SCORE.INTER.VDW>
-10.5103

>  <SCORE.INTER.norm>
-2.19865

>  <SCORE.INTRA>
-5.95157

>  <SCORE.INTRA.DIHEDRAL>
-14.9269

>  <SCORE.INTRA.DIHEDRAL.0>
21.6454

>  <SCORE.INTRA.POLAR>
0

>  <SCORE.INTRA.POLAR.0>
0

>  <SCORE.INTRA.REPUL>
0

>  <SCORE.INTRA.REPUL.0>
0

>  <SCORE.INTRA.SOLV>
0.473609

>  <SCORE.INTRA.SOLV.lig_0>
-16.5947

>  <SCORE.INTRA.VDW>
1.27507

>  <SCORE.INTRA.VDW.0>
-0.691398

>  <SCORE.INTRA.norm>
-0.541052

>  <SCORE.RESTR>
0

>  <SCORE.RESTR.CAVITY>
0

>  <SCORE.RESTR.norm>
0

>  <SCORE.SYSTEM>
0

>  <SCORE.SYSTEM.CONST>
0

>  <SCORE.SYSTEM.DIHEDRAL>
0

>  <SCORE.SYSTEM.SOLV>
0

>  <SCORE.SYSTEM.norm>
0

>  <SCORE.heavy>
11

>  <SCORE.norm>
-2.7397

>  <RMSD>
3.172

>  <RMSD>
3.172

$$$$
1akx_lig
 OpenBabel11021811383D
libRbt.so/2013.1/901 2013/11/27
 11 10  0  0  0  0  0  0  0  0999 V2000
   -5.0308   -2.2680    0.7780 N   0  0  0  0  0  0  0  0  0  0  0  0
   -4.3768   -3.3971    1.5030 C   0  0  2  0  0  0  0  0  0  0  0  0
   -3.6334   -2.8551    2.7303 C   0  0  0  0  0  0  0  0  0  0  0  0
   -3.0748   -3.6136    3.4977 O   0  0  0  0  0  0  0  0  0  0  0  0
   -3.3855   -4.1039    0.5686 C   0  0  0  0  0  0  0  0  0  0  0  0
   -2.4123   -3.0793   -0.0231 C   0  0  0  0  0  0  0  0  0  0  0  0
   -1.7252   -3.6770   -1.2509 C   0  0  0  0  0  0  0  0  0  0  0  0
   -2.7235   -3.8411   -2.3458 N   0  0  0  0  0  0  0  0  0  0  0  0
   -2.5627   -3.2159   -3.4840 C   0  0  0  0  0  0  0  0  0  0  0  0
   -3.5602   -2.5650   -4.0252 N   0  0  0  0  0  0  0  0  0  0  0  0
   -1.3998   -3.2368   -4.0784 N   0  0  0  0  0  0  0  0  0  0  0  0
  2  1  1  6  0  0  0
  2  3  1  0  0  0  0
  2  5  1  0  0  0  0
  3  4  1  0  0  0  0
  5  6  1  0  0  0  0
  6  7  1  0  0  0  0
  7  8  1  0  0  0  0
  8  9  1  0  0  0  0
  9 10  1  0  0  0  0
  9 11  1  0  0  0  0
M  END
>  <CHROM.1>
-70.27862312,176.88754920,53.42661650,-162.59988918,68.46354842,119.37943909
-132.67576971,6.91624772,-70.70685758,-3.10159818,-3.23515434,-0.58242716
1.81320077,-0.40818352,1.67670600

>  <Name>
1akx_lig

>  <RI>
0

>  <Rbt.Current_Directory>
/home/afrankz/demos/rdock_decoys_rna/rnas/1akx

>  <Rbt.Executable>
rbdock ($Id: //depot/dev/client3/rdock/2013.1/src/exe/rbdock.cxx#4 $)

>  <Rbt.Library>
libRbt.so (2013.1, Build901 2013/11/27)

>  <Rbt.Parameter_File>
/export/apps/rDock/src/rDock_2013.1_src/data/scripts/dock_solv.prm

>  <Rbt.Receptor>
prm/pocket_docking_8.prm

>  <SCORE>
-30.1367

>  <SCORE.INTER>
-24.1852

>  <SCORE.INTER.CONST>
1

>  <SCORE.INTER.POLAR>
-5.04431

>  <SCORE.INTER.ROT>
8

>  <SCORE.INTER.SOLV>
6.80371

>  <SCORE.INTER.VDW>
-10.5103

>  <SCORE.INTER.norm>
-2.19865

>  <SCORE.INTRA>
-5.95157

>  <SCORE.INTRA.DIHEDRAL>
-14.9269

>  <SCORE.INTRA.DIHEDRAL.0>
21.6454

>  <SCORE.INTRA.POLAR>
0

>  <SCORE.INTRA.POLAR.0>
0

>  <SCORE.INTRA.REPUL>
0

>  <SCORE.INTRA.REPUL.0>
0

>  <SCORE.INTRA.SOLV>
0.473609

>  <SCORE.INTRA.SOLV.lig_0>
-16.5947

>  <SCORE.INTRA.VDW>
1.27507

>  <SCORE.INTRA.VDW.0>
-0.691398

>  <SCORE.INTRA.norm>
-0.541052

>  <SCORE.RESTR>
0

>  <SCORE.RESTR.CAVITY>
0

>  <SCORE.RESTR.norm>
0

>  <SCORE.SYSTEM>
0

>  <SCORE.SYSTEM.CONST>
0

>  <SCORE.SYSTEM.DIHEDRAL>
0

>  <SCORE.SYSTEM.SOLV>
0

>  <SCORE.SYSTEM.norm>
0

>  <SCORE.heavy>
11

>  <SCORE.norm>
-2.7397

>  <RMSD>
3.172

>  <RMSD>
3.172

$$$$
1akx_lig
 OpenBabel11021811383D
libRbt.so/2013.1/901 2013/11/27
 11 10  0  0  0  0  0  0  0  0999 V2000
    0.3207   -3.8859    0.9538 N   0  0  0  0  0  0  0  0  0  0  0  0
   -0.5634   -2.9499    0.1985 C   0  0  2  0  0  0  0  0  0  0  0  0
   -1.8349   -2.6780    1.0121 C   0  0  0  0  0  0  0  0  0  0  0  0
   -1.7727   -2.0992    2.0785 O   0  0  0  0  0  0  0  0  0  0  0  0
   -0.9379   -3.5729   -1.1532 C   0  0  0  0  0  0  0  0  0  0  0  0
   -1.4782   -2.4881   -2.0905 C   0  0  0  0  0  0  0  0  0  0  0  0
   -2.0480   -3.1392   -3.3507 C   0  0  0  0  0  0  0  0  0  0  0  0
   -3.3137   -2.4513   -3.7342 N   0  0  0  0  0  0  0  0  0  0  0  0
   -4.4252   -2.7105   -3.0941 C   0  0  0  0  0  0  0  0  0  0  0  0
   -4.5365   -2.4217   -1.8230 N   0  0  0  0  0  0  0  0  0  0  0  0
   -5.4292   -3.2538   -3.7288 N   0  0  0  0  0  0  0  0  0  0  0  0
  2  1  1  1  0  0  0
  2  3  1  0  0  0  0
  2  5  1  0  0  0  0
  3  4  1  0  0  0  0
  5  6  1  0  0  0  0
  6  7  1  0  0  0  0
  7  8  1  0  0  0  0
  8  9  1  0  0  0  0
  9 10  1  0  0  0  0
  9 11  1  0  0  0  0
M  END
>  <CHROM.1>
58.12734353,64.85265123,-163.25780171,-171.36304252,139.15993128,-77.98406178
63.77332107,1.79130951,-18.36386522,-2.37842944,-2.88480895,-1.30207285,-0.86141706
0.22972795,-1.71302669

>  <Name>
1akx_lig

>  <RI>
0

>  <Rbt.Current_Directory>
/home/itssahil/PROJECTS/Mol_Feturizer/New_Systems/rnas/1akx

>  <Rbt.Executable>
rbdock ($Id: //depot/dev/client3/rdock/2013.1/src/exe/rbdock.cxx#4 $)

>  <Rbt.Library>
libRbt.so (2013.1, Build901 2013/11/27)

>  <Rbt.Parameter_File>
/export/apps/rDock/src/rDock_2013.1_src/data/scripts/dock_solv.prm

>  <Rbt.Receptor>
prm/pocket_docking_3.prm

>  <SCORE>
-30.6

>  <SCORE.INTER>
-25.6313

>  <SCORE.INTER.CONST>
1

>  <SCORE.INTER.POLAR>
-3.11134

>  <SCORE.INTER.ROT>
8

>  <SCORE.INTER.SOLV>
8.81551

>  <SCORE.INTER.VDW>
-18.5882

>  <SCORE.INTER.norm>
-2.33011

>  <SCORE.INTRA>
-4.96871

>  <SCORE.INTRA.DIHEDRAL>
-11.146

>  <SCORE.INTRA.DIHEDRAL.0>
21.6454

>  <SCORE.INTRA.POLAR>
0

>  <SCORE.INTRA.POLAR.0>
0

>  <SCORE.INTRA.REPUL>
0

>  <SCORE.INTRA.REPUL.0>
0

>  <SCORE.INTRA.SOLV>
0.635524

>  <SCORE.INTRA.SOLV.lig_0>
-16.5947

>  <SCORE.INTRA.VDW>
0.286522

>  <SCORE.INTRA.VDW.0>
-0.691398

>  <SCORE.INTRA.norm>
-0.451701

>  <SCORE.RESTR>
0

>  <SCORE.RESTR.CAVITY>
0

>  <SCORE.RESTR.norm>
0

>  <SCORE.SYSTEM>
0

>  <SCORE.SYSTEM.CONST>
0

>  <SCORE.SYSTEM.DIHEDRAL>
0

>  <SCORE.SYSTEM.SOLV>
0

>  <SCORE.SYSTEM.norm>
0

>  <SCORE.heavy>
11

>  <SCORE.norm>
-2.78182

>  <RMSD>
3.202

$$$$
1akx_lig
 OpenBabel11021811383D
libRbt.so/2013.1/901 2013/11/27
 11 10  0  0  0  0  0  0  0  0999 V2000
    1.2653   -3.6621    1.9540 N   0  0  0  0  0  0  0  0  0  0  0  0
    0.5356   -2.6996    1.0770 C   0  0  2  0  0  0  0  0  0  0  0  0
   -0.2381   -1.7003    1.9462 C   0  0  0  0  0  0  0  0  0  0  0  0
   -0.8168   -0.7602    1.4386 O   0  0  0  0  0  0  0  0  0  0  0  0
   -0.4418   -3.4644    0.1741 C   0  0  0  0  0  0  0  0  0  0  0  0
   -0.9232   -2.5506   -0.9576 C   0  0  0  0  0  0  0  0  0  0  0  0
   -1.7603   -3.3608   -1.9473 C   0  0  0  0  0  0  0  0  0  0  0  0
   -2.3499   -2.4436   -2.9638 N   0  0  0  0  0  0  0  0  0  0  0  0
   -3.6407   -2.4399   -3.1789 C   0  0  0  0  0  0  0  0  0  0  0  0
   -4.4748   -2.6128   -2.1861 N   0  0  0  0  0  0  0  0  0  0  0  0
   -4.0974   -2.2565   -4.3888 N   0  0  0  0  0  0  0  0  0  0  0  0
  2  1  1  1  0  0  0
  2  3  1  0  0  0  0
  2  5  1  0  0  0  0
  3  4  1  0  0  0  0
  5  6  1  0  0  0  0
  6  7  1  0  0  0  0
  7  8  1  0  0  0  0
  8  9  1  0  0  0  0
  9 10  1  0  0  0  0
  9 11  1  0  0  0  0
M  END
>  <CHROM.1>
-60.85852046,174.02967838,-165.60636720,173.21015790,173.86671602,-125.90645301
36.39616482,143.48124411,-38.63737155,-1.55114080,-2.53695189,-0.81359006
-0.61730038,0.67157144,-2.26835661

>  <Name>
1akx_lig

>  <RI>
0

>  <Rbt.Current_Directory>
/home/itssahil/PROJECTS/Mol_Feturizer/New_Systems/rnas/1akx

>  <Rbt.Executable>
rbdock ($Id: //depot/dev/client3/rdock/2013.1/src/exe/rbdock.cxx#4 $)

>  <Rbt.Library>
libRbt.so (2013.1, Build901 2013/11/27)

>  <Rbt.Parameter_File>
/export/apps/rDock/src/rDock_2013.1_src/data/scripts/dock_solv.prm

>  <Rbt.Receptor>
prm/pocket_docking_7.prm

>  <SCORE>
-37.6286

>  <SCORE.INTER>
-30.8649

>  <SCORE.INTER.CONST>
1

>  <SCORE.INTER.POLAR>
-4.32133

>  <SCORE.INTER.ROT>
8

>  <SCORE.INTER.SOLV>
8.55433

>  <SCORE.INTER.VDW>
-17.9569

>  <SCORE.INTER.norm>
-2.8059

>  <SCORE.INTRA>
-6.76372

>  <SCORE.INTRA.DIHEDRAL>
-15.5896

>  <SCORE.INTRA.DIHEDRAL.0>
21.6454

>  <SCORE.INTRA.POLAR>
0

>  <SCORE.INTRA.POLAR.0>
0

>  <SCORE.INTRA.REPUL>
0

>  <SCORE.INTRA.REPUL.0>
0

>  <SCORE.INTRA.SOLV>
0.138114

>  <SCORE.INTRA.SOLV.lig_0>
-16.5947

>  <SCORE.INTRA.VDW>
0.962042

>  <SCORE.INTRA.VDW.0>
-0.691398

>  <SCORE.INTRA.norm>
-0.614884

>  <SCORE.RESTR>
0

>  <SCORE.RESTR.CAVITY>
0

>  <SCORE.RESTR.norm>
0

>  <SCORE.SYSTEM>
0

>  <SCORE.SYSTEM.CONST>
0

>  <SCORE.SYSTEM.DIHEDRAL>
0

>  <SCORE.SYSTEM.SOLV>
0

>  <SCORE.SYSTEM.norm>
0

>  <SCORE.heavy>
11

>  <SCORE.norm>
-3.42078

>  <RMSD>
3.221

$$$$
1akx_lig
 OpenBabel11021811383D
libRbt.so/2013.1/901 2013/11/27
 11 10  0  0  0  0  0  0  0  0999 V2000
   -5.7807   -5.9896    0.5315 N   0  0  0  0  0  0  0  0  0  0  0  0
   -4.6224   -5.1906    1.0296 C   0  0  2  0  0  0  0  0  0  0  0  0
   -4.1602   -5.7474    2.3820 C   0  0  0  0  0  0  0  0  0  0  0  0
   -4.9389   -5.8382    3.3102 O   0  0  0  0  0  0  0  0  0  0  0  0
   -5.0404   -3.7227    1.1905 C   0  0  0  0  0  0  0  0  0  0  0  0
   -5.3663   -3.1246   -0.1819 C   0  0  0  0  0  0  0  0  0  0  0  0
   -4.1049   -3.1099   -1.0453 C   0  0  0  0  0  0  0  0  0  0  0  0
   -4.4180   -2.4987   -2.3685 N   0  0  0  0  0  0  0  0  0  0  0  0
   -3.4822   -2.3716   -3.2742 C   0  0  0  0  0  0  0  0  0  0  0  0
   -3.7681   -2.5174   -4.5424 N   0  0  0  0  0  0  0  0  0  0  0  0
   -2.2593   -2.0918   -2.9103 N   0  0  0  0  0  0  0  0  0  0  0  0
  2  1  1  1  0  0  0
  2  3  1  0  0  0  0
  2  5  1  0  0  0  0
  3  4  1  0  0  0  0
  5  6  1  0  0  0  0
  6  7  1  0  0  0  0
  7  8  1  0  0  0  0
  8  9  1  0  0  0  0
  9 10  1  0  0  0  0
  9 11  1  0  0  0  0
M  END
>  <CHROM.1>
65.37232523,-56.19764177,-65.46228358,-64.10565328,-178.70468066,179.53503319
144.41120841,-10.93011596,-1.70621136,-4.36901530,-3.85657096,-0.55799958
1.83922483,0.51580162,1.96156481

>  <Name>
1akx_lig

>  <RI>
0

>  <Rbt.Current_Directory>
/home/itssahil/PROJECTS/Mol_Feturizer/New_Systems/rnas/1akx

>  <Rbt.Executable>
rbdock ($Id: //depot/dev/client3/rdock/2013.1/src/exe/rbdock.cxx#4 $)

>  <Rbt.Library>
libRbt.so (2013.1, Build901 2013/11/27)

>  <Rbt.Parameter_File>
/export/apps/rDock/src/rDock_2013.1_src/data/scripts/dock_solv.prm

>  <Rbt.Receptor>
prm/pocket_docking_4.prm

>  <SCORE>
-26.8968

>  <SCORE.INTER>
-20.3437

>  <SCORE.INTER.CONST>
1

>  <SCORE.INTER.POLAR>
-3.45533

>  <SCORE.INTER.ROT>
8

>  <SCORE.INTER.SOLV>
6.68403

>  <SCORE.INTER.VDW>
-13.2061

>  <SCORE.INTER.norm>
-1.84943

>  <SCORE.INTRA>
-6.55306

>  <SCORE.INTRA.DIHEDRAL>
-16.5271

>  <SCORE.INTRA.DIHEDRAL.0>
21.6454

>  <SCORE.INTRA.POLAR>
0

>  <SCORE.INTRA.POLAR.0>
0

>  <SCORE.INTRA.REPUL>
0

>  <SCORE.INTRA.REPUL.0>
0

>  <SCORE.INTRA.SOLV>
0.430512

>  <SCORE.INTRA.SOLV.lig_0>
-16.5947

>  <SCORE.INTRA.VDW>
1.49525

>  <SCORE.INTRA.VDW.0>
-0.691398

>  <SCORE.INTRA.norm>
-0.595733

>  <SCORE.RESTR>
0

>  <SCORE.RESTR.CAVITY>
0

>  <SCORE.RESTR.norm>
0

>  <SCORE.SYSTEM>
0

>  <SCORE.SYSTEM.CONST>
0

>  <SCORE.SYSTEM.DIHEDRAL>
0

>  <SCORE.SYSTEM.SOLV>
0

>  <SCORE.SYSTEM.norm>
0

>  <SCORE.heavy>
11

>  <SCORE.norm>
-2.44516

>  <RMSD>
3.226

$$$$
1akx_lig
 OpenBabel11021811383D
libRbt.so/2013.1/901 2013/11/27
 11 10  0  0  0  0  0  0  0  0999 V2000
   -3.7518   -2.2101    1.4352 N   0  0  0  0  0  0  0  0  0  0  0  0
   -4.4691   -3.4799    1.1171 C   0  0  2  0  0  0  0  0  0  0  0  0
   -3.9937   -4.5878    2.0654 C   0  0  0  0  0  0  0  0  0  0  0  0
   -2.8158   -4.8781    2.1332 O   0  0  0  0  0  0  0  0  0  0  0  0
   -4.1816   -3.8840   -0.3353 C   0  0  0  0  0  0  0  0  0  0  0  0
   -5.0139   -3.0187   -1.2870 C   0  0  0  0  0  0  0  0  0  0  0  0
   -4.4401   -3.1170   -2.7005 C   0  0  0  0  0  0  0  0  0  0  0  0
   -3.0548   -2.5664   -2.7117 N   0  0  0  0  0  0  0  0  0  0  0  0
   -2.0876   -3.2263   -3.2959 C   0  0  0  0  0  0  0  0  0  0  0  0
   -1.9239   -3.1465   -4.5914 N   0  0  0  0  0  0  0  0  0  0  0  0
   -1.2789   -3.9623   -2.5815 N   0  0  0  0  0  0  0  0  0  0  0  0
  2  1  1  1  0  0  0
  2  3  1  0  0  0  0
  2  5  1  0  0  0  0
  3  4  1  0  0  0  0
  5  6  1  0  0  0  0
  6  7  1  0  0  0  0
  7  8  1  0  0  0  0
  8  9  1  0  0  0  0
  9 10  1  0  0  0  0
  9 11  1  0  0  0  0
M  END
>  <CHROM.1>
179.17088067,-56.88006792,-76.94304241,163.23389494,-63.08500008,132.97452527
81.70131739,8.78929617,-77.28677394,-3.31207355,-3.44604578,-0.96700331,1.87516127
-0.45597788,1.83955002

>  <Name>
1akx_lig

>  <RI>
0

>  <Rbt.Current_Directory>
/home/itssahil/PROJECTS/Mol_Feturizer/New_Systems/rnas/1akx

>  <Rbt.Executable>
rbdock ($Id: //depot/dev/client3/rdock/2013.1/src/exe/rbdock.cxx#4 $)

>  <Rbt.Library>
libRbt.so (2013.1, Build901 2013/11/27)

>  <Rbt.Parameter_File>
/export/apps/rDock/src/rDock_2013.1_src/data/scripts/dock_solv.prm

>  <Rbt.Receptor>
prm/pocket_docking_4.prm

>  <SCORE>
-31.0569

>  <SCORE.INTER>
-23.5283

>  <SCORE.INTER.CONST>
1

>  <SCORE.INTER.POLAR>
-3.8689

>  <SCORE.INTER.ROT>
8

>  <SCORE.INTER.SOLV>
6.91396

>  <SCORE.INTER.VDW>
-14.0272

>  <SCORE.INTER.norm>
-2.13894

>  <SCORE.INTRA>
-7.52864

>  <SCORE.INTRA.DIHEDRAL>
-14.5787

>  <SCORE.INTRA.DIHEDRAL.0>
21.6454

>  <SCORE.INTRA.POLAR>
0

>  <SCORE.INTRA.POLAR.0>
0

>  <SCORE.INTRA.REPUL>
0

>  <SCORE.INTRA.REPUL.0>
0

>  <SCORE.INTRA.SOLV>
0.739373

>  <SCORE.INTRA.SOLV.lig_0>
-16.5947

>  <SCORE.INTRA.VDW>
-0.608952

>  <SCORE.INTRA.VDW.0>
-0.691398

>  <SCORE.INTRA.norm>
-0.684422

>  <SCORE.RESTR>
0

>  <SCORE.RESTR.CAVITY>
0

>  <SCORE.RESTR.norm>
0

>  <SCORE.SYSTEM>
0

>  <SCORE.SYSTEM.CONST>
0

>  <SCORE.SYSTEM.DIHEDRAL>
0

>  <SCORE.SYSTEM.SOLV>
0

>  <SCORE.SYSTEM.norm>
0

>  <SCORE.heavy>
11

>  <SCORE.norm>
-2.82336

>  <RMSD>
3.236

$$$$
1akx_lig
 OpenBabel11021811383D
libRbt.so/2013.1/901 2013/11/27
 11 10  0  0  0  0  0  0  0  0999 V2000
   -1.8083   -1.8967    1.6361 N   0  0  0  0  0  0  0  0  0  0  0  0
   -2.2020   -2.3127    0.2577 C   0  0  2  0  0  0  0  0  0  0  0  0
   -3.1689   -3.5007    0.3381 C   0  0  0  0  0  0  0  0  0  0  0  0
   -4.2164   -3.4033    0.9460 O   0  0  0  0  0  0  0  0  0  0  0  0
   -0.9517   -2.7166   -0.5354 C   0  0  0  0  0  0  0  0  0  0  0  0
   -1.1269   -2.3317   -2.0080 C   0  0  0  0  0  0  0  0  0  0  0  0
   -2.2188   -3.1978   -2.6360 C   0  0  0  0  0  0  0  0  0  0  0  0
   -3.5285   -2.4929   -2.5357 N   0  0  0  0  0  0  0  0  0  0  0  0
   -4.4291   -2.6382   -3.4739 C   0  0  0  0  0  0  0  0  0  0  0  0
   -4.3246   -1.9745   -4.5964 N   0  0  0  0  0  0  0  0  0  0  0  0
   -5.4325   -3.4541   -3.2908 N   0  0  0  0  0  0  0  0  0  0  0  0
  2  1  1  1  0  0  0
  2  3  1  0  0  0  0
  2  5  1  0  0  0  0
  3  4  1  0  0  0  0
  5  6  1  0  0  0  0
  6  7  1  0  0  0  0
  7  8  1  0  0  0  0
  8  9  1  0  0  0  0
  9 10  1  0  0  0  0
  9 11  1  0  0  0  0
M  END
>  <CHROM.1>
175.29567215,58.33186519,-145.91973852,-67.93674484,92.81684124,146.79800993
-79.04252681,-24.51995097,-155.52162179,-3.07721842,-2.70988336,-1.41893420
-1.09639503,-0.25725027,-1.46379808

>  <Name>
1akx_lig

>  <RI>
0

>  <Rbt.Current_Directory>
/home/itssahil/PROJECTS/Mol_Feturizer/New_Systems/rnas/1akx

>  <Rbt.Executable>
rbdock ($Id: //depot/dev/client3/rdock/2013.1/src/exe/rbdock.cxx#4 $)

>  <Rbt.Library>
libRbt.so (2013.1, Build901 2013/11/27)

>  <Rbt.Parameter_File>
/export/apps/rDock/src/rDock_2013.1_src/data/scripts/dock_solv.prm

>  <Rbt.Receptor>
prm/pocket_docking_3.prm

>  <SCORE>
-25.8154

>  <SCORE.INTER>
-21.8561

>  <SCORE.INTER.CONST>
1

>  <SCORE.INTER.POLAR>
-2.39198

>  <SCORE.INTER.ROT>
8

>  <SCORE.INTER.SOLV>
8.478

>  <SCORE.INTER.VDW>
-18.3568

>  <SCORE.INTER.norm>
-1.98691

>  <SCORE.INTRA>
-3.98174

>  <SCORE.INTRA.DIHEDRAL>
-9.79733

>  <SCORE.INTRA.DIHEDRAL.0>
21.6454

>  <SCORE.INTRA.POLAR>
0

>  <SCORE.INTRA.POLAR.0>
0

>  <SCORE.INTRA.REPUL>
0

>  <SCORE.INTRA.REPUL.0>
0

>  <SCORE.INTRA.SOLV>
1.22995

>  <SCORE.INTRA.SOLV.lig_0>
-16.5947

>  <SCORE.INTRA.VDW>
0.301951

>  <SCORE.INTRA.VDW.0>
-0.691398

>  <SCORE.INTRA.norm>
-0.361976

>  <SCORE.RESTR>
0.0223677

>  <SCORE.RESTR.CAVITY>
0.0223677

>  <SCORE.RESTR.norm>
0.00203343

>  <SCORE.SYSTEM>
0

>  <SCORE.SYSTEM.CONST>
0

>  <SCORE.SYSTEM.DIHEDRAL>
0

>  <SCORE.SYSTEM.SOLV>
0

>  <SCORE.SYSTEM.norm>
0

>  <SCORE.heavy>
11

>  <SCORE.norm>
-2.34686

>  <RMSD>
3.255

$$$$
1akx_lig
 OpenBabel11021811383D
libRbt.so/2013.1/901 2013/11/27
 11 10  0  0  0  0  0  0  0  0999 V2000
   -4.5079   -1.2464    2.1688 N   0  0  0  0  0  0  0  0  0  0  0  0
   -4.1316   -2.5687    1.5873 C   0  0  2  0  0  0  0  0  0  0  0  0
   -2.6244   -2.5928    1.3037 C   0  0  0  0  0  0  0  0  0  0  0  0
   -1.8250   -2.4134    2.2009 O   0  0  0  0  0  0  0  0  0  0  0  0
   -4.9069   -2.7972    0.2827 C   0  0  0  0  0  0  0  0  0  0  0  0
   -4.6634   -4.2237   -0.2202 C   0  0  0  0  0  0  0  0  0  0  0  0
   -3.7957   -4.1809   -1.4781 C   0  0  0  0  0  0  0  0  0  0  0  0
   -4.4135   -3.2600   -2.4743 N   0  0  0  0  0  0  0  0  0  0  0  0
   -3.6583   -2.5453   -3.2688 C   0  0  0  0  0  0  0  0  0  0  0  0
   -4.0661   -2.2495   -4.4761 N   0  0  0  0  0  0  0  0  0  0  0  0
   -2.4956   -2.1206   -2.8519 N   0  0  0  0  0  0  0  0  0  0  0  0
  2  1  1  6  0  0  0
  2  3  1  0  0  0  0
  2  5  1  0  0  0  0
  3  4  1  0  0  0  0
  5  6  1  0  0  0  0
  6  7  1  0  0  0  0
  7  8  1  0  0  0  0
  8  9  1  0  0  0  0
  9 10  1  0  0  0  0
  9 11  1  0  0  0  0
M  END
>  <CHROM.1>
52.71635746,58.69511436,-172.66844127,-109.47592794,-53.19619528,145.96037507
147.85695528,169.07937779,-27.52121972,-3.72144290,-2.69565390,-0.65418940
1.50320460,0.43790411,1.51938488

>  <Name>
1akx_lig

>  <RI>
0

>  <Rbt.Current_Directory>
/home/itssahil/PROJECTS/Mol_Feturizer/New_Systems/rnas/1akx

>  <Rbt.Executable>
rbdock ($Id: //depot/dev/client3/rdock/2013.1/src/exe/rbdock.cxx#4 $)

>  <Rbt.Library>
libRbt.so (2013.1, Build901 2013/11/27)

>  <Rbt.Parameter_File>
/export/apps/rDock/src/rDock_2013.1_src/data/scripts/dock_solv.prm

>  <Rbt.Receptor>
prm/pocket_docking_8.prm

>  <SCORE>
-35.8307

>  <SCORE.INTER>
-31.9212

>  <SCORE.INTER.CONST>
1

>  <SCORE.INTER.POLAR>
-5.28365

>  <SCORE.INTER.ROT>
8

>  <SCORE.INTER.SOLV>
6.26343

>  <SCORE.INTER.VDW>
-14.6898

>  <SCORE.INTER.norm>
-2.90193

>  <SCORE.INTRA>
-3.90943

>  <SCORE.INTRA.DIHEDRAL>
-10.6579

>  <SCORE.INTRA.DIHEDRAL.0>
21.6454

>  <SCORE.INTRA.POLAR>
0

>  <SCORE.INTRA.POLAR.0>
0

>  <SCORE.INTRA.REPUL>
0

>  <SCORE.INTRA.REPUL.0>
0

>  <SCORE.INTRA.SOLV>
0.729504

>  <SCORE.INTRA.SOLV.lig_0>
-16.5947

>  <SCORE.INTRA.VDW>
1.05477

>  <SCORE.INTRA.VDW.0>
-0.691398

>  <SCORE.INTRA.norm>
-0.355403

>  <SCORE.RESTR>
0

>  <SCORE.RESTR.CAVITY>
0

>  <SCORE.RESTR.norm>
0

>  <SCORE.SYSTEM>
0

>  <SCORE.SYSTEM.CONST>
0

>  <SCORE.SYSTEM.DIHEDRAL>
0

>  <SCORE.SYSTEM.SOLV>
0

>  <SCORE.SYSTEM.norm>
0

>  <SCORE.heavy>
11

>  <SCORE.norm>
-3.25733

>  <RMSD>
3.264

$$$$
1akx_lig
 OpenBabel11021811383D
libRbt.so/2013.1/901 2013/11/27
 11 10  0  0  0  0  0  0  0  0999 V2000
   -4.5722   -4.7420    1.4276 N   0  0  0  0  0  0  0  0  0  0  0  0
   -3.8466   -3.8092    0.5156 C   0  0  2  0  0  0  0  0  0  0  0  0
   -2.7554   -3.0709    1.3010 C   0  0  0  0  0  0  0  0  0  0  0  0
   -2.0270   -2.2738    0.7440 O   0  0  0  0  0  0  0  0  0  0  0  0
   -4.8345   -2.7943   -0.0755 C   0  0  0  0  0  0  0  0  0  0  0  0
   -5.6232   -3.4450   -1.2166 C   0  0  0  0  0  0  0  0  0  0  0  0
   -4.6778   -3.7615   -2.3755 C   0  0  0  0  0  0  0  0  0  0  0  0
   -4.0482   -2.4998   -2.8593 N   0  0  0  0  0  0  0  0  0  0  0  0
   -2.7804   -2.4772   -3.1826 C   0  0  0  0  0  0  0  0  0  0  0  0
   -1.8893   -2.0492   -2.3259 N   0  0  0  0  0  0  0  0  0  0  0  0
   -2.4033   -2.8898   -4.3631 N   0  0  0  0  0  0  0  0  0  0  0  0
  2  1  1  1  0  0  0
  2  3  1  0  0  0  0
  2  5  1  0  0  0  0
  3  4  1  0  0  0  0
  5  6  1  0  0  0  0
  6  7  1  0  0  0  0
  7  8  1  0  0  0  0
  8  9  1  0  0  0  0
  9 10  1  0  0  0  0
  9 11  1  0  0  0  0
M  END
>  <CHROM.1>
-178.17742726,178.85473131,-78.69792787,-66.36077145,-59.88948718,139.07367481
-97.56237743,-157.46621966,66.10683403,-3.55754730,-3.07468351,-1.11871422
1.82254684,0.41858763,1.70301150

>  <Name>
1akx_lig

>  <RI>
0

>  <Rbt.Current_Directory>
/home/itssahil/PROJECTS/Mol_Feturizer/New_Systems/rnas/1akx

>  <Rbt.Executable>
rbdock ($Id: //depot/dev/client3/rdock/2013.1/src/exe/rbdock.cxx#4 $)

>  <Rbt.Library>
libRbt.so (2013.1, Build901 2013/11/27)

>  <Rbt.Parameter_File>
/export/apps/rDock/src/rDock_2013.1_src/data/scripts/dock_solv.prm

>  <Rbt.Receptor>
prm/pocket_docking_5.prm

>  <SCORE>
-27.0688

>  <SCORE.INTER>
-16.2445

>  <SCORE.INTER.CONST>
1

>  <SCORE.INTER.POLAR>
-2.15894

>  <SCORE.INTER.ROT>
8

>  <SCORE.INTER.SOLV>
7.15427

>  <SCORE.INTER.VDW>
-14.9513

>  <SCORE.INTER.norm>
-1.47677

>  <SCORE.INTRA>
-10.8243

>  <SCORE.INTRA.DIHEDRAL>
-15.3642

>  <SCORE.INTRA.DIHEDRAL.0>
21.6454

>  <SCORE.INTRA.POLAR>
-1

>  <SCORE.INTRA.POLAR.0>
0

>  <SCORE.INTRA.REPUL>
0.0159263

>  <SCORE.INTRA.REPUL.0>
0

>  <SCORE.INTRA.SOLV>
1.50821

>  <SCORE.INTRA.SOLV.lig_0>
-16.5947

>  <SCORE.INTRA.VDW>
-0.575964

>  <SCORE.INTRA.VDW.0>
-0.691398

>  <SCORE.INTRA.norm>
-0.984028

>  <SCORE.RESTR>
0

>  <SCORE.RESTR.CAVITY>
0

>  <SCORE.RESTR.norm>
0

>  <SCORE.SYSTEM>
0

>  <SCORE.SYSTEM.CONST>
0

>  <SCORE.SYSTEM.DIHEDRAL>
0

>  <SCORE.SYSTEM.SOLV>
0

>  <SCORE.SYSTEM.norm>
0

>  <SCORE.heavy>
11

>  <SCORE.norm>
-2.4608

>  <RMSD>
3.275

$$$$
1akx_lig
 OpenBabel11021811383D
libRbt.so/2013.1/901 2013/11/27
 11 10  0  0  0  0  0  0  0  0999 V2000
   -5.0797   -2.0421    1.1398 N   0  0  0  0  0  0  0  0  0  0  0  0
   -4.4260   -3.2546    1.7150 C   0  0  2  0  0  0  0  0  0  0  0  0
   -3.4677   -2.8358    2.8371 C   0  0  0  0  0  0  0  0  0  0  0  0
   -3.5369   -3.3555    3.9331 O   0  0  0  0  0  0  0  0  0  0  0  0
   -3.6461   -3.9895    0.6164 C   0  0  0  0  0  0  0  0  0  0  0  0
   -4.6240   -4.5861   -0.4009 C   0  0  0  0  0  0  0  0  0  0  0  0
   -3.9951   -4.5537   -1.7938 C   0  0  0  0  0  0  0  0  0  0  0  0
   -4.0205   -3.1577   -2.3160 N   0  0  0  0  0  0  0  0  0  0  0  0
   -3.3162   -2.8352   -3.3707 C   0  0  0  0  0  0  0  0  0  0  0  0
   -3.9120   -2.4271   -4.4615 N   0  0  0  0  0  0  0  0  0  0  0  0
   -2.0131   -2.9152   -3.3314 N   0  0  0  0  0  0  0  0  0  0  0  0
  2  1  1  6  0  0  0
  2  3  1  0  0  0  0
  2  5  1  0  0  0  0
  3  4  1  0  0  0  0
  5  6  1  0  0  0  0
  6  7  1  0  0  0  0
  7  8  1  0  0  0  0
  8  9  1  0  0  0  0
  9 10  1  0  0  0  0
  9 11  1  0  0  0  0
M  END
>  <CHROM.1>
-67.04194193,128.05893416,-67.99059361,146.33594081,-74.86160297,166.96476627
116.94077166,140.87807555,49.18021421,-3.82369695,-3.22314862,-0.50522862
1.93214208,-1.29922920,1.94992914

>  <Name>
1akx_lig

>  <RI>
0

>  <Rbt.Current_Directory>
/home/itssahil/PROJECTS/Mol_Feturizer/New_Systems/rnas/1akx

>  <Rbt.Executable>
rbdock ($Id: //depot/dev/client3/rdock/2013.1/src/exe/rbdock.cxx#4 $)

>  <Rbt.Library>
libRbt.so (2013.1, Build901 2013/11/27)

>  <Rbt.Parameter_File>
/export/apps/rDock/src/rDock_2013.1_src/data/scripts/dock_solv.prm

>  <Rbt.Receptor>
prm/pocket_docking_8.prm

>  <SCORE>
-28.4841

>  <SCORE.INTER>
-24.9826

>  <SCORE.INTER.CONST>
1

>  <SCORE.INTER.POLAR>
-4.767

>  <SCORE.INTER.ROT>
8

>  <SCORE.INTER.SOLV>
6.07044

>  <SCORE.INTER.VDW>
-11.7219

>  <SCORE.INTER.norm>
-2.27115

>  <SCORE.INTRA>
-3.5015

>  <SCORE.INTRA.DIHEDRAL>
-6.97881

>  <SCORE.INTRA.DIHEDRAL.0>
21.6454

>  <SCORE.INTRA.POLAR>
0

>  <SCORE.INTRA.POLAR.0>
0

>  <SCORE.INTRA.REPUL>
0.0013314

>  <SCORE.INTRA.REPUL.0>
0

>  <SCORE.INTRA.SOLV>
0.542025

>  <SCORE.INTRA.SOLV.lig_0>
-16.5947

>  <SCORE.INTRA.VDW>
-0.289764

>  <SCORE.INTRA.VDW.0>
-0.691398

>  <SCORE.INTRA.norm>
-0.318318

>  <SCORE.RESTR>
0

>  <SCORE.RESTR.CAVITY>
0

>  <SCORE.RESTR.norm>
0

>  <SCORE.SYSTEM>
0

>  <SCORE.SYSTEM.CONST>
0

>  <SCORE.SYSTEM.DIHEDRAL>
0

>  <SCORE.SYSTEM.SOLV>
0

>  <SCORE.SYSTEM.norm>
0

>  <SCORE.heavy>
11

>  <SCORE.norm>
-2.58947

>  <RMSD>
3.313

$$$$
1akx_lig
 OpenBabel11021811383D
libRbt.so/2013.1/901 2013/11/27
 11 10  0  0  0  0  0  0  0  0999 V2000
   -2.1859   -0.4440    2.0747 N   0  0  0  0  0  0  0  0  0  0  0  0
   -1.9461   -1.9052    2.2635 C   0  0  2  0  0  0  0  0  0  0  0  0
   -1.2494   -2.1399    3.6097 C   0  0  0  0  0  0  0  0  0  0  0  0
   -0.1918   -1.5966    3.8597 O   0  0  0  0  0  0  0  0  0  0  0  0
   -1.0626   -2.4335    1.1252 C   0  0  0  0  0  0  0  0  0  0  0  0
   -1.8132   -2.3225   -0.2059 C   0  0  0  0  0  0  0  0  0  0  0  0
   -1.0516   -3.0888   -1.2873 C   0  0  0  0  0  0  0  0  0  0  0  0
   -1.3489   -2.4907   -2.6201 N   0  0  0  0  0  0  0  0  0  0  0  0
   -2.2805   -3.0060   -3.3811 C   0  0  0  0  0  0  0  0  0  0  0  0
   -2.0923   -3.1149   -4.6711 N   0  0  0  0  0  0  0  0  0  0  0  0
   -3.3997   -3.4188   -2.8491 N   0  0  0  0  0  0  0  0  0  0  0  0
  2  1  1  6  0  0  0
  2  3  1  0  0  0  0
  2  5  1  0  0  0  0
  3  4  1  0  0  0  0
  5  6  1  0  0  0  0
  6  7  1  0  0  0  0
  7  8  1  0  0  0  0
  8  9  1  0  0  0  0
  9 10  1  0  0  0  0
  9 11  1  0  0  0  0
M  END
>  <CHROM.1>
-176.47215245,-57.09748269,-65.14142798,-169.13763704,-153.05453714,-96.11602370
-139.29476056,61.35451813,116.01753535,-1.70472381,-2.32854691,-0.20251651
1.39988620,-0.38440957,1.28428329

>  <Name>
1akx_lig

>  <RI>
0

>  <Rbt.Current_Directory>
/home/itssahil/PROJECTS/Mol_Feturizer/New_Systems/rnas/1akx

>  <Rbt.Executable>
rbdock ($Id: //depot/dev/client3/rdock/2013.1/src/exe/rbdock.cxx#4 $)

>  <Rbt.Library>
libRbt.so (2013.1, Build901 2013/11/27)

>  <Rbt.Parameter_File>
/export/apps/rDock/src/rDock_2013.1_src/data/scripts/dock_solv.prm

>  <Rbt.Receptor>
prm/pocket_docking_5.prm

>  <SCORE>
-29.0868

>  <SCORE.INTER>
-22.6161

>  <SCORE.INTER.CONST>
1

>  <SCORE.INTER.POLAR>
-3.63495

>  <SCORE.INTER.ROT>
8

>  <SCORE.INTER.SOLV>
7.54237

>  <SCORE.INTER.VDW>
-14.4083

>  <SCORE.INTER.norm>
-2.05601

>  <SCORE.INTRA>
-6.47068

>  <SCORE.INTRA.DIHEDRAL>
-13.8768

>  <SCORE.INTRA.DIHEDRAL.0>
21.6454

>  <SCORE.INTRA.POLAR>
0

>  <SCORE.INTRA.POLAR.0>
0

>  <SCORE.INTRA.REPUL>
0

>  <SCORE.INTRA.REPUL.0>
0

>  <SCORE.INTRA.SOLV>
0.449793

>  <SCORE.INTRA.SOLV.lig_0>
-16.5947

>  <SCORE.INTRA.VDW>
0.242804

>  <SCORE.INTRA.VDW.0>
-0.691398

>  <SCORE.INTRA.norm>
-0.588244

>  <SCORE.RESTR>
0

>  <SCORE.RESTR.CAVITY>
0

>  <SCORE.RESTR.norm>
0

>  <SCORE.SYSTEM>
0

>  <SCORE.SYSTEM.CONST>
0

>  <SCORE.SYSTEM.DIHEDRAL>
0

>  <SCORE.SYSTEM.SOLV>
0

>  <SCORE.SYSTEM.norm>
0

>  <SCORE.heavy>
11

>  <SCORE.norm>
-2.64425

>  <RMSD>
3.336

$$$$
1akx_lig
 OpenBabel11021811383D
libRbt.so/2013.1/901 2013/11/27
 11 10  0  0  0  0  0  0  0  0999 V2000
   -5.4676   -2.8020    2.1033 N   0  0  0  0  0  0  0  0  0  0  0  0
   -5.4086   -4.2135    1.6214 C   0  0  2  0  0  0  0  0  0  0  0  0
   -4.4610   -5.0211    2.5173 C   0  0  0  0  0  0  0  0  0  0  0  0
   -3.3221   -4.6436    2.7088 O   0  0  0  0  0  0  0  0  0  0  0  0
   -4.9011   -4.2426    0.1733 C   0  0  0  0  0  0  0  0  0  0  0  0
   -5.9788   -3.6872   -0.7634 C   0  0  0  0  0  0  0  0  0  0  0  0
   -5.4302   -3.6168   -2.1885 C   0  0  0  0  0  0  0  0  0  0  0  0
   -4.3754   -2.5659   -2.2615 N   0  0  0  0  0  0  0  0  0  0  0  0
   -3.7561   -2.3305   -3.3899 C   0  0  0  0  0  0  0  0  0  0  0  0
   -4.4115   -2.3661   -4.5215 N   0  0  0  0  0  0  0  0  0  0  0  0
   -2.4798   -2.0526   -3.3851 N   0  0  0  0  0  0  0  0  0  0  0  0
  2  1  1  1  0  0  0
  2  3  1  0  0  0  0
  2  5  1  0  0  0  0
  3  4  1  0  0  0  0
  5  6  1  0  0  0  0
  6  7  1  0  0  0  0
  7  8  1  0  0  0  0
  8  9  1  0  0  0  0
  9 10  1  0  0  0  0
  9 11  1  0  0  0  0
M  END
>  <CHROM.1>
67.46850054,-54.03416664,-71.14729691,175.63898921,-68.68858481,179.69165895
38.32707559,153.74625478,13.84316818,-4.51429091,-3.37307456,-0.66503923
1.69304854,0.10449187,1.86745683

>  <Name>
1akx_lig

>  <RI>
0

>  <Rbt.Current_Directory>
/home/itssahil/PROJECTS/Mol_Feturizer/New_Systems/rnas/1akx

>  <Rbt.Executable>
rbdock ($Id: //depot/dev/client3/rdock/2013.1/src/exe/rbdock.cxx#4 $)

>  <Rbt.Library>
libRbt.so (2013.1, Build901 2013/11/27)

>  <Rbt.Parameter_File>
/export/apps/rDock/src/rDock_2013.1_src/data/scripts/dock_solv.prm

>  <Rbt.Receptor>
prm/pocket_docking_4.prm

>  <SCORE>
-31.481

>  <SCORE.INTER>
-24.5518

>  <SCORE.INTER.CONST>
1

>  <SCORE.INTER.POLAR>
-3.51065

>  <SCORE.INTER.ROT>
8

>  <SCORE.INTER.SOLV>
7.585

>  <SCORE.INTER.VDW>
-16.1273

>  <SCORE.INTER.norm>
-2.23198

>  <SCORE.INTRA>
-6.92929

>  <SCORE.INTRA.DIHEDRAL>
-15.7312

>  <SCORE.INTRA.DIHEDRAL.0>
21.6454

>  <SCORE.INTRA.POLAR>
0

>  <SCORE.INTRA.POLAR.0>
0

>  <SCORE.INTRA.REPUL>
0

>  <SCORE.INTRA.REPUL.0>
0

>  <SCORE.INTRA.SOLV>
0.479767

>  <SCORE.INTRA.SOLV.lig_0>
-16.5947

>  <SCORE.INTRA.VDW>
0.696431

>  <SCORE.INTRA.VDW.0>
-0.691398

>  <SCORE.INTRA.norm>
-0.629935

>  <SCORE.RESTR>
0

>  <SCORE.RESTR.CAVITY>
0

>  <SCORE.RESTR.norm>
0

>  <SCORE.SYSTEM>
0

>  <SCORE.SYSTEM.CONST>
0

>  <SCORE.SYSTEM.DIHEDRAL>
0

>  <SCORE.SYSTEM.SOLV>
0

>  <SCORE.SYSTEM.norm>
0

>  <SCORE.heavy>
11

>  <SCORE.norm>
-2.86191

>  <RMSD>
3.341

$$$$
1akx_lig
 OpenBabel11021811383D
libRbt.so/2013.1/901 2013/11/27
 11 10  0  0  0  0  0  0  0  0999 V2000
   -4.6580   -2.1955    1.1991 N   0  0  0  0  0  0  0  0  0  0  0  0
   -4.3861   -3.6096    0.8058 C   0  0  2  0  0  0  0  0  0  0  0  0
   -3.2953   -4.1925    1.7131 C   0  0  0  0  0  0  0  0  0  0  0  0
   -2.1987   -3.6726    1.7714 O   0  0  0  0  0  0  0  0  0  0  0  0
   -3.9224   -3.6575   -0.6564 C   0  0  0  0  0  0  0  0  0  0  0  0
   -5.0077   -3.0671   -1.5625 C   0  0  0  0  0  0  0  0  0  0  0  0
   -4.5166   -3.0605   -3.0101 C   0  0  0  0  0  0  0  0  0  0  0  0
   -3.1680   -2.4282   -3.0724 N   0  0  0  0  0  0  0  0  0  0  0  0
   -2.1456   -3.0999   -3.5371 C   0  0  0  0  0  0  0  0  0  0  0  0
   -1.3344   -3.7167   -2.7169 N   0  0  0  0  0  0  0  0  0  0  0  0
   -1.9386   -3.1595   -4.8254 N   0  0  0  0  0  0  0  0  0  0  0  0
  2  1  1  1  0  0  0
  2  3  1  0  0  0  0
  2  5  1  0  0  0  0
  3  4  1  0  0  0  0
  5  6  1  0  0  0  0
  6  7  1  0  0  0  0
  7  8  1  0  0  0  0
  8  9  1  0  0  0  0
  9 10  1  0  0  0  0
  9 11  1  0  0  0  0
M  END
>  <CHROM.1>
-32.13121643,-58.61816815,-59.38962742,177.52827833,-50.65757539,120.84687165
-96.22574069,92.07789495,-175.22163280,-3.28951997,-3.23477695,-1.25046090
1.83108081,-0.29376627,1.69970048

>  <Name>
1akx_lig

>  <RI>
0

>  <Rbt.Current_Directory>
/home/afrankz/demos/rdock_decoys_rna/rnas/1akx

>  <Rbt.Executable>
rbdock ($Id: //depot/dev/client3/rdock/2013.1/src/exe/rbdock.cxx#4 $)

>  <Rbt.Library>
libRbt.so (2013.1, Build901 2013/11/27)

>  <Rbt.Parameter_File>
/export/apps/rDock/src/rDock_2013.1_src/data/scripts/dock_solv.prm

>  <Rbt.Receptor>
prm/pocket_docking_3.prm

>  <SCORE>
-34.0541

>  <SCORE.INTER>
-27.5412

>  <SCORE.INTER.CONST>
1

>  <SCORE.INTER.POLAR>
-4.40953

>  <SCORE.INTER.ROT>
8

>  <SCORE.INTER.SOLV>
7.72628

>  <SCORE.INTER.VDW>
-15.1711

>  <SCORE.INTER.norm>
-2.50374

>  <SCORE.INTRA>
-6.75794

>  <SCORE.INTRA.DIHEDRAL>
-14.8927

>  <SCORE.INTRA.DIHEDRAL.0>
21.6454

>  <SCORE.INTRA.POLAR>
0

>  <SCORE.INTRA.POLAR.0>
0

>  <SCORE.INTRA.REPUL>
0

>  <SCORE.INTRA.REPUL.0>
0

>  <SCORE.INTRA.SOLV>
0.830476

>  <SCORE.INTRA.SOLV.lig_0>
-16.5947

>  <SCORE.INTRA.VDW>
0.273152

>  <SCORE.INTRA.VDW.0>
-0.691398

>  <SCORE.INTRA.norm>
-0.614358

>  <SCORE.RESTR>
0.244953

>  <SCORE.RESTR.CAVITY>
0.244953

>  <SCORE.RESTR.norm>
0.0222685

>  <SCORE.SYSTEM>
0

>  <SCORE.SYSTEM.CONST>
0

>  <SCORE.SYSTEM.DIHEDRAL>
0

>  <SCORE.SYSTEM.SOLV>
0

>  <SCORE.SYSTEM.norm>
0

>  <SCORE.heavy>
11

>  <SCORE.norm>
-3.09583

>  <RMSD>
3.361

>  <RMSD>
3.361

$$$$
1akx_lig
 OpenBabel11021811383D
libRbt.so/2013.1/901 2013/11/27
 11 10  0  0  0  0  0  0  0  0999 V2000
   -4.6580   -2.1955    1.1991 N   0  0  0  0  0  0  0  0  0  0  0  0
   -4.3861   -3.6096    0.8058 C   0  0  2  0  0  0  0  0  0  0  0  0
   -3.2953   -4.1925    1.7131 C   0  0  0  0  0  0  0  0  0  0  0  0
   -2.1987   -3.6726    1.7714 O   0  0  0  0  0  0  0  0  0  0  0  0
   -3.9224   -3.6575   -0.6564 C   0  0  0  0  0  0  0  0  0  0  0  0
   -5.0077   -3.0671   -1.5625 C   0  0  0  0  0  0  0  0  0  0  0  0
   -4.5166   -3.0605   -3.0101 C   0  0  0  0  0  0  0  0  0  0  0  0
   -3.1680   -2.4282   -3.0724 N   0  0  0  0  0  0  0  0  0  0  0  0
   -2.1456   -3.0999   -3.5371 C   0  0  0  0  0  0  0  0  0  0  0  0
   -1.3344   -3.7167   -2.7169 N   0  0  0  0  0  0  0  0  0  0  0  0
   -1.9386   -3.1595   -4.8254 N   0  0  0  0  0  0  0  0  0  0  0  0
  2  1  1  1  0  0  0
  2  3  1  0  0  0  0
  2  5  1  0  0  0  0
  3  4  1  0  0  0  0
  5  6  1  0  0  0  0
  6  7  1  0  0  0  0
  7  8  1  0  0  0  0
  8  9  1  0  0  0  0
  9 10  1  0  0  0  0
  9 11  1  0  0  0  0
M  END
>  <CHROM.1>
-32.13121643,-58.61816815,-59.38962742,177.52827833,-50.65757539,120.84687165
-96.22574069,92.07789495,-175.22163280,-3.28951997,-3.23477695,-1.25046090
1.83108081,-0.29376627,1.69970048

>  <Name>
1akx_lig

>  <RI>
0

>  <Rbt.Current_Directory>
/home/afrankz/demos/rdock_decoys_rna/rnas/1akx

>  <Rbt.Executable>
rbdock ($Id: //depot/dev/client3/rdock/2013.1/src/exe/rbdock.cxx#4 $)

>  <Rbt.Library>
libRbt.so (2013.1, Build901 2013/11/27)

>  <Rbt.Parameter_File>
/export/apps/rDock/src/rDock_2013.1_src/data/scripts/dock_solv.prm

>  <Rbt.Receptor>
prm/pocket_docking_3.prm

>  <SCORE>
-34.0541

>  <SCORE.INTER>
-27.5412

>  <SCORE.INTER.CONST>
1

>  <SCORE.INTER.POLAR>
-4.40953

>  <SCORE.INTER.ROT>
8

>  <SCORE.INTER.SOLV>
7.72628

>  <SCORE.INTER.VDW>
-15.1711

>  <SCORE.INTER.norm>
-2.50374

>  <SCORE.INTRA>
-6.75794

>  <SCORE.INTRA.DIHEDRAL>
-14.8927

>  <SCORE.INTRA.DIHEDRAL.0>
21.6454

>  <SCORE.INTRA.POLAR>
0

>  <SCORE.INTRA.POLAR.0>
0

>  <SCORE.INTRA.REPUL>
0

>  <SCORE.INTRA.REPUL.0>
0

>  <SCORE.INTRA.SOLV>
0.830476

>  <SCORE.INTRA.SOLV.lig_0>
-16.5947

>  <SCORE.INTRA.VDW>
0.273152

>  <SCORE.INTRA.VDW.0>
-0.691398

>  <SCORE.INTRA.norm>
-0.614358

>  <SCORE.RESTR>
0.244953

>  <SCORE.RESTR.CAVITY>
0.244953

>  <SCORE.RESTR.norm>
0.0222685

>  <SCORE.SYSTEM>
0

>  <SCORE.SYSTEM.CONST>
0

>  <SCORE.SYSTEM.DIHEDRAL>
0

>  <SCORE.SYSTEM.SOLV>
0

>  <SCORE.SYSTEM.norm>
0

>  <SCORE.heavy>
11

>  <SCORE.norm>
-3.09583

>  <RMSD>
3.361

>  <RMSD>
3.361

$$$$
1akx_lig
 OpenBabel11021811383D
libRbt.so/2013.1/901 2013/11/27
 11 10  0  0  0  0  0  0  0  0999 V2000
    1.1180   -3.5867    2.1152 N   0  0  0  0  0  0  0  0  0  0  0  0
    0.8798   -2.6635    0.9667 C   0  0  2  0  0  0  0  0  0  0  0  0
    1.2650   -1.2346    1.3701 C   0  0  0  0  0  0  0  0  0  0  0  0
    1.2488   -0.3371    0.5514 O   0  0  0  0  0  0  0  0  0  0  0  0
   -0.6020   -2.7069    0.5696 C   0  0  0  0  0  0  0  0  0  0  0  0
   -0.7344   -2.5642   -0.9501 C   0  0  0  0  0  0  0  0  0  0  0  0
   -2.1972   -2.3098   -1.3138 C   0  0  0  0  0  0  0  0  0  0  0  0
   -2.3652   -2.4143   -2.7913 N   0  0  0  0  0  0  0  0  0  0  0  0
   -3.5092   -2.7957   -3.2996 C   0  0  0  0  0  0  0  0  0  0  0  0
   -3.8836   -2.3652   -4.4768 N   0  0  0  0  0  0  0  0  0  0  0  0
   -4.2767   -3.6144   -2.6312 N   0  0  0  0  0  0  0  0  0  0  0  0
  2  1  1  1  0  0  0
  2  3  1  0  0  0  0
  2  5  1  0  0  0  0
  3  4  1  0  0  0  0
  5  6  1  0  0  0  0
  6  7  1  0  0  0  0
  7  8  1  0  0  0  0
  8  9  1  0  0  0  0
  9 10  1  0  0  0  0
  9 11  1  0  0  0  0
M  END
>  <CHROM.1>
-179.24933366,174.24327251,-144.43338267,-168.05962841,-169.93874222,151.07872202
150.16061332,-7.95493620,-167.56404392,-1.19114330,-2.42855313,-0.90026811
0.37109533,0.71873320,2.46299725

>  <Name>
1akx_lig

>  <RI>
0

>  <Rbt.Current_Directory>
/home/afrankz/demos/rdock_decoys_rna/rnas/1akx

>  <Rbt.Executable>
rbdock ($Id: //depot/dev/client3/rdock/2013.1/src/exe/rbdock.cxx#4 $)

>  <Rbt.Library>
libRbt.so (2013.1, Build901 2013/11/27)

>  <Rbt.Parameter_File>
/export/apps/rDock/src/rDock_2013.1_src/data/scripts/dock_solv.prm

>  <Rbt.Receptor>
prm/pocket_docking_7.prm

>  <SCORE>
-33.4438

>  <SCORE.INTER>
-28.4805

>  <SCORE.INTER.CONST>
1

>  <SCORE.INTER.POLAR>
-4.41704

>  <SCORE.INTER.ROT>
8

>  <SCORE.INTER.SOLV>
8.52716

>  <SCORE.INTER.VDW>
-16.0392

>  <SCORE.INTER.norm>
-2.58914

>  <SCORE.INTRA>
-4.96332

>  <SCORE.INTRA.DIHEDRAL>
-11.9913

>  <SCORE.INTRA.DIHEDRAL.0>
21.6454

>  <SCORE.INTRA.POLAR>
0

>  <SCORE.INTRA.POLAR.0>
0

>  <SCORE.INTRA.REPUL>
0

>  <SCORE.INTRA.REPUL.0>
0

>  <SCORE.INTRA.SOLV>
0.0637143

>  <SCORE.INTRA.SOLV.lig_0>
-16.5947

>  <SCORE.INTRA.VDW>
1.00046

>  <SCORE.INTRA.VDW.0>
-0.691398

>  <SCORE.INTRA.norm>
-0.451211

>  <SCORE.RESTR>
0

>  <SCORE.RESTR.CAVITY>
0

>  <SCORE.RESTR.norm>
0

>  <SCORE.SYSTEM>
0

>  <SCORE.SYSTEM.CONST>
0

>  <SCORE.SYSTEM.DIHEDRAL>
0

>  <SCORE.SYSTEM.SOLV>
0

>  <SCORE.SYSTEM.norm>
0

>  <SCORE.heavy>
11

>  <SCORE.norm>
-3.04035

>  <RMSD>
3.400

>  <RMSD>
3.400

$$$$
1akx_lig
 OpenBabel11021811383D
libRbt.so/2013.1/901 2013/11/27
 11 10  0  0  0  0  0  0  0  0999 V2000
    1.1180   -3.5867    2.1152 N   0  0  0  0  0  0  0  0  0  0  0  0
    0.8798   -2.6635    0.9667 C   0  0  2  0  0  0  0  0  0  0  0  0
    1.2650   -1.2346    1.3701 C   0  0  0  0  0  0  0  0  0  0  0  0
    1.2488   -0.3371    0.5514 O   0  0  0  0  0  0  0  0  0  0  0  0
   -0.6020   -2.7069    0.5696 C   0  0  0  0  0  0  0  0  0  0  0  0
   -0.7344   -2.5642   -0.9501 C   0  0  0  0  0  0  0  0  0  0  0  0
   -2.1972   -2.3098   -1.3138 C   0  0  0  0  0  0  0  0  0  0  0  0
   -2.3652   -2.4143   -2.7913 N   0  0  0  0  0  0  0  0  0  0  0  0
   -3.5092   -2.7957   -3.2996 C   0  0  0  0  0  0  0  0  0  0  0  0
   -3.8836   -2.3652   -4.4768 N   0  0  0  0  0  0  0  0  0  0  0  0
   -4.2767   -3.6144   -2.6312 N   0  0  0  0  0  0  0  0  0  0  0  0
  2  1  1  1  0  0  0
  2  3  1  0  0  0  0
  2  5  1  0  0  0  0
  3  4  1  0  0  0  0
  5  6  1  0  0  0  0
  6  7  1  0  0  0  0
  7  8  1  0  0  0  0
  8  9  1  0  0  0  0
  9 10  1  0  0  0  0
  9 11  1  0  0  0  0
M  END
>  <CHROM.1>
-179.24933366,174.24327251,-144.43338267,-168.05962841,-169.93874222,151.07872202
150.16061332,-7.95493620,-167.56404392,-1.19114330,-2.42855313,-0.90026811
0.37109533,0.71873320,2.46299725

>  <Name>
1akx_lig

>  <RI>
0

>  <Rbt.Current_Directory>
/home/afrankz/demos/rdock_decoys_rna/rnas/1akx

>  <Rbt.Executable>
rbdock ($Id: //depot/dev/client3/rdock/2013.1/src/exe/rbdock.cxx#4 $)

>  <Rbt.Library>
libRbt.so (2013.1, Build901 2013/11/27)

>  <Rbt.Parameter_File>
/export/apps/rDock/src/rDock_2013.1_src/data/scripts/dock_solv.prm

>  <Rbt.Receptor>
prm/pocket_docking_7.prm

>  <SCORE>
-33.4438

>  <SCORE.INTER>
-28.4805

>  <SCORE.INTER.CONST>
1

>  <SCORE.INTER.POLAR>
-4.41704

>  <SCORE.INTER.ROT>
8

>  <SCORE.INTER.SOLV>
8.52716

>  <SCORE.INTER.VDW>
-16.0392

>  <SCORE.INTER.norm>
-2.58914

>  <SCORE.INTRA>
-4.96332

>  <SCORE.INTRA.DIHEDRAL>
-11.9913

>  <SCORE.INTRA.DIHEDRAL.0>
21.6454

>  <SCORE.INTRA.POLAR>
0

>  <SCORE.INTRA.POLAR.0>
0

>  <SCORE.INTRA.REPUL>
0

>  <SCORE.INTRA.REPUL.0>
0

>  <SCORE.INTRA.SOLV>
0.0637143

>  <SCORE.INTRA.SOLV.lig_0>
-16.5947

>  <SCORE.INTRA.VDW>
1.00046

>  <SCORE.INTRA.VDW.0>
-0.691398

>  <SCORE.INTRA.norm>
-0.451211

>  <SCORE.RESTR>
0

>  <SCORE.RESTR.CAVITY>
0

>  <SCORE.RESTR.norm>
0

>  <SCORE.SYSTEM>
0

>  <SCORE.SYSTEM.CONST>
0

>  <SCORE.SYSTEM.DIHEDRAL>
0

>  <SCORE.SYSTEM.SOLV>
0

>  <SCORE.SYSTEM.norm>
0

>  <SCORE.heavy>
11

>  <SCORE.norm>
-3.04035

>  <RMSD>
3.400

>  <RMSD>
3.400

$$$$
1akx_lig
 OpenBabel11021811383D
libRbt.so/2013.1/901 2013/11/27
 11 10  0  0  0  0  0  0  0  0999 V2000
   -3.9742   -2.0309    1.6243 N   0  0  0  0  0  0  0  0  0  0  0  0
   -2.5086   -2.3132    1.6058 C   0  0  2  0  0  0  0  0  0  0  0  0
   -1.7456   -1.0936    2.1378 C   0  0  0  0  0  0  0  0  0  0  0  0
   -1.9983   -0.6388    3.2357 O   0  0  0  0  0  0  0  0  0  0  0  0
   -2.0607   -2.6171    0.1696 C   0  0  0  0  0  0  0  0  0  0  0  0
   -2.5968   -3.9864   -0.2602 C   0  0  0  0  0  0  0  0  0  0  0  0
   -2.2537   -4.2310   -1.7297 C   0  0  0  0  0  0  0  0  0  0  0  0
   -3.1780   -3.4408   -2.5919 N   0  0  0  0  0  0  0  0  0  0  0  0
   -2.8002   -3.0556   -3.7841 C   0  0  0  0  0  0  0  0  0  0  0  0
   -3.6701   -2.5487   -4.6194 N   0  0  0  0  0  0  0  0  0  0  0  0
   -1.5485   -3.1721   -4.1384 N   0  0  0  0  0  0  0  0  0  0  0  0
  2  1  1  6  0  0  0
  2  3  1  0  0  0  0
  2  5  1  0  0  0  0
  3  4  1  0  0  0  0
  5  6  1  0  0  0  0
  6  7  1  0  0  0  0
  7  8  1  0  0  0  0
  8  9  1  0  0  0  0
  9 10  1  0  0  0  0
  9 11  1  0  0  0  0
M  END
>  <CHROM.1>
171.01800552,55.86938740,-71.30219509,175.04533364,-76.63402671,153.03250869
169.29113655,-49.00217475,124.57932253,-2.60837048,-2.61719660,-0.76607954
1.50814774,-0.68741432,1.25861206

>  <Name>
1akx_lig

>  <RI>
0

>  <Rbt.Current_Directory>
/home/itssahil/PROJECTS/Mol_Feturizer/New_Systems/rnas/1akx

>  <Rbt.Executable>
rbdock ($Id: //depot/dev/client3/rdock/2013.1/src/exe/rbdock.cxx#4 $)

>  <Rbt.Library>
libRbt.so (2013.1, Build901 2013/11/27)

>  <Rbt.Parameter_File>
/export/apps/rDock/src/rDock_2013.1_src/data/scripts/dock_solv.prm

>  <Rbt.Receptor>
prm/pocket_docking_7.prm

>  <SCORE>
-28.7792

>  <SCORE.INTER>
-22.0903

>  <SCORE.INTER.CONST>
1

>  <SCORE.INTER.POLAR>
-4.56288

>  <SCORE.INTER.ROT>
8

>  <SCORE.INTER.SOLV>
6.85775

>  <SCORE.INTER.VDW>
-10.7365

>  <SCORE.INTER.norm>
-2.00821

>  <SCORE.INTRA>
-6.68894

>  <SCORE.INTRA.DIHEDRAL>
-15.0001

>  <SCORE.INTRA.DIHEDRAL.0>
21.6454

>  <SCORE.INTRA.POLAR>
0

>  <SCORE.INTRA.POLAR.0>
0

>  <SCORE.INTRA.REPUL>
0

>  <SCORE.INTRA.REPUL.0>
0

>  <SCORE.INTRA.SOLV>
0.405827

>  <SCORE.INTRA.SOLV.lig_0>
-16.5947

>  <SCORE.INTRA.VDW>
0.608181

>  <SCORE.INTRA.VDW.0>
-0.691398

>  <SCORE.INTRA.norm>
-0.608086

>  <SCORE.RESTR>
0

>  <SCORE.RESTR.CAVITY>
0

>  <SCORE.RESTR.norm>
0

>  <SCORE.SYSTEM>
0

>  <SCORE.SYSTEM.CONST>
0

>  <SCORE.SYSTEM.DIHEDRAL>
0

>  <SCORE.SYSTEM.SOLV>
0

>  <SCORE.SYSTEM.norm>
0

>  <SCORE.heavy>
11

>  <SCORE.norm>
-2.61629

>  <RMSD>
3.421

$$$$
1akx_lig
 OpenBabel11021811383D
libRbt.so/2013.1/901 2013/11/27
 11 10  0  0  0  0  0  0  0  0999 V2000
   -3.8992   -1.9540    1.7778 N   0  0  0  0  0  0  0  0  0  0  0  0
   -4.9593   -3.0041    1.7353 C   0  0  2  0  0  0  0  0  0  0  0  0
   -4.7202   -4.0186    2.8606 C   0  0  0  0  0  0  0  0  0  0  0  0
   -3.6521   -4.5893    2.9597 O   0  0  0  0  0  0  0  0  0  0  0  0
   -4.9220   -3.7192    0.3779 C   0  0  0  0  0  0  0  0  0  0  0  0
   -5.7130   -2.9097   -0.6547 C   0  0  0  0  0  0  0  0  0  0  0  0
   -5.2612   -3.2975   -2.0627 C   0  0  0  0  0  0  0  0  0  0  0  0
   -3.9561   -2.6421   -2.3618 N   0  0  0  0  0  0  0  0  0  0  0  0
   -3.5626   -2.4911   -3.6006 C   0  0  0  0  0  0  0  0  0  0  0  0
   -4.3496   -1.9229   -4.4776 N   0  0  0  0  0  0  0  0  0  0  0  0
   -2.3768   -2.9037   -3.9607 N   0  0  0  0  0  0  0  0  0  0  0  0
  2  1  1  6  0  0  0
  2  3  1  0  0  0  0
  2  5  1  0  0  0  0
  3  4  1  0  0  0  0
  5  6  1  0  0  0  0
  6  7  1  0  0  0  0
  7  8  1  0  0  0  0
  8  9  1  0  0  0  0
  9 10  1  0  0  0  0
  9 11  1  0  0  0  0
M  END
>  <CHROM.1>
-60.65486892,-55.02190556,-83.58301289,158.81099542,-77.29938085,-159.71944458
52.40024611,-85.68730008,-165.09249810,-4.25623288,-3.01828320,-0.67920290
-1.67536918,0.11788484,-1.37614993

>  <Name>
1akx_lig

>  <RI>
0

>  <Rbt.Current_Directory>
/home/itssahil/PROJECTS/Mol_Feturizer/New_Systems/rnas/1akx

>  <Rbt.Executable>
rbdock ($Id: //depot/dev/client3/rdock/2013.1/src/exe/rbdock.cxx#4 $)

>  <Rbt.Library>
libRbt.so (2013.1, Build901 2013/11/27)

>  <Rbt.Parameter_File>
/export/apps/rDock/src/rDock_2013.1_src/data/scripts/dock_solv.prm

>  <Rbt.Receptor>
prm/pocket_docking_5.prm

>  <SCORE>
-31.5756

>  <SCORE.INTER>
-25.5985

>  <SCORE.INTER.CONST>
1

>  <SCORE.INTER.POLAR>
-3.6676

>  <SCORE.INTER.ROT>
8

>  <SCORE.INTER.SOLV>
7.30182

>  <SCORE.INTER.VDW>
-16.2076

>  <SCORE.INTER.norm>
-2.32714

>  <SCORE.INTRA>
-5.97708

>  <SCORE.INTRA.DIHEDRAL>
-12.0289

>  <SCORE.INTRA.DIHEDRAL.0>
21.6454

>  <SCORE.INTRA.POLAR>
0

>  <SCORE.INTRA.POLAR.0>
0

>  <SCORE.INTRA.REPUL>
0

>  <SCORE.INTRA.REPUL.0>
0

>  <SCORE.INTRA.SOLV>
0.569687

>  <SCORE.INTRA.SOLV.lig_0>
-16.5947

>  <SCORE.INTRA.VDW>
-0.24745

>  <SCORE.INTRA.VDW.0>
-0.691398

>  <SCORE.INTRA.norm>
-0.543371

>  <SCORE.RESTR>
0

>  <SCORE.RESTR.CAVITY>
0

>  <SCORE.RESTR.norm>
0

>  <SCORE.SYSTEM>
0

>  <SCORE.SYSTEM.CONST>
0

>  <SCORE.SYSTEM.DIHEDRAL>
0

>  <SCORE.SYSTEM.SOLV>
0

>  <SCORE.SYSTEM.norm>
0

>  <SCORE.heavy>
11

>  <SCORE.norm>
-2.87051

>  <RMSD>
3.436

$$$$
1akx_lig
 OpenBabel11021811383D
libRbt.so/2013.1/901 2013/11/27
 11 10  0  0  0  0  0  0  0  0999 V2000
   -6.7923   -3.6100    2.2567 N   0  0  0  0  0  0  0  0  0  0  0  0
   -5.4337   -4.2196    2.3613 C   0  0  2  0  0  0  0  0  0  0  0  0
   -4.4686   -3.2127    2.9996 C   0  0  0  0  0  0  0  0  0  0  0  0
   -3.3183   -3.5251    3.2350 O   0  0  0  0  0  0  0  0  0  0  0  0
   -4.9314   -4.6016    0.9623 C   0  0  0  0  0  0  0  0  0  0  0  0
   -5.0100   -3.3847    0.0347 C   0  0  0  0  0  0  0  0  0  0  0  0
   -4.4296   -3.7463   -1.3325 C   0  0  0  0  0  0  0  0  0  0  0  0
   -4.5917   -2.5908   -2.2603 N   0  0  0  0  0  0  0  0  0  0  0  0
   -3.6845   -2.3434   -3.1703 C   0  0  0  0  0  0  0  0  0  0  0  0
   -4.0193   -2.2740   -4.4330 N   0  0  0  0  0  0  0  0  0  0  0  0
   -2.4412   -2.1588   -2.8152 N   0  0  0  0  0  0  0  0  0  0  0  0
  2  1  1  6  0  0  0
  2  3  1  0  0  0  0
  2  5  1  0  0  0  0
  3  4  1  0  0  0  0
  5  6  1  0  0  0  0
  6  7  1  0  0  0  0
  7  8  1  0  0  0  0
  8  9  1  0  0  0  0
  9 10  1  0  0  0  0
  9 11  1  0  0  0  0
M  END
>  <CHROM.1>
48.62556491,176.67550234,53.56177968,176.57073550,176.17845758,145.71048913
123.86382164,-30.76077256,-178.18454306,-4.47035638,-3.21553374,-0.20800997
1.79965635,0.23209615,1.74238694

>  <Name>
1akx_lig

>  <RI>
0

>  <Rbt.Current_Directory>
/home/itssahil/PROJECTS/Mol_Feturizer/New_Systems/rnas/1akx

>  <Rbt.Executable>
rbdock ($Id: //depot/dev/client3/rdock/2013.1/src/exe/rbdock.cxx#4 $)

>  <Rbt.Library>
libRbt.so (2013.1, Build901 2013/11/27)

>  <Rbt.Parameter_File>
/export/apps/rDock/src/rDock_2013.1_src/data/scripts/dock_solv.prm

>  <Rbt.Receptor>
prm/pocket_docking_7.prm

>  <SCORE>
-32.936

>  <SCORE.INTER>
-26.2328

>  <SCORE.INTER.CONST>
1

>  <SCORE.INTER.POLAR>
-4.30374

>  <SCORE.INTER.ROT>
8

>  <SCORE.INTER.SOLV>
7.16906

>  <SCORE.INTER.VDW>
-14.4658

>  <SCORE.INTER.norm>
-2.3848

>  <SCORE.INTRA>
-6.70318

>  <SCORE.INTRA.DIHEDRAL>
-16.2241

>  <SCORE.INTRA.DIHEDRAL.0>
21.6454

>  <SCORE.INTRA.POLAR>
0

>  <SCORE.INTRA.POLAR.0>
0

>  <SCORE.INTRA.REPUL>
0

>  <SCORE.INTRA.REPUL.0>
0

>  <SCORE.INTRA.SOLV>
0.117163

>  <SCORE.INTRA.SOLV.lig_0>
-16.5947

>  <SCORE.INTRA.VDW>
1.35027

>  <SCORE.INTRA.VDW.0>
-0.691398

>  <SCORE.INTRA.norm>
-0.60938

>  <SCORE.RESTR>
0

>  <SCORE.RESTR.CAVITY>
0

>  <SCORE.RESTR.norm>
0

>  <SCORE.SYSTEM>
0

>  <SCORE.SYSTEM.CONST>
0

>  <SCORE.SYSTEM.DIHEDRAL>
0

>  <SCORE.SYSTEM.SOLV>
0

>  <SCORE.SYSTEM.norm>
0

>  <SCORE.heavy>
11

>  <SCORE.norm>
-2.99418

>  <RMSD>
3.462

$$$$
1akx_lig
 OpenBabel11021811383D
libRbt.so/2013.1/901 2013/11/27
 11 10  0  0  0  0  0  0  0  0999 V2000
   -6.5728   -3.7860    1.8121 N   0  0  0  0  0  0  0  0  0  0  0  0
   -5.2013   -4.2882    1.5040 C   0  0  2  0  0  0  0  0  0  0  0  0
   -4.1613   -3.3744    2.1643 C   0  0  0  0  0  0  0  0  0  0  0  0
   -2.9770   -3.6366    2.0943 O   0  0  0  0  0  0  0  0  0  0  0  0
   -4.9870   -4.3017   -0.0156 C   0  0  0  0  0  0  0  0  0  0  0  0
   -5.2949   -2.9165   -0.5935 C   0  0  0  0  0  0  0  0  0  0  0  0
   -5.1386   -2.9510   -2.1137 C   0  0  0  0  0  0  0  0  0  0  0  0
   -3.7067   -2.7375   -2.4691 N   0  0  0  0  0  0  0  0  0  0  0  0
   -3.3644   -2.4902   -3.7077 C   0  0  0  0  0  0  0  0  0  0  0  0
   -4.2145   -1.9256   -4.5262 N   0  0  0  0  0  0  0  0  0  0  0  0
   -2.1672   -2.8027   -4.1258 N   0  0  0  0  0  0  0  0  0  0  0  0
  2  1  1  6  0  0  0
  2  3  1  0  0  0  0
  2  5  1  0  0  0  0
  3  4  1  0  0  0  0
  5  6  1  0  0  0  0
  6  7  1  0  0  0  0
  7  8  1  0  0  0  0
  8  9  1  0  0  0  0
  9 10  1  0  0  0  0
  9 11  1  0  0  0  0
M  END
>  <CHROM.1>
56.31580900,176.50030755,53.76199182,-177.56793261,-84.54174744,-167.84080613
26.60265221,-83.78860945,109.05696401,-4.33733378,-3.18821324,-0.91159174
1.82964613,0.01985918,1.79860322

>  <Name>
1akx_lig

>  <RI>
0

>  <Rbt.Current_Directory>
/home/itssahil/PROJECTS/Mol_Feturizer/New_Systems/rnas/1akx

>  <Rbt.Executable>
rbdock ($Id: //depot/dev/client3/rdock/2013.1/src/exe/rbdock.cxx#4 $)

>  <Rbt.Library>
libRbt.so (2013.1, Build901 2013/11/27)

>  <Rbt.Parameter_File>
/export/apps/rDock/src/rDock_2013.1_src/data/scripts/dock_solv.prm

>  <Rbt.Receptor>
prm/pocket_docking_5.prm

>  <SCORE>
-29.7926

>  <SCORE.INTER>
-24.5194

>  <SCORE.INTER.CONST>
1

>  <SCORE.INTER.POLAR>
-3.598

>  <SCORE.INTER.ROT>
8

>  <SCORE.INTER.SOLV>
7.75672

>  <SCORE.INTER.VDW>
-15.8718

>  <SCORE.INTER.norm>
-2.22904

>  <SCORE.INTRA>
-5.2732

>  <SCORE.INTRA.DIHEDRAL>
-14.6044

>  <SCORE.INTRA.DIHEDRAL.0>
21.6454

>  <SCORE.INTRA.POLAR>
0

>  <SCORE.INTRA.POLAR.0>
0

>  <SCORE.INTRA.REPUL>
0

>  <SCORE.INTRA.REPUL.0>
0

>  <SCORE.INTRA.SOLV>
0.204927

>  <SCORE.INTRA.SOLV.lig_0>
-16.5947

>  <SCORE.INTRA.VDW>
1.92655

>  <SCORE.INTRA.VDW.0>
-0.691398

>  <SCORE.INTRA.norm>
-0.479382

>  <SCORE.RESTR>
0

>  <SCORE.RESTR.CAVITY>
0

>  <SCORE.RESTR.norm>
0

>  <SCORE.SYSTEM>
0

>  <SCORE.SYSTEM.CONST>
0

>  <SCORE.SYSTEM.DIHEDRAL>
0

>  <SCORE.SYSTEM.SOLV>
0

>  <SCORE.SYSTEM.norm>
0

>  <SCORE.heavy>
11

>  <SCORE.norm>
-2.70842

>  <RMSD>
3.470

$$$$
1akx_lig
 OpenBabel11021811383D
libRbt.so/2013.1/901 2013/11/27
 11 10  0  0  0  0  0  0  0  0999 V2000
   -5.9359   -2.9839    2.7581 N   0  0  0  0  0  0  0  0  0  0  0  0
   -5.7901   -3.9286    1.6117 C   0  0  2  0  0  0  0  0  0  0  0  0
   -4.6442   -4.9074    1.8974 C   0  0  0  0  0  0  0  0  0  0  0  0
   -3.5133   -4.4989    2.0720 O   0  0  0  0  0  0  0  0  0  0  0  0
   -5.4890   -3.1404    0.3297 C   0  0  0  0  0  0  0  0  0  0  0  0
   -5.5297   -4.0824   -0.8779 C   0  0  0  0  0  0  0  0  0  0  0  0
   -5.4376   -3.2653   -2.1666 C   0  0  0  0  0  0  0  0  0  0  0  0
   -4.1171   -2.5758   -2.2221 N   0  0  0  0  0  0  0  0  0  0  0  0
   -3.4056   -2.6010   -3.3200 C   0  0  0  0  0  0  0  0  0  0  0  0
   -3.9642   -2.3390   -4.4736 N   0  0  0  0  0  0  0  0  0  0  0  0
   -2.1315   -2.8827   -3.2625 N   0  0  0  0  0  0  0  0  0  0  0  0
  2  1  1  1  0  0  0
  2  3  1  0  0  0  0
  2  5  1  0  0  0  0
  3  4  1  0  0  0  0
  5  6  1  0  0  0  0
  6  7  1  0  0  0  0
  7  8  1  0  0  0  0
  8  9  1  0  0  0  0
  9 10  1  0  0  0  0
  9 11  1  0  0  0  0
M  END
>  <CHROM.1>
58.73572603,-60.36773449,-172.25820348,171.61976924,64.01569391,133.66141415
47.22014756,-53.35963075,-112.73630035,-4.51007179,-3.35908605,-0.67886326
1.85632653,-0.21766546,1.85893236

>  <Name>
1akx_lig

>  <RI>
0

>  <Rbt.Current_Directory>
/home/itssahil/PROJECTS/Mol_Feturizer/New_Systems/rnas/1akx

>  <Rbt.Executable>
rbdock ($Id: //depot/dev/client3/rdock/2013.1/src/exe/rbdock.cxx#4 $)

>  <Rbt.Library>
libRbt.so (2013.1, Build901 2013/11/27)

>  <Rbt.Parameter_File>
/export/apps/rDock/src/rDock_2013.1_src/data/scripts/dock_solv.prm

>  <Rbt.Receptor>
prm/pocket_docking_8.prm

>  <SCORE>
-34.6966

>  <SCORE.INTER>
-27.8358

>  <SCORE.INTER.CONST>
1

>  <SCORE.INTER.POLAR>
-4.30386

>  <SCORE.INTER.ROT>
8

>  <SCORE.INTER.SOLV>
6.90757

>  <SCORE.INTER.VDW>
-15.4469

>  <SCORE.INTER.norm>
-2.53053

>  <SCORE.INTRA>
-6.86073

>  <SCORE.INTRA.DIHEDRAL>
-16.2512

>  <SCORE.INTRA.DIHEDRAL.0>
21.6454

>  <SCORE.INTRA.POLAR>
0

>  <SCORE.INTRA.POLAR.0>
0

>  <SCORE.INTRA.REPUL>
0

>  <SCORE.INTRA.REPUL.0>
0

>  <SCORE.INTRA.SOLV>
0.493151

>  <SCORE.INTRA.SOLV.lig_0>
-16.5947

>  <SCORE.INTRA.VDW>
1.01828

>  <SCORE.INTRA.VDW.0>
-0.691398

>  <SCORE.INTRA.norm>
-0.623703

>  <SCORE.RESTR>
0

>  <SCORE.RESTR.CAVITY>
0

>  <SCORE.RESTR.norm>
0

>  <SCORE.SYSTEM>
0

>  <SCORE.SYSTEM.CONST>
0

>  <SCORE.SYSTEM.DIHEDRAL>
0

>  <SCORE.SYSTEM.SOLV>
0

>  <SCORE.SYSTEM.norm>
0

>  <SCORE.heavy>
11

>  <SCORE.norm>
-3.15423

>  <RMSD>
3.474

$$$$
1akx_lig
 OpenBabel11021811383D
libRbt.so/2013.1/901 2013/11/27
 11 10  0  0  0  0  0  0  0  0999 V2000
   -4.7572   -1.6129    1.8151 N   0  0  0  0  0  0  0  0  0  0  0  0
   -5.0048   -3.0838    1.7576 C   0  0  2  0  0  0  0  0  0  0  0  0
   -4.3723   -3.7576    2.9818 C   0  0  0  0  0  0  0  0  0  0  0  0
   -4.5609   -4.9374    3.2026 O   0  0  0  0  0  0  0  0  0  0  0  0
   -4.3896   -3.6600    0.4750 C   0  0  0  0  0  0  0  0  0  0  0  0
   -5.4681   -3.7808   -0.6065 C   0  0  0  0  0  0  0  0  0  0  0  0
   -5.2037   -2.7547   -1.7084 C   0  0  0  0  0  0  0  0  0  0  0  0
   -4.1536   -3.2764   -2.6289 N   0  0  0  0  0  0  0  0  0  0  0  0
   -3.6190   -2.4934   -3.5308 C   0  0  0  0  0  0  0  0  0  0  0  0
   -2.3293   -2.2742   -3.5325 N   0  0  0  0  0  0  0  0  0  0  0  0
   -4.3758   -1.9337   -4.4365 N   0  0  0  0  0  0  0  0  0  0  0  0
  2  1  1  1  0  0  0
  2  3  1  0  0  0  0
  2  5  1  0  0  0  0
  3  4  1  0  0  0  0
  5  6  1  0  0  0  0
  6  7  1  0  0  0  0
  7  8  1  0  0  0  0
  8  9  1  0  0  0  0
  9 10  1  0  0  0  0
  9 11  1  0  0  0  0
M  END
>  <CHROM.1>
2.85039126,173.02335604,-97.02344956,110.24135905,80.72282599,-169.76696977
120.86299302,-12.77502575,-48.70041935,-4.36268819,-3.02470958,-0.57115309
2.99525765,-1.42036922,-3.08164885

>  <Name>
1akx_lig

>  <RI>
0

>  <Rbt.Current_Directory>
/home/itssahil/PROJECTS/Mol_Feturizer/New_Systems/rnas/1akx

>  <Rbt.Executable>
rbdock ($Id: //depot/dev/client3/rdock/2013.1/src/exe/rbdock.cxx#4 $)

>  <Rbt.Library>
libRbt.so (2013.1, Build901 2013/11/27)

>  <Rbt.Parameter_File>
/export/apps/rDock/src/rDock_2013.1_src/data/scripts/dock_solv.prm

>  <Rbt.Receptor>
prm/pocket_docking_8.prm

>  <SCORE>
-27.4701

>  <SCORE.INTER>
-27.451

>  <SCORE.INTER.CONST>
1

>  <SCORE.INTER.POLAR>
-4.53545

>  <SCORE.INTER.ROT>
8

>  <SCORE.INTER.SOLV>
7.04782

>  <SCORE.INTER.VDW>
-14.4651

>  <SCORE.INTER.norm>
-2.49555

>  <SCORE.INTRA>
-0.0190683

>  <SCORE.INTRA.DIHEDRAL>
-1.89309

>  <SCORE.INTRA.DIHEDRAL.0>
21.6454

>  <SCORE.INTRA.POLAR>
0

>  <SCORE.INTRA.POLAR.0>
0

>  <SCORE.INTRA.REPUL>
0

>  <SCORE.INTRA.REPUL.0>
0

>  <SCORE.INTRA.SOLV>
0.187738

>  <SCORE.INTRA.SOLV.lig_0>
-16.5947

>  <SCORE.INTRA.VDW>
0.833607

>  <SCORE.INTRA.VDW.0>
-0.691398

>  <SCORE.INTRA.norm>
-0.00173348

>  <SCORE.RESTR>
0

>  <SCORE.RESTR.CAVITY>
0

>  <SCORE.RESTR.norm>
0

>  <SCORE.SYSTEM>
0

>  <SCORE.SYSTEM.CONST>
0

>  <SCORE.SYSTEM.DIHEDRAL>
0

>  <SCORE.SYSTEM.SOLV>
0

>  <SCORE.SYSTEM.norm>
0

>  <SCORE.heavy>
11

>  <SCORE.norm>
-2.49728

>  <RMSD>
3.489

$$$$
1akx_lig
 OpenBabel11021811383D
libRbt.so/2013.1/901 2013/11/27
 11 10  0  0  0  0  0  0  0  0999 V2000
   -2.2340   -1.5493    0.9122 N   0  0  0  0  0  0  0  0  0  0  0  0
   -2.9841   -2.7030    0.3339 C   0  0  2  0  0  0  0  0  0  0  0  0
   -4.1063   -3.1170    1.2940 C   0  0  0  0  0  0  0  0  0  0  0  0
   -4.9952   -2.3382    1.5760 O   0  0  0  0  0  0  0  0  0  0  0  0
   -2.0271   -3.8833    0.1178 C   0  0  0  0  0  0  0  0  0  0  0  0
   -1.0673   -3.5664   -1.0336 C   0  0  0  0  0  0  0  0  0  0  0  0
   -1.7149   -3.9596   -2.3614 C   0  0  0  0  0  0  0  0  0  0  0  0
   -2.2481   -2.7399   -3.0324 N   0  0  0  0  0  0  0  0  0  0  0  0
   -3.5354   -2.6011   -3.2222 C   0  0  0  0  0  0  0  0  0  0  0  0
   -4.3689   -2.7552   -2.2257 N   0  0  0  0  0  0  0  0  0  0  0  0
   -3.9886   -2.3015   -4.4099 N   0  0  0  0  0  0  0  0  0  0  0  0
  2  1  1  1  0  0  0
  2  3  1  0  0  0  0
  2  5  1  0  0  0  0
  3  4  1  0  0  0  0
  5  6  1  0  0  0  0
  6  7  1  0  0  0  0
  7  8  1  0  0  0  0
  8  9  1  0  0  0  0
  9 10  1  0  0  0  0
  9 11  1  0  0  0  0
M  END
>  <CHROM.1>
-84.25403606,61.53401259,-70.44864105,-86.33293065,101.18407833,-115.29279331
51.43276084,-53.68095863,-42.49910381,-3.05361077,-2.81774416,-1.08832576
-1.65048601,0.31193884,-1.58774932

>  <Name>
1akx_lig

>  <RI>
0

>  <Rbt.Current_Directory>
/home/itssahil/PROJECTS/Mol_Feturizer/New_Systems/rnas/1akx

>  <Rbt.Executable>
rbdock ($Id: //depot/dev/client3/rdock/2013.1/src/exe/rbdock.cxx#4 $)

>  <Rbt.Library>
libRbt.so (2013.1, Build901 2013/11/27)

>  <Rbt.Parameter_File>
/export/apps/rDock/src/rDock_2013.1_src/data/scripts/dock_solv.prm

>  <Rbt.Receptor>
prm/pocket_docking_4.prm

>  <SCORE>
-32.3869

>  <SCORE.INTER>
-28.5404

>  <SCORE.INTER.CONST>
1

>  <SCORE.INTER.POLAR>
-4.41591

>  <SCORE.INTER.ROT>
8

>  <SCORE.INTER.SOLV>
7.19744

>  <SCORE.INTER.VDW>
-15.6397

>  <SCORE.INTER.norm>
-2.59458

>  <SCORE.INTRA>
-3.84654

>  <SCORE.INTRA.DIHEDRAL>
-8.37884

>  <SCORE.INTRA.DIHEDRAL.0>
21.6454

>  <SCORE.INTRA.POLAR>
0

>  <SCORE.INTRA.POLAR.0>
0

>  <SCORE.INTRA.REPUL>
0

>  <SCORE.INTRA.REPUL.0>
0

>  <SCORE.INTRA.SOLV>
1.56587

>  <SCORE.INTRA.SOLV.lig_0>
-16.5947

>  <SCORE.INTRA.VDW>
-0.440056

>  <SCORE.INTRA.VDW.0>
-0.691398

>  <SCORE.INTRA.norm>
-0.349685

>  <SCORE.RESTR>
0

>  <SCORE.RESTR.CAVITY>
0

>  <SCORE.RESTR.norm>
0

>  <SCORE.SYSTEM>
0

>  <SCORE.SYSTEM.CONST>
0

>  <SCORE.SYSTEM.DIHEDRAL>
0

>  <SCORE.SYSTEM.SOLV>
0

>  <SCORE.SYSTEM.norm>
0

>  <SCORE.heavy>
11

>  <SCORE.norm>
-2.94427

>  <RMSD>
3.491

$$$$
1akx_lig
 OpenBabel11021811383D
libRbt.so/2013.1/901 2013/11/27
 11 10  0  0  0  0  0  0  0  0999 V2000
   -2.5473   -1.9139    1.0897 N   0  0  0  0  0  0  0  0  0  0  0  0
   -1.1039   -2.2863    1.1668 C   0  0  2  0  0  0  0  0  0  0  0  0
   -0.3395   -1.2128    1.9517 C   0  0  0  0  0  0  0  0  0  0  0  0
   -0.4235   -0.0421    1.6377 O   0  0  0  0  0  0  0  0  0  0  0  0
   -0.5251   -2.4010   -0.2500 C   0  0  0  0  0  0  0  0  0  0  0  0
   -1.0849   -3.6506   -0.9374 C   0  0  0  0  0  0  0  0  0  0  0  0
   -2.3914   -3.3001   -1.6494 C   0  0  0  0  0  0  0  0  0  0  0  0
   -2.0858   -2.5762   -2.9163 N   0  0  0  0  0  0  0  0  0  0  0  0
   -2.8067   -2.7887   -3.9876 C   0  0  0  0  0  0  0  0  0  0  0  0
   -2.2446   -3.2291   -5.0836 N   0  0  0  0  0  0  0  0  0  0  0  0
   -4.0934   -2.5659   -3.9597 N   0  0  0  0  0  0  0  0  0  0  0  0
  2  1  1  6  0  0  0
  2  3  1  0  0  0  0
  2  5  1  0  0  0  0
  3  4  1  0  0  0  0
  5  6  1  0  0  0  0
  6  7  1  0  0  0  0
  7  8  1  0  0  0  0
  8  9  1  0  0  0  0
  9 10  1  0  0  0  0
  9 11  1  0  0  0  0
M  END
>  <CHROM.1>
-169.00499274,-52.89647267,-71.16770357,88.56510800,76.96176151,142.64136124
-120.86563582,-156.74619551,17.16088361,-1.82235665,-2.33187359,-1.19564206
1.21778262,-0.32356089,1.16830585

>  <Name>
1akx_lig

>  <RI>
0

>  <Rbt.Current_Directory>
/home/itssahil/PROJECTS/Mol_Feturizer/New_Systems/rnas/1akx

>  <Rbt.Executable>
rbdock ($Id: //depot/dev/client3/rdock/2013.1/src/exe/rbdock.cxx#4 $)

>  <Rbt.Library>
libRbt.so (2013.1, Build901 2013/11/27)

>  <Rbt.Parameter_File>
/export/apps/rDock/src/rDock_2013.1_src/data/scripts/dock_solv.prm

>  <Rbt.Receptor>
prm/pocket_docking_7.prm

>  <SCORE>
-33.3903

>  <SCORE.INTER>
-27.9442

>  <SCORE.INTER.CONST>
1

>  <SCORE.INTER.POLAR>
-4.43387

>  <SCORE.INTER.ROT>
8

>  <SCORE.INTER.SOLV>
9.72403

>  <SCORE.INTER.VDW>
-16.0246

>  <SCORE.INTER.norm>
-2.54039

>  <SCORE.INTRA>
-5.44608

>  <SCORE.INTRA.DIHEDRAL>
-12.0357

>  <SCORE.INTRA.DIHEDRAL.0>
21.6454

>  <SCORE.INTRA.POLAR>
0

>  <SCORE.INTRA.POLAR.0>
0

>  <SCORE.INTRA.REPUL>
0

>  <SCORE.INTRA.REPUL.0>
0

>  <SCORE.INTRA.SOLV>
0.763873

>  <SCORE.INTRA.SOLV.lig_0>
-16.5947

>  <SCORE.INTRA.VDW>
0.189853

>  <SCORE.INTRA.VDW.0>
-0.691398

>  <SCORE.INTRA.norm>
-0.495098

>  <SCORE.RESTR>
0

>  <SCORE.RESTR.CAVITY>
0

>  <SCORE.RESTR.norm>
0

>  <SCORE.SYSTEM>
0

>  <SCORE.SYSTEM.CONST>
0

>  <SCORE.SYSTEM.DIHEDRAL>
0

>  <SCORE.SYSTEM.SOLV>
0

>  <SCORE.SYSTEM.norm>
0

>  <SCORE.heavy>
11

>  <SCORE.norm>
-3.03548

>  <RMSD>
3.495

$$$$
1akx_lig
 OpenBabel11021811383D
libRbt.so/2013.1/901 2013/11/27
 11 10  0  0  0  0  0  0  0  0999 V2000
   -4.6949   -1.2848    2.0799 N   0  0  0  0  0  0  0  0  0  0  0  0
   -4.5431   -2.5968    1.3844 C   0  0  2  0  0  0  0  0  0  0  0  0
   -3.0856   -2.7758    0.9414 C   0  0  0  0  0  0  0  0  0  0  0  0
   -2.1886   -2.7844    1.7609 O   0  0  0  0  0  0  0  0  0  0  0  0
   -5.4650   -2.6395    0.1581 C   0  0  0  0  0  0  0  0  0  0  0  0
   -5.2322   -3.9394   -0.6186 C   0  0  0  0  0  0  0  0  0  0  0  0
   -5.1212   -3.6296   -2.1115 C   0  0  0  0  0  0  0  0  0  0  0  0
   -3.9988   -2.6746   -2.3366 N   0  0  0  0  0  0  0  0  0  0  0  0
   -3.3445   -2.6814   -3.4698 C   0  0  0  0  0  0  0  0  0  0  0  0
   -3.9630   -2.4084   -4.5897 N   0  0  0  0  0  0  0  0  0  0  0  0
   -2.0675   -2.9556   -3.4813 N   0  0  0  0  0  0  0  0  0  0  0  0
  2  1  1  6  0  0  0
  2  3  1  0  0  0  0
  2  5  1  0  0  0  0
  3  4  1  0  0  0  0
  5  6  1  0  0  0  0
  6  7  1  0  0  0  0
  7  8  1  0  0  0  0
  8  9  1  0  0  0  0
  9 10  1  0  0  0  0
  9 11  1  0  0  0  0
M  END
>  <CHROM.1>
169.60510698,60.30118462,175.63702857,-134.17198139,58.57831794,151.15287125
62.28866285,-53.82980243,72.46274592,-3.93770919,-2.72331538,-0.92767878
1.66546615,0.08347489,1.47107816

>  <Name>
1akx_lig

>  <RI>
0

>  <Rbt.Current_Directory>
/home/itssahil/PROJECTS/Mol_Feturizer/New_Systems/rnas/1akx

>  <Rbt.Executable>
rbdock ($Id: //depot/dev/client3/rdock/2013.1/src/exe/rbdock.cxx#4 $)

>  <Rbt.Library>
libRbt.so (2013.1, Build901 2013/11/27)

>  <Rbt.Parameter_File>
/export/apps/rDock/src/rDock_2013.1_src/data/scripts/dock_solv.prm

>  <Rbt.Receptor>
prm/pocket_docking_6.prm

>  <SCORE>
-36.299

>  <SCORE.INTER>
-32.6627

>  <SCORE.INTER.CONST>
1

>  <SCORE.INTER.POLAR>
-5.20952

>  <SCORE.INTER.ROT>
8

>  <SCORE.INTER.SOLV>
6.88656

>  <SCORE.INTER.VDW>
-15.6389

>  <SCORE.INTER.norm>
-2.96934

>  <SCORE.INTRA>
-3.63627

>  <SCORE.INTRA.DIHEDRAL>
-11.1856

>  <SCORE.INTRA.DIHEDRAL.0>
21.6454

>  <SCORE.INTRA.POLAR>
0

>  <SCORE.INTRA.POLAR.0>
0

>  <SCORE.INTRA.REPUL>
0

>  <SCORE.INTRA.REPUL.0>
0

>  <SCORE.INTRA.SOLV>
0.707002

>  <SCORE.INTRA.SOLV.lig_0>
-16.5947

>  <SCORE.INTRA.VDW>
1.60302

>  <SCORE.INTRA.VDW.0>
-0.691398

>  <SCORE.INTRA.norm>
-0.33057

>  <SCORE.RESTR>
0

>  <SCORE.RESTR.CAVITY>
0

>  <SCORE.RESTR.norm>
0

>  <SCORE.SYSTEM>
0

>  <SCORE.SYSTEM.CONST>
0

>  <SCORE.SYSTEM.DIHEDRAL>
0

>  <SCORE.SYSTEM.SOLV>
0

>  <SCORE.SYSTEM.norm>
0

>  <SCORE.heavy>
11

>  <SCORE.norm>
-3.29991

>  <RMSD>
3.507

$$$$
1akx_lig
 OpenBabel11021811383D
libRbt.so/2013.1/901 2013/11/27
 11 10  0  0  0  0  0  0  0  0999 V2000
   -6.5694   -4.6508    1.4534 N   0  0  0  0  0  0  0  0  0  0  0  0
   -5.1836   -4.2545    1.0654 C   0  0  2  0  0  0  0  0  0  0  0  0
   -4.2989   -4.1950    2.3170 C   0  0  0  0  0  0  0  0  0  0  0  0
   -4.1068   -5.1919    2.9844 O   0  0  0  0  0  0  0  0  0  0  0  0
   -5.2122   -2.8783    0.3867 C   0  0  0  0  0  0  0  0  0  0  0  0
   -5.9358   -2.9810   -0.9599 C   0  0  0  0  0  0  0  0  0  0  0  0
   -5.0058   -3.6185   -1.9922 C   0  0  0  0  0  0  0  0  0  0  0  0
   -3.9304   -2.6514   -2.3535 N   0  0  0  0  0  0  0  0  0  0  0  0
   -3.5732   -2.4989   -3.6031 C   0  0  0  0  0  0  0  0  0  0  0  0
   -4.3805   -1.9185   -4.4532 N   0  0  0  0  0  0  0  0  0  0  0  0
   -2.4035   -2.9225   -4.0010 N   0  0  0  0  0  0  0  0  0  0  0  0
  2  1  1  1  0  0  0
  2  3  1  0  0  0  0
  2  5  1  0  0  0  0
  3  4  1  0  0  0  0
  5  6  1  0  0  0  0
  6  7  1  0  0  0  0
  7  8  1  0  0  0  0
  8  9  1  0  0  0  0
  9 10  1  0  0  0  0
  9 11  1  0  0  0  0
M  END
>  <CHROM.1>
-176.36785887,61.84405524,-67.38012350,-77.00986377,-71.50155112,-136.91096790
70.11800271,95.23455318,-163.05675210,-4.60095190,-3.44550475,-0.83084452
1.79894020,-0.13053335,1.93988362

>  <Name>
1akx_lig

>  <RI>
0

>  <Rbt.Current_Directory>
/home/itssahil/PROJECTS/Mol_Feturizer/New_Systems/rnas/1akx

>  <Rbt.Executable>
rbdock ($Id: //depot/dev/client3/rdock/2013.1/src/exe/rbdock.cxx#4 $)

>  <Rbt.Library>
libRbt.so (2013.1, Build901 2013/11/27)

>  <Rbt.Parameter_File>
/export/apps/rDock/src/rDock_2013.1_src/data/scripts/dock_solv.prm

>  <Rbt.Receptor>
prm/pocket_docking_6.prm

>  <SCORE>
-28.4356

>  <SCORE.INTER>
-21.0886

>  <SCORE.INTER.CONST>
1

>  <SCORE.INTER.POLAR>
-2.72633

>  <SCORE.INTER.ROT>
8

>  <SCORE.INTER.SOLV>
7.31771

>  <SCORE.INTER.VDW>
-16.3439

>  <SCORE.INTER.norm>
-1.91715

>  <SCORE.INTRA>
-7.34697

>  <SCORE.INTRA.DIHEDRAL>
-14.9658

>  <SCORE.INTRA.DIHEDRAL.0>
21.6454

>  <SCORE.INTRA.POLAR>
0

>  <SCORE.INTRA.POLAR.0>
0

>  <SCORE.INTRA.REPUL>
0

>  <SCORE.INTRA.REPUL.0>
0

>  <SCORE.INTRA.SOLV>
0.488483

>  <SCORE.INTRA.SOLV.lig_0>
-16.5947

>  <SCORE.INTRA.VDW>
-0.108299

>  <SCORE.INTRA.VDW.0>
-0.691398

>  <SCORE.INTRA.norm>
-0.667906

>  <SCORE.RESTR>
0

>  <SCORE.RESTR.CAVITY>
0

>  <SCORE.RESTR.norm>
0

>  <SCORE.SYSTEM>
0

>  <SCORE.SYSTEM.CONST>
0

>  <SCORE.SYSTEM.DIHEDRAL>
0

>  <SCORE.SYSTEM.SOLV>
0

>  <SCORE.SYSTEM.norm>
0

>  <SCORE.heavy>
11

>  <SCORE.norm>
-2.58506

>  <RMSD>
3.519

$$$$
1akx_lig
 OpenBabel11021811383D
libRbt.so/2013.1/901 2013/11/27
 11 10  0  0  0  0  0  0  0  0999 V2000
   -5.3426   -2.6143    2.3941 N   0  0  0  0  0  0  0  0  0  0  0  0
   -3.9514   -2.7301    1.8655 C   0  0  2  0  0  0  0  0  0  0  0  0
   -3.1057   -1.5628    2.3899 C   0  0  0  0  0  0  0  0  0  0  0  0
   -2.8210   -1.4883    3.5687 O   0  0  0  0  0  0  0  0  0  0  0  0
   -3.9791   -2.7002    0.3314 C   0  0  0  0  0  0  0  0  0  0  0  0
   -4.8324   -3.8596   -0.1930 C   0  0  0  0  0  0  0  0  0  0  0  0
   -4.5001   -4.1144   -1.6632 C   0  0  0  0  0  0  0  0  0  0  0  0
   -4.6025   -2.8357   -2.4225 N   0  0  0  0  0  0  0  0  0  0  0  0
   -3.6601   -2.4899   -3.2620 C   0  0  0  0  0  0  0  0  0  0  0  0
   -2.4735   -2.1595   -2.8212 N   0  0  0  0  0  0  0  0  0  0  0  0
   -3.9039   -2.4810   -4.5451 N   0  0  0  0  0  0  0  0  0  0  0  0
  2  1  1  1  0  0  0
  2  3  1  0  0  0  0
  2  5  1  0  0  0  0
  3  4  1  0  0  0  0
  5  6  1  0  0  0  0
  6  7  1  0  0  0  0
  7  8  1  0  0  0  0
  8  9  1  0  0  0  0
  9 10  1  0  0  0  0
  9 11  1  0  0  0  0
M  END
>  <CHROM.1>
71.78539476,68.37807320,-59.32179999,-161.52079465,-51.98872535,133.63011307
-68.68961231,1.88832333,175.86517698,-3.93146199,-2.61317001,-0.38662319
1.57272254,0.63942134,1.47048748

>  <Name>
1akx_lig

>  <RI>
0

>  <Rbt.Current_Directory>
/home/afrankz/demos/rdock_decoys_rna/rnas/1akx

>  <Rbt.Executable>
rbdock ($Id: //depot/dev/client3/rdock/2013.1/src/exe/rbdock.cxx#4 $)

>  <Rbt.Library>
libRbt.so (2013.1, Build901 2013/11/27)

>  <Rbt.Parameter_File>
/export/apps/rDock/src/rDock_2013.1_src/data/scripts/dock_solv.prm

>  <Rbt.Receptor>
prm/pocket_docking_4.prm

>  <SCORE>
-33.9958

>  <SCORE.INTER>
-26.9825

>  <SCORE.INTER.CONST>
1

>  <SCORE.INTER.POLAR>
-4.26916

>  <SCORE.INTER.ROT>
8

>  <SCORE.INTER.SOLV>
6.41269

>  <SCORE.INTER.VDW>
-14.8287

>  <SCORE.INTER.norm>
-2.45295

>  <SCORE.INTRA>
-7.01328

>  <SCORE.INTRA.DIHEDRAL>
-14.6994

>  <SCORE.INTRA.DIHEDRAL.0>
21.6454

>  <SCORE.INTRA.POLAR>
0

>  <SCORE.INTRA.POLAR.0>
0

>  <SCORE.INTRA.REPUL>
0

>  <SCORE.INTRA.REPUL.0>
0

>  <SCORE.INTRA.SOLV>
0.583716

>  <SCORE.INTRA.SOLV.lig_0>
-16.5947

>  <SCORE.INTRA.VDW>
0.0445437

>  <SCORE.INTRA.VDW.0>
-0.691398

>  <SCORE.INTRA.norm>
-0.637571

>  <SCORE.RESTR>
0

>  <SCORE.RESTR.CAVITY>
0

>  <SCORE.RESTR.norm>
0

>  <SCORE.SYSTEM>
0

>  <SCORE.SYSTEM.CONST>
0

>  <SCORE.SYSTEM.DIHEDRAL>
0

>  <SCORE.SYSTEM.SOLV>
0

>  <SCORE.SYSTEM.norm>
0

>  <SCORE.heavy>
11

>  <SCORE.norm>
-3.09052

>  <RMSD>
3.533

>  <RMSD>
3.533

$$$$
1akx_lig
 OpenBabel11021811383D
libRbt.so/2013.1/901 2013/11/27
 11 10  0  0  0  0  0  0  0  0999 V2000
   -5.3426   -2.6143    2.3941 N   0  0  0  0  0  0  0  0  0  0  0  0
   -3.9514   -2.7301    1.8655 C   0  0  2  0  0  0  0  0  0  0  0  0
   -3.1057   -1.5628    2.3899 C   0  0  0  0  0  0  0  0  0  0  0  0
   -2.8210   -1.4883    3.5687 O   0  0  0  0  0  0  0  0  0  0  0  0
   -3.9791   -2.7002    0.3314 C   0  0  0  0  0  0  0  0  0  0  0  0
   -4.8324   -3.8596   -0.1930 C   0  0  0  0  0  0  0  0  0  0  0  0
   -4.5001   -4.1144   -1.6632 C   0  0  0  0  0  0  0  0  0  0  0  0
   -4.6025   -2.8357   -2.4225 N   0  0  0  0  0  0  0  0  0  0  0  0
   -3.6601   -2.4899   -3.2620 C   0  0  0  0  0  0  0  0  0  0  0  0
   -2.4735   -2.1595   -2.8212 N   0  0  0  0  0  0  0  0  0  0  0  0
   -3.9039   -2.4810   -4.5451 N   0  0  0  0  0  0  0  0  0  0  0  0
  2  1  1  1  0  0  0
  2  3  1  0  0  0  0
  2  5  1  0  0  0  0
  3  4  1  0  0  0  0
  5  6  1  0  0  0  0
  6  7  1  0  0  0  0
  7  8  1  0  0  0  0
  8  9  1  0  0  0  0
  9 10  1  0  0  0  0
  9 11  1  0  0  0  0
M  END
>  <CHROM.1>
71.78539476,68.37807320,-59.32179999,-161.52079465,-51.98872535,133.63011307
-68.68961231,1.88832333,175.86517698,-3.93146199,-2.61317001,-0.38662319
1.57272254,0.63942134,1.47048748

>  <Name>
1akx_lig

>  <RI>
0

>  <Rbt.Current_Directory>
/home/afrankz/demos/rdock_decoys_rna/rnas/1akx

>  <Rbt.Executable>
rbdock ($Id: //depot/dev/client3/rdock/2013.1/src/exe/rbdock.cxx#4 $)

>  <Rbt.Library>
libRbt.so (2013.1, Build901 2013/11/27)

>  <Rbt.Parameter_File>
/export/apps/rDock/src/rDock_2013.1_src/data/scripts/dock_solv.prm

>  <Rbt.Receptor>
prm/pocket_docking_4.prm

>  <SCORE>
-33.9958

>  <SCORE.INTER>
-26.9825

>  <SCORE.INTER.CONST>
1

>  <SCORE.INTER.POLAR>
-4.26916

>  <SCORE.INTER.ROT>
8

>  <SCORE.INTER.SOLV>
6.41269

>  <SCORE.INTER.VDW>
-14.8287

>  <SCORE.INTER.norm>
-2.45295

>  <SCORE.INTRA>
-7.01328

>  <SCORE.INTRA.DIHEDRAL>
-14.6994

>  <SCORE.INTRA.DIHEDRAL.0>
21.6454

>  <SCORE.INTRA.POLAR>
0

>  <SCORE.INTRA.POLAR.0>
0

>  <SCORE.INTRA.REPUL>
0

>  <SCORE.INTRA.REPUL.0>
0

>  <SCORE.INTRA.SOLV>
0.583716

>  <SCORE.INTRA.SOLV.lig_0>
-16.5947

>  <SCORE.INTRA.VDW>
0.0445437

>  <SCORE.INTRA.VDW.0>
-0.691398

>  <SCORE.INTRA.norm>
-0.637571

>  <SCORE.RESTR>
0

>  <SCORE.RESTR.CAVITY>
0

>  <SCORE.RESTR.norm>
0

>  <SCORE.SYSTEM>
0

>  <SCORE.SYSTEM.CONST>
0

>  <SCORE.SYSTEM.DIHEDRAL>
0

>  <SCORE.SYSTEM.SOLV>
0

>  <SCORE.SYSTEM.norm>
0

>  <SCORE.heavy>
11

>  <SCORE.norm>
-3.09052

>  <RMSD>
3.533

>  <RMSD>
3.533

$$$$
1akx_lig
 OpenBabel11021811383D
libRbt.so/2013.1/901 2013/11/27
 11 10  0  0  0  0  0  0  0  0999 V2000
   -4.7819   -1.8271    1.6259 N   0  0  0  0  0  0  0  0  0  0  0  0
   -5.0014   -3.2866    1.4025 C   0  0  2  0  0  0  0  0  0  0  0  0
   -3.6907   -3.9368    0.9419 C   0  0  0  0  0  0  0  0  0  0  0  0
   -3.6371   -5.1315    0.7272 O   0  0  0  0  0  0  0  0  0  0  0  0
   -6.0822   -3.4870    0.3315 C   0  0  0  0  0  0  0  0  0  0  0  0
   -5.6924   -2.7325   -0.9437 C   0  0  0  0  0  0  0  0  0  0  0  0
   -4.9687   -3.6822   -1.8982 C   0  0  0  0  0  0  0  0  0  0  0  0
   -4.2673   -2.8894   -2.9479 N   0  0  0  0  0  0  0  0  0  0  0  0
   -3.0000   -2.5925   -2.8134 C   0  0  0  0  0  0  0  0  0  0  0  0
   -2.3156   -2.1463   -3.8350 N   0  0  0  0  0  0  0  0  0  0  0  0
   -2.4184   -2.7366   -1.6528 N   0  0  0  0  0  0  0  0  0  0  0  0
  2  1  1  6  0  0  0
  2  3  1  0  0  0  0
  2  5  1  0  0  0  0
  3  4  1  0  0  0  0
  5  6  1  0  0  0  0
  6  7  1  0  0  0  0
  7  8  1  0  0  0  0
  8  9  1  0  0  0  0
  9 10  1  0  0  0  0
  9 11  1  0  0  0  0
M  END
>  <CHROM.1>
167.68161168,178.54124770,55.08017808,94.57176119,-164.49985667,96.06263840
165.88842985,-172.51711334,-95.18173634,-4.12803003,-3.10615713,-0.82453449
1.99014932,-0.25620031,1.87256228

>  <Name>
1akx_lig

>  <RI>
0

>  <Rbt.Current_Directory>
/home/itssahil/PROJECTS/Mol_Feturizer/New_Systems/rnas/1akx

>  <Rbt.Executable>
rbdock ($Id: //depot/dev/client3/rdock/2013.1/src/exe/rbdock.cxx#4 $)

>  <Rbt.Library>
libRbt.so (2013.1, Build901 2013/11/27)

>  <Rbt.Parameter_File>
/export/apps/rDock/src/rDock_2013.1_src/data/scripts/dock_solv.prm

>  <Rbt.Receptor>
prm/pocket_docking_5.prm

>  <SCORE>
-28.3936

>  <SCORE.INTER>
-24.8694

>  <SCORE.INTER.CONST>
1

>  <SCORE.INTER.POLAR>
-3.87376

>  <SCORE.INTER.ROT>
8

>  <SCORE.INTER.SOLV>
5.95144

>  <SCORE.INTER.VDW>
-14.5842

>  <SCORE.INTER.norm>
-2.26085

>  <SCORE.INTRA>
-3.52423

>  <SCORE.INTRA.DIHEDRAL>
-11.7272

>  <SCORE.INTRA.DIHEDRAL.0>
21.6454

>  <SCORE.INTRA.POLAR>
0

>  <SCORE.INTRA.POLAR.0>
0

>  <SCORE.INTRA.REPUL>
0

>  <SCORE.INTRA.REPUL.0>
0

>  <SCORE.INTRA.SOLV>
1.48392

>  <SCORE.INTRA.SOLV.lig_0>
-16.5947

>  <SCORE.INTRA.VDW>
1.59738

>  <SCORE.INTRA.VDW.0>
-0.691398

>  <SCORE.INTRA.norm>
-0.320385

>  <SCORE.RESTR>
0

>  <SCORE.RESTR.CAVITY>
0

>  <SCORE.RESTR.norm>
0

>  <SCORE.SYSTEM>
0

>  <SCORE.SYSTEM.CONST>
0

>  <SCORE.SYSTEM.DIHEDRAL>
0

>  <SCORE.SYSTEM.SOLV>
0

>  <SCORE.SYSTEM.norm>
0

>  <SCORE.heavy>
11

>  <SCORE.norm>
-2.58124

>  <RMSD>
3.533

$$$$
1akx_lig
 OpenBabel11021811383D
libRbt.so/2013.1/901 2013/11/27
 11 10  0  0  0  0  0  0  0  0999 V2000
   -4.9722   -5.4789    1.0944 N   0  0  0  0  0  0  0  0  0  0  0  0
   -4.7660   -4.0063    1.2254 C   0  0  2  0  0  0  0  0  0  0  0  0
   -4.6702   -3.6328    2.7100 C   0  0  0  0  0  0  0  0  0  0  0  0
   -3.7724   -4.0732    3.4000 O   0  0  0  0  0  0  0  0  0  0  0  0
   -5.9428   -3.2619    0.5800 C   0  0  0  0  0  0  0  0  0  0  0  0
   -5.9631   -3.5353   -0.9274 C   0  0  0  0  0  0  0  0  0  0  0  0
   -4.7307   -2.9063   -1.5774 C   0  0  0  0  0  0  0  0  0  0  0  0
   -4.7446   -3.1888   -3.0410 N   0  0  0  0  0  0  0  0  0  0  0  0
   -3.9823   -2.5013   -3.8526 C   0  0  0  0  0  0  0  0  0  0  0  0
   -4.5126   -1.8140   -4.8312 N   0  0  0  0  0  0  0  0  0  0  0  0
   -2.6876   -2.4968   -3.6804 N   0  0  0  0  0  0  0  0  0  0  0  0
  2  1  1  1  0  0  0
  2  3  1  0  0  0  0
  2  5  1  0  0  0  0
  3  4  1  0  0  0  0
  5  6  1  0  0  0  0
  6  7  1  0  0  0  0
  7  8  1  0  0  0  0
  8  9  1  0  0  0  0
  9 10  1  0  0  0  0
  9 11  1  0  0  0  0
M  END
>  <CHROM.1>
64.67419213,62.50078623,-64.80763501,-66.58825248,179.29051030,163.74874696
-121.04874737,120.88741658,-10.20073136,-4.58926114,-3.38049186,-0.82144582
1.66403618,0.21035020,1.83649107

>  <Name>
1akx_lig

>  <RI>
0

>  <Rbt.Current_Directory>
/home/itssahil/PROJECTS/Mol_Feturizer/New_Systems/rnas/1akx

>  <Rbt.Executable>
rbdock ($Id: //depot/dev/client3/rdock/2013.1/src/exe/rbdock.cxx#4 $)

>  <Rbt.Library>
libRbt.so (2013.1, Build901 2013/11/27)

>  <Rbt.Parameter_File>
/export/apps/rDock/src/rDock_2013.1_src/data/scripts/dock_solv.prm

>  <Rbt.Receptor>
prm/pocket_docking_4.prm

>  <SCORE>
-27.1775

>  <SCORE.INTER>
-19.6581

>  <SCORE.INTER.CONST>
1

>  <SCORE.INTER.POLAR>
-2.81793

>  <SCORE.INTER.ROT>
8

>  <SCORE.INTER.SOLV>
7.17409

>  <SCORE.INTER.VDW>
-15.037

>  <SCORE.INTER.norm>
-1.7871

>  <SCORE.INTRA>
-7.5194

>  <SCORE.INTRA.DIHEDRAL>
-16.496

>  <SCORE.INTRA.DIHEDRAL.0>
21.6454

>  <SCORE.INTRA.POLAR>
0

>  <SCORE.INTRA.POLAR.0>
0

>  <SCORE.INTRA.REPUL>
0

>  <SCORE.INTRA.REPUL.0>
0

>  <SCORE.INTRA.SOLV>
0.268807

>  <SCORE.INTRA.SOLV.lig_0>
-16.5947

>  <SCORE.INTRA.VDW>
0.594191

>  <SCORE.INTRA.VDW.0>
-0.691398

>  <SCORE.INTRA.norm>
-0.683582

>  <SCORE.RESTR>
0

>  <SCORE.RESTR.CAVITY>
0

>  <SCORE.RESTR.norm>
0

>  <SCORE.SYSTEM>
0

>  <SCORE.SYSTEM.CONST>
0

>  <SCORE.SYSTEM.DIHEDRAL>
0

>  <SCORE.SYSTEM.SOLV>
0

>  <SCORE.SYSTEM.norm>
0

>  <SCORE.heavy>
11

>  <SCORE.norm>
-2.47068

>  <RMSD>
3.538

$$$$
1akx_lig
 OpenBabel11021811383D
libRbt.so/2013.1/901 2013/11/27
 11 10  0  0  0  0  0  0  0  0999 V2000
   -6.2396   -3.4878    1.5994 N   0  0  0  0  0  0  0  0  0  0  0  0
   -4.7811   -3.2335    1.7902 C   0  0  2  0  0  0  0  0  0  0  0  0
   -4.5869   -2.1206    2.8276 C   0  0  0  0  0  0  0  0  0  0  0  0
   -3.4744   -1.8321    3.2217 O   0  0  0  0  0  0  0  0  0  0  0  0
   -4.1528   -2.8112    0.4552 C   0  0  0  0  0  0  0  0  0  0  0  0
   -2.6344   -3.0068    0.5136 C   0  0  0  0  0  0  0  0  0  0  0  0
   -2.0098   -2.5540   -0.8062 C   0  0  0  0  0  0  0  0  0  0  0  0
   -2.6387   -3.3003   -1.9330 N   0  0  0  0  0  0  0  0  0  0  0  0
   -3.1771   -2.6520   -2.9342 C   0  0  0  0  0  0  0  0  0  0  0  0
   -2.4193   -2.1161   -3.8562 N   0  0  0  0  0  0  0  0  0  0  0  0
   -4.4763   -2.5455   -3.0161 N   0  0  0  0  0  0  0  0  0  0  0  0
  2  1  1  6  0  0  0
  2  3  1  0  0  0  0
  2  5  1  0  0  0  0
  3  4  1  0  0  0  0
  5  6  1  0  0  0  0
  6  7  1  0  0  0  0
  7  8  1  0  0  0  0
  8  9  1  0  0  0  0
  9 10  1  0  0  0  0
  9 11  1  0  0  0  0
M  END
>  <CHROM.1>
-177.42377269,173.60714989,-160.95947036,-178.68019995,-56.24544803,125.39131389
76.78144611,164.51395752,-120.43024318,-3.72765291,-2.69628612,-0.21078474
1.87672370,0.23091786,1.50972389

>  <Name>
1akx_lig

>  <RI>
0

>  <Rbt.Current_Directory>
/home/itssahil/PROJECTS/Mol_Feturizer/New_Systems/rnas/1akx

>  <Rbt.Executable>
rbdock ($Id: //depot/dev/client3/rdock/2013.1/src/exe/rbdock.cxx#4 $)

>  <Rbt.Library>
libRbt.so (2013.1, Build901 2013/11/27)

>  <Rbt.Parameter_File>
/export/apps/rDock/src/rDock_2013.1_src/data/scripts/dock_solv.prm

>  <Rbt.Receptor>
prm/pocket_docking_8.prm

>  <SCORE>
-26.9788

>  <SCORE.INTER>
-19.582

>  <SCORE.INTER.CONST>
1

>  <SCORE.INTER.POLAR>
-2.89269

>  <SCORE.INTER.ROT>
8

>  <SCORE.INTER.SOLV>
5.79466

>  <SCORE.INTER.VDW>
-14.2773

>  <SCORE.INTER.norm>
-1.78018

>  <SCORE.INTRA>
-7.39679

>  <SCORE.INTRA.DIHEDRAL>
-15.2785

>  <SCORE.INTRA.DIHEDRAL.0>
21.6454

>  <SCORE.INTRA.POLAR>
0

>  <SCORE.INTRA.POLAR.0>
0

>  <SCORE.INTRA.REPUL>
0

>  <SCORE.INTRA.REPUL.0>
0

>  <SCORE.INTRA.SOLV>
0.524141

>  <SCORE.INTRA.SOLV.lig_0>
-16.5947

>  <SCORE.INTRA.VDW>
-0.0195951

>  <SCORE.INTRA.VDW.0>
-0.691398

>  <SCORE.INTRA.norm>
-0.672436

>  <SCORE.RESTR>
0

>  <SCORE.RESTR.CAVITY>
0

>  <SCORE.RESTR.norm>
0

>  <SCORE.SYSTEM>
0

>  <SCORE.SYSTEM.CONST>
0

>  <SCORE.SYSTEM.DIHEDRAL>
0

>  <SCORE.SYSTEM.SOLV>
0

>  <SCORE.SYSTEM.norm>
0

>  <SCORE.heavy>
11

>  <SCORE.norm>
-2.45262

>  <RMSD>
3.557

$$$$
1akx_lig
 OpenBabel11021811383D
libRbt.so/2013.1/901 2013/11/27
 11 10  0  0  0  0  0  0  0  0999 V2000
   -4.6624   -1.4395    1.8678 N   0  0  0  0  0  0  0  0  0  0  0  0
   -4.6754   -2.7869    1.2256 C   0  0  2  0  0  0  0  0  0  0  0  0
   -5.7340   -3.6665    1.9026 C   0  0  0  0  0  0  0  0  0  0  0  0
   -5.7015   -3.8578    3.1020 O   0  0  0  0  0  0  0  0  0  0  0  0
   -3.2934   -3.4389    1.3682 C   0  0  0  0  0  0  0  0  0  0  0  0
   -2.7699   -3.8480   -0.0124 C   0  0  0  0  0  0  0  0  0  0  0  0
   -2.4650   -2.5960   -0.8347 C   0  0  0  0  0  0  0  0  0  0  0  0
   -3.5000   -2.4365   -1.8957 N   0  0  0  0  0  0  0  0  0  0  0  0
   -3.1643   -2.4982   -3.1590 C   0  0  0  0  0  0  0  0  0  0  0  0
   -1.9585   -2.8709   -3.5032 N   0  0  0  0  0  0  0  0  0  0  0  0
   -4.0390   -2.1924   -4.0795 N   0  0  0  0  0  0  0  0  0  0  0  0
  2  1  1  1  0  0  0
  2  3  1  0  0  0  0
  2  5  1  0  0  0  0
  3  4  1  0  0  0  0
  5  6  1  0  0  0  0
  6  7  1  0  0  0  0
  7  8  1  0  0  0  0
  8  9  1  0  0  0  0
  9 10  1  0  0  0  0
  9 11  1  0  0  0  0
M  END
>  <CHROM.1>
70.27691841,-56.16610571,-125.31011943,68.09063154,-107.31198458,-116.58548532
8.90341372,-96.45320476,-40.11168058,-3.83438340,-2.84619367,-0.36959650
1.95643010,-0.35343391,1.82442970

>  <Name>
1akx_lig

>  <RI>
0

>  <Rbt.Current_Directory>
/home/itssahil/PROJECTS/Mol_Feturizer/New_Systems/rnas/1akx

>  <Rbt.Executable>
rbdock ($Id: //depot/dev/client3/rdock/2013.1/src/exe/rbdock.cxx#4 $)

>  <Rbt.Library>
libRbt.so (2013.1, Build901 2013/11/27)

>  <Rbt.Parameter_File>
/export/apps/rDock/src/rDock_2013.1_src/data/scripts/dock_solv.prm

>  <Rbt.Receptor>
prm/pocket_docking_5.prm

>  <SCORE>
-28.529

>  <SCORE.INTER>
-26.6104

>  <SCORE.INTER.CONST>
1

>  <SCORE.INTER.POLAR>
-4.24442

>  <SCORE.INTER.ROT>
8

>  <SCORE.INTER.SOLV>
6.78863

>  <SCORE.INTER.VDW>
-14.7884

>  <SCORE.INTER.norm>
-2.41913

>  <SCORE.INTRA>
-1.9186

>  <SCORE.INTRA.DIHEDRAL>
-5.57185

>  <SCORE.INTRA.DIHEDRAL.0>
21.6454

>  <SCORE.INTRA.POLAR>
0

>  <SCORE.INTRA.POLAR.0>
0

>  <SCORE.INTRA.REPUL>
0

>  <SCORE.INTRA.REPUL.0>
0

>  <SCORE.INTRA.SOLV>
0.877273

>  <SCORE.INTRA.SOLV.lig_0>
-16.5947

>  <SCORE.INTRA.VDW>
0.428687

>  <SCORE.INTRA.VDW.0>
-0.691398

>  <SCORE.INTRA.norm>
-0.174419

>  <SCORE.RESTR>
0

>  <SCORE.RESTR.CAVITY>
0

>  <SCORE.RESTR.norm>
0

>  <SCORE.SYSTEM>
0

>  <SCORE.SYSTEM.CONST>
0

>  <SCORE.SYSTEM.DIHEDRAL>
0

>  <SCORE.SYSTEM.SOLV>
0

>  <SCORE.SYSTEM.norm>
0

>  <SCORE.heavy>
11

>  <SCORE.norm>
-2.59355

>  <RMSD>
3.558

$$$$
1akx_lig
 OpenBabel11021811383D
libRbt.so/2013.1/901 2013/11/27
 11 10  0  0  0  0  0  0  0  0999 V2000
   -2.1958   -2.0200    0.4759 N   0  0  0  0  0  0  0  0  0  0  0  0
   -2.9607   -3.2517    0.1208 C   0  0  2  0  0  0  0  0  0  0  0  0
   -4.3393   -3.2094    0.7919 C   0  0  0  0  0  0  0  0  0  0  0  0
   -5.1689   -2.3920    0.4457 O   0  0  0  0  0  0  0  0  0  0  0  0
   -2.1915   -4.4912    0.5975 C   0  0  0  0  0  0  0  0  0  0  0  0
   -0.9165   -4.6603   -0.2351 C   0  0  0  0  0  0  0  0  0  0  0  0
   -1.2896   -4.8884   -1.6999 C   0  0  0  0  0  0  0  0  0  0  0  0
   -1.1908   -3.5995   -2.4423 N   0  0  0  0  0  0  0  0  0  0  0  0
   -2.1584   -3.2208   -3.2378 C   0  0  0  0  0  0  0  0  0  0  0  0
   -3.3418   -2.9470   -2.7522 N   0  0  0  0  0  0  0  0  0  0  0  0
   -1.9393   -3.1101   -4.5207 N   0  0  0  0  0  0  0  0  0  0  0  0
  2  1  1  1  0  0  0
  2  3  1  0  0  0  0
  2  5  1  0  0  0  0
  3  4  1  0  0  0  0
  5  6  1  0  0  0  0
  6  7  1  0  0  0  0
  7  8  1  0  0  0  0
  8  9  1  0  0  0  0
  9 10  1  0  0  0  0
  9 11  1  0  0  0  0
M  END
>  <CHROM.1>
-55.09717180,67.80731585,-68.89437272,-62.31775182,97.71688743,-132.69289128
64.80153113,101.51403220,-147.85265533,-2.53451562,-3.37932834,-1.14928877
-2.09757541,0.55312929,-1.40586953

>  <Name>
1akx_lig

>  <RI>
0

>  <Rbt.Current_Directory>
/home/itssahil/PROJECTS/Mol_Feturizer/New_Systems/rnas/1akx

>  <Rbt.Executable>
rbdock ($Id: //depot/dev/client3/rdock/2013.1/src/exe/rbdock.cxx#4 $)

>  <Rbt.Library>
libRbt.so (2013.1, Build901 2013/11/27)

>  <Rbt.Parameter_File>
/export/apps/rDock/src/rDock_2013.1_src/data/scripts/dock_solv.prm

>  <Rbt.Receptor>
prm/pocket_docking_5.prm

>  <SCORE>
-29.0542

>  <SCORE.INTER>
-23.0189

>  <SCORE.INTER.CONST>
1

>  <SCORE.INTER.POLAR>
-3.6402

>  <SCORE.INTER.ROT>
8

>  <SCORE.INTER.SOLV>
7.419

>  <SCORE.INTER.VDW>
-14.6183

>  <SCORE.INTER.norm>
-2.09263

>  <SCORE.INTRA>
-6.03531

>  <SCORE.INTRA.DIHEDRAL>
-12.3926

>  <SCORE.INTRA.DIHEDRAL.0>
21.6454

>  <SCORE.INTRA.POLAR>
0

>  <SCORE.INTRA.POLAR.0>
0

>  <SCORE.INTRA.REPUL>
0

>  <SCORE.INTRA.REPUL.0>
0

>  <SCORE.INTRA.SOLV>
2.11915

>  <SCORE.INTRA.SOLV.lig_0>
-16.5947

>  <SCORE.INTRA.VDW>
-0.898613

>  <SCORE.INTRA.VDW.0>
-0.691398

>  <SCORE.INTRA.norm>
-0.548665

>  <SCORE.RESTR>
0

>  <SCORE.RESTR.CAVITY>
0

>  <SCORE.RESTR.norm>
0

>  <SCORE.SYSTEM>
0

>  <SCORE.SYSTEM.CONST>
0

>  <SCORE.SYSTEM.DIHEDRAL>
0

>  <SCORE.SYSTEM.SOLV>
0

>  <SCORE.SYSTEM.norm>
0

>  <SCORE.heavy>
11

>  <SCORE.norm>
-2.64129

>  <RMSD>
3.574

$$$$
1akx_lig
 OpenBabel11021811383D
libRbt.so/2013.1/901 2013/11/27
 11 10  0  0  0  0  0  0  0  0999 V2000
   -6.0944   -2.9573    2.7214 N   0  0  0  0  0  0  0  0  0  0  0  0
   -4.9549   -3.2795    1.8125 C   0  0  2  0  0  0  0  0  0  0  0  0
   -3.8906   -2.1799    1.9163 C   0  0  0  0  0  0  0  0  0  0  0  0
   -2.8500   -2.2683    1.2955 O   0  0  0  0  0  0  0  0  0  0  0  0
   -5.4604   -3.3749    0.3666 C   0  0  0  0  0  0  0  0  0  0  0  0
   -4.4673   -4.1818   -0.4760 C   0  0  0  0  0  0  0  0  0  0  0  0
   -4.8587   -4.0933   -1.9511 C   0  0  0  0  0  0  0  0  0  0  0  0
   -4.6288   -2.7045   -2.4416 N   0  0  0  0  0  0  0  0  0  0  0  0
   -3.6485   -2.4518   -3.2709 C   0  0  0  0  0  0  0  0  0  0  0  0
   -3.8518   -2.4892   -4.5626 N   0  0  0  0  0  0  0  0  0  0  0  0
   -2.4644   -2.1549   -2.8063 N   0  0  0  0  0  0  0  0  0  0  0  0
  2  1  1  1  0  0  0
  2  3  1  0  0  0  0
  2  5  1  0  0  0  0
  3  4  1  0  0  0  0
  5  6  1  0  0  0  0
  6  7  1  0  0  0  0
  7  8  1  0  0  0  0
  8  9  1  0  0  0  0
  9 10  1  0  0  0  0
  9 11  1  0  0  0  0
M  END
>  <CHROM.1>
-179.10800401,177.20442553,-159.40523976,-171.32531832,68.85430750,108.87622458
91.56690775,175.28761227,-175.47208203,-4.28212595,-2.89155986,-0.66789182
1.83548032,0.51296871,1.49212577

>  <Name>
1akx_lig

>  <RI>
0

>  <Rbt.Current_Directory>
/home/itssahil/PROJECTS/Mol_Feturizer/New_Systems/rnas/1akx

>  <Rbt.Executable>
rbdock ($Id: //depot/dev/client3/rdock/2013.1/src/exe/rbdock.cxx#4 $)

>  <Rbt.Library>
libRbt.so (2013.1, Build901 2013/11/27)

>  <Rbt.Parameter_File>
/export/apps/rDock/src/rDock_2013.1_src/data/scripts/dock_solv.prm

>  <Rbt.Receptor>
prm/pocket_docking_8.prm

>  <SCORE>
-35.5072

>  <SCORE.INTER>
-28.0924

>  <SCORE.INTER.CONST>
1

>  <SCORE.INTER.POLAR>
-4.30386

>  <SCORE.INTER.ROT>
8

>  <SCORE.INTER.SOLV>
7.20798

>  <SCORE.INTER.VDW>
-15.718

>  <SCORE.INTER.norm>
-2.55385

>  <SCORE.INTRA>
-7.41482

>  <SCORE.INTRA.DIHEDRAL>
-14.6655

>  <SCORE.INTRA.DIHEDRAL.0>
21.6454

>  <SCORE.INTRA.POLAR>
0

>  <SCORE.INTRA.POLAR.0>
0

>  <SCORE.INTRA.REPUL>
0

>  <SCORE.INTRA.REPUL.0>
0

>  <SCORE.INTRA.SOLV>
0.613668

>  <SCORE.INTRA.SOLV.lig_0>
-16.5947

>  <SCORE.INTRA.VDW>
-0.388922

>  <SCORE.INTRA.VDW.0>
-0.691398

>  <SCORE.INTRA.norm>
-0.674075

>  <SCORE.RESTR>
0

>  <SCORE.RESTR.CAVITY>
0

>  <SCORE.RESTR.norm>
0

>  <SCORE.SYSTEM>
0

>  <SCORE.SYSTEM.CONST>
0

>  <SCORE.SYSTEM.DIHEDRAL>
0

>  <SCORE.SYSTEM.SOLV>
0

>  <SCORE.SYSTEM.norm>
0

>  <SCORE.heavy>
11

>  <SCORE.norm>
-3.22793

>  <RMSD>
3.577

$$$$
1akx_lig
 OpenBabel11021811383D
libRbt.so/2013.1/901 2013/11/27
 11 10  0  0  0  0  0  0  0  0999 V2000
   -5.5967   -2.9700    1.9609 N   0  0  0  0  0  0  0  0  0  0  0  0
   -5.4095   -3.7735    0.7169 C   0  0  2  0  0  0  0  0  0  0  0  0
   -4.0410   -4.4654    0.7554 C   0  0  0  0  0  0  0  0  0  0  0  0
   -3.8202   -5.3512    1.5571 O   0  0  0  0  0  0  0  0  0  0  0  0
   -5.4887   -2.8524   -0.5081 C   0  0  0  0  0  0  0  0  0  0  0  0
   -5.6117   -3.6952   -1.7816 C   0  0  0  0  0  0  0  0  0  0  0  0
   -4.2170   -4.0085   -2.3235 C   0  0  0  0  0  0  0  0  0  0  0  0
   -3.7616   -2.8882   -3.1952 N   0  0  0  0  0  0  0  0  0  0  0  0
   -2.5180   -2.8297   -3.5980 C   0  0  0  0  0  0  0  0  0  0  0  0
   -1.5702   -2.4881   -2.7635 N   0  0  0  0  0  0  0  0  0  0  0  0
   -2.2217   -3.1198   -4.8366 N   0  0  0  0  0  0  0  0  0  0  0  0
  2  1  1  1  0  0  0
  2  3  1  0  0  0  0
  2  5  1  0  0  0  0
  3  4  1  0  0  0  0
  5  6  1  0  0  0  0
  6  7  1  0  0  0  0
  7  8  1  0  0  0  0
  8  9  1  0  0  0  0
  9 10  1  0  0  0  0
  9 11  1  0  0  0  0
M  END
>  <CHROM.1>
175.25331584,68.01228841,-167.43945522,-90.00618405,-85.94515591,168.97848531
-73.70556431,-148.22427979,36.36195911,-3.99558603,-3.48121991,-1.24985773
2.03662923,-0.26352416,1.89670099

>  <Name>
1akx_lig

>  <RI>
0

>  <Rbt.Current_Directory>
/home/afrankz/demos/rdock_decoys_rna/rnas/1akx

>  <Rbt.Executable>
rbdock ($Id: //depot/dev/client3/rdock/2013.1/src/exe/rbdock.cxx#4 $)

>  <Rbt.Library>
libRbt.so (2013.1, Build901 2013/11/27)

>  <Rbt.Parameter_File>
/export/apps/rDock/src/rDock_2013.1_src/data/scripts/dock_solv.prm

>  <Rbt.Receptor>
prm/pocket_docking_7.prm

>  <SCORE>
-27.2671

>  <SCORE.INTER>
-22.7449

>  <SCORE.INTER.CONST>
1

>  <SCORE.INTER.POLAR>
-3.37942

>  <SCORE.INTER.ROT>
8

>  <SCORE.INTER.SOLV>
7.82512

>  <SCORE.INTER.VDW>
-15.4402

>  <SCORE.INTER.norm>
-2.06771

>  <SCORE.INTRA>
-4.52225

>  <SCORE.INTRA.DIHEDRAL>
-10.7071

>  <SCORE.INTRA.DIHEDRAL.0>
21.6454

>  <SCORE.INTRA.POLAR>
0

>  <SCORE.INTRA.POLAR.0>
0

>  <SCORE.INTRA.REPUL>
0

>  <SCORE.INTRA.REPUL.0>
0

>  <SCORE.INTRA.SOLV>
0.428622

>  <SCORE.INTRA.SOLV.lig_0>
-16.5947

>  <SCORE.INTRA.VDW>
0.616992

>  <SCORE.INTRA.VDW.0>
-0.691398

>  <SCORE.INTRA.norm>
-0.411113

>  <SCORE.RESTR>
0

>  <SCORE.RESTR.CAVITY>
0

>  <SCORE.RESTR.norm>
0

>  <SCORE.SYSTEM>
0

>  <SCORE.SYSTEM.CONST>
0

>  <SCORE.SYSTEM.DIHEDRAL>
0

>  <SCORE.SYSTEM.SOLV>
0

>  <SCORE.SYSTEM.norm>
0

>  <SCORE.heavy>
11

>  <SCORE.norm>
-2.47883

>  <RMSD>
3.583

>  <RMSD>
3.583

$$$$
1akx_lig
 OpenBabel11021811383D
libRbt.so/2013.1/901 2013/11/27
 11 10  0  0  0  0  0  0  0  0999 V2000
   -5.5967   -2.9700    1.9609 N   0  0  0  0  0  0  0  0  0  0  0  0
   -5.4095   -3.7735    0.7169 C   0  0  2  0  0  0  0  0  0  0  0  0
   -4.0410   -4.4654    0.7554 C   0  0  0  0  0  0  0  0  0  0  0  0
   -3.8202   -5.3512    1.5571 O   0  0  0  0  0  0  0  0  0  0  0  0
   -5.4887   -2.8524   -0.5081 C   0  0  0  0  0  0  0  0  0  0  0  0
   -5.6117   -3.6952   -1.7816 C   0  0  0  0  0  0  0  0  0  0  0  0
   -4.2170   -4.0085   -2.3235 C   0  0  0  0  0  0  0  0  0  0  0  0
   -3.7616   -2.8882   -3.1952 N   0  0  0  0  0  0  0  0  0  0  0  0
   -2.5180   -2.8297   -3.5980 C   0  0  0  0  0  0  0  0  0  0  0  0
   -1.5702   -2.4881   -2.7635 N   0  0  0  0  0  0  0  0  0  0  0  0
   -2.2217   -3.1198   -4.8366 N   0  0  0  0  0  0  0  0  0  0  0  0
  2  1  1  1  0  0  0
  2  3  1  0  0  0  0
  2  5  1  0  0  0  0
  3  4  1  0  0  0  0
  5  6  1  0  0  0  0
  6  7  1  0  0  0  0
  7  8  1  0  0  0  0
  8  9  1  0  0  0  0
  9 10  1  0  0  0  0
  9 11  1  0  0  0  0
M  END
>  <CHROM.1>
175.25331584,68.01228841,-167.43945522,-90.00618405,-85.94515591,168.97848531
-73.70556431,-148.22427979,36.36195911,-3.99558603,-3.48121991,-1.24985773
2.03662923,-0.26352416,1.89670099

>  <Name>
1akx_lig

>  <RI>
0

>  <Rbt.Current_Directory>
/home/afrankz/demos/rdock_decoys_rna/rnas/1akx

>  <Rbt.Executable>
rbdock ($Id: //depot/dev/client3/rdock/2013.1/src/exe/rbdock.cxx#4 $)

>  <Rbt.Library>
libRbt.so (2013.1, Build901 2013/11/27)

>  <Rbt.Parameter_File>
/export/apps/rDock/src/rDock_2013.1_src/data/scripts/dock_solv.prm

>  <Rbt.Receptor>
prm/pocket_docking_7.prm

>  <SCORE>
-27.2671

>  <SCORE.INTER>
-22.7449

>  <SCORE.INTER.CONST>
1

>  <SCORE.INTER.POLAR>
-3.37942

>  <SCORE.INTER.ROT>
8

>  <SCORE.INTER.SOLV>
7.82512

>  <SCORE.INTER.VDW>
-15.4402

>  <SCORE.INTER.norm>
-2.06771

>  <SCORE.INTRA>
-4.52225

>  <SCORE.INTRA.DIHEDRAL>
-10.7071

>  <SCORE.INTRA.DIHEDRAL.0>
21.6454

>  <SCORE.INTRA.POLAR>
0

>  <SCORE.INTRA.POLAR.0>
0

>  <SCORE.INTRA.REPUL>
0

>  <SCORE.INTRA.REPUL.0>
0

>  <SCORE.INTRA.SOLV>
0.428622

>  <SCORE.INTRA.SOLV.lig_0>
-16.5947

>  <SCORE.INTRA.VDW>
0.616992

>  <SCORE.INTRA.VDW.0>
-0.691398

>  <SCORE.INTRA.norm>
-0.411113

>  <SCORE.RESTR>
0

>  <SCORE.RESTR.CAVITY>
0

>  <SCORE.RESTR.norm>
0

>  <SCORE.SYSTEM>
0

>  <SCORE.SYSTEM.CONST>
0

>  <SCORE.SYSTEM.DIHEDRAL>
0

>  <SCORE.SYSTEM.SOLV>
0

>  <SCORE.SYSTEM.norm>
0

>  <SCORE.heavy>
11

>  <SCORE.norm>
-2.47883

>  <RMSD>
3.583

>  <RMSD>
3.583

$$$$
1akx_lig
 OpenBabel11021811383D
libRbt.so/2013.1/901 2013/11/27
 11 10  0  0  0  0  0  0  0  0999 V2000
   -4.7716   -2.0258    1.3452 N   0  0  0  0  0  0  0  0  0  0  0  0
   -4.7578   -3.1747    0.3923 C   0  0  2  0  0  0  0  0  0  0  0  0
   -5.8476   -4.1796    0.7861 C   0  0  0  0  0  0  0  0  0  0  0  0
   -5.8983   -4.6231    1.9161 O   0  0  0  0  0  0  0  0  0  0  0  0
   -3.3848   -3.8595    0.4308 C   0  0  0  0  0  0  0  0  0  0  0  0
   -3.1855   -4.6899   -0.8412 C   0  0  0  0  0  0  0  0  0  0  0  0
   -2.5914   -3.8078   -1.9393 C   0  0  0  0  0  0  0  0  0  0  0  0
   -3.4988   -2.6521   -2.1908 N   0  0  0  0  0  0  0  0  0  0  0  0
   -4.2420   -2.6194   -3.2674 C   0  0  0  0  0  0  0  0  0  0  0  0
   -5.3408   -3.3264   -3.3315 N   0  0  0  0  0  0  0  0  0  0  0  0
   -3.8881   -1.8728   -4.2790 N   0  0  0  0  0  0  0  0  0  0  0  0
  2  1  1  1  0  0  0
  2  3  1  0  0  0  0
  2  5  1  0  0  0  0
  3  4  1  0  0  0  0
  5  6  1  0  0  0  0
  6  7  1  0  0  0  0
  7  8  1  0  0  0  0
  8  9  1  0  0  0  0
  9 10  1  0  0  0  0
  9 11  1  0  0  0  0
M  END
>  <CHROM.1>
-49.49152120,-53.53908354,-160.35729398,87.37670894,-58.06546833,-105.47507850
78.14042336,-165.49109522,-97.47074912,-4.34156658,-3.31245597,-0.98705568
1.82285678,-0.34423418,1.89448085

>  <Name>
1akx_lig

>  <RI>
0

>  <Rbt.Current_Directory>
/home/itssahil/PROJECTS/Mol_Feturizer/New_Systems/rnas/1akx

>  <Rbt.Executable>
rbdock ($Id: //depot/dev/client3/rdock/2013.1/src/exe/rbdock.cxx#4 $)

>  <Rbt.Library>
libRbt.so (2013.1, Build901 2013/11/27)

>  <Rbt.Parameter_File>
/export/apps/rDock/src/rDock_2013.1_src/data/scripts/dock_solv.prm

>  <Rbt.Receptor>
prm/pocket_docking_4.prm

>  <SCORE>
-29.4865

>  <SCORE.INTER>
-23.7563

>  <SCORE.INTER.CONST>
1

>  <SCORE.INTER.POLAR>
-3.92273

>  <SCORE.INTER.ROT>
8

>  <SCORE.INTER.SOLV>
6.99071

>  <SCORE.INTER.VDW>
-14.0254

>  <SCORE.INTER.norm>
-2.15966

>  <SCORE.INTRA>
-5.73015

>  <SCORE.INTRA.DIHEDRAL>
-12.3532

>  <SCORE.INTRA.DIHEDRAL.0>
21.6454

>  <SCORE.INTRA.POLAR>
0

>  <SCORE.INTRA.POLAR.0>
0

>  <SCORE.INTRA.REPUL>
0

>  <SCORE.INTRA.REPUL.0>
0

>  <SCORE.INTRA.SOLV>
1.52589

>  <SCORE.INTRA.SOLV.lig_0>
-16.5947

>  <SCORE.INTRA.VDW>
-0.316479

>  <SCORE.INTRA.VDW.0>
-0.691398

>  <SCORE.INTRA.norm>
-0.520923

>  <SCORE.RESTR>
0

>  <SCORE.RESTR.CAVITY>
0

>  <SCORE.RESTR.norm>
0

>  <SCORE.SYSTEM>
0

>  <SCORE.SYSTEM.CONST>
0

>  <SCORE.SYSTEM.DIHEDRAL>
0

>  <SCORE.SYSTEM.SOLV>
0

>  <SCORE.SYSTEM.norm>
0

>  <SCORE.heavy>
11

>  <SCORE.norm>
-2.68059

>  <RMSD>
3.583

$$$$
1akx_lig
 OpenBabel11021811383D
libRbt.so/2013.1/901 2013/11/27
 11 10  0  0  0  0  0  0  0  0999 V2000
   -5.4177   -2.2988    2.5908 N   0  0  0  0  0  0  0  0  0  0  0  0
   -5.8954   -3.6250    2.0998 C   0  0  2  0  0  0  0  0  0  0  0  0
   -4.7877   -4.6694    2.2870 C   0  0  0  0  0  0  0  0  0  0  0  0
   -4.3385   -4.9007    3.3920 O   0  0  0  0  0  0  0  0  0  0  0  0
   -6.2630   -3.5221    0.6133 C   0  0  0  0  0  0  0  0  0  0  0  0
   -5.0176   -3.1623   -0.2034 C   0  0  0  0  0  0  0  0  0  0  0  0
   -5.3747   -3.1240   -1.6893 C   0  0  0  0  0  0  0  0  0  0  0  0
   -4.1953   -3.5546   -2.4930 N   0  0  0  0  0  0  0  0  0  0  0  0
   -3.5569   -2.6919   -3.2417 C   0  0  0  0  0  0  0  0  0  0  0  0
   -2.4256   -2.1762   -2.8349 N   0  0  0  0  0  0  0  0  0  0  0  0
   -4.0487   -2.3496   -4.4023 N   0  0  0  0  0  0  0  0  0  0  0  0
  2  1  1  6  0  0  0
  2  3  1  0  0  0  0
  2  5  1  0  0  0  0
  3  4  1  0  0  0  0
  5  6  1  0  0  0  0
  6  7  1  0  0  0  0
  7  8  1  0  0  0  0
  8  9  1  0  0  0  0
  9 10  1  0  0  0  0
  9 11  1  0  0  0  0
M  END
>  <CHROM.1>
173.35389444,59.04614785,62.70298759,177.41795296,-147.72023288,-110.96001270
101.50530978,-32.06312871,-4.13317987,-4.62978649,-3.25519579,-0.34473508
1.81784719,-0.21684559,1.83956717

>  <Name>
1akx_lig

>  <RI>
0

>  <Rbt.Current_Directory>
/home/itssahil/PROJECTS/Mol_Feturizer/New_Systems/rnas/1akx

>  <Rbt.Executable>
rbdock ($Id: //depot/dev/client3/rdock/2013.1/src/exe/rbdock.cxx#4 $)

>  <Rbt.Library>
libRbt.so (2013.1, Build901 2013/11/27)

>  <Rbt.Parameter_File>
/export/apps/rDock/src/rDock_2013.1_src/data/scripts/dock_solv.prm

>  <Rbt.Receptor>
prm/pocket_docking_5.prm

>  <SCORE>
-33.0401

>  <SCORE.INTER>
-27.5499

>  <SCORE.INTER.CONST>
1

>  <SCORE.INTER.POLAR>
-4.30386

>  <SCORE.INTER.ROT>
8

>  <SCORE.INTER.SOLV>
6.65143

>  <SCORE.INTER.VDW>
-15.1709

>  <SCORE.INTER.norm>
-2.50454

>  <SCORE.INTRA>
-5.49017

>  <SCORE.INTRA.DIHEDRAL>
-13.5888

>  <SCORE.INTRA.DIHEDRAL.0>
21.6454

>  <SCORE.INTRA.POLAR>
0

>  <SCORE.INTRA.POLAR.0>
0

>  <SCORE.INTRA.REPUL>
0

>  <SCORE.INTRA.REPUL.0>
0

>  <SCORE.INTRA.SOLV>
0.365545

>  <SCORE.INTRA.SOLV.lig_0>
-16.5947

>  <SCORE.INTRA.VDW>
1.12145

>  <SCORE.INTRA.VDW.0>
-0.691398

>  <SCORE.INTRA.norm>
-0.499106

>  <SCORE.RESTR>
0

>  <SCORE.RESTR.CAVITY>
0

>  <SCORE.RESTR.norm>
0

>  <SCORE.SYSTEM>
0

>  <SCORE.SYSTEM.CONST>
0

>  <SCORE.SYSTEM.DIHEDRAL>
0

>  <SCORE.SYSTEM.SOLV>
0

>  <SCORE.SYSTEM.norm>
0

>  <SCORE.heavy>
11

>  <SCORE.norm>
-3.00364

>  <RMSD>
3.631

$$$$
1akx_lig
 OpenBabel11021811383D
libRbt.so/2013.1/901 2013/11/27
 11 10  0  0  0  0  0  0  0  0999 V2000
   -6.2500   -3.4672    2.2720 N   0  0  0  0  0  0  0  0  0  0  0  0
   -4.8385   -3.3244    1.8077 C   0  0  2  0  0  0  0  0  0  0  0  0
   -4.0710   -2.4146    2.7751 C   0  0  0  0  0  0  0  0  0  0  0  0
   -2.8893   -2.1897    2.6039 O   0  0  0  0  0  0  0  0  0  0  0  0
   -4.8186   -2.7150    0.3993 C   0  0  0  0  0  0  0  0  0  0  0  0
   -5.2007   -3.7825   -0.6313 C   0  0  0  0  0  0  0  0  0  0  0  0
   -5.2634   -3.1507   -2.0219 C   0  0  0  0  0  0  0  0  0  0  0  0
   -3.9311   -2.5769   -2.3653 N   0  0  0  0  0  0  0  0  0  0  0  0
   -3.5648   -2.4629   -3.6164 C   0  0  0  0  0  0  0  0  0  0  0  0
   -4.3552   -1.8857   -4.4845 N   0  0  0  0  0  0  0  0  0  0  0  0
   -2.4030   -2.9217   -3.9979 N   0  0  0  0  0  0  0  0  0  0  0  0
  2  1  1  1  0  0  0
  2  3  1  0  0  0  0
  2  5  1  0  0  0  0
  3  4  1  0  0  0  0
  5  6  1  0  0  0  0
  6  7  1  0  0  0  0
  7  8  1  0  0  0  0
  8  9  1  0  0  0  0
  9 10  1  0  0  0  0
  9 11  1  0  0  0  0
M  END
>  <CHROM.1>
-57.89643463,178.12408179,-76.53489475,176.54405136,59.81586399,153.15857818
50.84509463,90.43500588,16.31205027,-4.32055864,-2.79880443,-0.66095027,1.73986418
0.31809963,1.57942189

>  <Name>
1akx_lig

>  <RI>
0

>  <Rbt.Current_Directory>
/home/afrankz/demos/rdock_decoys_rna/rnas/1akx

>  <Rbt.Executable>
rbdock ($Id: //depot/dev/client3/rdock/2013.1/src/exe/rbdock.cxx#4 $)

>  <Rbt.Library>
libRbt.so (2013.1, Build901 2013/11/27)

>  <Rbt.Parameter_File>
/export/apps/rDock/src/rDock_2013.1_src/data/scripts/dock_solv.prm

>  <Rbt.Receptor>
prm/pocket_docking_8.prm

>  <SCORE>
-32.5307

>  <SCORE.INTER>
-25.146

>  <SCORE.INTER.CONST>
1

>  <SCORE.INTER.POLAR>
-3.53535

>  <SCORE.INTER.ROT>
8

>  <SCORE.INTER.SOLV>
7.5581

>  <SCORE.INTER.VDW>
-16.4322

>  <SCORE.INTER.norm>
-2.286

>  <SCORE.INTRA>
-7.38473

>  <SCORE.INTRA.DIHEDRAL>
-15.7331

>  <SCORE.INTRA.DIHEDRAL.0>
21.6454

>  <SCORE.INTRA.POLAR>
0

>  <SCORE.INTRA.POLAR.0>
0

>  <SCORE.INTRA.REPUL>
0

>  <SCORE.INTRA.REPUL.0>
0

>  <SCORE.INTRA.SOLV>
0.163925

>  <SCORE.INTRA.SOLV.lig_0>
-16.5947

>  <SCORE.INTRA.VDW>
0.399839

>  <SCORE.INTRA.VDW.0>
-0.691398

>  <SCORE.INTRA.norm>
-0.67134

>  <SCORE.RESTR>
0

>  <SCORE.RESTR.CAVITY>
0

>  <SCORE.RESTR.norm>
0

>  <SCORE.SYSTEM>
0

>  <SCORE.SYSTEM.CONST>
0

>  <SCORE.SYSTEM.DIHEDRAL>
0

>  <SCORE.SYSTEM.SOLV>
0

>  <SCORE.SYSTEM.norm>
0

>  <SCORE.heavy>
11

>  <SCORE.norm>
-2.95734

>  <RMSD>
3.636

>  <RMSD>
3.636

$$$$
1akx_lig
 OpenBabel11021811383D
libRbt.so/2013.1/901 2013/11/27
 11 10  0  0  0  0  0  0  0  0999 V2000
   -6.2500   -3.4672    2.2720 N   0  0  0  0  0  0  0  0  0  0  0  0
   -4.8385   -3.3244    1.8077 C   0  0  2  0  0  0  0  0  0  0  0  0
   -4.0710   -2.4146    2.7751 C   0  0  0  0  0  0  0  0  0  0  0  0
   -2.8893   -2.1897    2.6039 O   0  0  0  0  0  0  0  0  0  0  0  0
   -4.8186   -2.7150    0.3993 C   0  0  0  0  0  0  0  0  0  0  0  0
   -5.2007   -3.7825   -0.6313 C   0  0  0  0  0  0  0  0  0  0  0  0
   -5.2634   -3.1507   -2.0219 C   0  0  0  0  0  0  0  0  0  0  0  0
   -3.9311   -2.5769   -2.3653 N   0  0  0  0  0  0  0  0  0  0  0  0
   -3.5648   -2.4629   -3.6164 C   0  0  0  0  0  0  0  0  0  0  0  0
   -4.3552   -1.8857   -4.4845 N   0  0  0  0  0  0  0  0  0  0  0  0
   -2.4030   -2.9217   -3.9979 N   0  0  0  0  0  0  0  0  0  0  0  0
  2  1  1  1  0  0  0
  2  3  1  0  0  0  0
  2  5  1  0  0  0  0
  3  4  1  0  0  0  0
  5  6  1  0  0  0  0
  6  7  1  0  0  0  0
  7  8  1  0  0  0  0
  8  9  1  0  0  0  0
  9 10  1  0  0  0  0
  9 11  1  0  0  0  0
M  END
>  <CHROM.1>
-57.89643463,178.12408179,-76.53489475,176.54405136,59.81586399,153.15857818
50.84509463,90.43500588,16.31205027,-4.32055864,-2.79880443,-0.66095027,1.73986418
0.31809963,1.57942189

>  <Name>
1akx_lig

>  <RI>
0

>  <Rbt.Current_Directory>
/home/afrankz/demos/rdock_decoys_rna/rnas/1akx

>  <Rbt.Executable>
rbdock ($Id: //depot/dev/client3/rdock/2013.1/src/exe/rbdock.cxx#4 $)

>  <Rbt.Library>
libRbt.so (2013.1, Build901 2013/11/27)

>  <Rbt.Parameter_File>
/export/apps/rDock/src/rDock_2013.1_src/data/scripts/dock_solv.prm

>  <Rbt.Receptor>
prm/pocket_docking_8.prm

>  <SCORE>
-32.5307

>  <SCORE.INTER>
-25.146

>  <SCORE.INTER.CONST>
1

>  <SCORE.INTER.POLAR>
-3.53535

>  <SCORE.INTER.ROT>
8

>  <SCORE.INTER.SOLV>
7.5581

>  <SCORE.INTER.VDW>
-16.4322

>  <SCORE.INTER.norm>
-2.286

>  <SCORE.INTRA>
-7.38473

>  <SCORE.INTRA.DIHEDRAL>
-15.7331

>  <SCORE.INTRA.DIHEDRAL.0>
21.6454

>  <SCORE.INTRA.POLAR>
0

>  <SCORE.INTRA.POLAR.0>
0

>  <SCORE.INTRA.REPUL>
0

>  <SCORE.INTRA.REPUL.0>
0

>  <SCORE.INTRA.SOLV>
0.163925

>  <SCORE.INTRA.SOLV.lig_0>
-16.5947

>  <SCORE.INTRA.VDW>
0.399839

>  <SCORE.INTRA.VDW.0>
-0.691398

>  <SCORE.INTRA.norm>
-0.67134

>  <SCORE.RESTR>
0

>  <SCORE.RESTR.CAVITY>
0

>  <SCORE.RESTR.norm>
0

>  <SCORE.SYSTEM>
0

>  <SCORE.SYSTEM.CONST>
0

>  <SCORE.SYSTEM.DIHEDRAL>
0

>  <SCORE.SYSTEM.SOLV>
0

>  <SCORE.SYSTEM.norm>
0

>  <SCORE.heavy>
11

>  <SCORE.norm>
-2.95734

>  <RMSD>
3.636

>  <RMSD>
3.636

$$$$
1akx_lig
 OpenBabel11021811383D
libRbt.so/2013.1/901 2013/11/27
 11 10  0  0  0  0  0  0  0  0999 V2000
   -2.6637   -1.9193    0.8390 N   0  0  0  0  0  0  0  0  0  0  0  0
   -3.2032   -3.0840    0.0771 C   0  0  2  0  0  0  0  0  0  0  0  0
   -4.6819   -3.2866    0.4308 C   0  0  0  0  0  0  0  0  0  0  0  0
   -5.5158   -2.4738    0.0842 O   0  0  0  0  0  0  0  0  0  0  0  0
   -2.4082   -4.3469    0.4356 C   0  0  0  0  0  0  0  0  0  0  0  0
   -0.9788   -4.2283   -0.1031 C   0  0  0  0  0  0  0  0  0  0  0  0
   -0.9799   -4.4710   -1.6124 C   0  0  0  0  0  0  0  0  0  0  0  0
   -1.3233   -3.2031   -2.3173 N   0  0  0  0  0  0  0  0  0  0  0  0
   -2.2529   -3.1915   -3.2383 C   0  0  0  0  0  0  0  0  0  0  0  0
   -1.9296   -3.0660   -4.4996 N   0  0  0  0  0  0  0  0  0  0  0  0
   -3.5078   -3.3120   -2.8965 N   0  0  0  0  0  0  0  0  0  0  0  0
  2  1  1  1  0  0  0
  2  3  1  0  0  0  0
  2  5  1  0  0  0  0
  3  4  1  0  0  0  0
  5  6  1  0  0  0  0
  6  7  1  0  0  0  0
  7  8  1  0  0  0  0
  8  9  1  0  0  0  0
  9 10  1  0  0  0  0
  9 11  1  0  0  0  0
M  END
>  <CHROM.1>
61.53543240,68.49190763,-68.05688465,-76.10192737,83.95045940,-130.26767927
-107.68667795,47.79598983,120.67427476,-2.70241711,-3.27728813,-1.17533779
-2.11733350,0.35388511,-1.50121449

>  <Name>
1akx_lig

>  <RI>
0

>  <Rbt.Current_Directory>
/home/afrankz/demos/rdock_decoys_rna/rnas/1akx

>  <Rbt.Executable>
rbdock ($Id: //depot/dev/client3/rdock/2013.1/src/exe/rbdock.cxx#4 $)

>  <Rbt.Library>
libRbt.so (2013.1, Build901 2013/11/27)

>  <Rbt.Parameter_File>
/export/apps/rDock/src/rDock_2013.1_src/data/scripts/dock_solv.prm

>  <Rbt.Receptor>
prm/pocket_docking_3.prm

>  <SCORE>
-27.5759

>  <SCORE.INTER>
-20.5314

>  <SCORE.INTER.CONST>
1

>  <SCORE.INTER.POLAR>
-3.37058

>  <SCORE.INTER.ROT>
8

>  <SCORE.INTER.SOLV>
7.29248

>  <SCORE.INTER.VDW>
-13.8165

>  <SCORE.INTER.norm>
-1.86649

>  <SCORE.INTRA>
-7.0445

>  <SCORE.INTRA.DIHEDRAL>
-13.399

>  <SCORE.INTRA.DIHEDRAL.0>
21.6454

>  <SCORE.INTRA.POLAR>
0

>  <SCORE.INTRA.POLAR.0>
0

>  <SCORE.INTRA.REPUL>
0

>  <SCORE.INTRA.REPUL.0>
0

>  <SCORE.INTRA.SOLV>
1.89461

>  <SCORE.INTRA.SOLV.lig_0>
-16.5947

>  <SCORE.INTRA.VDW>
-1.29232

>  <SCORE.INTRA.VDW.0>
-0.691398

>  <SCORE.INTRA.norm>
-0.640409

>  <SCORE.RESTR>
0

>  <SCORE.RESTR.CAVITY>
0

>  <SCORE.RESTR.norm>
0

>  <SCORE.SYSTEM>
0

>  <SCORE.SYSTEM.CONST>
0

>  <SCORE.SYSTEM.DIHEDRAL>
0

>  <SCORE.SYSTEM.SOLV>
0

>  <SCORE.SYSTEM.norm>
0

>  <SCORE.heavy>
11

>  <SCORE.norm>
-2.5069

>  <RMSD>
3.640

>  <RMSD>
3.640

$$$$
1akx_lig
 OpenBabel11021811383D
libRbt.so/2013.1/901 2013/11/27
 11 10  0  0  0  0  0  0  0  0999 V2000
   -2.6637   -1.9193    0.8390 N   0  0  0  0  0  0  0  0  0  0  0  0
   -3.2032   -3.0840    0.0771 C   0  0  2  0  0  0  0  0  0  0  0  0
   -4.6819   -3.2866    0.4308 C   0  0  0  0  0  0  0  0  0  0  0  0
   -5.5158   -2.4738    0.0842 O   0  0  0  0  0  0  0  0  0  0  0  0
   -2.4082   -4.3469    0.4356 C   0  0  0  0  0  0  0  0  0  0  0  0
   -0.9788   -4.2283   -0.1031 C   0  0  0  0  0  0  0  0  0  0  0  0
   -0.9799   -4.4710   -1.6124 C   0  0  0  0  0  0  0  0  0  0  0  0
   -1.3233   -3.2031   -2.3173 N   0  0  0  0  0  0  0  0  0  0  0  0
   -2.2529   -3.1915   -3.2383 C   0  0  0  0  0  0  0  0  0  0  0  0
   -1.9296   -3.0660   -4.4996 N   0  0  0  0  0  0  0  0  0  0  0  0
   -3.5078   -3.3120   -2.8965 N   0  0  0  0  0  0  0  0  0  0  0  0
  2  1  1  1  0  0  0
  2  3  1  0  0  0  0
  2  5  1  0  0  0  0
  3  4  1  0  0  0  0
  5  6  1  0  0  0  0
  6  7  1  0  0  0  0
  7  8  1  0  0  0  0
  8  9  1  0  0  0  0
  9 10  1  0  0  0  0
  9 11  1  0  0  0  0
M  END
>  <CHROM.1>
61.53543240,68.49190763,-68.05688465,-76.10192737,83.95045940,-130.26767927
-107.68667795,47.79598983,120.67427476,-2.70241711,-3.27728813,-1.17533779
-2.11733350,0.35388511,-1.50121449

>  <Name>
1akx_lig

>  <RI>
0

>  <Rbt.Current_Directory>
/home/afrankz/demos/rdock_decoys_rna/rnas/1akx

>  <Rbt.Executable>
rbdock ($Id: //depot/dev/client3/rdock/2013.1/src/exe/rbdock.cxx#4 $)

>  <Rbt.Library>
libRbt.so (2013.1, Build901 2013/11/27)

>  <Rbt.Parameter_File>
/export/apps/rDock/src/rDock_2013.1_src/data/scripts/dock_solv.prm

>  <Rbt.Receptor>
prm/pocket_docking_3.prm

>  <SCORE>
-27.5759

>  <SCORE.INTER>
-20.5314

>  <SCORE.INTER.CONST>
1

>  <SCORE.INTER.POLAR>
-3.37058

>  <SCORE.INTER.ROT>
8

>  <SCORE.INTER.SOLV>
7.29248

>  <SCORE.INTER.VDW>
-13.8165

>  <SCORE.INTER.norm>
-1.86649

>  <SCORE.INTRA>
-7.0445

>  <SCORE.INTRA.DIHEDRAL>
-13.399

>  <SCORE.INTRA.DIHEDRAL.0>
21.6454

>  <SCORE.INTRA.POLAR>
0

>  <SCORE.INTRA.POLAR.0>
0

>  <SCORE.INTRA.REPUL>
0

>  <SCORE.INTRA.REPUL.0>
0

>  <SCORE.INTRA.SOLV>
1.89461

>  <SCORE.INTRA.SOLV.lig_0>
-16.5947

>  <SCORE.INTRA.VDW>
-1.29232

>  <SCORE.INTRA.VDW.0>
-0.691398

>  <SCORE.INTRA.norm>
-0.640409

>  <SCORE.RESTR>
0

>  <SCORE.RESTR.CAVITY>
0

>  <SCORE.RESTR.norm>
0

>  <SCORE.SYSTEM>
0

>  <SCORE.SYSTEM.CONST>
0

>  <SCORE.SYSTEM.DIHEDRAL>
0

>  <SCORE.SYSTEM.SOLV>
0

>  <SCORE.SYSTEM.norm>
0

>  <SCORE.heavy>
11

>  <SCORE.norm>
-2.5069

>  <RMSD>
3.640

>  <RMSD>
3.640

$$$$
1akx_lig
 OpenBabel11021811383D
libRbt.so/2013.1/901 2013/11/27
 11 10  0  0  0  0  0  0  0  0999 V2000
   -6.3401   -3.4529    2.2849 N   0  0  0  0  0  0  0  0  0  0  0  0
   -4.9064   -3.3245    1.8897 C   0  0  2  0  0  0  0  0  0  0  0  0
   -4.1833   -2.4023    2.8793 C   0  0  0  0  0  0  0  0  0  0  0  0
   -2.9941   -2.1827    2.7615 O   0  0  0  0  0  0  0  0  0  0  0  0
   -4.8127   -2.7389    0.4742 C   0  0  0  0  0  0  0  0  0  0  0  0
   -5.2010   -3.8066   -0.5537 C   0  0  0  0  0  0  0  0  0  0  0  0
   -5.2220   -3.1869   -1.9510 C   0  0  0  0  0  0  0  0  0  0  0  0
   -3.9291   -2.4885   -2.2021 N   0  0  0  0  0  0  0  0  0  0  0  0
   -3.3067   -2.6434   -3.3427 C   0  0  0  0  0  0  0  0  0  0  0  0
   -3.9191   -2.3815   -4.4687 N   0  0  0  0  0  0  0  0  0  0  0  0
   -2.0672   -3.0550   -3.3560 N   0  0  0  0  0  0  0  0  0  0  0  0
  2  1  1  1  0  0  0
  2  3  1  0  0  0  0
  2  5  1  0  0  0  0
  3  4  1  0  0  0  0
  5  6  1  0  0  0  0
  6  7  1  0  0  0  0
  7  8  1  0  0  0  0
  8  9  1  0  0  0  0
  9 10  1  0  0  0  0
  9 11  1  0  0  0  0
M  END
>  <CHROM.1>
57.47369451,178.34342631,-74.36478449,175.20051577,52.26014582,134.87810975
55.63479696,118.64026662,65.91391328,-4.25457193,-2.87074337,-0.50703428
1.80179987,0.30308462,1.52746376

>  <Name>
1akx_lig

>  <RI>
0

>  <Rbt.Current_Directory>
/home/itssahil/PROJECTS/Mol_Feturizer/New_Systems/rnas/1akx

>  <Rbt.Executable>
rbdock ($Id: //depot/dev/client3/rdock/2013.1/src/exe/rbdock.cxx#4 $)

>  <Rbt.Library>
libRbt.so (2013.1, Build901 2013/11/27)

>  <Rbt.Parameter_File>
/export/apps/rDock/src/rDock_2013.1_src/data/scripts/dock_solv.prm

>  <Rbt.Receptor>
prm/pocket_docking_6.prm

>  <SCORE>
-34.9775

>  <SCORE.INTER>
-27.9209

>  <SCORE.INTER.CONST>
1

>  <SCORE.INTER.POLAR>
-4.22886

>  <SCORE.INTER.ROT>
8

>  <SCORE.INTER.SOLV>
6.71364

>  <SCORE.INTER.VDW>
-15.689

>  <SCORE.INTER.norm>
-2.53827

>  <SCORE.INTRA>
-7.05656

>  <SCORE.INTRA.DIHEDRAL>
-15.7055

>  <SCORE.INTRA.DIHEDRAL.0>
21.6454

>  <SCORE.INTRA.POLAR>
0

>  <SCORE.INTRA.POLAR.0>
0

>  <SCORE.INTRA.REPUL>
0

>  <SCORE.INTRA.REPUL.0>
0

>  <SCORE.INTRA.SOLV>
0.208008

>  <SCORE.INTRA.SOLV.lig_0>
-16.5947

>  <SCORE.INTRA.VDW>
0.692167

>  <SCORE.INTRA.VDW.0>
-0.691398

>  <SCORE.INTRA.norm>
-0.641505

>  <SCORE.RESTR>
0

>  <SCORE.RESTR.CAVITY>
0

>  <SCORE.RESTR.norm>
0

>  <SCORE.SYSTEM>
0

>  <SCORE.SYSTEM.CONST>
0

>  <SCORE.SYSTEM.DIHEDRAL>
0

>  <SCORE.SYSTEM.SOLV>
0

>  <SCORE.SYSTEM.norm>
0

>  <SCORE.heavy>
11

>  <SCORE.norm>
-3.17977

>  <RMSD>
3.650

$$$$
1akx_lig
 OpenBabel11021811383D
libRbt.so/2013.1/901 2013/11/27
 11 10  0  0  0  0  0  0  0  0999 V2000
   -4.7452   -1.4617    1.9905 N   0  0  0  0  0  0  0  0  0  0  0  0
   -5.3300   -2.7830    1.6160 C   0  0  2  0  0  0  0  0  0  0  0  0
   -5.2981   -3.7196    2.8303 C   0  0  0  0  0  0  0  0  0  0  0  0
   -4.2504   -3.9595    3.3968 O   0  0  0  0  0  0  0  0  0  0  0  0
   -4.5193   -3.3982    0.4672 C   0  0  0  0  0  0  0  0  0  0  0  0
   -5.4101   -3.5519   -0.7697 C   0  0  0  0  0  0  0  0  0  0  0  0
   -4.5492   -3.9275   -1.9758 C   0  0  0  0  0  0  0  0  0  0  0  0
   -3.7085   -2.7601   -2.3665 N   0  0  0  0  0  0  0  0  0  0  0  0
   -3.1751   -2.7016   -3.5600 C   0  0  0  0  0  0  0  0  0  0  0  0
   -1.8987   -2.9369   -3.7237 N   0  0  0  0  0  0  0  0  0  0  0  0
   -3.9217   -2.4133   -4.5922 N   0  0  0  0  0  0  0  0  0  0  0  0
  2  1  1  1  0  0  0
  2  3  1  0  0  0  0
  2  5  1  0  0  0  0
  3  4  1  0  0  0  0
  5  6  1  0  0  0  0
  6  7  1  0  0  0  0
  7  8  1  0  0  0  0
  8  9  1  0  0  0  0
  9 10  1  0  0  0  0
  9 11  1  0  0  0  0
M  END
>  <CHROM.1>
-94.70003578,-56.39486945,-117.24130892,170.00817654,-69.88314363,-161.10956063
-104.61643287,86.89935708,-48.43253313,-4.22175247,-3.01943122,-0.60471882
-1.86905828,-0.54043054,-1.66824559

>  <Name>
1akx_lig

>  <RI>
0

>  <Rbt.Current_Directory>
/home/afrankz/demos/rdock_decoys_rna/rnas/1akx

>  <Rbt.Executable>
rbdock ($Id: //depot/dev/client3/rdock/2013.1/src/exe/rbdock.cxx#4 $)

>  <Rbt.Library>
libRbt.so (2013.1, Build901 2013/11/27)

>  <Rbt.Parameter_File>
/export/apps/rDock/src/rDock_2013.1_src/data/scripts/dock_solv.prm

>  <Rbt.Receptor>
prm/pocket_docking_7.prm

>  <SCORE>
-30.1011

>  <SCORE.INTER>
-26.8391

>  <SCORE.INTER.CONST>
1

>  <SCORE.INTER.POLAR>
-4.45405

>  <SCORE.INTER.ROT>
8

>  <SCORE.INTER.SOLV>
6.80991

>  <SCORE.INTER.VDW>
-14.2492

>  <SCORE.INTER.norm>
-2.43991

>  <SCORE.INTRA>
-3.26206

>  <SCORE.INTRA.DIHEDRAL>
-7.94038

>  <SCORE.INTRA.DIHEDRAL.0>
21.6454

>  <SCORE.INTRA.POLAR>
0

>  <SCORE.INTRA.POLAR.0>
0

>  <SCORE.INTRA.REPUL>
0

>  <SCORE.INTRA.REPUL.0>
0

>  <SCORE.INTRA.SOLV>
0.383752

>  <SCORE.INTRA.SOLV.lig_0>
-16.5947

>  <SCORE.INTRA.VDW>
0.516256

>  <SCORE.INTRA.VDW.0>
-0.691398

>  <SCORE.INTRA.norm>
-0.296551

>  <SCORE.RESTR>
0

>  <SCORE.RESTR.CAVITY>
0

>  <SCORE.RESTR.norm>
0

>  <SCORE.SYSTEM>
0

>  <SCORE.SYSTEM.CONST>
0

>  <SCORE.SYSTEM.DIHEDRAL>
0

>  <SCORE.SYSTEM.SOLV>
0

>  <SCORE.SYSTEM.norm>
0

>  <SCORE.heavy>
11

>  <SCORE.norm>
-2.73647

>  <RMSD>
3.689

>  <RMSD>
3.689

$$$$
1akx_lig
 OpenBabel11021811383D
libRbt.so/2013.1/901 2013/11/27
 11 10  0  0  0  0  0  0  0  0999 V2000
   -4.7452   -1.4617    1.9905 N   0  0  0  0  0  0  0  0  0  0  0  0
   -5.3300   -2.7830    1.6160 C   0  0  2  0  0  0  0  0  0  0  0  0
   -5.2981   -3.7196    2.8303 C   0  0  0  0  0  0  0  0  0  0  0  0
   -4.2504   -3.9595    3.3968 O   0  0  0  0  0  0  0  0  0  0  0  0
   -4.5193   -3.3982    0.4672 C   0  0  0  0  0  0  0  0  0  0  0  0
   -5.4101   -3.5519   -0.7697 C   0  0  0  0  0  0  0  0  0  0  0  0
   -4.5492   -3.9275   -1.9758 C   0  0  0  0  0  0  0  0  0  0  0  0
   -3.7085   -2.7601   -2.3665 N   0  0  0  0  0  0  0  0  0  0  0  0
   -3.1751   -2.7016   -3.5600 C   0  0  0  0  0  0  0  0  0  0  0  0
   -1.8987   -2.9369   -3.7237 N   0  0  0  0  0  0  0  0  0  0  0  0
   -3.9217   -2.4133   -4.5922 N   0  0  0  0  0  0  0  0  0  0  0  0
  2  1  1  1  0  0  0
  2  3  1  0  0  0  0
  2  5  1  0  0  0  0
  3  4  1  0  0  0  0
  5  6  1  0  0  0  0
  6  7  1  0  0  0  0
  7  8  1  0  0  0  0
  8  9  1  0  0  0  0
  9 10  1  0  0  0  0
  9 11  1  0  0  0  0
M  END
>  <CHROM.1>
-94.70003578,-56.39486945,-117.24130892,170.00817654,-69.88314363,-161.10956063
-104.61643287,86.89935708,-48.43253313,-4.22175247,-3.01943122,-0.60471882
-1.86905828,-0.54043054,-1.66824559

>  <Name>
1akx_lig

>  <RI>
0

>  <Rbt.Current_Directory>
/home/afrankz/demos/rdock_decoys_rna/rnas/1akx

>  <Rbt.Executable>
rbdock ($Id: //depot/dev/client3/rdock/2013.1/src/exe/rbdock.cxx#4 $)

>  <Rbt.Library>
libRbt.so (2013.1, Build901 2013/11/27)

>  <Rbt.Parameter_File>
/export/apps/rDock/src/rDock_2013.1_src/data/scripts/dock_solv.prm

>  <Rbt.Receptor>
prm/pocket_docking_7.prm

>  <SCORE>
-30.1011

>  <SCORE.INTER>
-26.8391

>  <SCORE.INTER.CONST>
1

>  <SCORE.INTER.POLAR>
-4.45405

>  <SCORE.INTER.ROT>
8

>  <SCORE.INTER.SOLV>
6.80991

>  <SCORE.INTER.VDW>
-14.2492

>  <SCORE.INTER.norm>
-2.43991

>  <SCORE.INTRA>
-3.26206

>  <SCORE.INTRA.DIHEDRAL>
-7.94038

>  <SCORE.INTRA.DIHEDRAL.0>
21.6454

>  <SCORE.INTRA.POLAR>
0

>  <SCORE.INTRA.POLAR.0>
0

>  <SCORE.INTRA.REPUL>
0

>  <SCORE.INTRA.REPUL.0>
0

>  <SCORE.INTRA.SOLV>
0.383752

>  <SCORE.INTRA.SOLV.lig_0>
-16.5947

>  <SCORE.INTRA.VDW>
0.516256

>  <SCORE.INTRA.VDW.0>
-0.691398

>  <SCORE.INTRA.norm>
-0.296551

>  <SCORE.RESTR>
0

>  <SCORE.RESTR.CAVITY>
0

>  <SCORE.RESTR.norm>
0

>  <SCORE.SYSTEM>
0

>  <SCORE.SYSTEM.CONST>
0

>  <SCORE.SYSTEM.DIHEDRAL>
0

>  <SCORE.SYSTEM.SOLV>
0

>  <SCORE.SYSTEM.norm>
0

>  <SCORE.heavy>
11

>  <SCORE.norm>
-2.73647

>  <RMSD>
3.689

>  <RMSD>
3.689

$$$$
1akx_lig
 OpenBabel11021811383D
libRbt.so/2013.1/901 2013/11/27
 11 10  0  0  0  0  0  0  0  0999 V2000
   -4.8103   -0.9129    2.2210 N   0  0  0  0  0  0  0  0  0  0  0  0
   -4.0285   -2.1482    2.5227 C   0  0  2  0  0  0  0  0  0  0  0  0
   -3.0858   -1.8818    3.7029 C   0  0  0  0  0  0  0  0  0  0  0  0
   -3.5317   -1.5895    4.7947 O   0  0  0  0  0  0  0  0  0  0  0  0
   -3.2107   -2.5544    1.2893 C   0  0  0  0  0  0  0  0  0  0  0  0
   -4.1482   -2.7794    0.0985 C   0  0  0  0  0  0  0  0  0  0  0  0
   -3.3232   -3.0996   -1.1479 C   0  0  0  0  0  0  0  0  0  0  0  0
   -4.1833   -2.9671   -2.3582 N   0  0  0  0  0  0  0  0  0  0  0  0
   -3.6518   -2.6638   -3.5149 C   0  0  0  0  0  0  0  0  0  0  0  0
   -2.3522   -2.6678   -3.6645 N   0  0  0  0  0  0  0  0  0  0  0  0
   -4.4226   -2.3620   -4.5252 N   0  0  0  0  0  0  0  0  0  0  0  0
  2  1  1  6  0  0  0
  2  3  1  0  0  0  0
  2  5  1  0  0  0  0
  3  4  1  0  0  0  0
  5  6  1  0  0  0  0
  6  7  1  0  0  0  0
  7  8  1  0  0  0  0
  8  9  1  0  0  0  0
  9 10  1  0  0  0  0
  9 11  1  0  0  0  0
M  END
>  <CHROM.1>
86.32881029,62.18422607,-58.04322382,176.54941066,-165.32676314,152.70659947
10.10804116,19.92390888,143.71088821,-3.72309445,-2.29607286,-0.06622137
1.58607283,-0.42928753,1.44126358

>  <Name>
1akx_lig

>  <RI>
0

>  <Rbt.Current_Directory>
/home/afrankz/demos/rdock_decoys_rna/rnas/1akx

>  <Rbt.Executable>
rbdock ($Id: //depot/dev/client3/rdock/2013.1/src/exe/rbdock.cxx#4 $)

>  <Rbt.Library>
libRbt.so (2013.1, Build901 2013/11/27)

>  <Rbt.Parameter_File>
/export/apps/rDock/src/rDock_2013.1_src/data/scripts/dock_solv.prm

>  <Rbt.Receptor>
prm/pocket_docking_7.prm

>  <SCORE>
-32.341

>  <SCORE.INTER>
-26.9706

>  <SCORE.INTER.CONST>
1

>  <SCORE.INTER.POLAR>
-4.31776

>  <SCORE.INTER.ROT>
8

>  <SCORE.INTER.SOLV>
6.59358

>  <SCORE.INTER.VDW>
-14.719

>  <SCORE.INTER.norm>
-2.45187

>  <SCORE.INTRA>
-5.37041

>  <SCORE.INTRA.DIHEDRAL>
-14.5299

>  <SCORE.INTRA.DIHEDRAL.0>
21.6454

>  <SCORE.INTRA.POLAR>
0

>  <SCORE.INTRA.POLAR.0>
0

>  <SCORE.INTRA.REPUL>
0

>  <SCORE.INTRA.REPUL.0>
0

>  <SCORE.INTRA.SOLV>
0.184836

>  <SCORE.INTRA.SOLV.lig_0>
-16.5947

>  <SCORE.INTRA.VDW>
1.80212

>  <SCORE.INTRA.VDW.0>
-0.691398

>  <SCORE.INTRA.norm>
-0.488219

>  <SCORE.RESTR>
0

>  <SCORE.RESTR.CAVITY>
0

>  <SCORE.RESTR.norm>
0

>  <SCORE.SYSTEM>
0

>  <SCORE.SYSTEM.CONST>
0

>  <SCORE.SYSTEM.DIHEDRAL>
0

>  <SCORE.SYSTEM.SOLV>
0

>  <SCORE.SYSTEM.norm>
0

>  <SCORE.heavy>
11

>  <SCORE.norm>
-2.94009

>  <RMSD>
3.691

>  <RMSD>
3.691

$$$$
1akx_lig
 OpenBabel11021811383D
libRbt.so/2013.1/901 2013/11/27
 11 10  0  0  0  0  0  0  0  0999 V2000
   -4.8103   -0.9129    2.2210 N   0  0  0  0  0  0  0  0  0  0  0  0
   -4.0285   -2.1482    2.5227 C   0  0  2  0  0  0  0  0  0  0  0  0
   -3.0858   -1.8818    3.7029 C   0  0  0  0  0  0  0  0  0  0  0  0
   -3.5317   -1.5895    4.7947 O   0  0  0  0  0  0  0  0  0  0  0  0
   -3.2107   -2.5544    1.2893 C   0  0  0  0  0  0  0  0  0  0  0  0
   -4.1482   -2.7794    0.0985 C   0  0  0  0  0  0  0  0  0  0  0  0
   -3.3232   -3.0996   -1.1479 C   0  0  0  0  0  0  0  0  0  0  0  0
   -4.1833   -2.9671   -2.3582 N   0  0  0  0  0  0  0  0  0  0  0  0
   -3.6518   -2.6638   -3.5149 C   0  0  0  0  0  0  0  0  0  0  0  0
   -2.3522   -2.6678   -3.6645 N   0  0  0  0  0  0  0  0  0  0  0  0
   -4.4226   -2.3620   -4.5252 N   0  0  0  0  0  0  0  0  0  0  0  0
  2  1  1  6  0  0  0
  2  3  1  0  0  0  0
  2  5  1  0  0  0  0
  3  4  1  0  0  0  0
  5  6  1  0  0  0  0
  6  7  1  0  0  0  0
  7  8  1  0  0  0  0
  8  9  1  0  0  0  0
  9 10  1  0  0  0  0
  9 11  1  0  0  0  0
M  END
>  <CHROM.1>
86.32881029,62.18422607,-58.04322382,176.54941066,-165.32676314,152.70659947
10.10804116,19.92390888,143.71088821,-3.72309445,-2.29607286,-0.06622137
1.58607283,-0.42928753,1.44126358

>  <Name>
1akx_lig

>  <RI>
0

>  <Rbt.Current_Directory>
/home/afrankz/demos/rdock_decoys_rna/rnas/1akx

>  <Rbt.Executable>
rbdock ($Id: //depot/dev/client3/rdock/2013.1/src/exe/rbdock.cxx#4 $)

>  <Rbt.Library>
libRbt.so (2013.1, Build901 2013/11/27)

>  <Rbt.Parameter_File>
/export/apps/rDock/src/rDock_2013.1_src/data/scripts/dock_solv.prm

>  <Rbt.Receptor>
prm/pocket_docking_7.prm

>  <SCORE>
-32.341

>  <SCORE.INTER>
-26.9706

>  <SCORE.INTER.CONST>
1

>  <SCORE.INTER.POLAR>
-4.31776

>  <SCORE.INTER.ROT>
8

>  <SCORE.INTER.SOLV>
6.59358

>  <SCORE.INTER.VDW>
-14.719

>  <SCORE.INTER.norm>
-2.45187

>  <SCORE.INTRA>
-5.37041

>  <SCORE.INTRA.DIHEDRAL>
-14.5299

>  <SCORE.INTRA.DIHEDRAL.0>
21.6454

>  <SCORE.INTRA.POLAR>
0

>  <SCORE.INTRA.POLAR.0>
0

>  <SCORE.INTRA.REPUL>
0

>  <SCORE.INTRA.REPUL.0>
0

>  <SCORE.INTRA.SOLV>
0.184836

>  <SCORE.INTRA.SOLV.lig_0>
-16.5947

>  <SCORE.INTRA.VDW>
1.80212

>  <SCORE.INTRA.VDW.0>
-0.691398

>  <SCORE.INTRA.norm>
-0.488219

>  <SCORE.RESTR>
0

>  <SCORE.RESTR.CAVITY>
0

>  <SCORE.RESTR.norm>
0

>  <SCORE.SYSTEM>
0

>  <SCORE.SYSTEM.CONST>
0

>  <SCORE.SYSTEM.DIHEDRAL>
0

>  <SCORE.SYSTEM.SOLV>
0

>  <SCORE.SYSTEM.norm>
0

>  <SCORE.heavy>
11

>  <SCORE.norm>
-2.94009

>  <RMSD>
3.691

>  <RMSD>
3.691

$$$$
1akx_lig
 OpenBabel11021811383D
libRbt.so/2013.1/901 2013/11/27
 11 10  0  0  0  0  0  0  0  0999 V2000
   -6.4890   -2.9107   -0.7359 N   0  0  0  0  0  0  0  0  0  0  0  0
   -5.2666   -3.7173   -0.4476 C   0  0  2  0  0  0  0  0  0  0  0  0
   -5.6705   -5.0389    0.2180 C   0  0  0  0  0  0  0  0  0  0  0  0
   -4.8370   -5.8911    0.4530 O   0  0  0  0  0  0  0  0  0  0  0  0
   -4.3386   -2.9301    0.4876 C   0  0  0  0  0  0  0  0  0  0  0  0
   -2.8935   -3.4031    0.3002 C   0  0  0  0  0  0  0  0  0  0  0  0
   -2.3516   -2.8759   -1.0285 C   0  0  0  0  0  0  0  0  0  0  0  0
   -3.0185   -3.5911   -2.1536 N   0  0  0  0  0  0  0  0  0  0  0  0
   -3.4024   -2.9333   -3.2178 C   0  0  0  0  0  0  0  0  0  0  0  0
   -2.5264   -2.2927   -3.9483 N   0  0  0  0  0  0  0  0  0  0  0  0
   -4.6642   -2.9221   -3.5549 N   0  0  0  0  0  0  0  0  0  0  0  0
  2  1  1  1  0  0  0
  2  3  1  0  0  0  0
  2  5  1  0  0  0  0
  3  4  1  0  0  0  0
  5  6  1  0  0  0  0
  6  7  1  0  0  0  0
  7  8  1  0  0  0  0
  8  9  1  0  0  0  0
  9 10  1  0  0  0  0
  9 11  1  0  0  0  0
M  END
>  <CHROM.1>
65.05836010,174.76153943,-154.81467937,73.56007043,-70.79096177,138.35498171
60.54193781,172.00863464,-136.57180051,-4.17035745,-3.49891872,-1.27499757
2.06374527,0.10598668,1.98039696

>  <Name>
1akx_lig

>  <RI>
0

>  <Rbt.Current_Directory>
/home/itssahil/PROJECTS/Mol_Feturizer/New_Systems/rnas/1akx

>  <Rbt.Executable>
rbdock ($Id: //depot/dev/client3/rdock/2013.1/src/exe/rbdock.cxx#4 $)

>  <Rbt.Library>
libRbt.so (2013.1, Build901 2013/11/27)

>  <Rbt.Parameter_File>
/export/apps/rDock/src/rDock_2013.1_src/data/scripts/dock_solv.prm

>  <Rbt.Receptor>
prm/pocket_docking_5.prm

>  <SCORE>
-34.0927

>  <SCORE.INTER>
-28.3171

>  <SCORE.INTER.CONST>
1

>  <SCORE.INTER.POLAR>
-4.22755

>  <SCORE.INTER.ROT>
8

>  <SCORE.INTER.SOLV>
6.34777

>  <SCORE.INTER.VDW>
-15.8355

>  <SCORE.INTER.norm>
-2.57428

>  <SCORE.INTRA>
-5.77567

>  <SCORE.INTRA.DIHEDRAL>
-13.3134

>  <SCORE.INTRA.DIHEDRAL.0>
21.6454

>  <SCORE.INTRA.POLAR>
0

>  <SCORE.INTRA.POLAR.0>
0

>  <SCORE.INTRA.REPUL>
0

>  <SCORE.INTRA.REPUL.0>
0

>  <SCORE.INTRA.SOLV>
2.03678

>  <SCORE.INTRA.SOLV.lig_0>
-16.5947

>  <SCORE.INTRA.VDW>
-0.137376

>  <SCORE.INTRA.VDW.0>
-0.691398

>  <SCORE.INTRA.norm>
-0.52506

>  <SCORE.RESTR>
0

>  <SCORE.RESTR.CAVITY>
0

>  <SCORE.RESTR.norm>
0

>  <SCORE.SYSTEM>
0

>  <SCORE.SYSTEM.CONST>
0

>  <SCORE.SYSTEM.DIHEDRAL>
0

>  <SCORE.SYSTEM.SOLV>
0

>  <SCORE.SYSTEM.norm>
0

>  <SCORE.heavy>
11

>  <SCORE.norm>
-3.09934

>  <RMSD>
3.695

$$$$
1akx_lig
 OpenBabel11021811383D
libRbt.so/2013.1/901 2013/11/27
 11 10  0  0  0  0  0  0  0  0999 V2000
   -5.7148   -2.8541    2.2137 N   0  0  0  0  0  0  0  0  0  0  0  0
   -4.2491   -2.8307    1.9315 C   0  0  2  0  0  0  0  0  0  0  0  0
   -3.6315   -1.5638    2.5368 C   0  0  0  0  0  0  0  0  0  0  0  0
   -3.7297   -1.3376    3.7265 O   0  0  0  0  0  0  0  0  0  0  0  0
   -4.0163   -2.8454    0.4146 C   0  0  0  0  0  0  0  0  0  0  0  0
   -4.7170   -4.0593   -0.2042 C   0  0  0  0  0  0  0  0  0  0  0  0
   -4.3278   -4.1775   -1.6778 C   0  0  0  0  0  0  0  0  0  0  0  0
   -4.5573   -2.8703   -2.3566 N   0  0  0  0  0  0  0  0  0  0  0  0
   -3.6817   -2.4092   -3.2129 C   0  0  0  0  0  0  0  0  0  0  0  0
   -2.4580   -2.1505   -2.8296 N   0  0  0  0  0  0  0  0  0  0  0  0
   -4.0299   -2.2128   -4.4564 N   0  0  0  0  0  0  0  0  0  0  0  0
  2  1  1  6  0  0  0
  2  3  1  0  0  0  0
  2  5  1  0  0  0  0
  3  4  1  0  0  0  0
  5  6  1  0  0  0  0
  6  7  1  0  0  0  0
  7  8  1  0  0  0  0
  8  9  1  0  0  0  0
  9 10  1  0  0  0  0
  9 11  1  0  0  0  0
M  END
>  <CHROM.1>
-171.85719382,57.95481565,-55.80422816,-172.36186492,-51.67225252,138.11228438
-61.33075187,164.04215984,158.10029806,-4.11715438,-2.63667749,-0.34979995
1.70490118,0.80070562,1.39749880

>  <Name>
1akx_lig

>  <RI>
0

>  <Rbt.Current_Directory>
/home/afrankz/demos/rdock_decoys_rna/rnas/1akx

>  <Rbt.Executable>
rbdock ($Id: //depot/dev/client3/rdock/2013.1/src/exe/rbdock.cxx#4 $)

>  <Rbt.Library>
libRbt.so (2013.1, Build901 2013/11/27)

>  <Rbt.Parameter_File>
/export/apps/rDock/src/rDock_2013.1_src/data/scripts/dock_solv.prm

>  <Rbt.Receptor>
prm/pocket_docking_8.prm

>  <SCORE>
-34.8666

>  <SCORE.INTER>
-27.3964

>  <SCORE.INTER.CONST>
1

>  <SCORE.INTER.POLAR>
-4.30386

>  <SCORE.INTER.ROT>
8

>  <SCORE.INTER.SOLV>
6.57549

>  <SCORE.INTER.VDW>
-15.0433

>  <SCORE.INTER.norm>
-2.49058

>  <SCORE.INTRA>
-7.47017

>  <SCORE.INTRA.DIHEDRAL>
-16.0954

>  <SCORE.INTRA.DIHEDRAL.0>
21.6454

>  <SCORE.INTRA.POLAR>
0

>  <SCORE.INTRA.POLAR.0>
0

>  <SCORE.INTRA.REPUL>
0

>  <SCORE.INTRA.REPUL.0>
0

>  <SCORE.INTRA.SOLV>
0.60997

>  <SCORE.INTRA.SOLV.lig_0>
-16.5947

>  <SCORE.INTRA.VDW>
0.27256

>  <SCORE.INTRA.VDW.0>
-0.691398

>  <SCORE.INTRA.norm>
-0.679107

>  <SCORE.RESTR>
0

>  <SCORE.RESTR.CAVITY>
0

>  <SCORE.RESTR.norm>
0

>  <SCORE.SYSTEM>
0

>  <SCORE.SYSTEM.CONST>
0

>  <SCORE.SYSTEM.DIHEDRAL>
0

>  <SCORE.SYSTEM.SOLV>
0

>  <SCORE.SYSTEM.norm>
0

>  <SCORE.heavy>
11

>  <SCORE.norm>
-3.16969

>  <RMSD>
3.700

>  <RMSD>
3.700

$$$$
1akx_lig
 OpenBabel11021811383D
libRbt.so/2013.1/901 2013/11/27
 11 10  0  0  0  0  0  0  0  0999 V2000
   -5.7148   -2.8541    2.2137 N   0  0  0  0  0  0  0  0  0  0  0  0
   -4.2491   -2.8307    1.9315 C   0  0  2  0  0  0  0  0  0  0  0  0
   -3.6315   -1.5638    2.5368 C   0  0  0  0  0  0  0  0  0  0  0  0
   -3.7297   -1.3376    3.7265 O   0  0  0  0  0  0  0  0  0  0  0  0
   -4.0163   -2.8454    0.4146 C   0  0  0  0  0  0  0  0  0  0  0  0
   -4.7170   -4.0593   -0.2042 C   0  0  0  0  0  0  0  0  0  0  0  0
   -4.3278   -4.1775   -1.6778 C   0  0  0  0  0  0  0  0  0  0  0  0
   -4.5573   -2.8703   -2.3566 N   0  0  0  0  0  0  0  0  0  0  0  0
   -3.6817   -2.4092   -3.2129 C   0  0  0  0  0  0  0  0  0  0  0  0
   -2.4580   -2.1505   -2.8296 N   0  0  0  0  0  0  0  0  0  0  0  0
   -4.0299   -2.2128   -4.4564 N   0  0  0  0  0  0  0  0  0  0  0  0
  2  1  1  6  0  0  0
  2  3  1  0  0  0  0
  2  5  1  0  0  0  0
  3  4  1  0  0  0  0
  5  6  1  0  0  0  0
  6  7  1  0  0  0  0
  7  8  1  0  0  0  0
  8  9  1  0  0  0  0
  9 10  1  0  0  0  0
  9 11  1  0  0  0  0
M  END
>  <CHROM.1>
-171.85719382,57.95481565,-55.80422816,-172.36186492,-51.67225252,138.11228438
-61.33075187,164.04215984,158.10029806,-4.11715438,-2.63667749,-0.34979995
1.70490118,0.80070562,1.39749880

>  <Name>
1akx_lig

>  <RI>
0

>  <Rbt.Current_Directory>
/home/afrankz/demos/rdock_decoys_rna/rnas/1akx

>  <Rbt.Executable>
rbdock ($Id: //depot/dev/client3/rdock/2013.1/src/exe/rbdock.cxx#4 $)

>  <Rbt.Library>
libRbt.so (2013.1, Build901 2013/11/27)

>  <Rbt.Parameter_File>
/export/apps/rDock/src/rDock_2013.1_src/data/scripts/dock_solv.prm

>  <Rbt.Receptor>
prm/pocket_docking_8.prm

>  <SCORE>
-34.8666

>  <SCORE.INTER>
-27.3964

>  <SCORE.INTER.CONST>
1

>  <SCORE.INTER.POLAR>
-4.30386

>  <SCORE.INTER.ROT>
8

>  <SCORE.INTER.SOLV>
6.57549

>  <SCORE.INTER.VDW>
-15.0433

>  <SCORE.INTER.norm>
-2.49058

>  <SCORE.INTRA>
-7.47017

>  <SCORE.INTRA.DIHEDRAL>
-16.0954

>  <SCORE.INTRA.DIHEDRAL.0>
21.6454

>  <SCORE.INTRA.POLAR>
0

>  <SCORE.INTRA.POLAR.0>
0

>  <SCORE.INTRA.REPUL>
0

>  <SCORE.INTRA.REPUL.0>
0

>  <SCORE.INTRA.SOLV>
0.60997

>  <SCORE.INTRA.SOLV.lig_0>
-16.5947

>  <SCORE.INTRA.VDW>
0.27256

>  <SCORE.INTRA.VDW.0>
-0.691398

>  <SCORE.INTRA.norm>
-0.679107

>  <SCORE.RESTR>
0

>  <SCORE.RESTR.CAVITY>
0

>  <SCORE.RESTR.norm>
0

>  <SCORE.SYSTEM>
0

>  <SCORE.SYSTEM.CONST>
0

>  <SCORE.SYSTEM.DIHEDRAL>
0

>  <SCORE.SYSTEM.SOLV>
0

>  <SCORE.SYSTEM.norm>
0

>  <SCORE.heavy>
11

>  <SCORE.norm>
-3.16969

>  <RMSD>
3.700

>  <RMSD>
3.700

$$$$
1akx_lig
 OpenBabel11021811383D
libRbt.so/2013.1/901 2013/11/27
 11 10  0  0  0  0  0  0  0  0999 V2000
   -6.1311   -3.4849    2.0787 N   0  0  0  0  0  0  0  0  0  0  0  0
   -4.7279   -3.1630    1.6844 C   0  0  2  0  0  0  0  0  0  0  0  0
   -4.1563   -2.1091    2.6411 C   0  0  0  0  0  0  0  0  0  0  0  0
   -3.0216   -1.6985    2.4995 O   0  0  0  0  0  0  0  0  0  0  0  0
   -4.7075   -2.6226    0.2481 C   0  0  0  0  0  0  0  0  0  0  0  0
   -4.9196   -3.7738   -0.7404 C   0  0  0  0  0  0  0  0  0  0  0  0
   -5.0002   -3.2180   -2.1622 C   0  0  0  0  0  0  0  0  0  0  0  0
   -3.7150   -2.5444   -2.5039 N   0  0  0  0  0  0  0  0  0  0  0  0
   -3.3577   -2.4011   -3.7545 C   0  0  0  0  0  0  0  0  0  0  0  0
   -4.1840   -1.8716   -4.6196 N   0  0  0  0  0  0  0  0  0  0  0  0
   -2.1690   -2.7826   -4.1387 N   0  0  0  0  0  0  0  0  0  0  0  0
  2  1  1  1  0  0  0
  2  3  1  0  0  0  0
  2  5  1  0  0  0  0
  3  4  1  0  0  0  0
  5  6  1  0  0  0  0
  6  7  1  0  0  0  0
  7  8  1  0  0  0  0
  8  9  1  0  0  0  0
  9 10  1  0  0  0  0
  9 11  1  0  0  0  0
M  END
>  <CHROM.1>
-179.56596300,-179.84040301,-74.63431579,175.91193412,61.66651054,156.47360830
51.54276833,84.16694216,-68.14983838,-4.18646377,-2.68720348,-0.79903408
1.78817454,0.46768774,1.50465842

>  <Name>
1akx_lig

>  <RI>
0

>  <Rbt.Current_Directory>
/home/itssahil/PROJECTS/Mol_Feturizer/New_Systems/rnas/1akx

>  <Rbt.Executable>
rbdock ($Id: //depot/dev/client3/rdock/2013.1/src/exe/rbdock.cxx#4 $)

>  <Rbt.Library>
libRbt.so (2013.1, Build901 2013/11/27)

>  <Rbt.Parameter_File>
/export/apps/rDock/src/rDock_2013.1_src/data/scripts/dock_solv.prm

>  <Rbt.Receptor>
prm/pocket_docking_8.prm

>  <SCORE>
-32.6099

>  <SCORE.INTER>
-25.1214

>  <SCORE.INTER.CONST>
1

>  <SCORE.INTER.POLAR>
-3.64471

>  <SCORE.INTER.ROT>
8

>  <SCORE.INTER.SOLV>
7.85836

>  <SCORE.INTER.VDW>
-16.1514

>  <SCORE.INTER.norm>
-2.28377

>  <SCORE.INTRA>
-7.48846

>  <SCORE.INTRA.DIHEDRAL>
-15.9402

>  <SCORE.INTRA.DIHEDRAL.0>
21.6454

>  <SCORE.INTRA.POLAR>
0

>  <SCORE.INTRA.POLAR.0>
0

>  <SCORE.INTRA.REPUL>
0

>  <SCORE.INTRA.REPUL.0>
0

>  <SCORE.INTRA.SOLV>
0.140014

>  <SCORE.INTRA.SOLV.lig_0>
-16.5947

>  <SCORE.INTRA.VDW>
0.411639

>  <SCORE.INTRA.VDW.0>
-0.691398

>  <SCORE.INTRA.norm>
-0.680769

>  <SCORE.RESTR>
0

>  <SCORE.RESTR.CAVITY>
0

>  <SCORE.RESTR.norm>
0

>  <SCORE.SYSTEM>
0

>  <SCORE.SYSTEM.CONST>
0

>  <SCORE.SYSTEM.DIHEDRAL>
0

>  <SCORE.SYSTEM.SOLV>
0

>  <SCORE.SYSTEM.norm>
0

>  <SCORE.heavy>
11

>  <SCORE.norm>
-2.96453

>  <RMSD>
3.727

$$$$
1akx_lig
 OpenBabel11021811383D
libRbt.so/2013.1/901 2013/11/27
 11 10  0  0  0  0  0  0  0  0999 V2000
   -5.2669   -2.5788    0.9091 N   0  0  0  0  0  0  0  0  0  0  0  0
   -5.8775   -3.9405    0.9409 C   0  0  2  0  0  0  0  0  0  0  0  0
   -4.7794   -4.9890    1.1589 C   0  0  0  0  0  0  0  0  0  0  0  0
   -4.1103   -4.9796    2.1730 O   0  0  0  0  0  0  0  0  0  0  0  0
   -6.5968   -4.2137   -0.3871 C   0  0  0  0  0  0  0  0  0  0  0  0
   -5.5662   -4.5041   -1.4829 C   0  0  0  0  0  0  0  0  0  0  0  0
   -5.1254   -3.1914   -2.1304 C   0  0  0  0  0  0  0  0  0  0  0  0
   -3.6814   -2.9581   -1.8428 N   0  0  0  0  0  0  0  0  0  0  0  0
   -2.9110   -2.4027   -2.7430 C   0  0  0  0  0  0  0  0  0  0  0  0
   -1.6281   -2.2722   -2.5227 N   0  0  0  0  0  0  0  0  0  0  0  0
   -3.4245   -1.9829   -3.8682 N   0  0  0  0  0  0  0  0  0  0  0  0
  2  1  1  6  0  0  0
  2  3  1  0  0  0  0
  2  5  1  0  0  0  0
  3  4  1  0  0  0  0
  5  6  1  0  0  0  0
  6  7  1  0  0  0  0
  7  8  1  0  0  0  0
  8  9  1  0  0  0  0
  9 10  1  0  0  0  0
  9 11  1  0  0  0  0
M  END
>  <CHROM.1>
-58.32835962,61.79032045,74.91950668,-87.78737761,114.80057748,143.90482828
-175.82137765,-17.82094419,-151.61448081,-4.40256107,-3.41898746,-0.88136287
-2.04878623,-0.21219912,-1.22069476

>  <Name>
1akx_lig

>  <RI>
0

>  <Rbt.Current_Directory>
/home/afrankz/demos/rdock_decoys_rna/rnas/1akx

>  <Rbt.Executable>
rbdock ($Id: //depot/dev/client3/rdock/2013.1/src/exe/rbdock.cxx#4 $)

>  <Rbt.Library>
libRbt.so (2013.1, Build901 2013/11/27)

>  <Rbt.Parameter_File>
/export/apps/rDock/src/rDock_2013.1_src/data/scripts/dock_solv.prm

>  <Rbt.Receptor>
prm/pocket_docking_5.prm

>  <SCORE>
-23.9648

>  <SCORE.INTER>
-23.216

>  <SCORE.INTER.CONST>
1

>  <SCORE.INTER.POLAR>
-3.25638

>  <SCORE.INTER.ROT>
8

>  <SCORE.INTER.SOLV>
6.90121

>  <SCORE.INTER.VDW>
-15.8565

>  <SCORE.INTER.norm>
-2.11055

>  <SCORE.INTRA>
-0.748735

>  <SCORE.INTRA.DIHEDRAL>
-7.85604

>  <SCORE.INTRA.DIHEDRAL.0>
21.6454

>  <SCORE.INTRA.POLAR>
-0.724806

>  <SCORE.INTRA.POLAR.0>
0

>  <SCORE.INTRA.REPUL>
0

>  <SCORE.INTRA.REPUL.0>
0

>  <SCORE.INTRA.SOLV>
1.39123

>  <SCORE.INTRA.SOLV.lig_0>
-16.5947

>  <SCORE.INTRA.VDW>
4.94801

>  <SCORE.INTRA.VDW.0>
-0.691398

>  <SCORE.INTRA.norm>
-0.0680668

>  <SCORE.RESTR>
0

>  <SCORE.RESTR.CAVITY>
0

>  <SCORE.RESTR.norm>
0

>  <SCORE.SYSTEM>
0

>  <SCORE.SYSTEM.CONST>
0

>  <SCORE.SYSTEM.DIHEDRAL>
0

>  <SCORE.SYSTEM.SOLV>
0

>  <SCORE.SYSTEM.norm>
0

>  <SCORE.heavy>
11

>  <SCORE.norm>
-2.17861

>  <RMSD>
3.754

>  <RMSD>
3.754

$$$$
1akx_lig
 OpenBabel11021811383D
libRbt.so/2013.1/901 2013/11/27
 11 10  0  0  0  0  0  0  0  0999 V2000
   -5.2669   -2.5788    0.9091 N   0  0  0  0  0  0  0  0  0  0  0  0
   -5.8775   -3.9405    0.9409 C   0  0  2  0  0  0  0  0  0  0  0  0
   -4.7794   -4.9890    1.1589 C   0  0  0  0  0  0  0  0  0  0  0  0
   -4.1103   -4.9796    2.1730 O   0  0  0  0  0  0  0  0  0  0  0  0
   -6.5968   -4.2137   -0.3871 C   0  0  0  0  0  0  0  0  0  0  0  0
   -5.5662   -4.5041   -1.4829 C   0  0  0  0  0  0  0  0  0  0  0  0
   -5.1254   -3.1914   -2.1304 C   0  0  0  0  0  0  0  0  0  0  0  0
   -3.6814   -2.9581   -1.8428 N   0  0  0  0  0  0  0  0  0  0  0  0
   -2.9110   -2.4027   -2.7430 C   0  0  0  0  0  0  0  0  0  0  0  0
   -1.6281   -2.2722   -2.5227 N   0  0  0  0  0  0  0  0  0  0  0  0
   -3.4245   -1.9829   -3.8682 N   0  0  0  0  0  0  0  0  0  0  0  0
  2  1  1  6  0  0  0
  2  3  1  0  0  0  0
  2  5  1  0  0  0  0
  3  4  1  0  0  0  0
  5  6  1  0  0  0  0
  6  7  1  0  0  0  0
  7  8  1  0  0  0  0
  8  9  1  0  0  0  0
  9 10  1  0  0  0  0
  9 11  1  0  0  0  0
M  END
>  <CHROM.1>
-58.32835962,61.79032045,74.91950668,-87.78737761,114.80057748,143.90482828
-175.82137765,-17.82094419,-151.61448081,-4.40256107,-3.41898746,-0.88136287
-2.04878623,-0.21219912,-1.22069476

>  <Name>
1akx_lig

>  <RI>
0

>  <Rbt.Current_Directory>
/home/afrankz/demos/rdock_decoys_rna/rnas/1akx

>  <Rbt.Executable>
rbdock ($Id: //depot/dev/client3/rdock/2013.1/src/exe/rbdock.cxx#4 $)

>  <Rbt.Library>
libRbt.so (2013.1, Build901 2013/11/27)

>  <Rbt.Parameter_File>
/export/apps/rDock/src/rDock_2013.1_src/data/scripts/dock_solv.prm

>  <Rbt.Receptor>
prm/pocket_docking_5.prm

>  <SCORE>
-23.9648

>  <SCORE.INTER>
-23.216

>  <SCORE.INTER.CONST>
1

>  <SCORE.INTER.POLAR>
-3.25638

>  <SCORE.INTER.ROT>
8

>  <SCORE.INTER.SOLV>
6.90121

>  <SCORE.INTER.VDW>
-15.8565

>  <SCORE.INTER.norm>
-2.11055

>  <SCORE.INTRA>
-0.748735

>  <SCORE.INTRA.DIHEDRAL>
-7.85604

>  <SCORE.INTRA.DIHEDRAL.0>
21.6454

>  <SCORE.INTRA.POLAR>
-0.724806

>  <SCORE.INTRA.POLAR.0>
0

>  <SCORE.INTRA.REPUL>
0

>  <SCORE.INTRA.REPUL.0>
0

>  <SCORE.INTRA.SOLV>
1.39123

>  <SCORE.INTRA.SOLV.lig_0>
-16.5947

>  <SCORE.INTRA.VDW>
4.94801

>  <SCORE.INTRA.VDW.0>
-0.691398

>  <SCORE.INTRA.norm>
-0.0680668

>  <SCORE.RESTR>
0

>  <SCORE.RESTR.CAVITY>
0

>  <SCORE.RESTR.norm>
0

>  <SCORE.SYSTEM>
0

>  <SCORE.SYSTEM.CONST>
0

>  <SCORE.SYSTEM.DIHEDRAL>
0

>  <SCORE.SYSTEM.SOLV>
0

>  <SCORE.SYSTEM.norm>
0

>  <SCORE.heavy>
11

>  <SCORE.norm>
-2.17861

>  <RMSD>
3.754

>  <RMSD>
3.754

$$$$
1akx_lig
 OpenBabel11021811383D
libRbt.so/2013.1/901 2013/11/27
 11 10  0  0  0  0  0  0  0  0999 V2000
   -6.0199   -3.5347    2.0668 N   0  0  0  0  0  0  0  0  0  0  0  0
   -4.6668   -3.1767    1.5481 C   0  0  2  0  0  0  0  0  0  0  0  0
   -4.1361   -1.9523    2.3042 C   0  0  0  0  0  0  0  0  0  0  0  0
   -3.0329   -1.5062    2.0587 O   0  0  0  0  0  0  0  0  0  0  0  0
   -4.7570   -2.8596    0.0492 C   0  0  0  0  0  0  0  0  0  0  0  0
   -4.8989   -4.1610   -0.7469 C   0  0  0  0  0  0  0  0  0  0  0  0
   -5.3050   -3.8385   -2.1849 C   0  0  0  0  0  0  0  0  0  0  0  0
   -4.6012   -2.6030   -2.6327 N   0  0  0  0  0  0  0  0  0  0  0  0
   -3.6398   -2.6756   -3.5175 C   0  0  0  0  0  0  0  0  0  0  0  0
   -3.9182   -2.6655   -4.7956 N   0  0  0  0  0  0  0  0  0  0  0  0
   -2.3973   -2.7521   -3.1222 N   0  0  0  0  0  0  0  0  0  0  0  0
  2  1  1  1  0  0  0
  2  3  1  0  0  0  0
  2  5  1  0  0  0  0
  3  4  1  0  0  0  0
  5  6  1  0  0  0  0
  6  7  1  0  0  0  0
  7  8  1  0  0  0  0
  8  9  1  0  0  0  0
  9 10  1  0  0  0  0
  9 11  1  0  0  0  0
M  END
>  <CHROM.1>
64.15678881,178.47951050,-75.61489093,167.19946135,37.79363399,108.74497266
85.81192519,156.76655749,49.33493037,-4.30119187,-2.86935574,-0.81335462
1.75021076,0.59442044,1.43591815

>  <Name>
1akx_lig

>  <RI>
0

>  <Rbt.Current_Directory>
/home/itssahil/PROJECTS/Mol_Feturizer/New_Systems/rnas/1akx

>  <Rbt.Executable>
rbdock ($Id: //depot/dev/client3/rdock/2013.1/src/exe/rbdock.cxx#4 $)

>  <Rbt.Library>
libRbt.so (2013.1, Build901 2013/11/27)

>  <Rbt.Parameter_File>
/export/apps/rDock/src/rDock_2013.1_src/data/scripts/dock_solv.prm

>  <Rbt.Receptor>
prm/pocket_docking_4.prm

>  <SCORE>
-32.1189

>  <SCORE.INTER>
-26.1598

>  <SCORE.INTER.CONST>
1

>  <SCORE.INTER.POLAR>
-4.29508

>  <SCORE.INTER.ROT>
8

>  <SCORE.INTER.SOLV>
6.79077

>  <SCORE.INTER.VDW>
-14.3199

>  <SCORE.INTER.norm>
-2.37817

>  <SCORE.INTRA>
-5.97362

>  <SCORE.INTRA.DIHEDRAL>
-13.5339

>  <SCORE.INTRA.DIHEDRAL.0>
21.6454

>  <SCORE.INTRA.POLAR>
0

>  <SCORE.INTRA.POLAR.0>
0

>  <SCORE.INTRA.REPUL>
0

>  <SCORE.INTRA.REPUL.0>
0

>  <SCORE.INTRA.SOLV>
0.440217

>  <SCORE.INTRA.SOLV.lig_0>
-16.5947

>  <SCORE.INTRA.VDW>
0.573204

>  <SCORE.INTRA.VDW.0>
-0.691398

>  <SCORE.INTRA.norm>
-0.543056

>  <SCORE.RESTR>
0.0145533

>  <SCORE.RESTR.CAVITY>
0.0145533

>  <SCORE.RESTR.norm>
0.00132302

>  <SCORE.SYSTEM>
0

>  <SCORE.SYSTEM.CONST>
0

>  <SCORE.SYSTEM.DIHEDRAL>
0

>  <SCORE.SYSTEM.SOLV>
0

>  <SCORE.SYSTEM.norm>
0

>  <SCORE.heavy>
11

>  <SCORE.norm>
-2.9199

>  <RMSD>
3.755

$$$$
1akx_lig
 OpenBabel11021811383D
libRbt.so/2013.1/901 2013/11/27
 11 10  0  0  0  0  0  0  0  0999 V2000
   -6.4296   -3.4817    1.0343 N   0  0  0  0  0  0  0  0  0  0  0  0
   -5.1447   -3.5380    1.7920 C   0  0  2  0  0  0  0  0  0  0  0  0
   -5.3941   -3.1425    3.2528 C   0  0  0  0  0  0  0  0  0  0  0  0
   -4.4851   -3.1549    4.0589 O   0  0  0  0  0  0  0  0  0  0  0  0
   -4.1318   -2.5731    1.1609 C   0  0  0  0  0  0  0  0  0  0  0  0
   -3.6647   -3.1247   -0.1900 C   0  0  0  0  0  0  0  0  0  0  0  0
   -4.6953   -2.7819   -1.2657 C   0  0  0  0  0  0  0  0  0  0  0  0
   -4.3046   -3.4302   -2.5500 N   0  0  0  0  0  0  0  0  0  0  0  0
   -3.4978   -2.8183   -3.3789 C   0  0  0  0  0  0  0  0  0  0  0  0
   -2.2280   -2.6925   -3.0906 N   0  0  0  0  0  0  0  0  0  0  0  0
   -3.9616   -2.3370   -4.5011 N   0  0  0  0  0  0  0  0  0  0  0  0
  2  1  1  6  0  0  0
  2  3  1  0  0  0  0
  2  5  1  0  0  0  0
  3  4  1  0  0  0  0
  5  6  1  0  0  0  0
  6  7  1  0  0  0  0
  7  8  1  0  0  0  0
  8  9  1  0  0  0  0
  9 10  1  0  0  0  0
  9 11  1  0  0  0  0
M  END
>  <CHROM.1>
73.00219515,178.05474350,-71.26459502,81.74749539,-174.62096946,-87.72220587
71.95268627,18.02870588,-20.18130890,-4.37083369,-3.00811253,-0.35716543
1.82371666,0.18155318,1.60286704

>  <Name>
1akx_lig

>  <RI>
0

>  <Rbt.Current_Directory>
/home/itssahil/PROJECTS/Mol_Feturizer/New_Systems/rnas/1akx

>  <Rbt.Executable>
rbdock ($Id: //depot/dev/client3/rdock/2013.1/src/exe/rbdock.cxx#4 $)

>  <Rbt.Library>
libRbt.so (2013.1, Build901 2013/11/27)

>  <Rbt.Parameter_File>
/export/apps/rDock/src/rDock_2013.1_src/data/scripts/dock_solv.prm

>  <Rbt.Receptor>
prm/pocket_docking_5.prm

>  <SCORE>
-32.4125

>  <SCORE.INTER>
-26.3369

>  <SCORE.INTER.CONST>
1

>  <SCORE.INTER.POLAR>
-4.29378

>  <SCORE.INTER.ROT>
8

>  <SCORE.INTER.SOLV>
6.12207

>  <SCORE.INTER.VDW>
-14.2194

>  <SCORE.INTER.norm>
-2.39427

>  <SCORE.INTRA>
-6.07558

>  <SCORE.INTRA.DIHEDRAL>
-14.0486

>  <SCORE.INTRA.DIHEDRAL.0>
21.6454

>  <SCORE.INTRA.POLAR>
0

>  <SCORE.INTRA.POLAR.0>
0

>  <SCORE.INTRA.REPUL>
0

>  <SCORE.INTRA.REPUL.0>
0

>  <SCORE.INTRA.SOLV>
0.49468

>  <SCORE.INTRA.SOLV.lig_0>
-16.5947

>  <SCORE.INTRA.VDW>
0.701373

>  <SCORE.INTRA.VDW.0>
-0.691398

>  <SCORE.INTRA.norm>
-0.552325

>  <SCORE.RESTR>
0

>  <SCORE.RESTR.CAVITY>
0

>  <SCORE.RESTR.norm>
0

>  <SCORE.SYSTEM>
0

>  <SCORE.SYSTEM.CONST>
0

>  <SCORE.SYSTEM.DIHEDRAL>
0

>  <SCORE.SYSTEM.SOLV>
0

>  <SCORE.SYSTEM.norm>
0

>  <SCORE.heavy>
11

>  <SCORE.norm>
-2.94659

>  <RMSD>
3.764

$$$$
1akx_lig
 OpenBabel11021811383D
libRbt.so/2013.1/901 2013/11/27
 11 10  0  0  0  0  0  0  0  0999 V2000
   -6.6847   -3.5245    0.8523 N   0  0  0  0  0  0  0  0  0  0  0  0
   -5.4170   -4.0196    1.4655 C   0  0  2  0  0  0  0  0  0  0  0  0
   -5.4897   -3.8616    2.9894 C   0  0  0  0  0  0  0  0  0  0  0  0
   -4.5682   -4.2268    3.6920 O   0  0  0  0  0  0  0  0  0  0  0  0
   -4.2310   -3.2139    0.9182 C   0  0  0  0  0  0  0  0  0  0  0  0
   -4.1873   -3.3309   -0.6088 C   0  0  0  0  0  0  0  0  0  0  0  0
   -3.0202   -2.5059   -1.1512 C   0  0  0  0  0  0  0  0  0  0  0  0
   -3.0038   -2.5904   -2.6394 N   0  0  0  0  0  0  0  0  0  0  0  0
   -2.0414   -3.2306   -3.2530 C   0  0  0  0  0  0  0  0  0  0  0  0
   -1.2129   -3.9823   -2.5749 N   0  0  0  0  0  0  0  0  0  0  0  0
   -1.9121   -3.1233   -4.5483 N   0  0  0  0  0  0  0  0  0  0  0  0
  2  1  1  6  0  0  0
  2  3  1  0  0  0  0
  2  5  1  0  0  0  0
  3  4  1  0  0  0  0
  5  6  1  0  0  0  0
  6  7  1  0  0  0  0
  7  8  1  0  0  0  0
  8  9  1  0  0  0  0
  9 10  1  0  0  0  0
  9 11  1  0  0  0  0
M  END
>  <CHROM.1>
-168.62809951,178.66293850,-57.75080835,178.95697092,-178.40688332,-111.33826420
11.22057404,-78.42364840,12.90662155,-3.80636139,-3.42478272,-0.46078725
2.10931917,-0.18954087,1.79793661

>  <Name>
1akx_lig

>  <RI>
0

>  <Rbt.Current_Directory>
/home/itssahil/PROJECTS/Mol_Feturizer/New_Systems/rnas/1akx

>  <Rbt.Executable>
rbdock ($Id: //depot/dev/client3/rdock/2013.1/src/exe/rbdock.cxx#4 $)

>  <Rbt.Library>
libRbt.so (2013.1, Build901 2013/11/27)

>  <Rbt.Parameter_File>
/export/apps/rDock/src/rDock_2013.1_src/data/scripts/dock_solv.prm

>  <Rbt.Receptor>
prm/pocket_docking_7.prm

>  <SCORE>
-29.4167

>  <SCORE.INTER>
-22.082

>  <SCORE.INTER.CONST>
1

>  <SCORE.INTER.POLAR>
-3.73534

>  <SCORE.INTER.ROT>
8

>  <SCORE.INTER.SOLV>
7.55885

>  <SCORE.INTER.VDW>
-13.7231

>  <SCORE.INTER.norm>
-2.00745

>  <SCORE.INTRA>
-7.33476

>  <SCORE.INTRA.DIHEDRAL>
-16.4926

>  <SCORE.INTRA.DIHEDRAL.0>
21.6454

>  <SCORE.INTRA.POLAR>
0

>  <SCORE.INTRA.POLAR.0>
0

>  <SCORE.INTRA.REPUL>
0

>  <SCORE.INTRA.REPUL.0>
0

>  <SCORE.INTRA.SOLV>
0.0948702

>  <SCORE.INTRA.SOLV.lig_0>
-16.5947

>  <SCORE.INTRA.VDW>
0.8641

>  <SCORE.INTRA.VDW.0>
-0.691398

>  <SCORE.INTRA.norm>
-0.666796

>  <SCORE.RESTR>
0

>  <SCORE.RESTR.CAVITY>
0

>  <SCORE.RESTR.norm>
0

>  <SCORE.SYSTEM>
0

>  <SCORE.SYSTEM.CONST>
0

>  <SCORE.SYSTEM.DIHEDRAL>
0

>  <SCORE.SYSTEM.SOLV>
0

>  <SCORE.SYSTEM.norm>
0

>  <SCORE.heavy>
11

>  <SCORE.norm>
-2.67425

>  <RMSD>
3.798

$$$$
1akx_lig
 OpenBabel11021811383D
libRbt.so/2013.1/901 2013/11/27
 11 10  0  0  0  0  0  0  0  0999 V2000
   -0.0088   -9.9996   -1.1220 N   0  0  0  0  0  0  0  0  0  0  0  0
   -0.8043   -8.8214   -0.6668 C   0  0  2  0  0  0  0  0  0  0  0  0
   -1.8440   -9.2740    0.3661 C   0  0  0  0  0  0  0  0  0  0  0  0
   -1.4924   -9.7521    1.4263 O   0  0  0  0  0  0  0  0  0  0  0  0
   -1.5137   -8.1833   -1.8689 C   0  0  0  0  0  0  0  0  0  0  0  0
   -2.2383   -6.9087   -1.4246 C   0  0  0  0  0  0  0  0  0  0  0  0
   -1.2489   -5.7438   -1.3911 C   0  0  0  0  0  0  0  0  0  0  0  0
   -1.9897   -4.4719   -1.1552 N   0  0  0  0  0  0  0  0  0  0  0  0
   -1.9377   -3.5054   -2.0359 C   0  0  0  0  0  0  0  0  0  0  0  0
   -3.0406   -2.9889   -2.5136 N   0  0  0  0  0  0  0  0  0  0  0  0
   -0.7798   -3.0508   -2.4343 N   0  0  0  0  0  0  0  0  0  0  0  0
  2  1  1  6  0  0  0
  2  3  1  0  0  0  0
  2  5  1  0  0  0  0
  3  4  1  0  0  0  0
  5  6  1  0  0  0  0
  6  7  1  0  0  0  0
  7  8  1  0  0  0  0
  8  9  1  0  0  0  0
  9 10  1  0  0  0  0
  9 11  1  0  0  0  0
M  END
>  <CHROM.1>
67.18569166,63.04934316,-175.43063333,82.72941010,171.75573166,-119.92384081
126.53082944,-126.20145620,165.46003822,-1.52096107,-6.61406503,-1.16399150
-1.37260458,0.78579464,-0.47012399

>  <Name>
1akx_lig

>  <RI>
0

>  <Rbt.Current_Directory>
/home/itssahil/PROJECTS/Mol_Feturizer/New_Systems/rnas/1akx

>  <Rbt.Executable>
rbdock ($Id: //depot/dev/client3/rdock/2013.1/src/exe/rbdock.cxx#4 $)

>  <Rbt.Library>
libRbt.so (2013.1, Build901 2013/11/27)

>  <Rbt.Parameter_File>
/export/apps/rDock/src/rDock_2013.1_src/data/scripts/dock_solv.prm

>  <Rbt.Receptor>
prm/pocket_docking_5.prm

>  <SCORE>
-25.1596

>  <SCORE.INTER>
-18.8872

>  <SCORE.INTER.CONST>
1

>  <SCORE.INTER.POLAR>
-3.23775

>  <SCORE.INTER.ROT>
8

>  <SCORE.INTER.SOLV>
6.23699

>  <SCORE.INTER.VDW>
-12.8113

>  <SCORE.INTER.norm>
-1.71702

>  <SCORE.INTRA>
-6.29442

>  <SCORE.INTRA.DIHEDRAL>
-14.425

>  <SCORE.INTRA.DIHEDRAL.0>
21.6454

>  <SCORE.INTRA.POLAR>
0

>  <SCORE.INTRA.POLAR.0>
0

>  <SCORE.INTRA.REPUL>
0

>  <SCORE.INTRA.REPUL.0>
0

>  <SCORE.INTRA.SOLV>
0.228506

>  <SCORE.INTRA.SOLV.lig_0>
-16.5947

>  <SCORE.INTRA.VDW>
0.803819

>  <SCORE.INTRA.VDW.0>
-0.691398

>  <SCORE.INTRA.norm>
-0.57222

>  <SCORE.RESTR>
0.0220179

>  <SCORE.RESTR.CAVITY>
0.0220179

>  <SCORE.RESTR.norm>
0.00200162

>  <SCORE.SYSTEM>
0

>  <SCORE.SYSTEM.CONST>
0

>  <SCORE.SYSTEM.DIHEDRAL>
0

>  <SCORE.SYSTEM.SOLV>
0

>  <SCORE.SYSTEM.norm>
0

>  <SCORE.heavy>
11

>  <SCORE.norm>
-2.28724

>  <RMSD>
3.804

$$$$
1akx_lig
 OpenBabel11021811383D
libRbt.so/2013.1/901 2013/11/27
 11 10  0  0  0  0  0  0  0  0999 V2000
   -4.7038   -1.6455    1.8085 N   0  0  0  0  0  0  0  0  0  0  0  0
   -5.0089   -3.0807    1.5340 C   0  0  2  0  0  0  0  0  0  0  0  0
   -5.6900   -3.7028    2.7595 C   0  0  0  0  0  0  0  0  0  0  0  0
   -6.7684   -3.2927    3.1402 O   0  0  0  0  0  0  0  0  0  0  0  0
   -3.7077   -3.8345    1.2275 C   0  0  0  0  0  0  0  0  0  0  0  0
   -3.5624   -4.0207   -0.2863 C   0  0  0  0  0  0  0  0  0  0  0  0
   -3.3145   -2.6643   -0.9464 C   0  0  0  0  0  0  0  0  0  0  0  0
   -4.0307   -2.6114   -2.2528 N   0  0  0  0  0  0  0  0  0  0  0  0
   -3.3581   -2.6371   -3.3750 C   0  0  0  0  0  0  0  0  0  0  0  0
   -3.9571   -2.3768   -4.5085 N   0  0  0  0  0  0  0  0  0  0  0  0
   -2.0825   -2.9176   -3.3620 N   0  0  0  0  0  0  0  0  0  0  0  0
  2  1  1  1  0  0  0
  2  3  1  0  0  0  0
  2  5  1  0  0  0  0
  3  4  1  0  0  0  0
  5  6  1  0  0  0  0
  6  7  1  0  0  0  0
  7  8  1  0  0  0  0
  8  9  1  0  0  0  0
  9 10  1  0  0  0  0
  9 11  1  0  0  0  0
M  END
>  <CHROM.1>
-67.10793497,62.88657219,-100.78646691,68.52538185,-142.47105634,-109.27452145
-169.01560141,126.40217882,-108.72355406,-4.21085060,-2.94403300,-0.40007634
1.98591694,-0.42479668,1.83203044

>  <Name>
1akx_lig

>  <RI>
0

>  <Rbt.Current_Directory>
/home/afrankz/demos/rdock_decoys_rna/rnas/1akx

>  <Rbt.Executable>
rbdock ($Id: //depot/dev/client3/rdock/2013.1/src/exe/rbdock.cxx#4 $)

>  <Rbt.Library>
libRbt.so (2013.1, Build901 2013/11/27)

>  <Rbt.Parameter_File>
/export/apps/rDock/src/rDock_2013.1_src/data/scripts/dock_solv.prm

>  <Rbt.Receptor>
prm/pocket_docking_8.prm

>  <SCORE>
-33.2217

>  <SCORE.INTER>
-30.2243

>  <SCORE.INTER.CONST>
1

>  <SCORE.INTER.POLAR>
-5.22464

>  <SCORE.INTER.ROT>
8

>  <SCORE.INTER.SOLV>
7.07622

>  <SCORE.INTER.VDW>
-14.0262

>  <SCORE.INTER.norm>
-2.74767

>  <SCORE.INTRA>
-2.99734

>  <SCORE.INTRA.DIHEDRAL>
-8.05319

>  <SCORE.INTRA.DIHEDRAL.0>
21.6454

>  <SCORE.INTRA.POLAR>
0

>  <SCORE.INTRA.POLAR.0>
0

>  <SCORE.INTRA.REPUL>
0

>  <SCORE.INTRA.REPUL.0>
0

>  <SCORE.INTRA.SOLV>
0.584299

>  <SCORE.INTRA.SOLV.lig_0>
-16.5947

>  <SCORE.INTRA.VDW>
0.737106

>  <SCORE.INTRA.VDW.0>
-0.691398

>  <SCORE.INTRA.norm>
-0.272485

>  <SCORE.RESTR>
0

>  <SCORE.RESTR.CAVITY>
0

>  <SCORE.RESTR.norm>
0

>  <SCORE.SYSTEM>
0

>  <SCORE.SYSTEM.CONST>
0

>  <SCORE.SYSTEM.DIHEDRAL>
0

>  <SCORE.SYSTEM.SOLV>
0

>  <SCORE.SYSTEM.norm>
0

>  <SCORE.heavy>
11

>  <SCORE.norm>
-3.02015

>  <RMSD>
3.817

>  <RMSD>
3.817

$$$$
1akx_lig
 OpenBabel11021811383D
libRbt.so/2013.1/901 2013/11/27
 11 10  0  0  0  0  0  0  0  0999 V2000
   -4.7038   -1.6455    1.8085 N   0  0  0  0  0  0  0  0  0  0  0  0
   -5.0089   -3.0807    1.5340 C   0  0  2  0  0  0  0  0  0  0  0  0
   -5.6900   -3.7028    2.7595 C   0  0  0  0  0  0  0  0  0  0  0  0
   -6.7684   -3.2927    3.1402 O   0  0  0  0  0  0  0  0  0  0  0  0
   -3.7077   -3.8345    1.2275 C   0  0  0  0  0  0  0  0  0  0  0  0
   -3.5624   -4.0207   -0.2863 C   0  0  0  0  0  0  0  0  0  0  0  0
   -3.3145   -2.6643   -0.9464 C   0  0  0  0  0  0  0  0  0  0  0  0
   -4.0307   -2.6114   -2.2528 N   0  0  0  0  0  0  0  0  0  0  0  0
   -3.3581   -2.6371   -3.3750 C   0  0  0  0  0  0  0  0  0  0  0  0
   -3.9571   -2.3768   -4.5085 N   0  0  0  0  0  0  0  0  0  0  0  0
   -2.0825   -2.9176   -3.3620 N   0  0  0  0  0  0  0  0  0  0  0  0
  2  1  1  1  0  0  0
  2  3  1  0  0  0  0
  2  5  1  0  0  0  0
  3  4  1  0  0  0  0
  5  6  1  0  0  0  0
  6  7  1  0  0  0  0
  7  8  1  0  0  0  0
  8  9  1  0  0  0  0
  9 10  1  0  0  0  0
  9 11  1  0  0  0  0
M  END
>  <CHROM.1>
-67.10793497,62.88657219,-100.78646691,68.52538185,-142.47105634,-109.27452145
-169.01560141,126.40217882,-108.72355406,-4.21085060,-2.94403300,-0.40007634
1.98591694,-0.42479668,1.83203044

>  <Name>
1akx_lig

>  <RI>
0

>  <Rbt.Current_Directory>
/home/afrankz/demos/rdock_decoys_rna/rnas/1akx

>  <Rbt.Executable>
rbdock ($Id: //depot/dev/client3/rdock/2013.1/src/exe/rbdock.cxx#4 $)

>  <Rbt.Library>
libRbt.so (2013.1, Build901 2013/11/27)

>  <Rbt.Parameter_File>
/export/apps/rDock/src/rDock_2013.1_src/data/scripts/dock_solv.prm

>  <Rbt.Receptor>
prm/pocket_docking_8.prm

>  <SCORE>
-33.2217

>  <SCORE.INTER>
-30.2243

>  <SCORE.INTER.CONST>
1

>  <SCORE.INTER.POLAR>
-5.22464

>  <SCORE.INTER.ROT>
8

>  <SCORE.INTER.SOLV>
7.07622

>  <SCORE.INTER.VDW>
-14.0262

>  <SCORE.INTER.norm>
-2.74767

>  <SCORE.INTRA>
-2.99734

>  <SCORE.INTRA.DIHEDRAL>
-8.05319

>  <SCORE.INTRA.DIHEDRAL.0>
21.6454

>  <SCORE.INTRA.POLAR>
0

>  <SCORE.INTRA.POLAR.0>
0

>  <SCORE.INTRA.REPUL>
0

>  <SCORE.INTRA.REPUL.0>
0

>  <SCORE.INTRA.SOLV>
0.584299

>  <SCORE.INTRA.SOLV.lig_0>
-16.5947

>  <SCORE.INTRA.VDW>
0.737106

>  <SCORE.INTRA.VDW.0>
-0.691398

>  <SCORE.INTRA.norm>
-0.272485

>  <SCORE.RESTR>
0

>  <SCORE.RESTR.CAVITY>
0

>  <SCORE.RESTR.norm>
0

>  <SCORE.SYSTEM>
0

>  <SCORE.SYSTEM.CONST>
0

>  <SCORE.SYSTEM.DIHEDRAL>
0

>  <SCORE.SYSTEM.SOLV>
0

>  <SCORE.SYSTEM.norm>
0

>  <SCORE.heavy>
11

>  <SCORE.norm>
-3.02015

>  <RMSD>
3.817

>  <RMSD>
3.817

$$$$
1akx_lig
 OpenBabel11021811383D
libRbt.so/2013.1/901 2013/11/27
 11 10  0  0  0  0  0  0  0  0999 V2000
   -6.2529   -3.1218    2.8636 N   0  0  0  0  0  0  0  0  0  0  0  0
   -5.5026   -3.5503    1.6464 C   0  0  2  0  0  0  0  0  0  0  0  0
   -4.3945   -2.5338    1.3438 C   0  0  0  0  0  0  0  0  0  0  0  0
   -3.5321   -2.2984    2.1666 O   0  0  0  0  0  0  0  0  0  0  0  0
   -6.4638   -3.6378    0.4531 C   0  0  0  0  0  0  0  0  0  0  0  0
   -5.7157   -4.1650   -0.7756 C   0  0  0  0  0  0  0  0  0  0  0  0
   -5.1304   -2.9908   -1.5601 C   0  0  0  0  0  0  0  0  0  0  0  0
   -4.0699   -3.4903   -2.4810 N   0  0  0  0  0  0  0  0  0  0  0  0
   -3.4466   -2.6623   -3.2799 C   0  0  0  0  0  0  0  0  0  0  0  0
   -3.9688   -2.3429   -4.4361 N   0  0  0  0  0  0  0  0  0  0  0  0
   -2.3017   -2.1481   -2.9182 N   0  0  0  0  0  0  0  0  0  0  0  0
  2  1  1  1  0  0  0
  2  3  1  0  0  0  0
  2  5  1  0  0  0  0
  3  4  1  0  0  0  0
  5  6  1  0  0  0  0
  6  7  1  0  0  0  0
  7  8  1  0  0  0  0
  8  9  1  0  0  0  0
  9 10  1  0  0  0  0
  9 11  1  0  0  0  0
M  END
>  <CHROM.1>
-55.81575149,58.81410582,-176.32836548,-90.17318664,162.34102633,178.40843129
-84.33046893,-6.94168110,143.94946055,-4.59426225,-2.97181109,-0.61786627
1.95260723,0.46360396,1.48465031

>  <Name>
1akx_lig

>  <RI>
0

>  <Rbt.Current_Directory>
/home/itssahil/PROJECTS/Mol_Feturizer/New_Systems/rnas/1akx

>  <Rbt.Executable>
rbdock ($Id: //depot/dev/client3/rdock/2013.1/src/exe/rbdock.cxx#4 $)

>  <Rbt.Library>
libRbt.so (2013.1, Build901 2013/11/27)

>  <Rbt.Parameter_File>
/export/apps/rDock/src/rDock_2013.1_src/data/scripts/dock_solv.prm

>  <Rbt.Receptor>
prm/pocket_docking_7.prm

>  <SCORE>
-33.4051

>  <SCORE.INTER>
-28.7663

>  <SCORE.INTER.CONST>
1

>  <SCORE.INTER.POLAR>
-4.28151

>  <SCORE.INTER.ROT>
8

>  <SCORE.INTER.SOLV>
6.69616

>  <SCORE.INTER.VDW>
-16.0712

>  <SCORE.INTER.norm>
-2.61512

>  <SCORE.INTRA>
-4.63882

>  <SCORE.INTRA.DIHEDRAL>
-12.5544

>  <SCORE.INTRA.DIHEDRAL.0>
21.6454

>  <SCORE.INTRA.POLAR>
0

>  <SCORE.INTRA.POLAR.0>
0

>  <SCORE.INTRA.REPUL>
0

>  <SCORE.INTRA.REPUL.0>
0

>  <SCORE.INTRA.SOLV>
0.375459

>  <SCORE.INTRA.SOLV.lig_0>
-16.5947

>  <SCORE.INTRA.VDW>
1.45066

>  <SCORE.INTRA.VDW.0>
-0.691398

>  <SCORE.INTRA.norm>
-0.421711

>  <SCORE.RESTR>
0

>  <SCORE.RESTR.CAVITY>
0

>  <SCORE.RESTR.norm>
0

>  <SCORE.SYSTEM>
0

>  <SCORE.SYSTEM.CONST>
0

>  <SCORE.SYSTEM.DIHEDRAL>
0

>  <SCORE.SYSTEM.SOLV>
0

>  <SCORE.SYSTEM.norm>
0

>  <SCORE.heavy>
11

>  <SCORE.norm>
-3.03683

>  <RMSD>
3.868

$$$$
1akx_lig
 OpenBabel11021811383D
libRbt.so/2013.1/901 2013/11/27
 11 10  0  0  0  0  0  0  0  0999 V2000
   -6.0977   -3.6777    1.8392 N   0  0  0  0  0  0  0  0  0  0  0  0
   -4.9722   -3.3323    0.9215 C   0  0  2  0  0  0  0  0  0  0  0  0
   -4.0090   -2.3725    1.6314 C   0  0  0  0  0  0  0  0  0  0  0  0
   -3.0122   -1.9691    1.0659 O   0  0  0  0  0  0  0  0  0  0  0  0
   -5.5262   -2.6657   -0.3450 C   0  0  0  0  0  0  0  0  0  0  0  0
   -6.0085   -3.7396   -1.3256 C   0  0  0  0  0  0  0  0  0  0  0  0
   -4.8433   -4.1846   -2.2095 C   0  0  0  0  0  0  0  0  0  0  0  0
   -4.3036   -3.0068   -2.9469 N   0  0  0  0  0  0  0  0  0  0  0  0
   -3.0528   -2.6522   -2.7982 C   0  0  0  0  0  0  0  0  0  0  0  0
   -2.3821   -2.1619   -3.8087 N   0  0  0  0  0  0  0  0  0  0  0  0
   -2.4742   -2.7827   -1.6344 N   0  0  0  0  0  0  0  0  0  0  0  0
  2  1  1  1  0  0  0
  2  3  1  0  0  0  0
  2  5  1  0  0  0  0
  3  4  1  0  0  0  0
  5  6  1  0  0  0  0
  6  7  1  0  0  0  0
  7  8  1  0  0  0  0
  8  9  1  0  0  0  0
  9 10  1  0  0  0  0
  9 11  1  0  0  0  0
M  END
>  <CHROM.1>
-55.70833518,179.47286781,-82.26818454,-87.60192499,-58.68107564,120.75815584
144.83348153,-170.50237476,112.03753487,-4.22426447,-2.94443036,-0.85613733
2.06131379,0.44904555,1.43828639

>  <Name>
1akx_lig

>  <RI>
0

>  <Rbt.Current_Directory>
/home/afrankz/demos/rdock_decoys_rna/rnas/1akx

>  <Rbt.Executable>
rbdock ($Id: //depot/dev/client3/rdock/2013.1/src/exe/rbdock.cxx#4 $)

>  <Rbt.Library>
libRbt.so (2013.1, Build901 2013/11/27)

>  <Rbt.Parameter_File>
/export/apps/rDock/src/rDock_2013.1_src/data/scripts/dock_solv.prm

>  <Rbt.Receptor>
prm/pocket_docking_6.prm

>  <SCORE>
-30.0485

>  <SCORE.INTER>
-20.7737

>  <SCORE.INTER.CONST>
1

>  <SCORE.INTER.POLAR>
-2.87435

>  <SCORE.INTER.ROT>
8

>  <SCORE.INTER.SOLV>
5.90058

>  <SCORE.INTER.VDW>
-15.1681

>  <SCORE.INTER.norm>
-1.88852

>  <SCORE.INTRA>
-9.27479

>  <SCORE.INTRA.DIHEDRAL>
-12.3337

>  <SCORE.INTRA.DIHEDRAL.0>
21.6454

>  <SCORE.INTRA.POLAR>
-0.990916

>  <SCORE.INTRA.POLAR.0>
0

>  <SCORE.INTRA.REPUL>
0

>  <SCORE.INTRA.REPUL.0>
0

>  <SCORE.INTRA.SOLV>
1.6269

>  <SCORE.INTRA.SOLV.lig_0>
-16.5947

>  <SCORE.INTRA.VDW>
-0.552276

>  <SCORE.INTRA.VDW.0>
-0.691398

>  <SCORE.INTRA.norm>
-0.843163

>  <SCORE.RESTR>
0

>  <SCORE.RESTR.CAVITY>
0

>  <SCORE.RESTR.norm>
0

>  <SCORE.SYSTEM>
0

>  <SCORE.SYSTEM.CONST>
0

>  <SCORE.SYSTEM.DIHEDRAL>
0

>  <SCORE.SYSTEM.SOLV>
0

>  <SCORE.SYSTEM.norm>
0

>  <SCORE.heavy>
11

>  <SCORE.norm>
-2.73168

>  <RMSD>
3.895

>  <RMSD>
3.895

$$$$
1akx_lig
 OpenBabel11021811383D
libRbt.so/2013.1/901 2013/11/27
 11 10  0  0  0  0  0  0  0  0999 V2000
   -6.0977   -3.6777    1.8392 N   0  0  0  0  0  0  0  0  0  0  0  0
   -4.9722   -3.3323    0.9215 C   0  0  2  0  0  0  0  0  0  0  0  0
   -4.0090   -2.3725    1.6314 C   0  0  0  0  0  0  0  0  0  0  0  0
   -3.0122   -1.9691    1.0659 O   0  0  0  0  0  0  0  0  0  0  0  0
   -5.5262   -2.6657   -0.3450 C   0  0  0  0  0  0  0  0  0  0  0  0
   -6.0085   -3.7396   -1.3256 C   0  0  0  0  0  0  0  0  0  0  0  0
   -4.8433   -4.1846   -2.2095 C   0  0  0  0  0  0  0  0  0  0  0  0
   -4.3036   -3.0068   -2.9469 N   0  0  0  0  0  0  0  0  0  0  0  0
   -3.0528   -2.6522   -2.7982 C   0  0  0  0  0  0  0  0  0  0  0  0
   -2.3821   -2.1619   -3.8087 N   0  0  0  0  0  0  0  0  0  0  0  0
   -2.4742   -2.7827   -1.6344 N   0  0  0  0  0  0  0  0  0  0  0  0
  2  1  1  1  0  0  0
  2  3  1  0  0  0  0
  2  5  1  0  0  0  0
  3  4  1  0  0  0  0
  5  6  1  0  0  0  0
  6  7  1  0  0  0  0
  7  8  1  0  0  0  0
  8  9  1  0  0  0  0
  9 10  1  0  0  0  0
  9 11  1  0  0  0  0
M  END
>  <CHROM.1>
-55.70833518,179.47286781,-82.26818454,-87.60192499,-58.68107564,120.75815584
144.83348153,-170.50237476,112.03753487,-4.22426447,-2.94443036,-0.85613733
2.06131379,0.44904555,1.43828639

>  <Name>
1akx_lig

>  <RI>
0

>  <Rbt.Current_Directory>
/home/afrankz/demos/rdock_decoys_rna/rnas/1akx

>  <Rbt.Executable>
rbdock ($Id: //depot/dev/client3/rdock/2013.1/src/exe/rbdock.cxx#4 $)

>  <Rbt.Library>
libRbt.so (2013.1, Build901 2013/11/27)

>  <Rbt.Parameter_File>
/export/apps/rDock/src/rDock_2013.1_src/data/scripts/dock_solv.prm

>  <Rbt.Receptor>
prm/pocket_docking_6.prm

>  <SCORE>
-30.0485

>  <SCORE.INTER>
-20.7737

>  <SCORE.INTER.CONST>
1

>  <SCORE.INTER.POLAR>
-2.87435

>  <SCORE.INTER.ROT>
8

>  <SCORE.INTER.SOLV>
5.90058

>  <SCORE.INTER.VDW>
-15.1681

>  <SCORE.INTER.norm>
-1.88852

>  <SCORE.INTRA>
-9.27479

>  <SCORE.INTRA.DIHEDRAL>
-12.3337

>  <SCORE.INTRA.DIHEDRAL.0>
21.6454

>  <SCORE.INTRA.POLAR>
-0.990916

>  <SCORE.INTRA.POLAR.0>
0

>  <SCORE.INTRA.REPUL>
0

>  <SCORE.INTRA.REPUL.0>
0

>  <SCORE.INTRA.SOLV>
1.6269

>  <SCORE.INTRA.SOLV.lig_0>
-16.5947

>  <SCORE.INTRA.VDW>
-0.552276

>  <SCORE.INTRA.VDW.0>
-0.691398

>  <SCORE.INTRA.norm>
-0.843163

>  <SCORE.RESTR>
0

>  <SCORE.RESTR.CAVITY>
0

>  <SCORE.RESTR.norm>
0

>  <SCORE.SYSTEM>
0

>  <SCORE.SYSTEM.CONST>
0

>  <SCORE.SYSTEM.DIHEDRAL>
0

>  <SCORE.SYSTEM.SOLV>
0

>  <SCORE.SYSTEM.norm>
0

>  <SCORE.heavy>
11

>  <SCORE.norm>
-2.73168

>  <RMSD>
3.895

>  <RMSD>
3.895

$$$$
1akx_lig
 OpenBabel11021811383D
libRbt.so/2013.1/901 2013/11/27
 11 10  0  0  0  0  0  0  0  0999 V2000
   -5.6674   -3.3945    0.9889 N   0  0  0  0  0  0  0  0  0  0  0  0
   -4.2153   -3.2905    0.6591 C   0  0  2  0  0  0  0  0  0  0  0  0
   -3.5946   -2.1268    1.4421 C   0  0  0  0  0  0  0  0  0  0  0  0
   -2.4028   -1.9016    1.3708 O   0  0  0  0  0  0  0  0  0  0  0  0
   -4.0450   -3.0492   -0.8470 C   0  0  0  0  0  0  0  0  0  0  0  0
   -3.9642   -4.3923   -1.5797 C   0  0  0  0  0  0  0  0  0  0  0  0
   -2.7165   -5.1487   -1.1239 C   0  0  0  0  0  0  0  0  0  0  0  0
   -1.5230   -4.6089   -1.8356 N   0  0  0  0  0  0  0  0  0  0  0  0
   -1.0956   -3.3983   -1.5822 C   0  0  0  0  0  0  0  0  0  0  0  0
   -0.4564   -3.1445   -0.4693 N   0  0  0  0  0  0  0  0  0  0  0  0
   -1.3029   -2.4416   -2.4469 N   0  0  0  0  0  0  0  0  0  0  0  0
  2  1  1  6  0  0  0
  2  3  1  0  0  0  0
  2  5  1  0  0  0  0
  3  4  1  0  0  0  0
  5  6  1  0  0  0  0
  6  7  1  0  0  0  0
  7  8  1  0  0  0  0
  8  9  1  0  0  0  0
  9 10  1  0  0  0  0
  9 11  1  0  0  0  0
M  END
>  <CHROM.1>
54.36274115,176.53857155,-88.87818489,-63.73782178,-79.77668003,68.33888272
74.56405297,-99.96718299,-78.37913913,-2.81228998,-3.32948090,-0.47678788
2.54607491,0.33543749,0.88992293

>  <Name>
1akx_lig

>  <RI>
0

>  <Rbt.Current_Directory>
/home/itssahil/PROJECTS/Mol_Feturizer/New_Systems/rnas/1akx

>  <Rbt.Executable>
rbdock ($Id: //depot/dev/client3/rdock/2013.1/src/exe/rbdock.cxx#4 $)

>  <Rbt.Library>
libRbt.so (2013.1, Build901 2013/11/27)

>  <Rbt.Parameter_File>
/export/apps/rDock/src/rDock_2013.1_src/data/scripts/dock_solv.prm

>  <Rbt.Receptor>
prm/pocket_docking_3.prm

>  <SCORE>
-24.1327

>  <SCORE.INTER>
-15.322

>  <SCORE.INTER.CONST>
1

>  <SCORE.INTER.POLAR>
-3.04741

>  <SCORE.INTER.ROT>
8

>  <SCORE.INTER.SOLV>
5.29315

>  <SCORE.INTER.VDW>
-10.7544

>  <SCORE.INTER.norm>
-1.39291

>  <SCORE.INTRA>
-8.88373

>  <SCORE.INTRA.DIHEDRAL>
-12.5383

>  <SCORE.INTRA.DIHEDRAL.0>
21.6454

>  <SCORE.INTRA.POLAR>
-1

>  <SCORE.INTRA.POLAR.0>
0

>  <SCORE.INTRA.REPUL>
0

>  <SCORE.INTRA.REPUL.0>
0

>  <SCORE.INTRA.SOLV>
2.05613

>  <SCORE.INTRA.SOLV.lig_0>
-16.5947

>  <SCORE.INTRA.VDW>
-0.242636

>  <SCORE.INTRA.VDW.0>
-0.691398

>  <SCORE.INTRA.norm>
-0.807612

>  <SCORE.RESTR>
0.0730008

>  <SCORE.RESTR.CAVITY>
0.0730008

>  <SCORE.RESTR.norm>
0.00663643

>  <SCORE.SYSTEM>
0

>  <SCORE.SYSTEM.CONST>
0

>  <SCORE.SYSTEM.DIHEDRAL>
0

>  <SCORE.SYSTEM.SOLV>
0

>  <SCORE.SYSTEM.norm>
0

>  <SCORE.heavy>
11

>  <SCORE.norm>
-2.19389

>  <RMSD>
3.916

$$$$
1akx_lig
 OpenBabel11021811383D
libRbt.so/2013.1/901 2013/11/27
 11 10  0  0  0  0  0  0  0  0999 V2000
   -6.0664   -3.0651    2.6269 N   0  0  0  0  0  0  0  0  0  0  0  0
   -6.5482   -4.2745    1.8966 C   0  0  2  0  0  0  0  0  0  0  0  0
   -6.5867   -5.4705    2.8563 C   0  0  0  0  0  0  0  0  0  0  0  0
   -5.6048   -5.7724    3.5051 O   0  0  0  0  0  0  0  0  0  0  0  0
   -5.6030   -4.5806    0.7269 C   0  0  0  0  0  0  0  0  0  0  0  0
   -5.5713   -3.3903   -0.2372 C   0  0  0  0  0  0  0  0  0  0  0  0
   -4.6401   -3.7056   -1.4078 C   0  0  0  0  0  0  0  0  0  0  0  0
   -4.6353   -2.5581   -2.3594 N   0  0  0  0  0  0  0  0  0  0  0  0
   -3.6599   -2.4199   -3.2208 C   0  0  0  0  0  0  0  0  0  0  0  0
   -3.8894   -2.5475   -4.5023 N   0  0  0  0  0  0  0  0  0  0  0  0
   -2.4542   -2.1471   -2.7991 N   0  0  0  0  0  0  0  0  0  0  0  0
  2  1  1  1  0  0  0
  2  3  1  0  0  0  0
  2  5  1  0  0  0  0
  3  4  1  0  0  0  0
  5  6  1  0  0  0  0
  6  7  1  0  0  0  0
  7  8  1  0  0  0  0
  8  9  1  0  0  0  0
  9 10  1  0  0  0  0
  9 11  1  0  0  0  0
M  END
>  <CHROM.1>
76.04162730,-52.88147505,-60.13794844,-179.41003158,178.74043264,160.70637281
113.35051078,168.02324317,-1.84451304,-4.99882025,-3.60117405,-0.25750969
-2.96335192,-1.19685786,-2.58298385

>  <Name>
1akx_lig

>  <RI>
0

>  <Rbt.Current_Directory>
/home/itssahil/PROJECTS/Mol_Feturizer/New_Systems/rnas/1akx

>  <Rbt.Executable>
rbdock ($Id: //depot/dev/client3/rdock/2013.1/src/exe/rbdock.cxx#4 $)

>  <Rbt.Library>
libRbt.so (2013.1, Build901 2013/11/27)

>  <Rbt.Parameter_File>
/export/apps/rDock/src/rDock_2013.1_src/data/scripts/dock_solv.prm

>  <Rbt.Receptor>
prm/pocket_docking_5.prm

>  <SCORE>
-34.1255

>  <SCORE.INTER>
-26.4786

>  <SCORE.INTER.CONST>
1

>  <SCORE.INTER.POLAR>
-4.30386

>  <SCORE.INTER.ROT>
8

>  <SCORE.INTER.SOLV>
7.23681

>  <SCORE.INTER.VDW>
-14.6518

>  <SCORE.INTER.norm>
-2.40715

>  <SCORE.INTRA>
-7.64686

>  <SCORE.INTRA.DIHEDRAL>
-16.0602

>  <SCORE.INTRA.DIHEDRAL.0>
21.6454

>  <SCORE.INTRA.POLAR>
0

>  <SCORE.INTRA.POLAR.0>
0

>  <SCORE.INTRA.REPUL>
0

>  <SCORE.INTRA.REPUL.0>
0

>  <SCORE.INTRA.SOLV>
0.302967

>  <SCORE.INTRA.SOLV.lig_0>
-16.5947

>  <SCORE.INTRA.VDW>
0.231735

>  <SCORE.INTRA.VDW.0>
-0.691398

>  <SCORE.INTRA.norm>
-0.695169

>  <SCORE.RESTR>
0

>  <SCORE.RESTR.CAVITY>
0

>  <SCORE.RESTR.norm>
0

>  <SCORE.SYSTEM>
0

>  <SCORE.SYSTEM.CONST>
0

>  <SCORE.SYSTEM.DIHEDRAL>
0

>  <SCORE.SYSTEM.SOLV>
0

>  <SCORE.SYSTEM.norm>
0

>  <SCORE.heavy>
11

>  <SCORE.norm>
-3.10232

>  <RMSD>
3.951

$$$$
1akx_lig
 OpenBabel11021811383D
libRbt.so/2013.1/901 2013/11/27
 11 10  0  0  0  0  0  0  0  0999 V2000
   -6.9437   -3.6502    0.7540 N   0  0  0  0  0  0  0  0  0  0  0  0
   -5.8023   -4.1752    1.5599 C   0  0  2  0  0  0  0  0  0  0  0  0
   -5.8752   -3.6058    2.9823 C   0  0  0  0  0  0  0  0  0  0  0  0
   -5.8047   -2.4077    3.1713 O   0  0  0  0  0  0  0  0  0  0  0  0
   -4.4768   -3.7630    0.9054 C   0  0  0  0  0  0  0  0  0  0  0  0
   -4.3033   -4.5058   -0.4233 C   0  0  0  0  0  0  0  0  0  0  0  0
   -3.0732   -3.9665   -1.1533 C   0  0  0  0  0  0  0  0  0  0  0  0
   -3.4019   -2.6503   -1.7711 N   0  0  0  0  0  0  0  0  0  0  0  0
   -3.6207   -2.5622   -3.0582 C   0  0  0  0  0  0  0  0  0  0  0  0
   -4.7718   -2.9316   -3.5579 N   0  0  0  0  0  0  0  0  0  0  0  0
   -2.6879   -2.0976   -3.8457 N   0  0  0  0  0  0  0  0  0  0  0  0
  2  1  1  6  0  0  0
  2  3  1  0  0  0  0
  2  5  1  0  0  0  0
  3  4  1  0  0  0  0
  5  6  1  0  0  0  0
  6  7  1  0  0  0  0
  7  8  1  0  0  0  0
  8  9  1  0  0  0  0
  9 10  1  0  0  0  0
  9 11  1  0  0  0  0
M  END
>  <CHROM.1>
57.89443091,-61.47042582,-68.54540091,173.01863400,-76.69058089,-103.60415614
78.32903540,12.51179858,18.14780834,-4.64822320,-3.26516327,-0.42977653,1.99638566
0.07125847,1.67617069

>  <Name>
1akx_lig

>  <RI>
0

>  <Rbt.Current_Directory>
/home/itssahil/PROJECTS/Mol_Feturizer/New_Systems/rnas/1akx

>  <Rbt.Executable>
rbdock ($Id: //depot/dev/client3/rdock/2013.1/src/exe/rbdock.cxx#4 $)

>  <Rbt.Library>
libRbt.so (2013.1, Build901 2013/11/27)

>  <Rbt.Parameter_File>
/export/apps/rDock/src/rDock_2013.1_src/data/scripts/dock_solv.prm

>  <Rbt.Receptor>
prm/pocket_docking_6.prm

>  <SCORE>
-31.1268

>  <SCORE.INTER>
-23.2986

>  <SCORE.INTER.CONST>
1

>  <SCORE.INTER.POLAR>
-3.73775

>  <SCORE.INTER.ROT>
8

>  <SCORE.INTER.SOLV>
7.04907

>  <SCORE.INTER.VDW>
-14.3563

>  <SCORE.INTER.norm>
-2.11806

>  <SCORE.INTRA>
-7.82819

>  <SCORE.INTRA.DIHEDRAL>
-15.3408

>  <SCORE.INTRA.DIHEDRAL.0>
21.6454

>  <SCORE.INTRA.POLAR>
0

>  <SCORE.INTRA.POLAR.0>
0

>  <SCORE.INTRA.REPUL>
0

>  <SCORE.INTRA.REPUL.0>
0

>  <SCORE.INTRA.SOLV>
0.601781

>  <SCORE.INTRA.SOLV.lig_0>
-16.5947

>  <SCORE.INTRA.VDW>
-0.458688

>  <SCORE.INTRA.VDW.0>
-0.691398

>  <SCORE.INTRA.norm>
-0.711654

>  <SCORE.RESTR>
0

>  <SCORE.RESTR.CAVITY>
0

>  <SCORE.RESTR.norm>
0

>  <SCORE.SYSTEM>
0

>  <SCORE.SYSTEM.CONST>
0

>  <SCORE.SYSTEM.DIHEDRAL>
0

>  <SCORE.SYSTEM.SOLV>
0

>  <SCORE.SYSTEM.norm>
0

>  <SCORE.heavy>
11

>  <SCORE.norm>
-2.82971

>  <RMSD>
3.988

$$$$
1akx_lig
 OpenBabel11021811383D
libRbt.so/2013.1/901 2013/11/27
 11 10  0  0  0  0  0  0  0  0999 V2000
   -7.1087   -3.6402   -0.0474 N   0  0  0  0  0  0  0  0  0  0  0  0
   -5.8518   -4.3138   -0.4885 C   0  0  2  0  0  0  0  0  0  0  0  0
   -6.0702   -5.8316   -0.5252 C   0  0  0  0  0  0  0  0  0  0  0  0
   -5.2238   -6.5653   -0.9959 O   0  0  0  0  0  0  0  0  0  0  0  0
   -4.7171   -3.9782    0.4888 C   0  0  0  0  0  0  0  0  0  0  0  0
   -3.3947   -4.5416   -0.0413 C   0  0  0  0  0  0  0  0  0  0  0  0
   -2.2623   -3.5616    0.2657 C   0  0  0  0  0  0  0  0  0  0  0  0
   -2.4486   -2.3218   -0.5407 N   0  0  0  0  0  0  0  0  0  0  0  0
   -2.1731   -2.3196   -1.8200 C   0  0  0  0  0  0  0  0  0  0  0  0
   -3.1351   -2.4136   -2.7015 N   0  0  0  0  0  0  0  0  0  0  0  0
   -0.9333   -2.2166   -2.2176 N   0  0  0  0  0  0  0  0  0  0  0  0
  2  1  1  1  0  0  0
  2  3  1  0  0  0  0
  2  5  1  0  0  0  0
  3  4  1  0  0  0  0
  5  6  1  0  0  0  0
  6  7  1  0  0  0  0
  7  8  1  0  0  0  0
  8  9  1  0  0  0  0
  9 10  1  0  0  0  0
  9 11  1  0  0  0  0
M  END
>  <CHROM.1>
48.19841165,171.93537839,-173.92020267,142.40252429,-67.69229092,-75.31089895
101.02587459,-12.86530445,5.11426446,-3.96174275,-3.77480773,-0.80954578
2.53666448,-0.13542447,2.86462785

>  <Name>
1akx_lig

>  <RI>
0

>  <Rbt.Current_Directory>
/home/itssahil/PROJECTS/Mol_Feturizer/New_Systems/rnas/1akx

>  <Rbt.Executable>
rbdock ($Id: //depot/dev/client3/rdock/2013.1/src/exe/rbdock.cxx#4 $)

>  <Rbt.Library>
libRbt.so (2013.1, Build901 2013/11/27)

>  <Rbt.Parameter_File>
/export/apps/rDock/src/rDock_2013.1_src/data/scripts/dock_solv.prm

>  <Rbt.Receptor>
prm/pocket_docking_5.prm

>  <SCORE>
-23.7517

>  <SCORE.INTER>
-18.9248

>  <SCORE.INTER.CONST>
1

>  <SCORE.INTER.POLAR>
-3.3591

>  <SCORE.INTER.ROT>
8

>  <SCORE.INTER.SOLV>
6.95182

>  <SCORE.INTER.VDW>
-12.6701

>  <SCORE.INTER.norm>
-1.72044

>  <SCORE.INTRA>
-4.82691

>  <SCORE.INTRA.DIHEDRAL>
-11.6641

>  <SCORE.INTRA.DIHEDRAL.0>
21.6454

>  <SCORE.INTRA.POLAR>
0

>  <SCORE.INTRA.POLAR.0>
0

>  <SCORE.INTRA.REPUL>
0

>  <SCORE.INTRA.REPUL.0>
0

>  <SCORE.INTRA.SOLV>
0.81072

>  <SCORE.INTRA.SOLV.lig_0>
-16.5947

>  <SCORE.INTRA.VDW>
0.599801

>  <SCORE.INTRA.VDW.0>
-0.691398

>  <SCORE.INTRA.norm>
-0.43881

>  <SCORE.RESTR>
0

>  <SCORE.RESTR.CAVITY>
0

>  <SCORE.RESTR.norm>
0

>  <SCORE.SYSTEM>
0

>  <SCORE.SYSTEM.CONST>
0

>  <SCORE.SYSTEM.DIHEDRAL>
0

>  <SCORE.SYSTEM.SOLV>
0

>  <SCORE.SYSTEM.norm>
0

>  <SCORE.heavy>
11

>  <SCORE.norm>
-2.15925

>  <RMSD>
3.993

$$$$
1akx_lig
 OpenBabel11021811383D
libRbt.so/2013.1/901 2013/11/27
 11 10  0  0  0  0  0  0  0  0999 V2000
   -5.9756   -3.2934   -1.3329 N   0  0  0  0  0  0  0  0  0  0  0  0
   -4.7947   -4.1753   -1.5694 C   0  0  2  0  0  0  0  0  0  0  0  0
   -5.2454   -5.6413   -1.5845 C   0  0  0  0  0  0  0  0  0  0  0  0
   -4.4414   -6.5317   -1.7768 O   0  0  0  0  0  0  0  0  0  0  0  0
   -3.7620   -3.9634   -0.4540 C   0  0  0  0  0  0  0  0  0  0  0  0
   -3.1115   -2.5847   -0.6068 C   0  0  0  0  0  0  0  0  0  0  0  0
   -1.7884   -2.7248   -1.3597 C   0  0  0  0  0  0  0  0  0  0  0  0
   -2.0123   -3.4989   -2.6139 N   0  0  0  0  0  0  0  0  0  0  0  0
   -2.4118   -2.8909   -3.7017 C   0  0  0  0  0  0  0  0  0  0  0  0
   -1.9252   -3.2356   -4.8660 N   0  0  0  0  0  0  0  0  0  0  0  0
   -3.3046   -1.9407   -3.6245 N   0  0  0  0  0  0  0  0  0  0  0  0
  2  1  1  1  0  0  0
  2  3  1  0  0  0  0
  2  5  1  0  0  0  0
  3  4  1  0  0  0  0
  5  6  1  0  0  0  0
  6  7  1  0  0  0  0
  7  8  1  0  0  0  0
  8  9  1  0  0  0  0
  9 10  1  0  0  0  0
  9 11  1  0  0  0  0
M  END
>  <CHROM.1>
67.96768686,179.22358507,-70.69722968,-96.40535578,51.12303370,85.44296037
140.52243325,169.13902452,157.99993532,-3.55488813,-3.68074421,-2.16909396
-3.12622289,-0.84824655,-2.37659461

>  <Name>
1akx_lig

>  <RI>
0

>  <Rbt.Current_Directory>
/home/itssahil/PROJECTS/Mol_Feturizer/New_Systems/rnas/1akx

>  <Rbt.Executable>
rbdock ($Id: //depot/dev/client3/rdock/2013.1/src/exe/rbdock.cxx#4 $)

>  <Rbt.Library>
libRbt.so (2013.1, Build901 2013/11/27)

>  <Rbt.Parameter_File>
/export/apps/rDock/src/rDock_2013.1_src/data/scripts/dock_solv.prm

>  <Rbt.Receptor>
prm/pocket_docking_6.prm

>  <SCORE>
-27.8485

>  <SCORE.INTER>
-23.053

>  <SCORE.INTER.CONST>
1

>  <SCORE.INTER.POLAR>
-2.7931

>  <SCORE.INTER.ROT>
8

>  <SCORE.INTER.SOLV>
8.49671

>  <SCORE.INTER.VDW>
-17.8239

>  <SCORE.INTER.norm>
-2.09572

>  <SCORE.INTRA>
-4.79551

>  <SCORE.INTRA.DIHEDRAL>
-11.8748

>  <SCORE.INTRA.DIHEDRAL.0>
21.6454

>  <SCORE.INTRA.POLAR>
0

>  <SCORE.INTRA.POLAR.0>
0

>  <SCORE.INTRA.REPUL>
0

>  <SCORE.INTRA.REPUL.0>
0

>  <SCORE.INTRA.SOLV>
1.65465

>  <SCORE.INTRA.SOLV.lig_0>
-16.5947

>  <SCORE.INTRA.VDW>
0.314559

>  <SCORE.INTRA.VDW.0>
-0.691398

>  <SCORE.INTRA.norm>
-0.435956

>  <SCORE.RESTR>
0

>  <SCORE.RESTR.CAVITY>
0

>  <SCORE.RESTR.norm>
0

>  <SCORE.SYSTEM>
0

>  <SCORE.SYSTEM.CONST>
0

>  <SCORE.SYSTEM.DIHEDRAL>
0

>  <SCORE.SYSTEM.SOLV>
0

>  <SCORE.SYSTEM.norm>
0

>  <SCORE.heavy>
11

>  <SCORE.norm>
-2.53168

>  <RMSD>
4.006

$$$$
1akx_lig
 OpenBabel11021811383D
libRbt.so/2013.1/901 2013/11/27
 11 10  0  0  0  0  0  0  0  0999 V2000
   -5.6819   -4.6299    1.6780 N   0  0  0  0  0  0  0  0  0  0  0  0
   -6.5192   -5.0258    0.5074 C   0  0  2  0  0  0  0  0  0  0  0  0
   -5.7247   -5.9830   -0.3900 C   0  0  0  0  0  0  0  0  0  0  0  0
   -5.3920   -7.0779    0.0184 O   0  0  0  0  0  0  0  0  0  0  0  0
   -6.9125   -3.7755   -0.2910 C   0  0  0  0  0  0  0  0  0  0  0  0
   -5.6575   -2.9687   -0.6394 C   0  0  0  0  0  0  0  0  0  0  0  0
   -5.1149   -3.4271   -1.9931 C   0  0  0  0  0  0  0  0  0  0  0  0
   -3.9266   -2.6030   -2.3548 N   0  0  0  0  0  0  0  0  0  0  0  0
   -3.5624   -2.4845   -3.6061 C   0  0  0  0  0  0  0  0  0  0  0  0
   -2.3971   -2.9311   -3.9985 N   0  0  0  0  0  0  0  0  0  0  0  0
   -4.3686   -1.9238   -4.4673 N   0  0  0  0  0  0  0  0  0  0  0  0
  2  1  1  1  0  0  0
  2  3  1  0  0  0  0
  2  5  1  0  0  0  0
  3  4  1  0  0  0  0
  5  6  1  0  0  0  0
  6  7  1  0  0  0  0
  7  8  1  0  0  0  0
  8  9  1  0  0  0  0
  9 10  1  0  0  0  0
  9 11  1  0  0  0  0
M  END
>  <CHROM.1>
54.47036878,64.66574551,52.97017950,90.81331279,177.72925352,-157.19098179
-117.13385155,18.91027897,92.10597373,-4.98428447,-3.89871464,-1.40773528
2.24081098,-0.83329134,2.70015269

>  <Name>
1akx_lig

>  <RI>
0

>  <Rbt.Current_Directory>
/home/itssahil/PROJECTS/Mol_Feturizer/New_Systems/rnas/1akx

>  <Rbt.Executable>
rbdock ($Id: //depot/dev/client3/rdock/2013.1/src/exe/rbdock.cxx#4 $)

>  <Rbt.Library>
libRbt.so (2013.1, Build901 2013/11/27)

>  <Rbt.Parameter_File>
/export/apps/rDock/src/rDock_2013.1_src/data/scripts/dock_solv.prm

>  <Rbt.Receptor>
prm/pocket_docking_5.prm

>  <SCORE>
-25.648

>  <SCORE.INTER>
-21.0992

>  <SCORE.INTER.CONST>
1

>  <SCORE.INTER.POLAR>
-2.70866

>  <SCORE.INTER.ROT>
8

>  <SCORE.INTER.SOLV>
7.38239

>  <SCORE.INTER.VDW>
-16.4314

>  <SCORE.INTER.norm>
-1.91811

>  <SCORE.INTRA>
-4.54883

>  <SCORE.INTRA.DIHEDRAL>
-13.2864

>  <SCORE.INTRA.DIHEDRAL.0>
21.6454

>  <SCORE.INTRA.POLAR>
0

>  <SCORE.INTRA.POLAR.0>
0

>  <SCORE.INTRA.REPUL>
0

>  <SCORE.INTRA.REPUL.0>
0

>  <SCORE.INTRA.SOLV>
0.419628

>  <SCORE.INTRA.SOLV.lig_0>
-16.5947

>  <SCORE.INTRA.VDW>
1.88455

>  <SCORE.INTRA.VDW.0>
-0.691398

>  <SCORE.INTRA.norm>
-0.41353

>  <SCORE.RESTR>
0

>  <SCORE.RESTR.CAVITY>
0

>  <SCORE.RESTR.norm>
0

>  <SCORE.SYSTEM>
0

>  <SCORE.SYSTEM.CONST>
0

>  <SCORE.SYSTEM.DIHEDRAL>
0

>  <SCORE.SYSTEM.SOLV>
0

>  <SCORE.SYSTEM.norm>
0

>  <SCORE.heavy>
11

>  <SCORE.norm>
-2.33164

>  <RMSD>
4.022

$$$$
1akx_lig
 OpenBabel11021811383D
libRbt.so/2013.1/901 2013/11/27
 11 10  0  0  0  0  0  0  0  0999 V2000
   -6.4643   -2.9528   -0.3030 N   0  0  0  0  0  0  0  0  0  0  0  0
   -5.2660   -3.7342    0.1234 C   0  0  2  0  0  0  0  0  0  0  0  0
   -5.4314   -4.1680    1.5853 C   0  0  0  0  0  0  0  0  0  0  0  0
   -5.6447   -3.3443    2.4527 O   0  0  0  0  0  0  0  0  0  0  0  0
   -4.0079   -2.8669   -0.0192 C   0  0  0  0  0  0  0  0  0  0  0  0
   -2.7842   -3.7629   -0.2360 C   0  0  0  0  0  0  0  0  0  0  0  0
   -2.9472   -4.5435   -1.5402 C   0  0  0  0  0  0  0  0  0  0  0  0
   -3.1210   -3.5876   -2.6707 N   0  0  0  0  0  0  0  0  0  0  0  0
   -2.0780   -3.0195   -3.2202 C   0  0  0  0  0  0  0  0  0  0  0  0
   -1.1770   -2.4338   -2.4742 N   0  0  0  0  0  0  0  0  0  0  0  0
   -1.9334   -3.0433   -4.5181 N   0  0  0  0  0  0  0  0  0  0  0  0
  2  1  1  1  0  0  0
  2  3  1  0  0  0  0
  2  5  1  0  0  0  0
  3  4  1  0  0  0  0
  5  6  1  0  0  0  0
  6  7  1  0  0  0  0
  7  8  1  0  0  0  0
  8  9  1  0  0  0  0
  9 10  1  0  0  0  0
  9 11  1  0  0  0  0
M  END
>  <CHROM.1>
62.97744536,-55.39717850,-153.50998163,62.51971919,57.94775751,81.83719202
-50.00475863,143.46382387,75.26527028,-3.73809770,-3.37373721,-1.00091710
2.24654207,-0.04108881,1.69731465

>  <Name>
1akx_lig

>  <RI>
0

>  <Rbt.Current_Directory>
/home/itssahil/PROJECTS/Mol_Feturizer/New_Systems/rnas/1akx

>  <Rbt.Executable>
rbdock ($Id: //depot/dev/client3/rdock/2013.1/src/exe/rbdock.cxx#4 $)

>  <Rbt.Library>
libRbt.so (2013.1, Build901 2013/11/27)

>  <Rbt.Parameter_File>
/export/apps/rDock/src/rDock_2013.1_src/data/scripts/dock_solv.prm

>  <Rbt.Receptor>
prm/pocket_docking_6.prm

>  <SCORE>
-26.9194

>  <SCORE.INTER>
-21.1964

>  <SCORE.INTER.CONST>
1

>  <SCORE.INTER.POLAR>
-3.05598

>  <SCORE.INTER.ROT>
8

>  <SCORE.INTER.SOLV>
7.67707

>  <SCORE.INTER.VDW>
-15.4367

>  <SCORE.INTER.norm>
-1.92694

>  <SCORE.INTRA>
-5.723

>  <SCORE.INTRA.DIHEDRAL>
-14.3063

>  <SCORE.INTRA.DIHEDRAL.0>
21.6454

>  <SCORE.INTRA.POLAR>
0

>  <SCORE.INTRA.POLAR.0>
0

>  <SCORE.INTRA.REPUL>
0

>  <SCORE.INTRA.REPUL.0>
0

>  <SCORE.INTRA.SOLV>
1.15127

>  <SCORE.INTRA.SOLV.lig_0>
-16.5947

>  <SCORE.INTRA.VDW>
0.854524

>  <SCORE.INTRA.VDW.0>
-0.691398

>  <SCORE.INTRA.norm>
-0.520273

>  <SCORE.RESTR>
0

>  <SCORE.RESTR.CAVITY>
0

>  <SCORE.RESTR.norm>
0

>  <SCORE.SYSTEM>
0

>  <SCORE.SYSTEM.CONST>
0

>  <SCORE.SYSTEM.DIHEDRAL>
0

>  <SCORE.SYSTEM.SOLV>
0

>  <SCORE.SYSTEM.norm>
0

>  <SCORE.heavy>
11

>  <SCORE.norm>
-2.44722

>  <RMSD>
4.030

$$$$
1akx_lig
 OpenBabel11021811383D
libRbt.so/2013.1/901 2013/11/27
 11 10  0  0  0  0  0  0  0  0999 V2000
   -6.1344   -4.8600    1.4822 N   0  0  0  0  0  0  0  0  0  0  0  0
   -5.2964   -3.7107    1.0295 C   0  0  2  0  0  0  0  0  0  0  0  0
   -5.0990   -2.7313    2.1934 C   0  0  0  0  0  0  0  0  0  0  0  0
   -4.4685   -1.7049    2.0355 O   0  0  0  0  0  0  0  0  0  0  0  0
   -5.9910   -2.9945   -0.1366 C   0  0  0  0  0  0  0  0  0  0  0  0
   -6.0146   -3.9098   -1.3650 C   0  0  0  0  0  0  0  0  0  0  0  0
   -4.5914   -4.0958   -1.8910 C   0  0  0  0  0  0  0  0  0  0  0  0
   -4.0338   -2.7718   -2.2888 N   0  0  0  0  0  0  0  0  0  0  0  0
   -3.3327   -2.6547   -3.3875 C   0  0  0  0  0  0  0  0  0  0  0  0
   -2.0408   -2.8599   -3.3701 N   0  0  0  0  0  0  0  0  0  0  0  0
   -3.9267   -2.3378   -4.5068 N   0  0  0  0  0  0  0  0  0  0  0  0
  2  1  1  1  0  0  0
  2  3  1  0  0  0  0
  2  5  1  0  0  0  0
  3  4  1  0  0  0  0
  5  6  1  0  0  0  0
  6  7  1  0  0  0  0
  7  8  1  0  0  0  0
  8  9  1  0  0  0  0
  9 10  1  0  0  0  0
  9 11  1  0  0  0  0
M  END
>  <CHROM.1>
-58.53117476,-178.38243457,-67.54090500,-68.20206453,-60.82609349,-138.42504790
-87.88972354,61.58765944,133.23614218,-4.61693122,-3.14578617,-0.92613823
2.10485662,0.72733889,1.31678512

>  <Name>
1akx_lig

>  <RI>
0

>  <Rbt.Current_Directory>
/home/itssahil/PROJECTS/Mol_Feturizer/New_Systems/rnas/1akx

>  <Rbt.Executable>
rbdock ($Id: //depot/dev/client3/rdock/2013.1/src/exe/rbdock.cxx#4 $)

>  <Rbt.Library>
libRbt.so (2013.1, Build901 2013/11/27)

>  <Rbt.Parameter_File>
/export/apps/rDock/src/rDock_2013.1_src/data/scripts/dock_solv.prm

>  <Rbt.Receptor>
prm/pocket_docking_8.prm

>  <SCORE>
-31.4756

>  <SCORE.INTER>
-23.9993

>  <SCORE.INTER.CONST>
1

>  <SCORE.INTER.POLAR>
-3.44557

>  <SCORE.INTER.ROT>
8

>  <SCORE.INTER.SOLV>
6.7337

>  <SCORE.INTER.VDW>
-15.6922

>  <SCORE.INTER.norm>
-2.18176

>  <SCORE.INTRA>
-7.4763

>  <SCORE.INTRA.DIHEDRAL>
-16.3205

>  <SCORE.INTRA.DIHEDRAL.0>
21.6454

>  <SCORE.INTRA.POLAR>
0

>  <SCORE.INTRA.POLAR.0>
0

>  <SCORE.INTRA.REPUL>
0

>  <SCORE.INTRA.REPUL.0>
0

>  <SCORE.INTRA.SOLV>
0.406469

>  <SCORE.INTRA.SOLV.lig_0>
-16.5947

>  <SCORE.INTRA.VDW>
0.480706

>  <SCORE.INTRA.VDW.0>
-0.691398

>  <SCORE.INTRA.norm>
-0.679664

>  <SCORE.RESTR>
0

>  <SCORE.RESTR.CAVITY>
0

>  <SCORE.RESTR.norm>
0

>  <SCORE.SYSTEM>
0

>  <SCORE.SYSTEM.CONST>
0

>  <SCORE.SYSTEM.DIHEDRAL>
0

>  <SCORE.SYSTEM.SOLV>
0

>  <SCORE.SYSTEM.norm>
0

>  <SCORE.heavy>
11

>  <SCORE.norm>
-2.86142

>  <RMSD>
4.063

$$$$
1akx_lig
 OpenBabel11021811383D
libRbt.so/2013.1/901 2013/11/27
 11 10  0  0  0  0  0  0  0  0999 V2000
   -6.2837   -2.7800   -0.9057 N   0  0  0  0  0  0  0  0  0  0  0  0
   -5.2923   -3.6611   -0.2208 C   0  0  2  0  0  0  0  0  0  0  0  0
   -5.9496   -4.3205    0.9981 C   0  0  0  0  0  0  0  0  0  0  0  0
   -6.9226   -5.0355    0.8627 O   0  0  0  0  0  0  0  0  0  0  0  0
   -4.0865   -2.8260    0.2307 C   0  0  0  0  0  0  0  0  0  0  0  0
   -2.8280   -3.6997    0.2429 C   0  0  0  0  0  0  0  0  0  0  0  0
   -2.4544   -4.0774   -1.1906 C   0  0  0  0  0  0  0  0  0  0  0  0
   -2.3636   -2.8422   -2.0201 N   0  0  0  0  0  0  0  0  0  0  0  0
   -2.9703   -2.7793   -3.1779 C   0  0  0  0  0  0  0  0  0  0  0  0
   -2.2968   -2.9558   -4.2854 N   0  0  0  0  0  0  0  0  0  0  0  0
   -4.2545   -2.5457   -3.2268 N   0  0  0  0  0  0  0  0  0  0  0  0
  2  1  1  1  0  0  0
  2  3  1  0  0  0  0
  2  5  1  0  0  0  0
  3  4  1  0  0  0  0
  5  6  1  0  0  0  0
  6  7  1  0  0  0  0
  7  8  1  0  0  0  0
  8  9  1  0  0  0  0
  9 10  1  0  0  0  0
  9 11  1  0  0  0  0
M  END
>  <CHROM.1>
-61.86788507,60.08474839,-150.60152619,68.09132331,52.76953351,-131.24126280
-100.56567852,-148.62856933,-90.38614624,-4.19960334,-3.39302038,-1.19373304
2.28419333,-0.02360550,1.91447594

>  <Name>
1akx_lig

>  <RI>
0

>  <Rbt.Current_Directory>
/home/itssahil/PROJECTS/Mol_Feturizer/New_Systems/rnas/1akx

>  <Rbt.Executable>
rbdock ($Id: //depot/dev/client3/rdock/2013.1/src/exe/rbdock.cxx#4 $)

>  <Rbt.Library>
libRbt.so (2013.1, Build901 2013/11/27)

>  <Rbt.Parameter_File>
/export/apps/rDock/src/rDock_2013.1_src/data/scripts/dock_solv.prm

>  <Rbt.Receptor>
prm/pocket_docking_6.prm

>  <SCORE>
-28.9203

>  <SCORE.INTER>
-19.6527

>  <SCORE.INTER.CONST>
1

>  <SCORE.INTER.POLAR>
-2.30012

>  <SCORE.INTER.ROT>
8

>  <SCORE.INTER.SOLV>
6.97651

>  <SCORE.INTER.VDW>
-16.6935

>  <SCORE.INTER.norm>
-1.7866

>  <SCORE.INTRA>
-9.26765

>  <SCORE.INTRA.DIHEDRAL>
-13.5223

>  <SCORE.INTRA.DIHEDRAL.0>
21.6454

>  <SCORE.INTRA.POLAR>
-0.85872

>  <SCORE.INTRA.POLAR.0>
0

>  <SCORE.INTRA.REPUL>
0

>  <SCORE.INTRA.REPUL.0>
0

>  <SCORE.INTRA.SOLV>
1.77563

>  <SCORE.INTRA.SOLV.lig_0>
-16.5947

>  <SCORE.INTRA.VDW>
-0.474674

>  <SCORE.INTRA.VDW.0>
-0.691398

>  <SCORE.INTRA.norm>
-0.842513

>  <SCORE.RESTR>
0

>  <SCORE.RESTR.CAVITY>
0

>  <SCORE.RESTR.norm>
0

>  <SCORE.SYSTEM>
0

>  <SCORE.SYSTEM.CONST>
0

>  <SCORE.SYSTEM.DIHEDRAL>
0

>  <SCORE.SYSTEM.SOLV>
0

>  <SCORE.SYSTEM.norm>
0

>  <SCORE.heavy>
11

>  <SCORE.norm>
-2.62912

>  <RMSD>
4.069

$$$$
1akx_lig
 OpenBabel11021811383D
libRbt.so/2013.1/901 2013/11/27
 11 10  0  0  0  0  0  0  0  0999 V2000
   -5.2188   -2.4217    1.4339 N   0  0  0  0  0  0  0  0  0  0  0  0
   -5.9613   -3.6994    1.2233 C   0  0  2  0  0  0  0  0  0  0  0  0
   -5.6640   -4.6609    2.3808 C   0  0  0  0  0  0  0  0  0  0  0  0
   -6.2799   -5.7025    2.4909 O   0  0  0  0  0  0  0  0  0  0  0  0
   -5.5248   -4.3363   -0.1030 C   0  0  0  0  0  0  0  0  0  0  0  0
   -6.1772   -3.5926   -1.2730 C   0  0  0  0  0  0  0  0  0  0  0  0
   -5.3832   -3.8565   -2.5524 C   0  0  0  0  0  0  0  0  0  0  0  0
   -4.1616   -3.0022   -2.5618 N   0  0  0  0  0  0  0  0  0  0  0  0
   -3.6661   -2.5726   -3.6942 C   0  0  0  0  0  0  0  0  0  0  0  0
   -4.4213   -1.9174   -4.5379 N   0  0  0  0  0  0  0  0  0  0  0  0
   -2.4109   -2.7938   -3.9798 N   0  0  0  0  0  0  0  0  0  0  0  0
  2  1  1  1  0  0  0
  2  3  1  0  0  0  0
  2  5  1  0  0  0  0
  3  4  1  0  0  0  0
  5  6  1  0  0  0  0
  6  7  1  0  0  0  0
  7  8  1  0  0  0  0
  8  9  1  0  0  0  0
  9 10  1  0  0  0  0
  9 11  1  0  0  0  0
M  END
>  <CHROM.1>
147.05025223,171.70252496,-76.35360740,159.28870341,-78.52657355,-148.80802887
54.25311560,108.34083845,-174.35312752,-4.95821202,-3.47584042,-1.01340222
-2.11474190,-0.86232247,-1.68247088

>  <Name>
1akx_lig

>  <RI>
0

>  <Rbt.Current_Directory>
/home/itssahil/PROJECTS/Mol_Feturizer/New_Systems/rnas/1akx

>  <Rbt.Executable>
rbdock ($Id: //depot/dev/client3/rdock/2013.1/src/exe/rbdock.cxx#4 $)

>  <Rbt.Library>
libRbt.so (2013.1, Build901 2013/11/27)

>  <Rbt.Parameter_File>
/export/apps/rDock/src/rDock_2013.1_src/data/scripts/dock_solv.prm

>  <Rbt.Receptor>
prm/pocket_docking_8.prm

>  <SCORE>
-27.99

>  <SCORE.INTER>
-23.3222

>  <SCORE.INTER.CONST>
1

>  <SCORE.INTER.POLAR>
-3.34818

>  <SCORE.INTER.ROT>
8

>  <SCORE.INTER.SOLV>
7.79936

>  <SCORE.INTER.VDW>
-15.9206

>  <SCORE.INTER.norm>
-2.1202

>  <SCORE.INTRA>
-4.66781

>  <SCORE.INTRA.DIHEDRAL>
-10.676

>  <SCORE.INTRA.DIHEDRAL.0>
21.6454

>  <SCORE.INTRA.POLAR>
0

>  <SCORE.INTRA.POLAR.0>
0

>  <SCORE.INTRA.REPUL>
0.00894245

>  <SCORE.INTRA.REPUL.0>
0

>  <SCORE.INTRA.SOLV>
0.333825

>  <SCORE.INTRA.SOLV.lig_0>
-16.5947

>  <SCORE.INTRA.VDW>
0.458576

>  <SCORE.INTRA.VDW.0>
-0.691398

>  <SCORE.INTRA.norm>
-0.424346

>  <SCORE.RESTR>
0

>  <SCORE.RESTR.CAVITY>
0

>  <SCORE.RESTR.norm>
0

>  <SCORE.SYSTEM>
0

>  <SCORE.SYSTEM.CONST>
0

>  <SCORE.SYSTEM.DIHEDRAL>
0

>  <SCORE.SYSTEM.SOLV>
0

>  <SCORE.SYSTEM.norm>
0

>  <SCORE.heavy>
11

>  <SCORE.norm>
-2.54454

>  <RMSD>
4.070

$$$$
1akx_lig
 OpenBabel11021811383D
libRbt.so/2013.1/901 2013/11/27
 11 10  0  0  0  0  0  0  0  0999 V2000
   -6.6411   -3.4688   -0.3688 N   0  0  0  0  0  0  0  0  0  0  0  0
   -5.2644   -3.1363   -0.8404 C   0  0  2  0  0  0  0  0  0  0  0  0
   -4.8563   -4.1084   -1.9545 C   0  0  0  0  0  0  0  0  0  0  0  0
   -4.7937   -5.3024   -1.7388 O   0  0  0  0  0  0  0  0  0  0  0  0
   -4.2780   -3.2479    0.3300 C   0  0  0  0  0  0  0  0  0  0  0  0
   -3.0253   -2.4179    0.0311 C   0  0  0  0  0  0  0  0  0  0  0  0
   -2.0660   -3.2346   -0.8348 C   0  0  0  0  0  0  0  0  0  0  0  0
   -1.5827   -2.3932   -1.9665 N   0  0  0  0  0  0  0  0  0  0  0  0
   -1.9827   -2.6382   -3.1881 C   0  0  0  0  0  0  0  0  0  0  0  0
   -1.4715   -3.6367   -3.8613 N   0  0  0  0  0  0  0  0  0  0  0  0
   -2.9004   -1.8864   -3.7346 N   0  0  0  0  0  0  0  0  0  0  0  0
  2  1  1  1  0  0  0
  2  3  1  0  0  0  0
  2  5  1  0  0  0  0
  3  4  1  0  0  0  0
  5  6  1  0  0  0  0
  6  7  1  0  0  0  0
  7  8  1  0  0  0  0
  8  9  1  0  0  0  0
  9 10  1  0  0  0  0
  9 11  1  0  0  0  0
M  END
>  <CHROM.1>
-50.09735889,-60.75251079,-158.15798182,-83.36003818,133.14521370,-109.33363561
-77.03629603,47.88777903,-53.90209379,-3.56370671,-3.24012339,-1.67826600
2.65650422,0.42875354,1.26375172

>  <Name>
1akx_lig

>  <RI>
0

>  <Rbt.Current_Directory>
/home/itssahil/PROJECTS/Mol_Feturizer/New_Systems/rnas/1akx

>  <Rbt.Executable>
rbdock ($Id: //depot/dev/client3/rdock/2013.1/src/exe/rbdock.cxx#4 $)

>  <Rbt.Library>
libRbt.so (2013.1, Build901 2013/11/27)

>  <Rbt.Parameter_File>
/export/apps/rDock/src/rDock_2013.1_src/data/scripts/dock_solv.prm

>  <Rbt.Receptor>
prm/pocket_docking_5.prm

>  <SCORE>
-30.1287

>  <SCORE.INTER>
-26.3626

>  <SCORE.INTER.CONST>
1

>  <SCORE.INTER.POLAR>
-4.4471

>  <SCORE.INTER.ROT>
8

>  <SCORE.INTER.SOLV>
8.99706

>  <SCORE.INTER.VDW>
-14.6838

>  <SCORE.INTER.norm>
-2.3966

>  <SCORE.INTRA>
-3.76612

>  <SCORE.INTRA.DIHEDRAL>
-7.97913

>  <SCORE.INTRA.DIHEDRAL.0>
21.6454

>  <SCORE.INTRA.POLAR>
0

>  <SCORE.INTRA.POLAR.0>
0

>  <SCORE.INTRA.REPUL>
0

>  <SCORE.INTRA.REPUL.0>
0

>  <SCORE.INTRA.SOLV>
1.42244

>  <SCORE.INTRA.SOLV.lig_0>
-16.5947

>  <SCORE.INTRA.VDW>
-0.487772

>  <SCORE.INTRA.VDW.0>
-0.691398

>  <SCORE.INTRA.norm>
-0.342374

>  <SCORE.RESTR>
0

>  <SCORE.RESTR.CAVITY>
0

>  <SCORE.RESTR.norm>
0

>  <SCORE.SYSTEM>
0

>  <SCORE.SYSTEM.CONST>
0

>  <SCORE.SYSTEM.DIHEDRAL>
0

>  <SCORE.SYSTEM.SOLV>
0

>  <SCORE.SYSTEM.norm>
0

>  <SCORE.heavy>
11

>  <SCORE.norm>
-2.73898

>  <RMSD>
4.087

$$$$
1akx_lig
 OpenBabel11021811383D
libRbt.so/2013.1/901 2013/11/27
 11 10  0  0  0  0  0  0  0  0999 V2000
   -6.5245   -2.9635   -0.6803 N   0  0  0  0  0  0  0  0  0  0  0  0
   -5.4156   -3.9095   -0.3588 C   0  0  2  0  0  0  0  0  0  0  0  0
   -4.3348   -3.1769    0.4460 C   0  0  0  0  0  0  0  0  0  0  0  0
   -3.5917   -2.3844   -0.0980 O   0  0  0  0  0  0  0  0  0  0  0  0
   -4.8107   -4.4553   -1.6595 C   0  0  0  0  0  0  0  0  0  0  0  0
   -3.7462   -5.5076   -1.3328 C   0  0  0  0  0  0  0  0  0  0  0  0
   -2.4044   -4.8177   -1.0868 C   0  0  0  0  0  0  0  0  0  0  0  0
   -1.8510   -4.3346   -2.3840 N   0  0  0  0  0  0  0  0  0  0  0  0
   -2.1387   -3.1339   -2.8174 C   0  0  0  0  0  0  0  0  0  0  0  0
   -2.9233   -2.9772   -3.8524 N   0  0  0  0  0  0  0  0  0  0  0  0
   -1.6453   -2.0881   -2.2100 N   0  0  0  0  0  0  0  0  0  0  0  0
  2  1  1  6  0  0  0
  2  3  1  0  0  0  0
  2  5  1  0  0  0  0
  3  4  1  0  0  0  0
  5  6  1  0  0  0  0
  6  7  1  0  0  0  0
  7  8  1  0  0  0  0
  8  9  1  0  0  0  0
  9 10  1  0  0  0  0
  9 11  1  0  0  0  0
M  END
>  <CHROM.1>
-58.06216206,-73.92780069,-175.64322450,-85.87901197,-72.92330861,90.03939348
-109.63744723,-109.06661046,111.65027531,-3.59293087,-3.55926639,-1.47620808
-3.13446438,-0.60258080,-3.06335128

>  <Name>
1akx_lig

>  <RI>
0

>  <Rbt.Current_Directory>
/home/afrankz/demos/rdock_decoys_rna/rnas/1akx

>  <Rbt.Executable>
rbdock ($Id: //depot/dev/client3/rdock/2013.1/src/exe/rbdock.cxx#4 $)

>  <Rbt.Library>
libRbt.so (2013.1, Build901 2013/11/27)

>  <Rbt.Parameter_File>
/export/apps/rDock/src/rDock_2013.1_src/data/scripts/dock_solv.prm

>  <Rbt.Receptor>
prm/pocket_docking_4.prm

>  <SCORE>
-26.4077

>  <SCORE.INTER>
-20.7663

>  <SCORE.INTER.CONST>
1

>  <SCORE.INTER.POLAR>
-3.43949

>  <SCORE.INTER.ROT>
8

>  <SCORE.INTER.SOLV>
7.37169

>  <SCORE.INTER.VDW>
-13.7698

>  <SCORE.INTER.norm>
-1.88785

>  <SCORE.INTRA>
-5.64141

>  <SCORE.INTRA.DIHEDRAL>
-13.0754

>  <SCORE.INTRA.DIHEDRAL.0>
21.6454

>  <SCORE.INTRA.POLAR>
-0.602248

>  <SCORE.INTRA.POLAR.0>
0

>  <SCORE.INTRA.REPUL>
0

>  <SCORE.INTRA.REPUL.0>
0

>  <SCORE.INTRA.SOLV>
2.48457

>  <SCORE.INTRA.SOLV.lig_0>
-16.5947

>  <SCORE.INTRA.VDW>
1.70166

>  <SCORE.INTRA.VDW.0>
-0.691398

>  <SCORE.INTRA.norm>
-0.512856

>  <SCORE.RESTR>
0

>  <SCORE.RESTR.CAVITY>
0

>  <SCORE.RESTR.norm>
0

>  <SCORE.SYSTEM>
0

>  <SCORE.SYSTEM.CONST>
0

>  <SCORE.SYSTEM.DIHEDRAL>
0

>  <SCORE.SYSTEM.SOLV>
0

>  <SCORE.SYSTEM.norm>
0

>  <SCORE.heavy>
11

>  <SCORE.norm>
-2.4007

>  <RMSD>
4.109

>  <RMSD>
4.109

$$$$
1akx_lig
 OpenBabel11021811383D
libRbt.so/2013.1/901 2013/11/27
 11 10  0  0  0  0  0  0  0  0999 V2000
   -6.5245   -2.9635   -0.6803 N   0  0  0  0  0  0  0  0  0  0  0  0
   -5.4156   -3.9095   -0.3588 C   0  0  2  0  0  0  0  0  0  0  0  0
   -4.3348   -3.1769    0.4460 C   0  0  0  0  0  0  0  0  0  0  0  0
   -3.5917   -2.3844   -0.0980 O   0  0  0  0  0  0  0  0  0  0  0  0
   -4.8107   -4.4553   -1.6595 C   0  0  0  0  0  0  0  0  0  0  0  0
   -3.7462   -5.5076   -1.3328 C   0  0  0  0  0  0  0  0  0  0  0  0
   -2.4044   -4.8177   -1.0868 C   0  0  0  0  0  0  0  0  0  0  0  0
   -1.8510   -4.3346   -2.3840 N   0  0  0  0  0  0  0  0  0  0  0  0
   -2.1387   -3.1339   -2.8174 C   0  0  0  0  0  0  0  0  0  0  0  0
   -2.9233   -2.9772   -3.8524 N   0  0  0  0  0  0  0  0  0  0  0  0
   -1.6453   -2.0881   -2.2100 N   0  0  0  0  0  0  0  0  0  0  0  0
  2  1  1  6  0  0  0
  2  3  1  0  0  0  0
  2  5  1  0  0  0  0
  3  4  1  0  0  0  0
  5  6  1  0  0  0  0
  6  7  1  0  0  0  0
  7  8  1  0  0  0  0
  8  9  1  0  0  0  0
  9 10  1  0  0  0  0
  9 11  1  0  0  0  0
M  END
>  <CHROM.1>
-58.06216206,-73.92780069,-175.64322450,-85.87901197,-72.92330861,90.03939348
-109.63744723,-109.06661046,111.65027531,-3.59293087,-3.55926639,-1.47620808
-3.13446438,-0.60258080,-3.06335128

>  <Name>
1akx_lig

>  <RI>
0

>  <Rbt.Current_Directory>
/home/afrankz/demos/rdock_decoys_rna/rnas/1akx

>  <Rbt.Executable>
rbdock ($Id: //depot/dev/client3/rdock/2013.1/src/exe/rbdock.cxx#4 $)

>  <Rbt.Library>
libRbt.so (2013.1, Build901 2013/11/27)

>  <Rbt.Parameter_File>
/export/apps/rDock/src/rDock_2013.1_src/data/scripts/dock_solv.prm

>  <Rbt.Receptor>
prm/pocket_docking_4.prm

>  <SCORE>
-26.4077

>  <SCORE.INTER>
-20.7663

>  <SCORE.INTER.CONST>
1

>  <SCORE.INTER.POLAR>
-3.43949

>  <SCORE.INTER.ROT>
8

>  <SCORE.INTER.SOLV>
7.37169

>  <SCORE.INTER.VDW>
-13.7698

>  <SCORE.INTER.norm>
-1.88785

>  <SCORE.INTRA>
-5.64141

>  <SCORE.INTRA.DIHEDRAL>
-13.0754

>  <SCORE.INTRA.DIHEDRAL.0>
21.6454

>  <SCORE.INTRA.POLAR>
-0.602248

>  <SCORE.INTRA.POLAR.0>
0

>  <SCORE.INTRA.REPUL>
0

>  <SCORE.INTRA.REPUL.0>
0

>  <SCORE.INTRA.SOLV>
2.48457

>  <SCORE.INTRA.SOLV.lig_0>
-16.5947

>  <SCORE.INTRA.VDW>
1.70166

>  <SCORE.INTRA.VDW.0>
-0.691398

>  <SCORE.INTRA.norm>
-0.512856

>  <SCORE.RESTR>
0

>  <SCORE.RESTR.CAVITY>
0

>  <SCORE.RESTR.norm>
0

>  <SCORE.SYSTEM>
0

>  <SCORE.SYSTEM.CONST>
0

>  <SCORE.SYSTEM.DIHEDRAL>
0

>  <SCORE.SYSTEM.SOLV>
0

>  <SCORE.SYSTEM.norm>
0

>  <SCORE.heavy>
11

>  <SCORE.norm>
-2.4007

>  <RMSD>
4.109

>  <RMSD>
4.109

$$$$
1akx_lig
 OpenBabel11021811383D
libRbt.so/2013.1/901 2013/11/27
 11 10  0  0  0  0  0  0  0  0999 V2000
   -5.8505   -3.8258   -2.3441 N   0  0  0  0  0  0  0  0  0  0  0  0
   -5.0558   -4.6727   -1.4062 C   0  0  2  0  0  0  0  0  0  0  0  0
   -5.5926   -4.4990    0.0201 C   0  0  0  0  0  0  0  0  0  0  0  0
   -5.0440   -5.0456    0.9563 O   0  0  0  0  0  0  0  0  0  0  0  0
   -3.5804   -4.2534   -1.4579 C   0  0  0  0  0  0  0  0  0  0  0  0
   -3.4415   -2.7947   -1.0105 C   0  0  0  0  0  0  0  0  0  0  0  0
   -1.9713   -2.3801   -1.0694 C   0  0  0  0  0  0  0  0  0  0  0  0
   -1.6147   -2.0188   -2.4710 N   0  0  0  0  0  0  0  0  0  0  0  0
   -2.1359   -2.6771   -3.4747 C   0  0  0  0  0  0  0  0  0  0  0  0
   -1.5486   -3.7519   -3.9341 N   0  0  0  0  0  0  0  0  0  0  0  0
   -3.2503   -2.2624   -4.0153 N   0  0  0  0  0  0  0  0  0  0  0  0
  2  1  1  6  0  0  0
  2  3  1  0  0  0  0
  2  5  1  0  0  0  0
  3  4  1  0  0  0  0
  5  6  1  0  0  0  0
  6  7  1  0  0  0  0
  7  8  1  0  0  0  0
  8  9  1  0  0  0  0
  9 10  1  0  0  0  0
  9 11  1  0  0  0  0
M  END
>  <CHROM.1>
-58.76644537,-176.09950285,61.60833831,-179.76109479,81.39260735,-36.22262036
-88.81041627,62.15403811,111.50643881,-3.57523241,-3.46888673,-1.87124504
2.38425496,0.40763106,1.73827253

>  <Name>
1akx_lig

>  <RI>
0

>  <Rbt.Current_Directory>
/home/itssahil/PROJECTS/Mol_Feturizer/New_Systems/rnas/1akx

>  <Rbt.Executable>
rbdock ($Id: //depot/dev/client3/rdock/2013.1/src/exe/rbdock.cxx#4 $)

>  <Rbt.Library>
libRbt.so (2013.1, Build901 2013/11/27)

>  <Rbt.Parameter_File>
/export/apps/rDock/src/rDock_2013.1_src/data/scripts/dock_solv.prm

>  <Rbt.Receptor>
prm/pocket_docking_3.prm

>  <SCORE>
-28.4109

>  <SCORE.INTER>
-25.2141

>  <SCORE.INTER.CONST>
1

>  <SCORE.INTER.POLAR>
-4.628

>  <SCORE.INTER.ROT>
8

>  <SCORE.INTER.SOLV>
9.05881

>  <SCORE.INTER.VDW>
-13.3357

>  <SCORE.INTER.norm>
-2.29219

>  <SCORE.INTRA>
-3.19686

>  <SCORE.INTRA.DIHEDRAL>
-15.2202

>  <SCORE.INTRA.DIHEDRAL.0>
21.6454

>  <SCORE.INTRA.POLAR>
0

>  <SCORE.INTRA.POLAR.0>
0

>  <SCORE.INTRA.REPUL>
0

>  <SCORE.INTRA.REPUL.0>
0

>  <SCORE.INTRA.SOLV>
1.7064

>  <SCORE.INTRA.SOLV.lig_0>
-16.5947

>  <SCORE.INTRA.VDW>
3.56002

>  <SCORE.INTRA.VDW.0>
-0.691398

>  <SCORE.INTRA.norm>
-0.290623

>  <SCORE.RESTR>
0

>  <SCORE.RESTR.CAVITY>
0

>  <SCORE.RESTR.norm>
0

>  <SCORE.SYSTEM>
0

>  <SCORE.SYSTEM.CONST>
0

>  <SCORE.SYSTEM.DIHEDRAL>
0

>  <SCORE.SYSTEM.SOLV>
0

>  <SCORE.SYSTEM.norm>
0

>  <SCORE.heavy>
11

>  <SCORE.norm>
-2.58281

>  <RMSD>
4.122

$$$$
1akx_lig
 OpenBabel11021811383D
libRbt.so/2013.1/901 2013/11/27
 11 10  0  0  0  0  0  0  0  0999 V2000
   -4.7003   -2.3775    0.9314 N   0  0  0  0  0  0  0  0  0  0  0  0
   -5.1005   -3.3527   -0.1255 C   0  0  2  0  0  0  0  0  0  0  0  0
   -5.5700   -4.6564    0.5323 C   0  0  0  0  0  0  0  0  0  0  0  0
   -4.7981   -5.3309    1.1844 O   0  0  0  0  0  0  0  0  0  0  0  0
   -3.9037   -3.6382   -1.0428 C   0  0  0  0  0  0  0  0  0  0  0  0
   -3.7588   -2.5104   -2.0696 C   0  0  0  0  0  0  0  0  0  0  0  0
   -2.7603   -2.9278   -3.1493 C   0  0  0  0  0  0  0  0  0  0  0  0
   -1.3723   -2.7304   -2.6426 N   0  0  0  0  0  0  0  0  0  0  0  0
   -0.9255   -3.4508   -1.6457 C   0  0  0  0  0  0  0  0  0  0  0  0
   -1.0869   -4.7490   -1.6463 N   0  0  0  0  0  0  0  0  0  0  0  0
   -0.3106   -2.8714   -0.6496 N   0  0  0  0  0  0  0  0  0  0  0  0
  2  1  1  1  0  0  0
  2  3  1  0  0  0  0
  2  5  1  0  0  0  0
  3  4  1  0  0  0  0
  5  6  1  0  0  0  0
  6  7  1  0  0  0  0
  7  8  1  0  0  0  0
  8  9  1  0  0  0  0
  9 10  1  0  0  0  0
  9 11  1  0  0  0  0
M  END
>  <CHROM.1>
-78.49125870,-63.91682191,-80.59147408,-168.54223401,-80.07656455,65.94851674
47.89135716,-158.85077366,-120.03588013,-3.09040435,-3.50888240,-0.88748899
2.57977417,-0.25409311,2.24644707

>  <Name>
1akx_lig

>  <RI>
0

>  <Rbt.Current_Directory>
/home/itssahil/PROJECTS/Mol_Feturizer/New_Systems/rnas/1akx

>  <Rbt.Executable>
rbdock ($Id: //depot/dev/client3/rdock/2013.1/src/exe/rbdock.cxx#4 $)

>  <Rbt.Library>
libRbt.so (2013.1, Build901 2013/11/27)

>  <Rbt.Parameter_File>
/export/apps/rDock/src/rDock_2013.1_src/data/scripts/dock_solv.prm

>  <Rbt.Receptor>
prm/pocket_docking_3.prm

>  <SCORE>
-27.8179

>  <SCORE.INTER>
-22.6855

>  <SCORE.INTER.CONST>
1

>  <SCORE.INTER.POLAR>
-3.85966

>  <SCORE.INTER.ROT>
8

>  <SCORE.INTER.SOLV>
5.8035

>  <SCORE.INTER.VDW>
-13.126

>  <SCORE.INTER.norm>
-2.06232

>  <SCORE.INTRA>
-5.15485

>  <SCORE.INTRA.DIHEDRAL>
-12.5326

>  <SCORE.INTRA.DIHEDRAL.0>
21.6454

>  <SCORE.INTRA.POLAR>
0

>  <SCORE.INTRA.POLAR.0>
0

>  <SCORE.INTRA.REPUL>
0

>  <SCORE.INTRA.REPUL.0>
0

>  <SCORE.INTRA.SOLV>
1.03336

>  <SCORE.INTRA.SOLV.lig_0>
-16.5947

>  <SCORE.INTRA.VDW>
0.594758

>  <SCORE.INTRA.VDW.0>
-0.691398

>  <SCORE.INTRA.norm>
-0.468623

>  <SCORE.RESTR>
0.0225105

>  <SCORE.RESTR.CAVITY>
0.0225105

>  <SCORE.RESTR.norm>
0.00204641

>  <SCORE.SYSTEM>
0

>  <SCORE.SYSTEM.CONST>
0

>  <SCORE.SYSTEM.DIHEDRAL>
0

>  <SCORE.SYSTEM.SOLV>
0

>  <SCORE.SYSTEM.norm>
0

>  <SCORE.heavy>
11

>  <SCORE.norm>
-2.5289

>  <RMSD>
4.124

$$$$
1akx_lig
 OpenBabel11021811383D
libRbt.so/2013.1/901 2013/11/27
 11 10  0  0  0  0  0  0  0  0999 V2000
   -4.0886   -2.0383    1.6843 N   0  0  0  0  0  0  0  0  0  0  0  0
   -5.3438   -2.7627    1.3269 C   0  0  2  0  0  0  0  0  0  0  0  0
   -5.7958   -3.6206    2.5153 C   0  0  0  0  0  0  0  0  0  0  0  0
   -6.8364   -4.2458    2.4642 O   0  0  0  0  0  0  0  0  0  0  0  0
   -5.0914   -3.6602    0.1078 C   0  0  0  0  0  0  0  0  0  0  0  0
   -4.7684   -2.7939   -1.1139 C   0  0  0  0  0  0  0  0  0  0  0  0
   -4.3539   -3.6904   -2.2806 C   0  0  0  0  0  0  0  0  0  0  0  0
   -3.8240   -2.8464   -3.3893 N   0  0  0  0  0  0  0  0  0  0  0  0
   -2.5463   -2.8548   -3.6717 C   0  0  0  0  0  0  0  0  0  0  0  0
   -1.6647   -2.5788   -2.7453 N   0  0  0  0  0  0  0  0  0  0  0  0
   -2.1500   -3.1461   -4.8817 N   0  0  0  0  0  0  0  0  0  0  0  0
  2  1  1  1  0  0  0
  2  3  1  0  0  0  0
  2  5  1  0  0  0  0
  3  4  1  0  0  0  0
  5  6  1  0  0  0  0
  6  7  1  0  0  0  0
  7  8  1  0  0  0  0
  8  9  1  0  0  0  0
  9 10  1  0  0  0  0
  9 11  1  0  0  0  0
M  END
>  <CHROM.1>
65.25502615,176.37341026,-65.05525644,173.23878251,-170.61232218,109.04911445
-55.59833013,-143.74876986,-138.50669388,-4.18952583,-3.09587476,-0.90500407
-2.16324694,-0.53245669,-1.81802691

>  <Name>
1akx_lig

>  <RI>
0

>  <Rbt.Current_Directory>
/home/itssahil/PROJECTS/Mol_Feturizer/New_Systems/rnas/1akx

>  <Rbt.Executable>
rbdock ($Id: //depot/dev/client3/rdock/2013.1/src/exe/rbdock.cxx#4 $)

>  <Rbt.Library>
libRbt.so (2013.1, Build901 2013/11/27)

>  <Rbt.Parameter_File>
/export/apps/rDock/src/rDock_2013.1_src/data/scripts/dock_solv.prm

>  <Rbt.Receptor>
prm/pocket_docking_7.prm

>  <SCORE>
-30.6651

>  <SCORE.INTER>
-22.611

>  <SCORE.INTER.CONST>
1

>  <SCORE.INTER.POLAR>
-3.43207

>  <SCORE.INTER.ROT>
8

>  <SCORE.INTER.SOLV>
7.86817

>  <SCORE.INTER.VDW>
-15.1898

>  <SCORE.INTER.norm>
-2.05555

>  <SCORE.INTRA>
-8.05406

>  <SCORE.INTRA.DIHEDRAL>
-16.1145

>  <SCORE.INTRA.DIHEDRAL.0>
21.6454

>  <SCORE.INTRA.POLAR>
0

>  <SCORE.INTRA.POLAR.0>
0

>  <SCORE.INTRA.REPUL>
0

>  <SCORE.INTRA.REPUL.0>
0

>  <SCORE.INTRA.SOLV>
0.0978393

>  <SCORE.INTRA.SOLV.lig_0>
-16.5947

>  <SCORE.INTRA.VDW>
-0.0457301

>  <SCORE.INTRA.VDW.0>
-0.691398

>  <SCORE.INTRA.norm>
-0.732187

>  <SCORE.RESTR>
0

>  <SCORE.RESTR.CAVITY>
0

>  <SCORE.RESTR.norm>
0

>  <SCORE.SYSTEM>
0

>  <SCORE.SYSTEM.CONST>
0

>  <SCORE.SYSTEM.DIHEDRAL>
0

>  <SCORE.SYSTEM.SOLV>
0

>  <SCORE.SYSTEM.norm>
0

>  <SCORE.heavy>
11

>  <SCORE.norm>
-2.78774

>  <RMSD>
4.137

$$$$
1akx_lig
 OpenBabel11021811383D
libRbt.so/2013.1/901 2013/11/27
 11 10  0  0  0  0  0  0  0  0999 V2000
   -5.4617   -3.0116    1.0994 N   0  0  0  0  0  0  0  0  0  0  0  0
   -4.8847   -3.6232   -0.1340 C   0  0  2  0  0  0  0  0  0  0  0  0
   -5.9980   -3.8412   -1.1663 C   0  0  0  0  0  0  0  0  0  0  0  0
   -5.7312   -4.2119   -2.2921 O   0  0  0  0  0  0  0  0  0  0  0  0
   -4.2325   -4.9680    0.2147 C   0  0  0  0  0  0  0  0  0  0  0  0
   -3.6208   -5.5881   -1.0458 C   0  0  0  0  0  0  0  0  0  0  0  0
   -2.4850   -4.6994   -1.5527 C   0  0  0  0  0  0  0  0  0  0  0  0
   -2.9842   -3.8467   -2.6689 N   0  0  0  0  0  0  0  0  0  0  0  0
   -2.1745   -3.0203   -3.2804 C   0  0  0  0  0  0  0  0  0  0  0  0
   -1.9963   -3.1080   -4.5734 N   0  0  0  0  0  0  0  0  0  0  0  0
   -1.5471   -2.1005   -2.5975 N   0  0  0  0  0  0  0  0  0  0  0  0
  2  1  1  1  0  0  0
  2  3  1  0  0  0  0
  2  5  1  0  0  0  0
  3  4  1  0  0  0  0
  5  6  1  0  0  0  0
  6  7  1  0  0  0  0
  7  8  1  0  0  0  0
  8  9  1  0  0  0  0
  9 10  1  0  0  0  0
  9 11  1  0  0  0  0
M  END
>  <CHROM.1>
-47.51552050,173.00087495,-179.14823495,64.51927264,-99.05011950,-178.58563276
122.61894073,-89.19466013,-3.01337989,-3.74808674,-3.77992988,-1.64603988
-2.33845072,-0.25730804,-1.55664056

>  <Name>
1akx_lig

>  <RI>
0

>  <Rbt.Current_Directory>
/home/itssahil/PROJECTS/Mol_Feturizer/New_Systems/rnas/1akx

>  <Rbt.Executable>
rbdock ($Id: //depot/dev/client3/rdock/2013.1/src/exe/rbdock.cxx#4 $)

>  <Rbt.Library>
libRbt.so (2013.1, Build901 2013/11/27)

>  <Rbt.Parameter_File>
/export/apps/rDock/src/rDock_2013.1_src/data/scripts/dock_solv.prm

>  <Rbt.Receptor>
prm/pocket_docking_3.prm

>  <SCORE>
-28.314

>  <SCORE.INTER>
-21.9266

>  <SCORE.INTER.CONST>
1

>  <SCORE.INTER.POLAR>
-3.78013

>  <SCORE.INTER.ROT>
8

>  <SCORE.INTER.SOLV>
7.84587

>  <SCORE.INTER.VDW>
-13.5659

>  <SCORE.INTER.norm>
-1.99333

>  <SCORE.INTRA>
-6.38738

>  <SCORE.INTRA.DIHEDRAL>
-12.1914

>  <SCORE.INTRA.DIHEDRAL.0>
21.6454

>  <SCORE.INTRA.POLAR>
-0.848434

>  <SCORE.INTRA.POLAR.0>
0

>  <SCORE.INTRA.REPUL>
0

>  <SCORE.INTRA.REPUL.0>
0

>  <SCORE.INTRA.SOLV>
1.49449

>  <SCORE.INTRA.SOLV.lig_0>
-16.5947

>  <SCORE.INTRA.VDW>
1.84576

>  <SCORE.INTRA.VDW.0>
-0.691398

>  <SCORE.INTRA.norm>
-0.580671

>  <SCORE.RESTR>
0

>  <SCORE.RESTR.CAVITY>
0

>  <SCORE.RESTR.norm>
0

>  <SCORE.SYSTEM>
0

>  <SCORE.SYSTEM.CONST>
0

>  <SCORE.SYSTEM.DIHEDRAL>
0

>  <SCORE.SYSTEM.SOLV>
0

>  <SCORE.SYSTEM.norm>
0

>  <SCORE.heavy>
11

>  <SCORE.norm>
-2.574

>  <RMSD>
4.144

$$$$
1akx_lig
 OpenBabel11021811383D
libRbt.so/2013.1/901 2013/11/27
 11 10  0  0  0  0  0  0  0  0999 V2000
   -7.0968   -3.7229   -0.0932 N   0  0  0  0  0  0  0  0  0  0  0  0
   -5.8060   -3.9644   -0.8030 C   0  0  2  0  0  0  0  0  0  0  0  0
   -5.9085   -5.2539   -1.6272 C   0  0  0  0  0  0  0  0  0  0  0  0
   -6.2325   -6.2991   -1.0993 O   0  0  0  0  0  0  0  0  0  0  0  0
   -4.6711   -4.0947    0.2219 C   0  0  0  0  0  0  0  0  0  0  0  0
   -3.3188   -4.0638   -0.4976 C   0  0  0  0  0  0  0  0  0  0  0  0
   -3.0430   -2.6488   -1.0062 C   0  0  0  0  0  0  0  0  0  0  0  0
   -3.8126   -2.4154   -2.2614 N   0  0  0  0  0  0  0  0  0  0  0  0
   -3.2404   -2.5818   -3.4264 C   0  0  0  0  0  0  0  0  0  0  0  0
   -1.9800   -2.9246   -3.4987 N   0  0  0  0  0  0  0  0  0  0  0  0
   -3.9326   -2.4111   -4.5208 N   0  0  0  0  0  0  0  0  0  0  0  0
  2  1  1  1  0  0  0
  2  3  1  0  0  0  0
  2  5  1  0  0  0  0
  3  4  1  0  0  0  0
  5  6  1  0  0  0  0
  6  7  1  0  0  0  0
  7  8  1  0  0  0  0
  8  9  1  0  0  0  0
  9 10  1  0  0  0  0
  9 11  1  0  0  0  0
M  END
>  <CHROM.1>
-56.21145879,-54.86397779,-168.85079446,71.59113478,-79.10326175,-96.34813169
-1.56899066,-98.27327937,-56.48256939,-4.49587962,-3.67451237,-1.71256363
2.44219730,0.51389107,1.70531883

>  <Name>
1akx_lig

>  <RI>
0

>  <Rbt.Current_Directory>
/home/itssahil/PROJECTS/Mol_Feturizer/New_Systems/rnas/1akx

>  <Rbt.Executable>
rbdock ($Id: //depot/dev/client3/rdock/2013.1/src/exe/rbdock.cxx#4 $)

>  <Rbt.Library>
libRbt.so (2013.1, Build901 2013/11/27)

>  <Rbt.Parameter_File>
/export/apps/rDock/src/rDock_2013.1_src/data/scripts/dock_solv.prm

>  <Rbt.Receptor>
prm/pocket_docking_5.prm

>  <SCORE>
-35.657

>  <SCORE.INTER>
-30.1353

>  <SCORE.INTER.CONST>
1

>  <SCORE.INTER.POLAR>
-4.52383

>  <SCORE.INTER.ROT>
8

>  <SCORE.INTER.SOLV>
7.46617

>  <SCORE.INTER.VDW>
-16.4328

>  <SCORE.INTER.norm>
-2.73958

>  <SCORE.INTRA>
-5.52163

>  <SCORE.INTRA.DIHEDRAL>
-14.414

>  <SCORE.INTRA.DIHEDRAL.0>
21.6454

>  <SCORE.INTRA.POLAR>
0

>  <SCORE.INTRA.POLAR.0>
0

>  <SCORE.INTRA.REPUL>
0

>  <SCORE.INTRA.REPUL.0>
0

>  <SCORE.INTRA.SOLV>
1.27272

>  <SCORE.INTRA.SOLV.lig_0>
-16.5947

>  <SCORE.INTRA.VDW>
1.04903

>  <SCORE.INTRA.VDW.0>
-0.691398

>  <SCORE.INTRA.norm>
-0.501966

>  <SCORE.RESTR>
0

>  <SCORE.RESTR.CAVITY>
0

>  <SCORE.RESTR.norm>
0

>  <SCORE.SYSTEM>
0

>  <SCORE.SYSTEM.CONST>
0

>  <SCORE.SYSTEM.DIHEDRAL>
0

>  <SCORE.SYSTEM.SOLV>
0

>  <SCORE.SYSTEM.norm>
0

>  <SCORE.heavy>
11

>  <SCORE.norm>
-3.24154

>  <RMSD>
4.168

$$$$
1akx_lig
 OpenBabel11021811383D
libRbt.so/2013.1/901 2013/11/27
 11 10  0  0  0  0  0  0  0  0999 V2000
   -6.3822   -3.1251   -0.4828 N   0  0  0  0  0  0  0  0  0  0  0  0
   -5.0572   -3.6874   -0.0875 C   0  0  2  0  0  0  0  0  0  0  0  0
   -4.9319   -3.6762    1.4412 C   0  0  0  0  0  0  0  0  0  0  0  0
   -3.9344   -4.1115    1.9815 O   0  0  0  0  0  0  0  0  0  0  0  0
   -3.9342   -2.8426   -0.7044 C   0  0  0  0  0  0  0  0  0  0  0  0
   -3.7976   -3.1730   -2.1942 C   0  0  0  0  0  0  0  0  0  0  0  0
   -2.8050   -2.2079   -2.8425 C   0  0  0  0  0  0  0  0  0  0  0  0
   -1.4180   -2.7170   -2.6438 N   0  0  0  0  0  0  0  0  0  0  0  0
   -1.1367   -3.4820   -1.6201 C   0  0  0  0  0  0  0  0  0  0  0  0
   -0.5638   -2.9772   -0.5579 N   0  0  0  0  0  0  0  0  0  0  0  0
   -1.4351   -4.7530   -1.6571 N   0  0  0  0  0  0  0  0  0  0  0  0
  2  1  1  1  0  0  0
  2  3  1  0  0  0  0
  2  5  1  0  0  0  0
  3  4  1  0  0  0  0
  5  6  1  0  0  0  0
  6  7  1  0  0  0  0
  7  8  1  0  0  0  0
  8  9  1  0  0  0  0
  9 10  1  0  0  0  0
  9 11  1  0  0  0  0
M  END
>  <CHROM.1>
-67.28738676,178.87522685,-76.27407937,172.85074194,84.58382593,-26.59575173
-100.03510107,-111.13799936,66.97173597,-3.22112463,-3.35230959,-0.82830530
2.57329849,-0.12946616,1.89593586

>  <Name>
1akx_lig

>  <RI>
0

>  <Rbt.Current_Directory>
/home/itssahil/PROJECTS/Mol_Feturizer/New_Systems/rnas/1akx

>  <Rbt.Executable>
rbdock ($Id: //depot/dev/client3/rdock/2013.1/src/exe/rbdock.cxx#4 $)

>  <Rbt.Library>
libRbt.so (2013.1, Build901 2013/11/27)

>  <Rbt.Parameter_File>
/export/apps/rDock/src/rDock_2013.1_src/data/scripts/dock_solv.prm

>  <Rbt.Receptor>
prm/pocket_docking_5.prm

>  <SCORE>
-24.4793

>  <SCORE.INTER>
-20.6008

>  <SCORE.INTER.CONST>
1

>  <SCORE.INTER.POLAR>
-2.89889

>  <SCORE.INTER.ROT>
8

>  <SCORE.INTER.SOLV>
6.0191

>  <SCORE.INTER.VDW>
-15.0106

>  <SCORE.INTER.norm>
-1.8728

>  <SCORE.INTRA>
-3.87844

>  <SCORE.INTRA.DIHEDRAL>
-13.5047

>  <SCORE.INTRA.DIHEDRAL.0>
21.6454

>  <SCORE.INTRA.POLAR>
0

>  <SCORE.INTRA.POLAR.0>
0

>  <SCORE.INTRA.REPUL>
0

>  <SCORE.INTRA.REPUL.0>
0

>  <SCORE.INTRA.SOLV>
0.98166

>  <SCORE.INTRA.SOLV.lig_0>
-16.5947

>  <SCORE.INTRA.VDW>
2.38308

>  <SCORE.INTRA.VDW.0>
-0.691398

>  <SCORE.INTRA.norm>
-0.352586

>  <SCORE.RESTR>
0

>  <SCORE.RESTR.CAVITY>
0

>  <SCORE.RESTR.norm>
0

>  <SCORE.SYSTEM>
0

>  <SCORE.SYSTEM.CONST>
0

>  <SCORE.SYSTEM.DIHEDRAL>
0

>  <SCORE.SYSTEM.SOLV>
0

>  <SCORE.SYSTEM.norm>
0

>  <SCORE.heavy>
11

>  <SCORE.norm>
-2.22539

>  <RMSD>
4.176

$$$$
1akx_lig
 OpenBabel11021811383D
libRbt.so/2013.1/901 2013/11/27
 11 10  0  0  0  0  0  0  0  0999 V2000
   -6.4014   -2.9830   -0.7752 N   0  0  0  0  0  0  0  0  0  0  0  0
   -6.0443   -4.1954    0.0190 C   0  0  2  0  0  0  0  0  0  0  0  0
   -6.9456   -4.2800    1.2573 C   0  0  0  0  0  0  0  0  0  0  0  0
   -6.8604   -5.2229    2.0188 O   0  0  0  0  0  0  0  0  0  0  0  0
   -4.5749   -4.1120    0.4539 C   0  0  0  0  0  0  0  0  0  0  0  0
   -3.6851   -4.7781   -0.6006 C   0  0  0  0  0  0  0  0  0  0  0  0
   -2.6897   -3.7557   -1.1489 C   0  0  0  0  0  0  0  0  0  0  0  0
   -3.4342   -2.6384   -1.7967 N   0  0  0  0  0  0  0  0  0  0  0  0
   -3.6152   -2.6306   -3.0927 C   0  0  0  0  0  0  0  0  0  0  0  0
   -4.7427   -3.0543   -3.6032 N   0  0  0  0  0  0  0  0  0  0  0  0
   -2.6686   -2.1920   -3.8785 N   0  0  0  0  0  0  0  0  0  0  0  0
  2  1  1  1  0  0  0
  2  3  1  0  0  0  0
  2  5  1  0  0  0  0
  3  4  1  0  0  0  0
  5  6  1  0  0  0  0
  6  7  1  0  0  0  0
  7  8  1  0  0  0  0
  8  9  1  0  0  0  0
  9 10  1  0  0  0  0
  9 11  1  0  0  0  0
M  END
>  <CHROM.1>
32.52426710,177.09786576,-90.81847197,120.13589335,-61.23968200,-97.17519656
97.96008250,-1.62589257,21.56513217,-4.72530744,-3.59184150,-1.04365976,2.16657190
-0.13257725,2.07187819

>  <Name>
1akx_lig

>  <RI>
0

>  <Rbt.Current_Directory>
/home/itssahil/PROJECTS/Mol_Feturizer/New_Systems/rnas/1akx

>  <Rbt.Executable>
rbdock ($Id: //depot/dev/client3/rdock/2013.1/src/exe/rbdock.cxx#4 $)

>  <Rbt.Library>
libRbt.so (2013.1, Build901 2013/11/27)

>  <Rbt.Parameter_File>
/export/apps/rDock/src/rDock_2013.1_src/data/scripts/dock_solv.prm

>  <Rbt.Receptor>
prm/pocket_docking_5.prm

>  <SCORE>
-34.1895

>  <SCORE.INTER>
-28.5686

>  <SCORE.INTER.CONST>
1

>  <SCORE.INTER.POLAR>
-4.29172

>  <SCORE.INTER.ROT>
8

>  <SCORE.INTER.SOLV>
6.8522

>  <SCORE.INTER.VDW>
-15.9574

>  <SCORE.INTER.norm>
-2.59715

>  <SCORE.INTRA>
-5.62085

>  <SCORE.INTRA.DIHEDRAL>
-6.05165

>  <SCORE.INTRA.DIHEDRAL.0>
21.6454

>  <SCORE.INTRA.POLAR>
-1.00961

>  <SCORE.INTRA.POLAR.0>
0

>  <SCORE.INTRA.REPUL>
0

>  <SCORE.INTRA.REPUL.0>
0

>  <SCORE.INTRA.SOLV>
1.92376

>  <SCORE.INTRA.SOLV.lig_0>
-16.5947

>  <SCORE.INTRA.VDW>
-0.124235

>  <SCORE.INTRA.VDW.0>
-0.691398

>  <SCORE.INTRA.norm>
-0.510986

>  <SCORE.RESTR>
0

>  <SCORE.RESTR.CAVITY>
0

>  <SCORE.RESTR.norm>
0

>  <SCORE.SYSTEM>
0

>  <SCORE.SYSTEM.CONST>
0

>  <SCORE.SYSTEM.DIHEDRAL>
0

>  <SCORE.SYSTEM.SOLV>
0

>  <SCORE.SYSTEM.norm>
0

>  <SCORE.heavy>
11

>  <SCORE.norm>
-3.10813

>  <RMSD>
4.189

$$$$
1akx_lig
 OpenBabel11021811383D
libRbt.so/2013.1/901 2013/11/27
 11 10  0  0  0  0  0  0  0  0999 V2000
   -7.4276   -3.9185    1.0109 N   0  0  0  0  0  0  0  0  0  0  0  0
   -6.1346   -4.6466    0.8483 C   0  0  2  0  0  0  0  0  0  0  0  0
   -5.5028   -4.8818    2.2260 C   0  0  0  0  0  0  0  0  0  0  0  0
   -5.2979   -3.9497    2.9778 O   0  0  0  0  0  0  0  0  0  0  0  0
   -5.1819   -3.8162   -0.0224 C   0  0  0  0  0  0  0  0  0  0  0  0
   -5.6938   -3.7872   -1.4662 C   0  0  0  0  0  0  0  0  0  0  0  0
   -4.6699   -3.0840   -2.3573 C   0  0  0  0  0  0  0  0  0  0  0  0
   -3.3360   -3.7254   -2.1796 N   0  0  0  0  0  0  0  0  0  0  0  0
   -2.2457   -3.0030   -2.2244 C   0  0  0  0  0  0  0  0  0  0  0  0
   -1.9589   -2.1813   -1.2477 N   0  0  0  0  0  0  0  0  0  0  0  0
   -1.4381   -3.1080   -3.2455 N   0  0  0  0  0  0  0  0  0  0  0  0
  2  1  1  1  0  0  0
  2  3  1  0  0  0  0
  2  5  1  0  0  0  0
  3  4  1  0  0  0  0
  5  6  1  0  0  0  0
  6  7  1  0  0  0  0
  7  8  1  0  0  0  0
  8  9  1  0  0  0  0
  9 10  1  0  0  0  0
  9 11  1  0  0  0  0
M  END
>  <CHROM.1>
-178.96851140,-55.07834937,-69.59217466,-174.15998634,53.37355276,-144.65753902
71.31928585,-36.44265506,163.37592407,-4.43876033,-3.62744939,-0.49469266
2.32536780,0.21688911,1.67045214

>  <Name>
1akx_lig

>  <RI>
0

>  <Rbt.Current_Directory>
/home/itssahil/PROJECTS/Mol_Feturizer/New_Systems/rnas/1akx

>  <Rbt.Executable>
rbdock ($Id: //depot/dev/client3/rdock/2013.1/src/exe/rbdock.cxx#4 $)

>  <Rbt.Library>
libRbt.so (2013.1, Build901 2013/11/27)

>  <Rbt.Parameter_File>
/export/apps/rDock/src/rDock_2013.1_src/data/scripts/dock_solv.prm

>  <Rbt.Receptor>
prm/pocket_docking_5.prm

>  <SCORE>
-23.9851

>  <SCORE.INTER>
-16.2487

>  <SCORE.INTER.CONST>
1

>  <SCORE.INTER.POLAR>
-2.43893

>  <SCORE.INTER.ROT>
8

>  <SCORE.INTER.SOLV>
5.85013

>  <SCORE.INTER.VDW>
-13.5861

>  <SCORE.INTER.norm>
-1.47715

>  <SCORE.INTRA>
-7.73641

>  <SCORE.INTRA.DIHEDRAL>
-16.083

>  <SCORE.INTRA.DIHEDRAL.0>
21.6454

>  <SCORE.INTRA.POLAR>
0

>  <SCORE.INTRA.POLAR.0>
0

>  <SCORE.INTRA.REPUL>
0

>  <SCORE.INTRA.REPUL.0>
0

>  <SCORE.INTRA.SOLV>
0.668968

>  <SCORE.INTRA.SOLV.lig_0>
-16.5947

>  <SCORE.INTRA.VDW>
-0.0293765

>  <SCORE.INTRA.VDW.0>
-0.691398

>  <SCORE.INTRA.norm>
-0.70331

>  <SCORE.RESTR>
0

>  <SCORE.RESTR.CAVITY>
0

>  <SCORE.RESTR.norm>
0

>  <SCORE.SYSTEM>
0

>  <SCORE.SYSTEM.CONST>
0

>  <SCORE.SYSTEM.DIHEDRAL>
0

>  <SCORE.SYSTEM.SOLV>
0

>  <SCORE.SYSTEM.norm>
0

>  <SCORE.heavy>
11

>  <SCORE.norm>
-2.18046

>  <RMSD>
4.195

$$$$
1akx_lig
 OpenBabel11021811383D
libRbt.so/2013.1/901 2013/11/27
 11 10  0  0  0  0  0  0  0  0999 V2000
   -6.3304   -2.8979   -0.8903 N   0  0  0  0  0  0  0  0  0  0  0  0
   -5.3751   -4.0176   -0.6417 C   0  0  2  0  0  0  0  0  0  0  0  0
   -6.1353   -5.2223   -0.0730 C   0  0  0  0  0  0  0  0  0  0  0  0
   -6.9887   -5.7807   -0.7334 O   0  0  0  0  0  0  0  0  0  0  0  0
   -4.3008   -3.5660    0.3569 C   0  0  0  0  0  0  0  0  0  0  0  0
   -3.3501   -2.5735   -0.3203 C   0  0  0  0  0  0  0  0  0  0  0  0
   -2.3231   -3.3384   -1.1553 C   0  0  0  0  0  0  0  0  0  0  0  0
   -2.9444   -3.7534   -2.4453 N   0  0  0  0  0  0  0  0  0  0  0  0
   -2.6306   -3.1378   -3.5566 C   0  0  0  0  0  0  0  0  0  0  0  0
   -1.4166   -3.2221   -4.0366 N   0  0  0  0  0  0  0  0  0  0  0  0
   -3.5351   -2.4418   -4.1917 N   0  0  0  0  0  0  0  0  0  0  0  0
  2  1  1  1  0  0  0
  2  3  1  0  0  0  0
  2  5  1  0  0  0  0
  3  4  1  0  0  0  0
  5  6  1  0  0  0  0
  6  7  1  0  0  0  0
  7  8  1  0  0  0  0
  8  9  1  0  0  0  0
  9 10  1  0  0  0  0
  9 11  1  0  0  0  0
M  END
>  <CHROM.1>
-167.44581778,63.31603022,-71.89108727,-80.58528857,79.14792090,105.83017558
65.85512621,-71.83454035,-168.99245371,-4.15726634,-3.62308004,-1.65115601
2.51499488,0.41125239,1.53056357

>  <Name>
1akx_lig

>  <RI>
0

>  <Rbt.Current_Directory>
/home/itssahil/PROJECTS/Mol_Feturizer/New_Systems/rnas/1akx

>  <Rbt.Executable>
rbdock ($Id: //depot/dev/client3/rdock/2013.1/src/exe/rbdock.cxx#4 $)

>  <Rbt.Library>
libRbt.so (2013.1, Build901 2013/11/27)

>  <Rbt.Parameter_File>
/export/apps/rDock/src/rDock_2013.1_src/data/scripts/dock_solv.prm

>  <Rbt.Receptor>
prm/pocket_docking_8.prm

>  <SCORE>
-32.7468

>  <SCORE.INTER>
-26.056

>  <SCORE.INTER.CONST>
1

>  <SCORE.INTER.POLAR>
-4.39913

>  <SCORE.INTER.ROT>
8

>  <SCORE.INTER.SOLV>
7.72754

>  <SCORE.INTER.VDW>
-14.2161

>  <SCORE.INTER.norm>
-2.36873

>  <SCORE.INTRA>
-6.69082

>  <SCORE.INTRA.DIHEDRAL>
-12.9937

>  <SCORE.INTRA.DIHEDRAL.0>
21.6454

>  <SCORE.INTRA.POLAR>
0

>  <SCORE.INTRA.POLAR.0>
0

>  <SCORE.INTRA.REPUL>
0

>  <SCORE.INTRA.REPUL.0>
0

>  <SCORE.INTRA.SOLV>
1.13152

>  <SCORE.INTRA.SOLV.lig_0>
-16.5947

>  <SCORE.INTRA.VDW>
-0.759734

>  <SCORE.INTRA.VDW.0>
-0.691398

>  <SCORE.INTRA.norm>
-0.608256

>  <SCORE.RESTR>
0

>  <SCORE.RESTR.CAVITY>
0

>  <SCORE.RESTR.norm>
0

>  <SCORE.SYSTEM>
0

>  <SCORE.SYSTEM.CONST>
0

>  <SCORE.SYSTEM.DIHEDRAL>
0

>  <SCORE.SYSTEM.SOLV>
0

>  <SCORE.SYSTEM.norm>
0

>  <SCORE.heavy>
11

>  <SCORE.norm>
-2.97698

>  <RMSD>
4.234

$$$$
1akx_lig
 OpenBabel11021811383D
libRbt.so/2013.1/901 2013/11/27
 11 10  0  0  0  0  0  0  0  0999 V2000
   -5.1029   -4.0508   -2.1856 N   0  0  0  0  0  0  0  0  0  0  0  0
   -4.6724   -3.9010   -0.7643 C   0  0  2  0  0  0  0  0  0  0  0  0
   -5.8639   -3.4425    0.0859 C   0  0  0  0  0  0  0  0  0  0  0  0
   -5.7267   -3.2248    1.2733 O   0  0  0  0  0  0  0  0  0  0  0  0
   -3.5439   -2.8647   -0.6743 C   0  0  0  0  0  0  0  0  0  0  0  0
   -2.1911   -3.5793   -0.5936 C   0  0  0  0  0  0  0  0  0  0  0  0
   -1.7936   -4.0790   -1.9826 C   0  0  0  0  0  0  0  0  0  0  0  0
   -1.5650   -2.9121   -2.8816 N   0  0  0  0  0  0  0  0  0  0  0  0
   -2.3423   -2.7139   -3.9155 C   0  0  0  0  0  0  0  0  0  0  0  0
   -2.0604   -3.2658   -5.0675 N   0  0  0  0  0  0  0  0  0  0  0  0
   -3.4071   -1.9671   -3.7943 N   0  0  0  0  0  0  0  0  0  0  0  0
  2  1  1  6  0  0  0
  2  3  1  0  0  0  0
  2  5  1  0  0  0  0
  3  4  1  0  0  0  0
  5  6  1  0  0  0  0
  6  7  1  0  0  0  0
  7  8  1  0  0  0  0
  8  9  1  0  0  0  0
  9 10  1  0  0  0  0
  9 11  1  0  0  0  0
M  END
>  <CHROM.1>
-64.26078273,-178.12294193,-99.39772988,77.26803896,65.23765733,-115.17335593
-88.46555667,-9.98182837,139.56685102,-3.50712440,-3.26374941,-1.90484115
2.21069985,-0.04432433,1.72250787

>  <Name>
1akx_lig

>  <RI>
0

>  <Rbt.Current_Directory>
/home/itssahil/PROJECTS/Mol_Feturizer/New_Systems/rnas/1akx

>  <Rbt.Executable>
rbdock ($Id: //depot/dev/client3/rdock/2013.1/src/exe/rbdock.cxx#4 $)

>  <Rbt.Library>
libRbt.so (2013.1, Build901 2013/11/27)

>  <Rbt.Parameter_File>
/export/apps/rDock/src/rDock_2013.1_src/data/scripts/dock_solv.prm

>  <Rbt.Receptor>
prm/pocket_docking_3.prm

>  <SCORE>
-21.9047

>  <SCORE.INTER>
-17.2651

>  <SCORE.INTER.CONST>
1

>  <SCORE.INTER.POLAR>
-1.79015

>  <SCORE.INTER.ROT>
8

>  <SCORE.INTER.SOLV>
8.63845

>  <SCORE.INTER.VDW>
-17.3557

>  <SCORE.INTER.norm>
-1.56955

>  <SCORE.INTRA>
-4.96702

>  <SCORE.INTRA.DIHEDRAL>
-11.1826

>  <SCORE.INTRA.DIHEDRAL.0>
21.6454

>  <SCORE.INTRA.POLAR>
0

>  <SCORE.INTRA.POLAR.0>
0

>  <SCORE.INTRA.REPUL>
0

>  <SCORE.INTRA.REPUL.0>
0

>  <SCORE.INTRA.SOLV>
1.89491

>  <SCORE.INTRA.SOLV.lig_0>
-16.5947

>  <SCORE.INTRA.VDW>
-0.323166

>  <SCORE.INTRA.VDW.0>
-0.691398

>  <SCORE.INTRA.norm>
-0.451548

>  <SCORE.RESTR>
0.32746

>  <SCORE.RESTR.CAVITY>
0.32746

>  <SCORE.RESTR.norm>
0.0297691

>  <SCORE.SYSTEM>
0

>  <SCORE.SYSTEM.CONST>
0

>  <SCORE.SYSTEM.DIHEDRAL>
0

>  <SCORE.SYSTEM.SOLV>
0

>  <SCORE.SYSTEM.norm>
0

>  <SCORE.heavy>
11

>  <SCORE.norm>
-1.99133

>  <RMSD>
4.237

$$$$
1akx_lig
 OpenBabel11021811383D
libRbt.so/2013.1/901 2013/11/27
 11 10  0  0  0  0  0  0  0  0999 V2000
   -7.6692   -4.4173   -0.2030 N   0  0  0  0  0  0  0  0  0  0  0  0
   -6.2315   -4.5903    0.1591 C   0  0  2  0  0  0  0  0  0  0  0  0
   -6.1266   -5.1816    1.5705 C   0  0  0  0  0  0  0  0  0  0  0  0
   -5.0467   -5.5010    2.0266 O   0  0  0  0  0  0  0  0  0  0  0  0
   -5.5217   -3.2303    0.1143 C   0  0  0  0  0  0  0  0  0  0  0  0
   -5.3194   -2.8005   -1.3423 C   0  0  0  0  0  0  0  0  0  0  0  0
   -4.1506   -3.5785   -1.9469 C   0  0  0  0  0  0  0  0  0  0  0  0
   -3.7840   -2.9787   -3.2614 N   0  0  0  0  0  0  0  0  0  0  0  0
   -2.5275   -2.8777   -3.6128 C   0  0  0  0  0  0  0  0  0  0  0  0
   -1.6271   -2.5044   -2.7402 N   0  0  0  0  0  0  0  0  0  0  0  0
   -2.1708   -3.1568   -4.8379 N   0  0  0  0  0  0  0  0  0  0  0  0
  2  1  1  1  0  0  0
  2  3  1  0  0  0  0
  2  5  1  0  0  0  0
  3  4  1  0  0  0  0
  5  6  1  0  0  0  0
  6  7  1  0  0  0  0
  7  8  1  0  0  0  0
  8  9  1  0  0  0  0
  9 10  1  0  0  0  0
  9 11  1  0  0  0  0
M  END
>  <CHROM.1>
-171.99613523,174.31426905,-73.67892062,-77.06601281,-169.01965921,141.06295974
-41.59070523,28.63179158,44.42688497,-4.56146234,-3.71591960,-1.29459070
2.22087029,-0.01088049,1.96371677

>  <Name>
1akx_lig

>  <RI>
0

>  <Rbt.Current_Directory>
/home/itssahil/PROJECTS/Mol_Feturizer/New_Systems/rnas/1akx

>  <Rbt.Executable>
rbdock ($Id: //depot/dev/client3/rdock/2013.1/src/exe/rbdock.cxx#4 $)

>  <Rbt.Library>
libRbt.so (2013.1, Build901 2013/11/27)

>  <Rbt.Parameter_File>
/export/apps/rDock/src/rDock_2013.1_src/data/scripts/dock_solv.prm

>  <Rbt.Receptor>
prm/pocket_docking_5.prm

>  <SCORE>
-31.157

>  <SCORE.INTER>
-24.6105

>  <SCORE.INTER.CONST>
1

>  <SCORE.INTER.POLAR>
-3.28977

>  <SCORE.INTER.ROT>
8

>  <SCORE.INTER.SOLV>
7.99387

>  <SCORE.INTER.VDW>
-17.039

>  <SCORE.INTER.norm>
-2.23732

>  <SCORE.INTRA>
-6.54653

>  <SCORE.INTRA.DIHEDRAL>
-14.2596

>  <SCORE.INTRA.DIHEDRAL.0>
21.6454

>  <SCORE.INTRA.POLAR>
0

>  <SCORE.INTRA.POLAR.0>
0

>  <SCORE.INTRA.REPUL>
0

>  <SCORE.INTRA.REPUL.0>
0

>  <SCORE.INTRA.SOLV>
0.0827326

>  <SCORE.INTRA.SOLV.lig_0>
-16.5947

>  <SCORE.INTRA.VDW>
0.541878

>  <SCORE.INTRA.VDW.0>
-0.691398

>  <SCORE.INTRA.norm>
-0.59514

>  <SCORE.RESTR>
0

>  <SCORE.RESTR.CAVITY>
0

>  <SCORE.RESTR.norm>
0

>  <SCORE.SYSTEM>
0

>  <SCORE.SYSTEM.CONST>
0

>  <SCORE.SYSTEM.DIHEDRAL>
0

>  <SCORE.SYSTEM.SOLV>
0

>  <SCORE.SYSTEM.norm>
0

>  <SCORE.heavy>
11

>  <SCORE.norm>
-2.83245

>  <RMSD>
4.244

$$$$
1akx_lig
 OpenBabel11021811383D
libRbt.so/2013.1/901 2013/11/27
 11 10  0  0  0  0  0  0  0  0999 V2000
   -6.8107   -5.9404   -2.4295 N   0  0  0  0  0  0  0  0  0  0  0  0
   -5.5226   -5.4009   -1.9022 C   0  0  2  0  0  0  0  0  0  0  0  0
   -4.6885   -6.5475   -1.3174 C   0  0  0  0  0  0  0  0  0  0  0  0
   -3.5891   -6.3327   -0.8467 O   0  0  0  0  0  0  0  0  0  0  0  0
   -5.8083   -4.3605   -0.8107 C   0  0  0  0  0  0  0  0  0  0  0  0
   -5.6123   -2.9503   -1.3766 C   0  0  0  0  0  0  0  0  0  0  0  0
   -4.1195   -2.6261   -1.4349 C   0  0  0  0  0  0  0  0  0  0  0  0
   -3.4891   -3.3948   -2.5457 N   0  0  0  0  0  0  0  0  0  0  0  0
   -3.2434   -2.8147   -3.6926 C   0  0  0  0  0  0  0  0  0  0  0  0
   -4.1888   -2.1596   -4.3158 N   0  0  0  0  0  0  0  0  0  0  0  0
   -2.0477   -2.8852   -4.2136 N   0  0  0  0  0  0  0  0  0  0  0  0
  2  1  1  1  0  0  0
  2  3  1  0  0  0  0
  2  5  1  0  0  0  0
  3  4  1  0  0  0  0
  5  6  1  0  0  0  0
  6  7  1  0  0  0  0
  7  8  1  0  0  0  0
  8  9  1  0  0  0  0
  9 10  1  0  0  0  0
  9 11  1  0  0  0  0
M  END
>  <CHROM.1>
-64.43572360,179.05326484,-102.99063450,-78.43756438,73.25214210,100.13879480
-51.65894365,107.48901743,104.03268388,-4.46311036,-4.15047807,-2.29950740
2.11455880,-0.28157268,2.68860506

>  <Name>
1akx_lig

>  <RI>
0

>  <Rbt.Current_Directory>
/home/itssahil/PROJECTS/Mol_Feturizer/New_Systems/rnas/1akx

>  <Rbt.Executable>
rbdock ($Id: //depot/dev/client3/rdock/2013.1/src/exe/rbdock.cxx#4 $)

>  <Rbt.Library>
libRbt.so (2013.1, Build901 2013/11/27)

>  <Rbt.Parameter_File>
/export/apps/rDock/src/rDock_2013.1_src/data/scripts/dock_solv.prm

>  <Rbt.Receptor>
prm/pocket_docking_5.prm

>  <SCORE>
-28.2827

>  <SCORE.INTER>
-23.3712

>  <SCORE.INTER.CONST>
1

>  <SCORE.INTER.POLAR>
-3.0274

>  <SCORE.INTER.ROT>
8

>  <SCORE.INTER.SOLV>
7.31549

>  <SCORE.INTER.VDW>
-16.8613

>  <SCORE.INTER.norm>
-2.12465

>  <SCORE.INTRA>
-4.91156

>  <SCORE.INTRA.DIHEDRAL>
-10.0484

>  <SCORE.INTRA.DIHEDRAL.0>
21.6454

>  <SCORE.INTRA.POLAR>
0

>  <SCORE.INTRA.POLAR.0>
0

>  <SCORE.INTRA.REPUL>
0

>  <SCORE.INTRA.REPUL.0>
0

>  <SCORE.INTRA.SOLV>
1.37362

>  <SCORE.INTRA.SOLV.lig_0>
-16.5947

>  <SCORE.INTRA.VDW>
-0.574152

>  <SCORE.INTRA.VDW.0>
-0.691398

>  <SCORE.INTRA.norm>
-0.446505

>  <SCORE.RESTR>
0

>  <SCORE.RESTR.CAVITY>
0

>  <SCORE.RESTR.norm>
0

>  <SCORE.SYSTEM>
0

>  <SCORE.SYSTEM.CONST>
0

>  <SCORE.SYSTEM.DIHEDRAL>
0

>  <SCORE.SYSTEM.SOLV>
0

>  <SCORE.SYSTEM.norm>
0

>  <SCORE.heavy>
11

>  <SCORE.norm>
-2.57116

>  <RMSD>
4.247

$$$$
1akx_lig
 OpenBabel11021811383D
libRbt.so/2013.1/901 2013/11/27
 11 10  0  0  0  0  0  0  0  0999 V2000
   -1.1686  -10.6681    0.4132 N   0  0  0  0  0  0  0  0  0  0  0  0
   -1.5611   -9.6340   -0.5892 C   0  0  2  0  0  0  0  0  0  0  0  0
   -0.8273   -9.8969   -1.9101 C   0  0  0  0  0  0  0  0  0  0  0  0
    0.3843   -9.9850   -1.9356 O   0  0  0  0  0  0  0  0  0  0  0  0
   -1.1938   -8.2402   -0.0622 C   0  0  0  0  0  0  0  0  0  0  0  0
   -1.5459   -7.1813   -1.1121 C   0  0  0  0  0  0  0  0  0  0  0  0
   -1.0708   -5.8095   -0.6333 C   0  0  0  0  0  0  0  0  0  0  0  0
   -1.0651   -4.8592   -1.7819 N   0  0  0  0  0  0  0  0  0  0  0  0
   -0.9981   -3.5695   -1.5704 C   0  0  0  0  0  0  0  0  0  0  0  0
   -1.5916   -2.7362   -2.3857 N   0  0  0  0  0  0  0  0  0  0  0  0
   -0.3413   -3.1136   -0.5376 N   0  0  0  0  0  0  0  0  0  0  0  0
  2  1  1  1  0  0  0
  2  3  1  0  0  0  0
  2  5  1  0  0  0  0
  3  4  1  0  0  0  0
  5  6  1  0  0  0  0
  6  7  1  0  0  0  0
  7  8  1  0  0  0  0
  8  9  1  0  0  0  0
  9 10  1  0  0  0  0
  9 11  1  0  0  0  0
M  END
>  <CHROM.1>
69.94589430,-54.83227165,177.81723127,-175.23987164,164.48990311,164.11240578
-147.69120339,-88.19956312,58.96503497,-0.97887356,-6.88337825,-1.09620077
1.45406362,-1.30460648,2.91224892

>  <Name>
1akx_lig

>  <RI>
0

>  <Rbt.Current_Directory>
/home/itssahil/PROJECTS/Mol_Feturizer/New_Systems/rnas/1akx

>  <Rbt.Executable>
rbdock ($Id: //depot/dev/client3/rdock/2013.1/src/exe/rbdock.cxx#4 $)

>  <Rbt.Library>
libRbt.so (2013.1, Build901 2013/11/27)

>  <Rbt.Parameter_File>
/export/apps/rDock/src/rDock_2013.1_src/data/scripts/dock_solv.prm

>  <Rbt.Receptor>
prm/pocket_docking_8.prm

>  <SCORE>
-25.419

>  <SCORE.INTER>
-19.6782

>  <SCORE.INTER.CONST>
1

>  <SCORE.INTER.POLAR>
-3.95914

>  <SCORE.INTER.ROT>
8

>  <SCORE.INTER.SOLV>
8.05543

>  <SCORE.INTER.VDW>
-11.5402

>  <SCORE.INTER.norm>
-1.78893

>  <SCORE.INTRA>
-5.74076

>  <SCORE.INTRA.DIHEDRAL>
-15.5356

>  <SCORE.INTRA.DIHEDRAL.0>
21.6454

>  <SCORE.INTRA.POLAR>
0

>  <SCORE.INTRA.POLAR.0>
0

>  <SCORE.INTRA.REPUL>
0

>  <SCORE.INTRA.REPUL.0>
0

>  <SCORE.INTRA.SOLV>
0.287458

>  <SCORE.INTRA.SOLV.lig_0>
-16.5947

>  <SCORE.INTRA.VDW>
1.8833

>  <SCORE.INTRA.VDW.0>
-0.691398

>  <SCORE.INTRA.norm>
-0.521887

>  <SCORE.RESTR>
0

>  <SCORE.RESTR.CAVITY>
0

>  <SCORE.RESTR.norm>
0

>  <SCORE.SYSTEM>
0

>  <SCORE.SYSTEM.CONST>
0

>  <SCORE.SYSTEM.DIHEDRAL>
0

>  <SCORE.SYSTEM.SOLV>
0

>  <SCORE.SYSTEM.norm>
0

>  <SCORE.heavy>
11

>  <SCORE.norm>
-2.31082

>  <RMSD>
4.259

$$$$
1akx_lig
 OpenBabel11021811383D
libRbt.so/2013.1/901 2013/11/27
 11 10  0  0  0  0  0  0  0  0999 V2000
   -6.5181   -4.1376   -0.8215 N   0  0  0  0  0  0  0  0  0  0  0  0
   -5.0659   -4.2079   -1.1596 C   0  0  2  0  0  0  0  0  0  0  0  0
   -4.3217   -4.9800   -0.0630 C   0  0  0  0  0  0  0  0  0  0  0  0
   -3.1257   -5.1755   -0.1496 O   0  0  0  0  0  0  0  0  0  0  0  0
   -4.4937   -2.7882   -1.2713 C   0  0  0  0  0  0  0  0  0  0  0  0
   -3.8910   -2.5819   -2.6647 C   0  0  0  0  0  0  0  0  0  0  0  0
   -2.5727   -3.3488   -2.7697 C   0  0  0  0  0  0  0  0  0  0  0  0
   -1.4826   -2.5469   -2.1445 N   0  0  0  0  0  0  0  0  0  0  0  0
   -1.1772   -2.7193   -0.8837 C   0  0  0  0  0  0  0  0  0  0  0  0
   -0.5641   -3.8083   -0.4970 N   0  0  0  0  0  0  0  0  0  0  0  0
   -1.4802   -1.7972   -0.0097 N   0  0  0  0  0  0  0  0  0  0  0  0
  2  1  1  1  0  0  0
  2  3  1  0  0  0  0
  2  5  1  0  0  0  0
  3  4  1  0  0  0  0
  5  6  1  0  0  0  0
  6  7  1  0  0  0  0
  7  8  1  0  0  0  0
  8  9  1  0  0  0  0
  9 10  1  0  0  0  0
  9 11  1  0  0  0  0
M  END
>  <CHROM.1>
-49.74324162,178.76757784,-121.94420009,-73.61518714,-81.44263539,92.38377164
71.64273303,98.13677626,-137.77443953,-3.15540268,-3.47070612,-1.09456007
2.90615598,0.21458885,2.33568576

>  <Name>
1akx_lig

>  <RI>
0

>  <Rbt.Current_Directory>
/home/itssahil/PROJECTS/Mol_Feturizer/New_Systems/rnas/1akx

>  <Rbt.Executable>
rbdock ($Id: //depot/dev/client3/rdock/2013.1/src/exe/rbdock.cxx#4 $)

>  <Rbt.Library>
libRbt.so (2013.1, Build901 2013/11/27)

>  <Rbt.Parameter_File>
/export/apps/rDock/src/rDock_2013.1_src/data/scripts/dock_solv.prm

>  <Rbt.Receptor>
prm/pocket_docking_5.prm

>  <SCORE>
-31.2293

>  <SCORE.INTER>
-24.3658

>  <SCORE.INTER.CONST>
1

>  <SCORE.INTER.POLAR>
-3.86003

>  <SCORE.INTER.ROT>
8

>  <SCORE.INTER.SOLV>
5.2615

>  <SCORE.INTER.VDW>
-14.0643

>  <SCORE.INTER.norm>
-2.21507

>  <SCORE.INTRA>
-6.8635

>  <SCORE.INTRA.DIHEDRAL>
-8.41737

>  <SCORE.INTRA.DIHEDRAL.0>
21.6454

>  <SCORE.INTRA.POLAR>
-0.73522

>  <SCORE.INTRA.POLAR.0>
0

>  <SCORE.INTRA.REPUL>
0

>  <SCORE.INTRA.REPUL.0>
0

>  <SCORE.INTRA.SOLV>
2.07853

>  <SCORE.INTRA.SOLV.lig_0>
-16.5947

>  <SCORE.INTRA.VDW>
-1.19433

>  <SCORE.INTRA.VDW.0>
-0.691398

>  <SCORE.INTRA.norm>
-0.623954

>  <SCORE.RESTR>
0

>  <SCORE.RESTR.CAVITY>
0

>  <SCORE.RESTR.norm>
0

>  <SCORE.SYSTEM>
0

>  <SCORE.SYSTEM.CONST>
0

>  <SCORE.SYSTEM.DIHEDRAL>
0

>  <SCORE.SYSTEM.SOLV>
0

>  <SCORE.SYSTEM.norm>
0

>  <SCORE.heavy>
11

>  <SCORE.norm>
-2.83903

>  <RMSD>
4.262

$$$$
1akx_lig
 OpenBabel11021811383D
libRbt.so/2013.1/901 2013/11/27
 11 10  0  0  0  0  0  0  0  0999 V2000
   -7.5372   -3.7526    0.1086 N   0  0  0  0  0  0  0  0  0  0  0  0
   -6.6573   -4.8054    0.6966 C   0  0  2  0  0  0  0  0  0  0  0  0
   -7.0909   -5.0870    2.1407 C   0  0  0  0  0  0  0  0  0  0  0  0
   -6.5413   -5.9532    2.7918 O   0  0  0  0  0  0  0  0  0  0  0  0
   -5.1991   -4.3272    0.6785 C   0  0  0  0  0  0  0  0  0  0  0  0
   -4.6891   -4.2779   -0.7654 C   0  0  0  0  0  0  0  0  0  0  0  0
   -3.3013   -3.6375   -0.7954 C   0  0  0  0  0  0  0  0  0  0  0  0
   -2.7963   -3.6163   -2.1977 N   0  0  0  0  0  0  0  0  0  0  0  0
   -3.2337   -2.7180   -3.0427 C   0  0  0  0  0  0  0  0  0  0  0  0
   -2.4025   -2.1163   -3.8541 N   0  0  0  0  0  0  0  0  0  0  0  0
   -4.5062   -2.4259   -3.0799 N   0  0  0  0  0  0  0  0  0  0  0  0
  2  1  1  1  0  0  0
  2  3  1  0  0  0  0
  2  5  1  0  0  0  0
  3  4  1  0  0  0  0
  5  6  1  0  0  0  0
  6  7  1  0  0  0  0
  7  8  1  0  0  0  0
  8  9  1  0  0  0  0
  9 10  1  0  0  0  0
  9 11  1  0  0  0  0
M  END
>  <CHROM.1>
84.94016717,177.00041146,-69.47073378,172.96314703,178.85130005,77.91891840
137.65345155,153.60634711,-114.49381179,-4.92641533,-3.86167635,-0.68934063
2.18687681,-0.16301861,2.14946924

>  <Name>
1akx_lig

>  <RI>
0

>  <Rbt.Current_Directory>
/home/itssahil/PROJECTS/Mol_Feturizer/New_Systems/rnas/1akx

>  <Rbt.Executable>
rbdock ($Id: //depot/dev/client3/rdock/2013.1/src/exe/rbdock.cxx#4 $)

>  <Rbt.Library>
libRbt.so (2013.1, Build901 2013/11/27)

>  <Rbt.Parameter_File>
/export/apps/rDock/src/rDock_2013.1_src/data/scripts/dock_solv.prm

>  <Rbt.Receptor>
prm/pocket_docking_5.prm

>  <SCORE>
-27.1949

>  <SCORE.INTER>
-20.5748

>  <SCORE.INTER.CONST>
1

>  <SCORE.INTER.POLAR>
-3.16614

>  <SCORE.INTER.ROT>
8

>  <SCORE.INTER.SOLV>
6.55046

>  <SCORE.INTER.VDW>
-14.2795

>  <SCORE.INTER.norm>
-1.87043

>  <SCORE.INTRA>
-6.6201

>  <SCORE.INTRA.DIHEDRAL>
-14.9184

>  <SCORE.INTRA.DIHEDRAL.0>
21.6454

>  <SCORE.INTRA.POLAR>
0

>  <SCORE.INTRA.POLAR.0>
0

>  <SCORE.INTRA.REPUL>
0

>  <SCORE.INTRA.REPUL.0>
0

>  <SCORE.INTRA.SOLV>
0.275046

>  <SCORE.INTRA.SOLV.lig_0>
-16.5947

>  <SCORE.INTRA.VDW>
0.701584

>  <SCORE.INTRA.VDW.0>
-0.691398

>  <SCORE.INTRA.norm>
-0.601827

>  <SCORE.RESTR>
0

>  <SCORE.RESTR.CAVITY>
0

>  <SCORE.RESTR.norm>
0

>  <SCORE.SYSTEM>
0

>  <SCORE.SYSTEM.CONST>
0

>  <SCORE.SYSTEM.DIHEDRAL>
0

>  <SCORE.SYSTEM.SOLV>
0

>  <SCORE.SYSTEM.norm>
0

>  <SCORE.heavy>
11

>  <SCORE.norm>
-2.47226

>  <RMSD>
4.263

$$$$
1akx_lig
 OpenBabel11021811383D
libRbt.so/2013.1/901 2013/11/27
 11 10  0  0  0  0  0  0  0  0999 V2000
   -6.6387   -3.2946   -0.4313 N   0  0  0  0  0  0  0  0  0  0  0  0
   -5.2921   -3.5591   -1.0186 C   0  0  2  0  0  0  0  0  0  0  0  0
   -5.3055   -4.9122   -1.7408 C   0  0  0  0  0  0  0  0  0  0  0  0
   -6.0199   -5.0882   -2.7077 O   0  0  0  0  0  0  0  0  0  0  0  0
   -4.2384   -3.5790    0.0970 C   0  0  0  0  0  0  0  0  0  0  0  0
   -2.8543   -3.8442   -0.5039 C   0  0  0  0  0  0  0  0  0  0  0  0
   -2.3503   -2.5815   -1.2029 C   0  0  0  0  0  0  0  0  0  0  0  0
   -1.7854   -2.9445   -2.5338 N   0  0  0  0  0  0  0  0  0  0  0  0
   -2.5364   -2.8963   -3.6043 C   0  0  0  0  0  0  0  0  0  0  0  0
   -2.0168   -3.1174   -4.7844 N   0  0  0  0  0  0  0  0  0  0  0  0
   -3.8108   -2.6328   -3.4929 N   0  0  0  0  0  0  0  0  0  0  0  0
  2  1  1  1  0  0  0
  2  3  1  0  0  0  0
  2  5  1  0  0  0  0
  3  4  1  0  0  0  0
  5  6  1  0  0  0  0
  6  7  1  0  0  0  0
  7  8  1  0  0  0  0
  8  9  1  0  0  0  0
  9 10  1  0  0  0  0
  9 11  1  0  0  0  0
M  END
>  <CHROM.1>
-175.18215952,63.60554087,-179.75196508,75.01295367,-134.55661739,93.37289807
174.87067767,-154.05309179,-123.34011762,-3.93834267,-3.49617659,-2.02791484
2.56236752,0.34627677,1.47660038

>  <Name>
1akx_lig

>  <RI>
0

>  <Rbt.Current_Directory>
/home/afrankz/demos/rdock_decoys_rna/rnas/1akx

>  <Rbt.Executable>
rbdock ($Id: //depot/dev/client3/rdock/2013.1/src/exe/rbdock.cxx#4 $)

>  <Rbt.Library>
libRbt.so (2013.1, Build901 2013/11/27)

>  <Rbt.Parameter_File>
/export/apps/rDock/src/rDock_2013.1_src/data/scripts/dock_solv.prm

>  <Rbt.Receptor>
prm/pocket_docking_8.prm

>  <SCORE>
-27.1979

>  <SCORE.INTER>
-23.5642

>  <SCORE.INTER.CONST>
1

>  <SCORE.INTER.POLAR>
-2.99531

>  <SCORE.INTER.ROT>
8

>  <SCORE.INTER.SOLV>
8.87216

>  <SCORE.INTER.VDW>
-17.6158

>  <SCORE.INTER.norm>
-2.1422

>  <SCORE.INTRA>
-3.63362

>  <SCORE.INTRA.DIHEDRAL>
-11.0893

>  <SCORE.INTRA.DIHEDRAL.0>
21.6454

>  <SCORE.INTRA.POLAR>
0

>  <SCORE.INTRA.POLAR.0>
0

>  <SCORE.INTRA.REPUL>
0

>  <SCORE.INTRA.REPUL.0>
0

>  <SCORE.INTRA.SOLV>
1.6787

>  <SCORE.INTRA.SOLV.lig_0>
-16.5947

>  <SCORE.INTRA.VDW>
1.07166

>  <SCORE.INTRA.VDW.0>
-0.691398

>  <SCORE.INTRA.norm>
-0.330329

>  <SCORE.RESTR>
0

>  <SCORE.RESTR.CAVITY>
0

>  <SCORE.RESTR.norm>
0

>  <SCORE.SYSTEM>
0

>  <SCORE.SYSTEM.CONST>
0

>  <SCORE.SYSTEM.DIHEDRAL>
0

>  <SCORE.SYSTEM.SOLV>
0

>  <SCORE.SYSTEM.norm>
0

>  <SCORE.heavy>
11

>  <SCORE.norm>
-2.47253

>  <RMSD>
4.267

>  <RMSD>
4.267

$$$$
1akx_lig
 OpenBabel11021811383D
libRbt.so/2013.1/901 2013/11/27
 11 10  0  0  0  0  0  0  0  0999 V2000
   -6.6387   -3.2946   -0.4313 N   0  0  0  0  0  0  0  0  0  0  0  0
   -5.2921   -3.5591   -1.0186 C   0  0  2  0  0  0  0  0  0  0  0  0
   -5.3055   -4.9122   -1.7408 C   0  0  0  0  0  0  0  0  0  0  0  0
   -6.0199   -5.0882   -2.7077 O   0  0  0  0  0  0  0  0  0  0  0  0
   -4.2384   -3.5790    0.0970 C   0  0  0  0  0  0  0  0  0  0  0  0
   -2.8543   -3.8442   -0.5039 C   0  0  0  0  0  0  0  0  0  0  0  0
   -2.3503   -2.5815   -1.2029 C   0  0  0  0  0  0  0  0  0  0  0  0
   -1.7854   -2.9445   -2.5338 N   0  0  0  0  0  0  0  0  0  0  0  0
   -2.5364   -2.8963   -3.6043 C   0  0  0  0  0  0  0  0  0  0  0  0
   -2.0168   -3.1174   -4.7844 N   0  0  0  0  0  0  0  0  0  0  0  0
   -3.8108   -2.6328   -3.4929 N   0  0  0  0  0  0  0  0  0  0  0  0
  2  1  1  1  0  0  0
  2  3  1  0  0  0  0
  2  5  1  0  0  0  0
  3  4  1  0  0  0  0
  5  6  1  0  0  0  0
  6  7  1  0  0  0  0
  7  8  1  0  0  0  0
  8  9  1  0  0  0  0
  9 10  1  0  0  0  0
  9 11  1  0  0  0  0
M  END
>  <CHROM.1>
-175.18215952,63.60554087,-179.75196508,75.01295367,-134.55661739,93.37289807
174.87067767,-154.05309179,-123.34011762,-3.93834267,-3.49617659,-2.02791484
2.56236752,0.34627677,1.47660038

>  <Name>
1akx_lig

>  <RI>
0

>  <Rbt.Current_Directory>
/home/afrankz/demos/rdock_decoys_rna/rnas/1akx

>  <Rbt.Executable>
rbdock ($Id: //depot/dev/client3/rdock/2013.1/src/exe/rbdock.cxx#4 $)

>  <Rbt.Library>
libRbt.so (2013.1, Build901 2013/11/27)

>  <Rbt.Parameter_File>
/export/apps/rDock/src/rDock_2013.1_src/data/scripts/dock_solv.prm

>  <Rbt.Receptor>
prm/pocket_docking_8.prm

>  <SCORE>
-27.1979

>  <SCORE.INTER>
-23.5642

>  <SCORE.INTER.CONST>
1

>  <SCORE.INTER.POLAR>
-2.99531

>  <SCORE.INTER.ROT>
8

>  <SCORE.INTER.SOLV>
8.87216

>  <SCORE.INTER.VDW>
-17.6158

>  <SCORE.INTER.norm>
-2.1422

>  <SCORE.INTRA>
-3.63362

>  <SCORE.INTRA.DIHEDRAL>
-11.0893

>  <SCORE.INTRA.DIHEDRAL.0>
21.6454

>  <SCORE.INTRA.POLAR>
0

>  <SCORE.INTRA.POLAR.0>
0

>  <SCORE.INTRA.REPUL>
0

>  <SCORE.INTRA.REPUL.0>
0

>  <SCORE.INTRA.SOLV>
1.6787

>  <SCORE.INTRA.SOLV.lig_0>
-16.5947

>  <SCORE.INTRA.VDW>
1.07166

>  <SCORE.INTRA.VDW.0>
-0.691398

>  <SCORE.INTRA.norm>
-0.330329

>  <SCORE.RESTR>
0

>  <SCORE.RESTR.CAVITY>
0

>  <SCORE.RESTR.norm>
0

>  <SCORE.SYSTEM>
0

>  <SCORE.SYSTEM.CONST>
0

>  <SCORE.SYSTEM.DIHEDRAL>
0

>  <SCORE.SYSTEM.SOLV>
0

>  <SCORE.SYSTEM.norm>
0

>  <SCORE.heavy>
11

>  <SCORE.norm>
-2.47253

>  <RMSD>
4.267

>  <RMSD>
4.267

$$$$
1akx_lig
 OpenBabel11021811383D
libRbt.so/2013.1/901 2013/11/27
 11 10  0  0  0  0  0  0  0  0999 V2000
   -5.7892   -3.0500    1.8323 N   0  0  0  0  0  0  0  0  0  0  0  0
   -5.4011   -3.1614    0.3953 C   0  0  2  0  0  0  0  0  0  0  0  0
   -6.5769   -3.7285   -0.4101 C   0  0  0  0  0  0  0  0  0  0  0  0
   -7.0807   -4.7902   -0.1015 O   0  0  0  0  0  0  0  0  0  0  0  0
   -4.1865   -4.0898    0.2602 C   0  0  0  0  0  0  0  0  0  0  0  0
   -3.5782   -3.9450   -1.1385 C   0  0  0  0  0  0  0  0  0  0  0  0
   -2.1306   -4.4360   -1.1194 C   0  0  0  0  0  0  0  0  0  0  0  0
   -1.5652   -4.3635   -2.4968 N   0  0  0  0  0  0  0  0  0  0  0  0
   -1.6099   -3.2421   -3.1698 C   0  0  0  0  0  0  0  0  0  0  0  0
   -1.7757   -3.2583   -4.4673 N   0  0  0  0  0  0  0  0  0  0  0  0
   -1.4947   -2.1024   -2.5422 N   0  0  0  0  0  0  0  0  0  0  0  0
  2  1  1  1  0  0  0
  2  3  1  0  0  0  0
  2  5  1  0  0  0  0
  3  4  1  0  0  0  0
  5  6  1  0  0  0  0
  6  7  1  0  0  0  0
  7  8  1  0  0  0  0
  8  9  1  0  0  0  0
  9 10  1  0  0  0  0
  9 11  1  0  0  0  0
M  END
>  <CHROM.1>
179.61034926,-55.80319597,-166.38437039,159.27749471,176.94101239,53.79228575
-145.36246870,130.87548882,146.77768685,-3.76007601,-3.63938971,-1.17128809
-2.50086897,-0.29842590,-1.82561394

>  <Name>
1akx_lig

>  <RI>
0

>  <Rbt.Current_Directory>
/home/itssahil/PROJECTS/Mol_Feturizer/New_Systems/rnas/1akx

>  <Rbt.Executable>
rbdock ($Id: //depot/dev/client3/rdock/2013.1/src/exe/rbdock.cxx#4 $)

>  <Rbt.Library>
libRbt.so (2013.1, Build901 2013/11/27)

>  <Rbt.Parameter_File>
/export/apps/rDock/src/rDock_2013.1_src/data/scripts/dock_solv.prm

>  <Rbt.Receptor>
prm/pocket_docking_5.prm

>  <SCORE>
-25.719

>  <SCORE.INTER>
-20.8871

>  <SCORE.INTER.CONST>
1

>  <SCORE.INTER.POLAR>
-4.09889

>  <SCORE.INTER.ROT>
8

>  <SCORE.INTER.SOLV>
8.59841

>  <SCORE.INTER.VDW>
-12.0612

>  <SCORE.INTER.norm>
-1.89883

>  <SCORE.INTRA>
-4.83193

>  <SCORE.INTRA.DIHEDRAL>
-14.396

>  <SCORE.INTRA.DIHEDRAL.0>
21.6454

>  <SCORE.INTRA.POLAR>
0

>  <SCORE.INTRA.POLAR.0>
0

>  <SCORE.INTRA.REPUL>
0

>  <SCORE.INTRA.REPUL.0>
0

>  <SCORE.INTRA.SOLV>
0.62414

>  <SCORE.INTRA.SOLV.lig_0>
-16.5947

>  <SCORE.INTRA.VDW>
2.05397

>  <SCORE.INTRA.VDW.0>
-0.691398

>  <SCORE.INTRA.norm>
-0.439267

>  <SCORE.RESTR>
0

>  <SCORE.RESTR.CAVITY>
0

>  <SCORE.RESTR.norm>
0

>  <SCORE.SYSTEM>
0

>  <SCORE.SYSTEM.CONST>
0

>  <SCORE.SYSTEM.DIHEDRAL>
0

>  <SCORE.SYSTEM.SOLV>
0

>  <SCORE.SYSTEM.norm>
0

>  <SCORE.heavy>
11

>  <SCORE.norm>
-2.33809

>  <RMSD>
4.277

$$$$
1akx_lig
 OpenBabel11021811383D
libRbt.so/2013.1/901 2013/11/27
 11 10  0  0  0  0  0  0  0  0999 V2000
   -7.5516   -3.7214    0.0951 N   0  0  0  0  0  0  0  0  0  0  0  0
   -6.6571   -4.7352    0.7277 C   0  0  2  0  0  0  0  0  0  0  0  0
   -6.7101   -4.5837    2.2532 C   0  0  0  0  0  0  0  0  0  0  0  0
   -6.0918   -5.3449    2.9704 O   0  0  0  0  0  0  0  0  0  0  0  0
   -5.2174   -4.5294    0.2375 C   0  0  0  0  0  0  0  0  0  0  0  0
   -5.1226   -4.8825   -1.2504 C   0  0  0  0  0  0  0  0  0  0  0  0
   -3.7562   -4.4595   -1.7897 C   0  0  0  0  0  0  0  0  0  0  0  0
   -3.7245   -2.9777   -1.9499 N   0  0  0  0  0  0  0  0  0  0  0  0
   -3.0515   -2.4348   -2.9321 C   0  0  0  0  0  0  0  0  0  0  0  0
   -3.6723   -2.0194   -4.0060 N   0  0  0  0  0  0  0  0  0  0  0  0
   -1.7557   -2.3017   -2.8365 N   0  0  0  0  0  0  0  0  0  0  0  0
  2  1  1  6  0  0  0
  2  3  1  0  0  0  0
  2  5  1  0  0  0  0
  3  4  1  0  0  0  0
  5  6  1  0  0  0  0
  6  7  1  0  0  0  0
  7  8  1  0  0  0  0
  8  9  1  0  0  0  0
  9 10  1  0  0  0  0
  9 11  1  0  0  0  0
M  END
>  <CHROM.1>
-175.88283427,177.27309912,-68.06682460,170.68059715,-74.71514836,-145.57172590
100.80165414,178.04578775,-169.50140964,-4.85596483,-3.78053123,-0.78115499
2.17607019,-0.06854111,2.06035394

>  <Name>
1akx_lig

>  <RI>
0

>  <Rbt.Current_Directory>
/home/afrankz/demos/rdock_decoys_rna/rnas/1akx

>  <Rbt.Executable>
rbdock ($Id: //depot/dev/client3/rdock/2013.1/src/exe/rbdock.cxx#4 $)

>  <Rbt.Library>
libRbt.so (2013.1, Build901 2013/11/27)

>  <Rbt.Parameter_File>
/export/apps/rDock/src/rDock_2013.1_src/data/scripts/dock_solv.prm

>  <Rbt.Receptor>
prm/pocket_docking_5.prm

>  <SCORE>
-30.0676

>  <SCORE.INTER>
-22.2445

>  <SCORE.INTER.CONST>
1

>  <SCORE.INTER.POLAR>
-3.52922

>  <SCORE.INTER.ROT>
8

>  <SCORE.INTER.SOLV>
7.4723

>  <SCORE.INTER.VDW>
-14.4897

>  <SCORE.INTER.norm>
-2.02223

>  <SCORE.INTRA>
-7.82303

>  <SCORE.INTRA.DIHEDRAL>
-15.3823

>  <SCORE.INTRA.DIHEDRAL.0>
21.6454

>  <SCORE.INTRA.POLAR>
0

>  <SCORE.INTRA.POLAR.0>
0

>  <SCORE.INTRA.REPUL>
0

>  <SCORE.INTRA.REPUL.0>
0

>  <SCORE.INTRA.SOLV>
0.16368

>  <SCORE.INTRA.SOLV.lig_0>
-16.5947

>  <SCORE.INTRA.VDW>
-0.213727

>  <SCORE.INTRA.VDW.0>
-0.691398

>  <SCORE.INTRA.norm>
-0.711184

>  <SCORE.RESTR>
0

>  <SCORE.RESTR.CAVITY>
0

>  <SCORE.RESTR.norm>
0

>  <SCORE.SYSTEM>
0

>  <SCORE.SYSTEM.CONST>
0

>  <SCORE.SYSTEM.DIHEDRAL>
0

>  <SCORE.SYSTEM.SOLV>
0

>  <SCORE.SYSTEM.norm>
0

>  <SCORE.heavy>
11

>  <SCORE.norm>
-2.73342

>  <RMSD>
4.297

>  <RMSD>
4.297

$$$$
1akx_lig
 OpenBabel11021811383D
libRbt.so/2013.1/901 2013/11/27
 11 10  0  0  0  0  0  0  0  0999 V2000
   -7.5516   -3.7214    0.0951 N   0  0  0  0  0  0  0  0  0  0  0  0
   -6.6571   -4.7352    0.7277 C   0  0  2  0  0  0  0  0  0  0  0  0
   -6.7101   -4.5837    2.2532 C   0  0  0  0  0  0  0  0  0  0  0  0
   -6.0918   -5.3449    2.9704 O   0  0  0  0  0  0  0  0  0  0  0  0
   -5.2174   -4.5294    0.2375 C   0  0  0  0  0  0  0  0  0  0  0  0
   -5.1226   -4.8825   -1.2504 C   0  0  0  0  0  0  0  0  0  0  0  0
   -3.7562   -4.4595   -1.7897 C   0  0  0  0  0  0  0  0  0  0  0  0
   -3.7245   -2.9777   -1.9499 N   0  0  0  0  0  0  0  0  0  0  0  0
   -3.0515   -2.4348   -2.9321 C   0  0  0  0  0  0  0  0  0  0  0  0
   -3.6723   -2.0194   -4.0060 N   0  0  0  0  0  0  0  0  0  0  0  0
   -1.7557   -2.3017   -2.8365 N   0  0  0  0  0  0  0  0  0  0  0  0
  2  1  1  6  0  0  0
  2  3  1  0  0  0  0
  2  5  1  0  0  0  0
  3  4  1  0  0  0  0
  5  6  1  0  0  0  0
  6  7  1  0  0  0  0
  7  8  1  0  0  0  0
  8  9  1  0  0  0  0
  9 10  1  0  0  0  0
  9 11  1  0  0  0  0
M  END
>  <CHROM.1>
-175.88283427,177.27309912,-68.06682460,170.68059715,-74.71514836,-145.57172590
100.80165414,178.04578775,-169.50140964,-4.85596483,-3.78053123,-0.78115499
2.17607019,-0.06854111,2.06035394

>  <Name>
1akx_lig

>  <RI>
0

>  <Rbt.Current_Directory>
/home/afrankz/demos/rdock_decoys_rna/rnas/1akx

>  <Rbt.Executable>
rbdock ($Id: //depot/dev/client3/rdock/2013.1/src/exe/rbdock.cxx#4 $)

>  <Rbt.Library>
libRbt.so (2013.1, Build901 2013/11/27)

>  <Rbt.Parameter_File>
/export/apps/rDock/src/rDock_2013.1_src/data/scripts/dock_solv.prm

>  <Rbt.Receptor>
prm/pocket_docking_5.prm

>  <SCORE>
-30.0676

>  <SCORE.INTER>
-22.2445

>  <SCORE.INTER.CONST>
1

>  <SCORE.INTER.POLAR>
-3.52922

>  <SCORE.INTER.ROT>
8

>  <SCORE.INTER.SOLV>
7.4723

>  <SCORE.INTER.VDW>
-14.4897

>  <SCORE.INTER.norm>
-2.02223

>  <SCORE.INTRA>
-7.82303

>  <SCORE.INTRA.DIHEDRAL>
-15.3823

>  <SCORE.INTRA.DIHEDRAL.0>
21.6454

>  <SCORE.INTRA.POLAR>
0

>  <SCORE.INTRA.POLAR.0>
0

>  <SCORE.INTRA.REPUL>
0

>  <SCORE.INTRA.REPUL.0>
0

>  <SCORE.INTRA.SOLV>
0.16368

>  <SCORE.INTRA.SOLV.lig_0>
-16.5947

>  <SCORE.INTRA.VDW>
-0.213727

>  <SCORE.INTRA.VDW.0>
-0.691398

>  <SCORE.INTRA.norm>
-0.711184

>  <SCORE.RESTR>
0

>  <SCORE.RESTR.CAVITY>
0

>  <SCORE.RESTR.norm>
0

>  <SCORE.SYSTEM>
0

>  <SCORE.SYSTEM.CONST>
0

>  <SCORE.SYSTEM.DIHEDRAL>
0

>  <SCORE.SYSTEM.SOLV>
0

>  <SCORE.SYSTEM.norm>
0

>  <SCORE.heavy>
11

>  <SCORE.norm>
-2.73342

>  <RMSD>
4.297

>  <RMSD>
4.297

$$$$
1akx_lig
 OpenBabel11021811383D
libRbt.so/2013.1/901 2013/11/27
 11 10  0  0  0  0  0  0  0  0999 V2000
   -4.4092   -3.1306    2.3285 N   0  0  0  0  0  0  0  0  0  0  0  0
   -5.4748   -3.0289    1.2881 C   0  0  2  0  0  0  0  0  0  0  0  0
   -6.6785   -3.8843    1.7029 C   0  0  0  0  0  0  0  0  0  0  0  0
   -7.6591   -3.9563    0.9892 O   0  0  0  0  0  0  0  0  0  0  0  0
   -4.9289   -3.5231   -0.0584 C   0  0  0  0  0  0  0  0  0  0  0  0
   -5.7777   -2.9548   -1.2003 C   0  0  0  0  0  0  0  0  0  0  0  0
   -5.4136   -3.6594   -2.5071 C   0  0  0  0  0  0  0  0  0  0  0  0
   -3.9620   -3.4658   -2.7859 N   0  0  0  0  0  0  0  0  0  0  0  0
   -3.5622   -2.4765   -3.5435 C   0  0  0  0  0  0  0  0  0  0  0  0
   -4.3831   -1.9322   -4.4045 N   0  0  0  0  0  0  0  0  0  0  0  0
   -2.3407   -2.0270   -3.4345 N   0  0  0  0  0  0  0  0  0  0  0  0
  2  1  1  1  0  0  0
  2  3  1  0  0  0  0
  2  5  1  0  0  0  0
  3  4  1  0  0  0  0
  5  6  1  0  0  0  0
  6  7  1  0  0  0  0
  7  8  1  0  0  0  0
  8  9  1  0  0  0  0
  9 10  1  0  0  0  0
  9 11  1  0  0  0  0
M  END
>  <CHROM.1>
-58.27338382,-179.27078474,-158.84280339,-168.83327158,-58.62632799,-93.65095684
-22.80683720,145.14240114,154.14527506,-4.93466020,-3.08418858,-1.04604523
-2.02604203,-0.28209511,-1.48417105

>  <Name>
1akx_lig

>  <RI>
0

>  <Rbt.Current_Directory>
/home/afrankz/demos/rdock_decoys_rna/rnas/1akx

>  <Rbt.Executable>
rbdock ($Id: //depot/dev/client3/rdock/2013.1/src/exe/rbdock.cxx#4 $)

>  <Rbt.Library>
libRbt.so (2013.1, Build901 2013/11/27)

>  <Rbt.Parameter_File>
/export/apps/rDock/src/rDock_2013.1_src/data/scripts/dock_solv.prm

>  <Rbt.Receptor>
prm/pocket_docking_6.prm

>  <SCORE>
-26.2505

>  <SCORE.INTER>
-20.0718

>  <SCORE.INTER.CONST>
1

>  <SCORE.INTER.POLAR>
-2.67007

>  <SCORE.INTER.ROT>
8

>  <SCORE.INTER.SOLV>
8.38459

>  <SCORE.INTER.VDW>
-16.2091

>  <SCORE.INTER.norm>
-1.82471

>  <SCORE.INTRA>
-6.17875

>  <SCORE.INTRA.DIHEDRAL>
-14.691

>  <SCORE.INTRA.DIHEDRAL.0>
21.6454

>  <SCORE.INTRA.POLAR>
0

>  <SCORE.INTRA.POLAR.0>
0

>  <SCORE.INTRA.REPUL>
0

>  <SCORE.INTRA.REPUL.0>
0

>  <SCORE.INTRA.SOLV>
0.506406

>  <SCORE.INTRA.SOLV.lig_0>
-16.5947

>  <SCORE.INTRA.VDW>
0.913576

>  <SCORE.INTRA.VDW.0>
-0.691398

>  <SCORE.INTRA.norm>
-0.561704

>  <SCORE.RESTR>
0

>  <SCORE.RESTR.CAVITY>
0

>  <SCORE.RESTR.norm>
0

>  <SCORE.SYSTEM>
0

>  <SCORE.SYSTEM.CONST>
0

>  <SCORE.SYSTEM.DIHEDRAL>
0

>  <SCORE.SYSTEM.SOLV>
0

>  <SCORE.SYSTEM.norm>
0

>  <SCORE.heavy>
11

>  <SCORE.norm>
-2.38641

>  <RMSD>
4.305

>  <RMSD>
4.305

$$$$
1akx_lig
 OpenBabel11021811383D
libRbt.so/2013.1/901 2013/11/27
 11 10  0  0  0  0  0  0  0  0999 V2000
   -4.4092   -3.1306    2.3285 N   0  0  0  0  0  0  0  0  0  0  0  0
   -5.4748   -3.0289    1.2881 C   0  0  2  0  0  0  0  0  0  0  0  0
   -6.6785   -3.8843    1.7029 C   0  0  0  0  0  0  0  0  0  0  0  0
   -7.6591   -3.9563    0.9892 O   0  0  0  0  0  0  0  0  0  0  0  0
   -4.9289   -3.5231   -0.0584 C   0  0  0  0  0  0  0  0  0  0  0  0
   -5.7777   -2.9548   -1.2003 C   0  0  0  0  0  0  0  0  0  0  0  0
   -5.4136   -3.6594   -2.5071 C   0  0  0  0  0  0  0  0  0  0  0  0
   -3.9620   -3.4658   -2.7859 N   0  0  0  0  0  0  0  0  0  0  0  0
   -3.5622   -2.4765   -3.5435 C   0  0  0  0  0  0  0  0  0  0  0  0
   -4.3831   -1.9322   -4.4045 N   0  0  0  0  0  0  0  0  0  0  0  0
   -2.3407   -2.0270   -3.4345 N   0  0  0  0  0  0  0  0  0  0  0  0
  2  1  1  1  0  0  0
  2  3  1  0  0  0  0
  2  5  1  0  0  0  0
  3  4  1  0  0  0  0
  5  6  1  0  0  0  0
  6  7  1  0  0  0  0
  7  8  1  0  0  0  0
  8  9  1  0  0  0  0
  9 10  1  0  0  0  0
  9 11  1  0  0  0  0
M  END
>  <CHROM.1>
-58.27338382,-179.27078474,-158.84280339,-168.83327158,-58.62632799,-93.65095684
-22.80683720,145.14240114,154.14527506,-4.93466020,-3.08418858,-1.04604523
-2.02604203,-0.28209511,-1.48417105

>  <Name>
1akx_lig

>  <RI>
0

>  <Rbt.Current_Directory>
/home/afrankz/demos/rdock_decoys_rna/rnas/1akx

>  <Rbt.Executable>
rbdock ($Id: //depot/dev/client3/rdock/2013.1/src/exe/rbdock.cxx#4 $)

>  <Rbt.Library>
libRbt.so (2013.1, Build901 2013/11/27)

>  <Rbt.Parameter_File>
/export/apps/rDock/src/rDock_2013.1_src/data/scripts/dock_solv.prm

>  <Rbt.Receptor>
prm/pocket_docking_6.prm

>  <SCORE>
-26.2505

>  <SCORE.INTER>
-20.0718

>  <SCORE.INTER.CONST>
1

>  <SCORE.INTER.POLAR>
-2.67007

>  <SCORE.INTER.ROT>
8

>  <SCORE.INTER.SOLV>
8.38459

>  <SCORE.INTER.VDW>
-16.2091

>  <SCORE.INTER.norm>
-1.82471

>  <SCORE.INTRA>
-6.17875

>  <SCORE.INTRA.DIHEDRAL>
-14.691

>  <SCORE.INTRA.DIHEDRAL.0>
21.6454

>  <SCORE.INTRA.POLAR>
0

>  <SCORE.INTRA.POLAR.0>
0

>  <SCORE.INTRA.REPUL>
0

>  <SCORE.INTRA.REPUL.0>
0

>  <SCORE.INTRA.SOLV>
0.506406

>  <SCORE.INTRA.SOLV.lig_0>
-16.5947

>  <SCORE.INTRA.VDW>
0.913576

>  <SCORE.INTRA.VDW.0>
-0.691398

>  <SCORE.INTRA.norm>
-0.561704

>  <SCORE.RESTR>
0

>  <SCORE.RESTR.CAVITY>
0

>  <SCORE.RESTR.norm>
0

>  <SCORE.SYSTEM>
0

>  <SCORE.SYSTEM.CONST>
0

>  <SCORE.SYSTEM.DIHEDRAL>
0

>  <SCORE.SYSTEM.SOLV>
0

>  <SCORE.SYSTEM.norm>
0

>  <SCORE.heavy>
11

>  <SCORE.norm>
-2.38641

>  <RMSD>
4.305

>  <RMSD>
4.305

$$$$
1akx_lig
 OpenBabel11021811383D
libRbt.so/2013.1/901 2013/11/27
 11 10  0  0  0  0  0  0  0  0999 V2000
    3.5777   -4.5043    3.8728 N   0  0  0  0  0  0  0  0  0  0  0  0
    2.5334   -3.5239    4.2930 C   0  0  2  0  0  0  0  0  0  0  0  0
    2.3572   -3.5847    5.8155 C   0  0  0  0  0  0  0  0  0  0  0  0
    2.0421   -4.6248    6.3588 O   0  0  0  0  0  0  0  0  0  0  0  0
    1.2037   -3.8609    3.6048 C   0  0  0  0  0  0  0  0  0  0  0  0
    1.2723   -3.4659    2.1260 C   0  0  0  0  0  0  0  0  0  0  0  0
   -0.1141   -3.6008    1.4964 C   0  0  0  0  0  0  0  0  0  0  0  0
   -0.0524   -3.1777    0.0683 N   0  0  0  0  0  0  0  0  0  0  0  0
   -1.0677   -2.5618   -0.4814 C   0  0  0  0  0  0  0  0  0  0  0  0
   -2.0827   -2.1810    0.2508 N   0  0  0  0  0  0  0  0  0  0  0  0
   -1.0642   -2.3211   -1.7652 N   0  0  0  0  0  0  0  0  0  0  0  0
  2  1  1  6  0  0  0
  2  3  1  0  0  0  0
  2  5  1  0  0  0  0
  3  4  1  0  0  0  0
  5  6  1  0  0  0  0
  6  7  1  0  0  0  0
  7  8  1  0  0  0  0
  8  9  1  0  0  0  0
  9 10  1  0  0  0  0
  9 11  1  0  0  0  0
M  END
>  <CHROM.1>
-77.56747939,-58.49881360,-73.82962813,-171.34345098,178.34860796,-145.06082420
7.57242685,-52.77566709,172.63552355,0.79169526,-3.41318327,2.31620884,-0.99408217
0.29573188,-1.48329701

>  <Name>
1akx_lig

>  <RI>
0

>  <Rbt.Current_Directory>
/home/itssahil/PROJECTS/Mol_Feturizer/New_Systems/rnas/1akx

>  <Rbt.Executable>
rbdock ($Id: //depot/dev/client3/rdock/2013.1/src/exe/rbdock.cxx#4 $)

>  <Rbt.Library>
libRbt.so (2013.1, Build901 2013/11/27)

>  <Rbt.Parameter_File>
/export/apps/rDock/src/rDock_2013.1_src/data/scripts/dock_solv.prm

>  <Rbt.Receptor>
prm/pocket_docking_7.prm

>  <SCORE>
-28.2084

>  <SCORE.INTER>
-21.9523

>  <SCORE.INTER.CONST>
1

>  <SCORE.INTER.POLAR>
-3.57128

>  <SCORE.INTER.ROT>
8

>  <SCORE.INTER.SOLV>
8.07679

>  <SCORE.INTER.VDW>
-14.3562

>  <SCORE.INTER.norm>
-1.99566

>  <SCORE.INTRA>
-6.25618

>  <SCORE.INTRA.DIHEDRAL>
-15.0658

>  <SCORE.INTRA.DIHEDRAL.0>
21.6454

>  <SCORE.INTRA.POLAR>
0

>  <SCORE.INTRA.POLAR.0>
0

>  <SCORE.INTRA.REPUL>
0

>  <SCORE.INTRA.REPUL.0>
0

>  <SCORE.INTRA.SOLV>
0.289069

>  <SCORE.INTRA.SOLV.lig_0>
-16.5947

>  <SCORE.INTRA.VDW>
1.13216

>  <SCORE.INTRA.VDW.0>
-0.691398

>  <SCORE.INTRA.norm>
-0.568744

>  <SCORE.RESTR>
0

>  <SCORE.RESTR.CAVITY>
0

>  <SCORE.RESTR.norm>
0

>  <SCORE.SYSTEM>
0

>  <SCORE.SYSTEM.CONST>
0

>  <SCORE.SYSTEM.DIHEDRAL>
0

>  <SCORE.SYSTEM.SOLV>
0

>  <SCORE.SYSTEM.norm>
0

>  <SCORE.heavy>
11

>  <SCORE.norm>
-2.5644

>  <RMSD>
4.306

$$$$
1akx_lig
 OpenBabel11021811383D
libRbt.so/2013.1/901 2013/11/27
 11 10  0  0  0  0  0  0  0  0999 V2000
   -6.6003   -3.4079   -0.5268 N   0  0  0  0  0  0  0  0  0  0  0  0
   -5.2304   -3.8060   -0.9662 C   0  0  2  0  0  0  0  0  0  0  0  0
   -4.4731   -4.4239    0.2159 C   0  0  0  0  0  0  0  0  0  0  0  0
   -3.3698   -4.9072    0.0567 O   0  0  0  0  0  0  0  0  0  0  0  0
   -4.4741   -2.5718   -1.4763 C   0  0  0  0  0  0  0  0  0  0  0  0
   -3.7102   -2.9262   -2.7563 C   0  0  0  0  0  0  0  0  0  0  0  0
   -2.3546   -3.5312   -2.3912 C   0  0  0  0  0  0  0  0  0  0  0  0
   -1.4190   -2.4427   -1.9889 N   0  0  0  0  0  0  0  0  0  0  0  0
   -1.1418   -2.2448   -0.7254 C   0  0  0  0  0  0  0  0  0  0  0  0
   -2.1042   -2.0342    0.1354 N   0  0  0  0  0  0  0  0  0  0  0  0
    0.1002   -2.2639   -0.3217 N   0  0  0  0  0  0  0  0  0  0  0  0
  2  1  1  1  0  0  0
  2  3  1  0  0  0  0
  2  5  1  0  0  0  0
  3  4  1  0  0  0  0
  5  6  1  0  0  0  0
  6  7  1  0  0  0  0
  7  8  1  0  0  0  0
  8  9  1  0  0  0  0
  9 10  1  0  0  0  0
  9 11  1  0  0  0  0
M  END
>  <CHROM.1>
-161.51048934,174.62868761,-137.31955503,-85.25379739,-77.50332188,103.57486272
-55.69251354,-60.68577176,-60.20969419,-3.16576688,-3.13478982,-0.93831150
2.99871618,0.25420717,1.93392388

>  <Name>
1akx_lig

>  <RI>
0

>  <Rbt.Current_Directory>
/home/itssahil/PROJECTS/Mol_Feturizer/New_Systems/rnas/1akx

>  <Rbt.Executable>
rbdock ($Id: //depot/dev/client3/rdock/2013.1/src/exe/rbdock.cxx#4 $)

>  <Rbt.Library>
libRbt.so (2013.1, Build901 2013/11/27)

>  <Rbt.Parameter_File>
/export/apps/rDock/src/rDock_2013.1_src/data/scripts/dock_solv.prm

>  <Rbt.Receptor>
prm/pocket_docking_8.prm

>  <SCORE>
-29.1949

>  <SCORE.INTER>
-25.7257

>  <SCORE.INTER.CONST>
1

>  <SCORE.INTER.POLAR>
-4.07007

>  <SCORE.INTER.ROT>
8

>  <SCORE.INTER.SOLV>
6.84022

>  <SCORE.INTER.VDW>
-14.7969

>  <SCORE.INTER.norm>
-2.3387

>  <SCORE.INTRA>
-3.46924

>  <SCORE.INTRA.DIHEDRAL>
-7.82587

>  <SCORE.INTRA.DIHEDRAL.0>
21.6454

>  <SCORE.INTRA.POLAR>
0

>  <SCORE.INTRA.POLAR.0>
0

>  <SCORE.INTRA.REPUL>
0

>  <SCORE.INTRA.REPUL.0>
0

>  <SCORE.INTRA.SOLV>
1.92184

>  <SCORE.INTRA.SOLV.lig_0>
-16.5947

>  <SCORE.INTRA.VDW>
-0.517224

>  <SCORE.INTRA.VDW.0>
-0.691398

>  <SCORE.INTRA.norm>
-0.315385

>  <SCORE.RESTR>
0

>  <SCORE.RESTR.CAVITY>
0

>  <SCORE.RESTR.norm>
0

>  <SCORE.SYSTEM>
0

>  <SCORE.SYSTEM.CONST>
0

>  <SCORE.SYSTEM.DIHEDRAL>
0

>  <SCORE.SYSTEM.SOLV>
0

>  <SCORE.SYSTEM.norm>
0

>  <SCORE.heavy>
11

>  <SCORE.norm>
-2.65408

>  <RMSD>
4.307

$$$$
1akx_lig
 OpenBabel11021811383D
libRbt.so/2013.1/901 2013/11/27
 11 10  0  0  0  0  0  0  0  0999 V2000
   -7.8833   -4.1398    2.1463 N   0  0  0  0  0  0  0  0  0  0  0  0
   -7.1267   -4.6725    0.9750 C   0  0  2  0  0  0  0  0  0  0  0  0
   -6.1258   -5.7326    1.4513 C   0  0  0  0  0  0  0  0  0  0  0  0
   -5.4603   -6.3569    0.6491 O   0  0  0  0  0  0  0  0  0  0  0  0
   -6.3761   -3.5269    0.2824 C   0  0  0  0  0  0  0  0  0  0  0  0
   -5.9628   -3.9582   -1.1285 C   0  0  0  0  0  0  0  0  0  0  0  0
   -5.0756   -2.8810   -1.7526 C   0  0  0  0  0  0  0  0  0  0  0  0
   -4.8653   -3.1882   -3.1961 N   0  0  0  0  0  0  0  0  0  0  0  0
   -4.0668   -2.4451   -3.9189 C   0  0  0  0  0  0  0  0  0  0  0  0
   -4.5404   -1.7504   -4.9211 N   0  0  0  0  0  0  0  0  0  0  0  0
   -2.7932   -2.3923   -3.6342 N   0  0  0  0  0  0  0  0  0  0  0  0
  2  1  1  1  0  0  0
  2  3  1  0  0  0  0
  2  5  1  0  0  0  0
  3  4  1  0  0  0  0
  5  6  1  0  0  0  0
  6  7  1  0  0  0  0
  7  8  1  0  0  0  0
  8  9  1  0  0  0  0
  9 10  1  0  0  0  0
  9 11  1  0  0  0  0
M  END
>  <CHROM.1>
-168.84966783,175.49385201,-162.68002561,-173.35941231,-170.47874721,-175.75428671
-116.03055672,124.91683667,167.32446915,-5.47647161,-3.72760746,-1.18769554
2.12936624,-0.65111827,2.39198613

>  <Name>
1akx_lig

>  <RI>
0

>  <Rbt.Current_Directory>
/home/itssahil/PROJECTS/Mol_Feturizer/New_Systems/rnas/1akx

>  <Rbt.Executable>
rbdock ($Id: //depot/dev/client3/rdock/2013.1/src/exe/rbdock.cxx#4 $)

>  <Rbt.Library>
libRbt.so (2013.1, Build901 2013/11/27)

>  <Rbt.Parameter_File>
/export/apps/rDock/src/rDock_2013.1_src/data/scripts/dock_solv.prm

>  <Rbt.Receptor>
prm/pocket_docking_8.prm

>  <SCORE>
-29.2993

>  <SCORE.INTER>
-22.5036

>  <SCORE.INTER.CONST>
1

>  <SCORE.INTER.POLAR>
-3.11631

>  <SCORE.INTER.ROT>
8

>  <SCORE.INTER.SOLV>
8.50012

>  <SCORE.INTER.VDW>
-16.3814

>  <SCORE.INTER.norm>
-2.04578

>  <SCORE.INTRA>
-6.79575

>  <SCORE.INTRA.DIHEDRAL>
-14.8265

>  <SCORE.INTRA.DIHEDRAL.0>
21.6454

>  <SCORE.INTRA.POLAR>
0

>  <SCORE.INTRA.POLAR.0>
0

>  <SCORE.INTRA.REPUL>
0

>  <SCORE.INTRA.REPUL.0>
0

>  <SCORE.INTRA.SOLV>
0.071025

>  <SCORE.INTRA.SOLV.lig_0>
-16.5947

>  <SCORE.INTRA.VDW>
0.581979

>  <SCORE.INTRA.VDW.0>
-0.691398

>  <SCORE.INTRA.norm>
-0.617795

>  <SCORE.RESTR>
0

>  <SCORE.RESTR.CAVITY>
0

>  <SCORE.RESTR.norm>
0

>  <SCORE.SYSTEM>
0

>  <SCORE.SYSTEM.CONST>
0

>  <SCORE.SYSTEM.DIHEDRAL>
0

>  <SCORE.SYSTEM.SOLV>
0

>  <SCORE.SYSTEM.norm>
0

>  <SCORE.heavy>
11

>  <SCORE.norm>
-2.66357

>  <RMSD>
4.307

$$$$
1akx_lig
 OpenBabel11021811383D
libRbt.so/2013.1/901 2013/11/27
 11 10  0  0  0  0  0  0  0  0999 V2000
   -6.1551   -2.9932   -0.5011 N   0  0  0  0  0  0  0  0  0  0  0  0
   -4.8248   -3.6584   -0.3749 C   0  0  2  0  0  0  0  0  0  0  0  0
   -4.6232   -4.1297    1.0708 C   0  0  0  0  0  0  0  0  0  0  0  0
   -4.5645   -3.3251    1.9793 O   0  0  0  0  0  0  0  0  0  0  0  0
   -3.7156   -2.6683   -0.7552 C   0  0  0  0  0  0  0  0  0  0  0  0
   -3.8074   -2.3378   -2.2484 C   0  0  0  0  0  0  0  0  0  0  0  0
   -2.8135   -3.2016   -3.0249 C   0  0  0  0  0  0  0  0  0  0  0  0
   -1.4315   -2.9223   -2.5410 N   0  0  0  0  0  0  0  0  0  0  0  0
   -0.9205   -3.6258   -1.5630 C   0  0  0  0  0  0  0  0  0  0  0  0
   -0.2455   -3.0365   -0.6099 N   0  0  0  0  0  0  0  0  0  0  0  0
   -1.0908   -4.9205   -1.5357 N   0  0  0  0  0  0  0  0  0  0  0  0
  2  1  1  1  0  0  0
  2  3  1  0  0  0  0
  2  5  1  0  0  0  0
  3  4  1  0  0  0  0
  5  6  1  0  0  0  0
  6  7  1  0  0  0  0
  7  8  1  0  0  0  0
  8  9  1  0  0  0  0
  9 10  1  0  0  0  0
  9 11  1  0  0  0  0
M  END
>  <CHROM.1>
173.23931860,-63.82741548,-67.08968769,-97.67423081,-60.15127720,90.75634695
-136.96947801,-118.67532498,-71.18932405,-3.11529660,-3.34569344,-0.88714318
2.66261499,-0.18157116,1.82970633

>  <Name>
1akx_lig

>  <RI>
0

>  <Rbt.Current_Directory>
/home/itssahil/PROJECTS/Mol_Feturizer/New_Systems/rnas/1akx

>  <Rbt.Executable>
rbdock ($Id: //depot/dev/client3/rdock/2013.1/src/exe/rbdock.cxx#4 $)

>  <Rbt.Library>
libRbt.so (2013.1, Build901 2013/11/27)

>  <Rbt.Parameter_File>
/export/apps/rDock/src/rDock_2013.1_src/data/scripts/dock_solv.prm

>  <Rbt.Receptor>
prm/pocket_docking_3.prm

>  <SCORE>
-24.9178

>  <SCORE.INTER>
-19.81

>  <SCORE.INTER.CONST>
1

>  <SCORE.INTER.POLAR>
-3.02396

>  <SCORE.INTER.ROT>
8

>  <SCORE.INTER.SOLV>
6.19994

>  <SCORE.INTER.VDW>
-14.1268

>  <SCORE.INTER.norm>
-1.80091

>  <SCORE.INTRA>
-5.16855

>  <SCORE.INTRA.DIHEDRAL>
-12.2188

>  <SCORE.INTRA.DIHEDRAL.0>
21.6454

>  <SCORE.INTRA.POLAR>
0

>  <SCORE.INTRA.POLAR.0>
0

>  <SCORE.INTRA.REPUL>
0

>  <SCORE.INTRA.REPUL.0>
0

>  <SCORE.INTRA.SOLV>
1.23029

>  <SCORE.INTRA.SOLV.lig_0>
-16.5947

>  <SCORE.INTRA.VDW>
0.32569

>  <SCORE.INTRA.VDW.0>
-0.691398

>  <SCORE.INTRA.norm>
-0.469868

>  <SCORE.RESTR>
0.0606617

>  <SCORE.RESTR.CAVITY>
0.0606617

>  <SCORE.RESTR.norm>
0.0055147

>  <SCORE.SYSTEM>
0

>  <SCORE.SYSTEM.CONST>
0

>  <SCORE.SYSTEM.DIHEDRAL>
0

>  <SCORE.SYSTEM.SOLV>
0

>  <SCORE.SYSTEM.norm>
0

>  <SCORE.heavy>
11

>  <SCORE.norm>
-2.26526

>  <RMSD>
4.318

$$$$
1akx_lig
 OpenBabel11021811383D
libRbt.so/2013.1/901 2013/11/27
 11 10  0  0  0  0  0  0  0  0999 V2000
   -6.8805   -3.5346   -0.2735 N   0  0  0  0  0  0  0  0  0  0  0  0
   -5.5354   -3.9622   -0.7594 C   0  0  2  0  0  0  0  0  0  0  0  0
   -4.5866   -4.1220    0.4351 C   0  0  0  0  0  0  0  0  0  0  0  0
   -3.5047   -4.6571    0.2960 O   0  0  0  0  0  0  0  0  0  0  0  0
   -4.9776   -2.9080   -1.7253 C   0  0  0  0  0  0  0  0  0  0  0  0
   -3.7226   -3.4520   -2.4156 C   0  0  0  0  0  0  0  0  0  0  0  0
   -2.8172   -2.2886   -2.8201 C   0  0  0  0  0  0  0  0  0  0  0  0
   -1.3914   -2.6878   -2.6469 N   0  0  0  0  0  0  0  0  0  0  0  0
   -1.0233   -3.3818   -1.6004 C   0  0  0  0  0  0  0  0  0  0  0  0
   -1.2923   -4.6601   -1.5293 N   0  0  0  0  0  0  0  0  0  0  0  0
   -0.3794   -2.7967   -0.6262 N   0  0  0  0  0  0  0  0  0  0  0  0
  2  1  1  1  0  0  0
  2  3  1  0  0  0  0
  2  5  1  0  0  0  0
  3  4  1  0  0  0  0
  5  6  1  0  0  0  0
  6  7  1  0  0  0  0
  7  8  1  0  0  0  0
  8  9  1  0  0  0  0
  9 10  1  0  0  0  0
  9 11  1  0  0  0  0
M  END
>  <CHROM.1>
66.18761778,168.68531503,-169.97799220,-153.18193658,143.55718036,-40.88401982
75.83143417,69.72068803,-117.85455400,-3.28036175,-3.50881587,-1.20809084
2.86225653,-0.04881568,2.12463850

>  <Name>
1akx_lig

>  <RI>
0

>  <Rbt.Current_Directory>
/home/itssahil/PROJECTS/Mol_Feturizer/New_Systems/rnas/1akx

>  <Rbt.Executable>
rbdock ($Id: //depot/dev/client3/rdock/2013.1/src/exe/rbdock.cxx#4 $)

>  <Rbt.Library>
libRbt.so (2013.1, Build901 2013/11/27)

>  <Rbt.Parameter_File>
/export/apps/rDock/src/rDock_2013.1_src/data/scripts/dock_solv.prm

>  <Rbt.Receptor>
prm/pocket_docking_4.prm

>  <SCORE>
-29.2165

>  <SCORE.INTER>
-23.3169

>  <SCORE.INTER.CONST>
1

>  <SCORE.INTER.POLAR>
-3.35646

>  <SCORE.INTER.ROT>
8

>  <SCORE.INTER.SOLV>
6.61607

>  <SCORE.INTER.VDW>
-15.4951

>  <SCORE.INTER.norm>
-2.11972

>  <SCORE.INTRA>
-5.89959

>  <SCORE.INTRA.DIHEDRAL>
-9.68061

>  <SCORE.INTRA.DIHEDRAL.0>
21.6454

>  <SCORE.INTRA.POLAR>
-0.998731

>  <SCORE.INTRA.POLAR.0>
0

>  <SCORE.INTRA.REPUL>
0

>  <SCORE.INTRA.REPUL.0>
0

>  <SCORE.INTRA.SOLV>
1.6343

>  <SCORE.INTRA.SOLV.lig_0>
-16.5947

>  <SCORE.INTRA.VDW>
1.51925

>  <SCORE.INTRA.VDW.0>
-0.691398

>  <SCORE.INTRA.norm>
-0.536326

>  <SCORE.RESTR>
0

>  <SCORE.RESTR.CAVITY>
0

>  <SCORE.RESTR.norm>
0

>  <SCORE.SYSTEM>
0

>  <SCORE.SYSTEM.CONST>
0

>  <SCORE.SYSTEM.DIHEDRAL>
0

>  <SCORE.SYSTEM.SOLV>
0

>  <SCORE.SYSTEM.norm>
0

>  <SCORE.heavy>
11

>  <SCORE.norm>
-2.65605

>  <RMSD>
4.319

$$$$
1akx_lig
 OpenBabel11021811383D
libRbt.so/2013.1/901 2013/11/27
 11 10  0  0  0  0  0  0  0  0999 V2000
    0.0843  -10.1573   -1.3251 N   0  0  0  0  0  0  0  0  0  0  0  0
   -0.7855   -9.1014   -0.7280 C   0  0  2  0  0  0  0  0  0  0  0  0
   -2.1605   -9.6963   -0.3993 C   0  0  0  0  0  0  0  0  0  0  0  0
   -2.8210  -10.2375   -1.2637 O   0  0  0  0  0  0  0  0  0  0  0  0
   -0.9474   -7.9440   -1.7229 C   0  0  0  0  0  0  0  0  0  0  0  0
   -1.4859   -6.7081   -0.9949 C   0  0  0  0  0  0  0  0  0  0  0  0
   -1.2263   -5.4626   -1.8423 C   0  0  0  0  0  0  0  0  0  0  0  0
   -1.7561   -4.2627   -1.1338 N   0  0  0  0  0  0  0  0  0  0  0  0
   -1.1835   -3.0968   -1.2926 C   0  0  0  0  0  0  0  0  0  0  0  0
   -0.2518   -2.7017   -0.4636 N   0  0  0  0  0  0  0  0  0  0  0  0
   -1.5396   -2.3279   -2.2866 N   0  0  0  0  0  0  0  0  0  0  0  0
  2  1  1  6  0  0  0
  2  3  1  0  0  0  0
  2  5  1  0  0  0  0
  3  4  1  0  0  0  0
  5  6  1  0  0  0  0
  6  7  1  0  0  0  0
  7  8  1  0  0  0  0
  8  9  1  0  0  0  0
  9 10  1  0  0  0  0
  9 11  1  0  0  0  0
M  END
>  <CHROM.1>
163.01937734,-56.15912225,-163.96577945,161.85363880,179.77839748,149.24716607
-92.86379908,62.39975919,72.39514264,-1.26834964,-6.52299199,-1.23092773
-1.61066012,-0.11254768,-0.05175745

>  <Name>
1akx_lig

>  <RI>
0

>  <Rbt.Current_Directory>
/home/itssahil/PROJECTS/Mol_Feturizer/New_Systems/rnas/1akx

>  <Rbt.Executable>
rbdock ($Id: //depot/dev/client3/rdock/2013.1/src/exe/rbdock.cxx#4 $)

>  <Rbt.Library>
libRbt.so (2013.1, Build901 2013/11/27)

>  <Rbt.Parameter_File>
/export/apps/rDock/src/rDock_2013.1_src/data/scripts/dock_solv.prm

>  <Rbt.Receptor>
prm/pocket_docking_7.prm

>  <SCORE>
-28.1778

>  <SCORE.INTER>
-21.74

>  <SCORE.INTER.CONST>
1

>  <SCORE.INTER.POLAR>
-3.98778

>  <SCORE.INTER.ROT>
8

>  <SCORE.INTER.SOLV>
7.04842

>  <SCORE.INTER.VDW>
-12.4836

>  <SCORE.INTER.norm>
-1.97637

>  <SCORE.INTRA>
-6.43771

>  <SCORE.INTRA.DIHEDRAL>
-13.8711

>  <SCORE.INTRA.DIHEDRAL.0>
21.6454

>  <SCORE.INTRA.POLAR>
0

>  <SCORE.INTRA.POLAR.0>
0

>  <SCORE.INTRA.REPUL>
0

>  <SCORE.INTRA.REPUL.0>
0

>  <SCORE.INTRA.SOLV>
0.233053

>  <SCORE.INTRA.SOLV.lig_0>
-16.5947

>  <SCORE.INTRA.VDW>
0.381311

>  <SCORE.INTRA.VDW.0>
-0.691398

>  <SCORE.INTRA.norm>
-0.585246

>  <SCORE.RESTR>
0

>  <SCORE.RESTR.CAVITY>
0

>  <SCORE.RESTR.norm>
0

>  <SCORE.SYSTEM>
0

>  <SCORE.SYSTEM.CONST>
0

>  <SCORE.SYSTEM.DIHEDRAL>
0

>  <SCORE.SYSTEM.SOLV>
0

>  <SCORE.SYSTEM.norm>
0

>  <SCORE.heavy>
11

>  <SCORE.norm>
-2.56161

>  <RMSD>
4.322

$$$$
1akx_lig
 OpenBabel11021811383D
libRbt.so/2013.1/901 2013/11/27
 11 10  0  0  0  0  0  0  0  0999 V2000
   -7.9487   -4.4783    0.0843 N   0  0  0  0  0  0  0  0  0  0  0  0
   -6.5133   -4.5728    0.4831 C   0  0  2  0  0  0  0  0  0  0  0  0
   -6.4179   -4.9558    1.9653 C   0  0  0  0  0  0  0  0  0  0  0  0
   -5.3403   -5.1979    2.4715 O   0  0  0  0  0  0  0  0  0  0  0  0
   -5.8247   -3.2206    0.2532 C   0  0  0  0  0  0  0  0  0  0  0  0
   -5.8119   -2.8949   -1.2438 C   0  0  0  0  0  0  0  0  0  0  0  0
   -4.7580   -3.7526   -1.9442 C   0  0  0  0  0  0  0  0  0  0  0  0
   -3.4207   -3.1101   -1.7990 N   0  0  0  0  0  0  0  0  0  0  0  0
   -2.7088   -2.8224   -2.8586 C   0  0  0  0  0  0  0  0  0  0  0  0
   -3.2007   -2.0508   -3.7936 N   0  0  0  0  0  0  0  0  0  0  0  0
   -1.5002   -3.3026   -2.9797 N   0  0  0  0  0  0  0  0  0  0  0  0
  2  1  1  1  0  0  0
  2  3  1  0  0  0  0
  2  5  1  0  0  0  0
  3  4  1  0  0  0  0
  5  6  1  0  0  0  0
  6  7  1  0  0  0  0
  7  8  1  0  0  0  0
  8  9  1  0  0  0  0
  9 10  1  0  0  0  0
  9 11  1  0  0  0  0
M  END
>  <CHROM.1>
-175.28252576,173.75445029,-64.65259607,-75.02993430,-83.09179981,-123.97966044
56.98069587,0.50506071,48.13011319,-4.85498410,-3.67130883,-0.85850815,2.26748860
-0.06625794,2.03895103

>  <Name>
1akx_lig

>  <RI>
0

>  <Rbt.Current_Directory>
/home/itssahil/PROJECTS/Mol_Feturizer/New_Systems/rnas/1akx

>  <Rbt.Executable>
rbdock ($Id: //depot/dev/client3/rdock/2013.1/src/exe/rbdock.cxx#4 $)

>  <Rbt.Library>
libRbt.so (2013.1, Build901 2013/11/27)

>  <Rbt.Parameter_File>
/export/apps/rDock/src/rDock_2013.1_src/data/scripts/dock_solv.prm

>  <Rbt.Receptor>
prm/pocket_docking_5.prm

>  <SCORE>
-30.7873

>  <SCORE.INTER>
-24.0554

>  <SCORE.INTER.CONST>
1

>  <SCORE.INTER.POLAR>
-3.37771

>  <SCORE.INTER.ROT>
8

>  <SCORE.INTER.SOLV>
6.60244

>  <SCORE.INTER.VDW>
-15.9121

>  <SCORE.INTER.norm>
-2.18685

>  <SCORE.INTRA>
-6.73192

>  <SCORE.INTRA.DIHEDRAL>
-13.8777

>  <SCORE.INTRA.DIHEDRAL.0>
21.6454

>  <SCORE.INTRA.POLAR>
0

>  <SCORE.INTRA.POLAR.0>
0

>  <SCORE.INTRA.REPUL>
0

>  <SCORE.INTRA.REPUL.0>
0

>  <SCORE.INTRA.SOLV>
0.303258

>  <SCORE.INTRA.SOLV.lig_0>
-16.5947

>  <SCORE.INTRA.VDW>
0.0553012

>  <SCORE.INTRA.VDW.0>
-0.691398

>  <SCORE.INTRA.norm>
-0.611993

>  <SCORE.RESTR>
0

>  <SCORE.RESTR.CAVITY>
0

>  <SCORE.RESTR.norm>
0

>  <SCORE.SYSTEM>
0

>  <SCORE.SYSTEM.CONST>
0

>  <SCORE.SYSTEM.DIHEDRAL>
0

>  <SCORE.SYSTEM.SOLV>
0

>  <SCORE.SYSTEM.norm>
0

>  <SCORE.heavy>
11

>  <SCORE.norm>
-2.79885

>  <RMSD>
4.342

$$$$
1akx_lig
 OpenBabel11021811383D
libRbt.so/2013.1/901 2013/11/27
 11 10  0  0  0  0  0  0  0  0999 V2000
   -7.6568   -4.4552   -0.1591 N   0  0  0  0  0  0  0  0  0  0  0  0
   -6.2456   -4.3335    0.3119 C   0  0  2  0  0  0  0  0  0  0  0  0
   -6.1792   -4.6380    1.8138 C   0  0  0  0  0  0  0  0  0  0  0  0
   -5.1149   -4.6226    2.3997 O   0  0  0  0  0  0  0  0  0  0  0  0
   -5.7361   -2.9097    0.0501 C   0  0  0  0  0  0  0  0  0  0  0  0
   -5.3187   -2.7717   -1.4175 C   0  0  0  0  0  0  0  0  0  0  0  0
   -3.8984   -3.3077   -1.5973 C   0  0  0  0  0  0  0  0  0  0  0  0
   -3.2798   -2.6771   -2.7981 N   0  0  0  0  0  0  0  0  0  0  0  0
   -2.2052   -3.1958   -3.3355 C   0  0  0  0  0  0  0  0  0  0  0  0
   -1.9956   -3.0909   -4.6225 N   0  0  0  0  0  0  0  0  0  0  0  0
   -1.3360   -3.8149   -2.5824 N   0  0  0  0  0  0  0  0  0  0  0  0
  2  1  1  1  0  0  0
  2  3  1  0  0  0  0
  2  5  1  0  0  0  0
  3  4  1  0  0  0  0
  5  6  1  0  0  0  0
  6  7  1  0  0  0  0
  7  8  1  0  0  0  0
  8  9  1  0  0  0  0
  9 10  1  0  0  0  0
  9 11  1  0  0  0  0
M  END
>  <CHROM.1>
-178.57986171,178.51604032,-80.21866083,-82.90783622,-155.94574538,-163.91820556
148.91869226,19.58870155,92.51545536,-4.44951121,-3.63375007,-1.09971079
2.30284954,-0.09853457,1.90344900

>  <Name>
1akx_lig

>  <RI>
0

>  <Rbt.Current_Directory>
/home/itssahil/PROJECTS/Mol_Feturizer/New_Systems/rnas/1akx

>  <Rbt.Executable>
rbdock ($Id: //depot/dev/client3/rdock/2013.1/src/exe/rbdock.cxx#4 $)

>  <Rbt.Library>
libRbt.so (2013.1, Build901 2013/11/27)

>  <Rbt.Parameter_File>
/export/apps/rDock/src/rDock_2013.1_src/data/scripts/dock_solv.prm

>  <Rbt.Receptor>
prm/pocket_docking_5.prm

>  <SCORE>
-30.7418

>  <SCORE.INTER>
-25.5172

>  <SCORE.INTER.CONST>
1

>  <SCORE.INTER.POLAR>
-3.64583

>  <SCORE.INTER.ROT>
8

>  <SCORE.INTER.SOLV>
7.77518

>  <SCORE.INTER.VDW>
-16.3838

>  <SCORE.INTER.norm>
-2.31975

>  <SCORE.INTRA>
-5.22458

>  <SCORE.INTRA.DIHEDRAL>
-11.4692

>  <SCORE.INTRA.DIHEDRAL.0>
21.6454

>  <SCORE.INTRA.POLAR>
0

>  <SCORE.INTRA.POLAR.0>
0

>  <SCORE.INTRA.REPUL>
0

>  <SCORE.INTRA.REPUL.0>
0

>  <SCORE.INTRA.SOLV>
0.0331703

>  <SCORE.INTRA.SOLV.lig_0>
-16.5947

>  <SCORE.INTRA.VDW>
0.493446

>  <SCORE.INTRA.VDW.0>
-0.691398

>  <SCORE.INTRA.norm>
-0.474962

>  <SCORE.RESTR>
0

>  <SCORE.RESTR.CAVITY>
0

>  <SCORE.RESTR.norm>
0

>  <SCORE.SYSTEM>
0

>  <SCORE.SYSTEM.CONST>
0

>  <SCORE.SYSTEM.DIHEDRAL>
0

>  <SCORE.SYSTEM.SOLV>
0

>  <SCORE.SYSTEM.norm>
0

>  <SCORE.heavy>
11

>  <SCORE.norm>
-2.79471

>  <RMSD>
4.350

$$$$
1akx_lig
 OpenBabel11021811383D
libRbt.so/2013.1/901 2013/11/27
 11 10  0  0  0  0  0  0  0  0999 V2000
   -6.9233   -3.4949   -0.1909 N   0  0  0  0  0  0  0  0  0  0  0  0
   -5.5232   -4.0074   -0.2642 C   0  0  2  0  0  0  0  0  0  0  0  0
   -4.9270   -4.0715    1.1476 C   0  0  0  0  0  0  0  0  0  0  0  0
   -4.9145   -3.0852    1.8570 O   0  0  0  0  0  0  0  0  0  0  0  0
   -4.6778   -3.0732   -1.1405 C   0  0  0  0  0  0  0  0  0  0  0  0
   -5.0384   -3.2808   -2.6150 C   0  0  0  0  0  0  0  0  0  0  0  0
   -4.1362   -2.4096   -3.4891 C   0  0  0  0  0  0  0  0  0  0  0  0
   -2.7868   -3.0355   -3.5858 N   0  0  0  0  0  0  0  0  0  0  0  0
   -2.0182   -3.1123   -2.5294 C   0  0  0  0  0  0  0  0  0  0  0  0
   -1.1798   -2.1470   -2.2527 N   0  0  0  0  0  0  0  0  0  0  0  0
   -2.0935   -4.1542   -1.7453 N   0  0  0  0  0  0  0  0  0  0  0  0
  2  1  1  1  0  0  0
  2  3  1  0  0  0  0
  2  5  1  0  0  0  0
  3  4  1  0  0  0  0
  5  6  1  0  0  0  0
  6  7  1  0  0  0  0
  7  8  1  0  0  0  0
  8  9  1  0  0  0  0
  9 10  1  0  0  0  0
  9 11  1  0  0  0  0
M  END
>  <CHROM.1>
-175.28524254,-54.89305263,-74.28523527,-176.64432251,76.69245734,-67.20082018
-90.20505843,150.87664118,49.71396663,-4.02194058,-3.25581260,-1.31489955
2.34371504,0.05551496,1.71439599

>  <Name>
1akx_lig

>  <RI>
0

>  <Rbt.Current_Directory>
/home/itssahil/PROJECTS/Mol_Feturizer/New_Systems/rnas/1akx

>  <Rbt.Executable>
rbdock ($Id: //depot/dev/client3/rdock/2013.1/src/exe/rbdock.cxx#4 $)

>  <Rbt.Library>
libRbt.so (2013.1, Build901 2013/11/27)

>  <Rbt.Parameter_File>
/export/apps/rDock/src/rDock_2013.1_src/data/scripts/dock_solv.prm

>  <Rbt.Receptor>
prm/pocket_docking_5.prm

>  <SCORE>
-27.3451

>  <SCORE.INTER>
-21.0086

>  <SCORE.INTER.CONST>
1

>  <SCORE.INTER.POLAR>
-2.54561

>  <SCORE.INTER.ROT>
8

>  <SCORE.INTER.SOLV>
7.03527

>  <SCORE.INTER.VDW>
-16.7988

>  <SCORE.INTER.norm>
-1.90988

>  <SCORE.INTRA>
-6.3365

>  <SCORE.INTRA.DIHEDRAL>
-14.8724

>  <SCORE.INTRA.DIHEDRAL.0>
21.6454

>  <SCORE.INTRA.POLAR>
0

>  <SCORE.INTRA.POLAR.0>
0

>  <SCORE.INTRA.REPUL>
0

>  <SCORE.INTRA.REPUL.0>
0

>  <SCORE.INTRA.SOLV>
1.35509

>  <SCORE.INTRA.SOLV.lig_0>
-16.5947

>  <SCORE.INTRA.VDW>
0.422177

>  <SCORE.INTRA.VDW.0>
-0.691398

>  <SCORE.INTRA.norm>
-0.576045

>  <SCORE.RESTR>
0

>  <SCORE.RESTR.CAVITY>
0

>  <SCORE.RESTR.norm>
0

>  <SCORE.SYSTEM>
0

>  <SCORE.SYSTEM.CONST>
0

>  <SCORE.SYSTEM.DIHEDRAL>
0

>  <SCORE.SYSTEM.SOLV>
0

>  <SCORE.SYSTEM.norm>
0

>  <SCORE.heavy>
11

>  <SCORE.norm>
-2.48592

>  <RMSD>
4.359

$$$$
1akx_lig
 OpenBabel11021811383D
libRbt.so/2013.1/901 2013/11/27
 11 10  0  0  0  0  0  0  0  0999 V2000
   -6.5525   -3.5929    1.0518 N   0  0  0  0  0  0  0  0  0  0  0  0
   -6.4323   -4.0484   -0.3646 C   0  0  2  0  0  0  0  0  0  0  0  0
   -5.9913   -5.5172   -0.3943 C   0  0  0  0  0  0  0  0  0  0  0  0
   -4.9964   -5.8747    0.2044 O   0  0  0  0  0  0  0  0  0  0  0  0
   -5.3982   -3.1833   -1.0979 C   0  0  0  0  0  0  0  0  0  0  0  0
   -5.3546   -3.5737   -2.5788 C   0  0  0  0  0  0  0  0  0  0  0  0
   -4.4710   -2.5866   -3.3415 C   0  0  0  0  0  0  0  0  0  0  0  0
   -3.1172   -2.5505   -2.7183 N   0  0  0  0  0  0  0  0  0  0  0  0
   -2.1133   -3.1690   -3.2858 C   0  0  0  0  0  0  0  0  0  0  0  0
   -1.9289   -3.0787   -4.5778 N   0  0  0  0  0  0  0  0  0  0  0  0
   -1.2890   -3.8738   -2.5580 N   0  0  0  0  0  0  0  0  0  0  0  0
  2  1  1  1  0  0  0
  2  3  1  0  0  0  0
  2  5  1  0  0  0  0
  3  4  1  0  0  0  0
  5  6  1  0  0  0  0
  6  7  1  0  0  0  0
  7  8  1  0  0  0  0
  8  9  1  0  0  0  0
  9 10  1  0  0  0  0
  9 11  1  0  0  0  0
M  END
>  <CHROM.1>
171.76354558,-53.66408975,-175.46151909,172.22159727,56.13942378,103.29527074
43.95694371,-166.92079980,103.67093574,-4.30174753,-3.74116860,-1.75089376
2.43933814,-0.40889330,2.36061491

>  <Name>
1akx_lig

>  <RI>
0

>  <Rbt.Current_Directory>
/home/itssahil/PROJECTS/Mol_Feturizer/New_Systems/rnas/1akx

>  <Rbt.Executable>
rbdock ($Id: //depot/dev/client3/rdock/2013.1/src/exe/rbdock.cxx#4 $)

>  <Rbt.Library>
libRbt.so (2013.1, Build901 2013/11/27)

>  <Rbt.Parameter_File>
/export/apps/rDock/src/rDock_2013.1_src/data/scripts/dock_solv.prm

>  <Rbt.Receptor>
prm/pocket_docking_6.prm

>  <SCORE>
-35.0782

>  <SCORE.INTER>
-28.5198

>  <SCORE.INTER.CONST>
1

>  <SCORE.INTER.POLAR>
-3.73804

>  <SCORE.INTER.ROT>
8

>  <SCORE.INTER.SOLV>
8.07777

>  <SCORE.INTER.VDW>
-18.179

>  <SCORE.INTER.norm>
-2.59271

>  <SCORE.INTRA>
-6.55839

>  <SCORE.INTRA.DIHEDRAL>
-16.1504

>  <SCORE.INTRA.DIHEDRAL.0>
21.6454

>  <SCORE.INTRA.POLAR>
0

>  <SCORE.INTRA.POLAR.0>
0

>  <SCORE.INTRA.REPUL>
0

>  <SCORE.INTRA.REPUL.0>
0

>  <SCORE.INTRA.SOLV>
0.659431

>  <SCORE.INTRA.SOLV.lig_0>
-16.5947

>  <SCORE.INTRA.VDW>
1.18711

>  <SCORE.INTRA.VDW.0>
-0.691398

>  <SCORE.INTRA.norm>
-0.596217

>  <SCORE.RESTR>
0

>  <SCORE.RESTR.CAVITY>
0

>  <SCORE.RESTR.norm>
0

>  <SCORE.SYSTEM>
0

>  <SCORE.SYSTEM.CONST>
0

>  <SCORE.SYSTEM.DIHEDRAL>
0

>  <SCORE.SYSTEM.SOLV>
0

>  <SCORE.SYSTEM.norm>
0

>  <SCORE.heavy>
11

>  <SCORE.norm>
-3.18893

>  <RMSD>
4.361

$$$$
1akx_lig
 OpenBabel11021811383D
libRbt.so/2013.1/901 2013/11/27
 11 10  0  0  0  0  0  0  0  0999 V2000
   -5.3795   -6.8339    0.1502 N   0  0  0  0  0  0  0  0  0  0  0  0
   -5.9183   -5.8744   -0.8583 C   0  0  2  0  0  0  0  0  0  0  0  0
   -5.9759   -6.5543   -2.2320 C   0  0  0  0  0  0  0  0  0  0  0  0
   -6.3654   -5.9427   -3.2070 O   0  0  0  0  0  0  0  0  0  0  0  0
   -5.0104   -4.6391   -0.9305 C   0  0  0  0  0  0  0  0  0  0  0  0
   -3.5986   -5.0591   -1.3523 C   0  0  0  0  0  0  0  0  0  0  0  0
   -2.6978   -3.8259   -1.4207 C   0  0  0  0  0  0  0  0  0  0  0  0
   -3.2512   -2.8634   -2.4156 N   0  0  0  0  0  0  0  0  0  0  0  0
   -2.8614   -2.9083   -3.6639 C   0  0  0  0  0  0  0  0  0  0  0  0
   -3.7013   -2.6286   -4.6271 N   0  0  0  0  0  0  0  0  0  0  0  0
   -1.6272   -3.2274   -3.9483 N   0  0  0  0  0  0  0  0  0  0  0  0
  2  1  1  1  0  0  0
  2  3  1  0  0  0  0
  2  5  1  0  0  0  0
  3  4  1  0  0  0  0
  5  6  1  0  0  0  0
  6  7  1  0  0  0  0
  7  8  1  0  0  0  0
  8  9  1  0  0  0  0
  9 10  1  0  0  0  0
  9 11  1  0  0  0  0
M  END
>  <CHROM.1>
-64.90003352,-178.79420138,60.54178215,-179.91604915,-59.86939492,-91.64016758
145.35549966,122.05721385,-22.96835718,-4.21826703,-4.58778951,-2.24686556
-2.35057951,-0.59611055,-1.16644787

>  <Name>
1akx_lig

>  <RI>
0

>  <Rbt.Current_Directory>
/home/itssahil/PROJECTS/Mol_Feturizer/New_Systems/rnas/1akx

>  <Rbt.Executable>
rbdock ($Id: //depot/dev/client3/rdock/2013.1/src/exe/rbdock.cxx#4 $)

>  <Rbt.Library>
libRbt.so (2013.1, Build901 2013/11/27)

>  <Rbt.Parameter_File>
/export/apps/rDock/src/rDock_2013.1_src/data/scripts/dock_solv.prm

>  <Rbt.Receptor>
prm/pocket_docking_6.prm

>  <SCORE>
-21.4307

>  <SCORE.INTER>
-15.1846

>  <SCORE.INTER.CONST>
1

>  <SCORE.INTER.POLAR>
-3.0188

>  <SCORE.INTER.ROT>
8

>  <SCORE.INTER.SOLV>
7.09035

>  <SCORE.INTER.VDW>
-11.3572

>  <SCORE.INTER.norm>
-1.38042

>  <SCORE.INTRA>
-6.24604

>  <SCORE.INTRA.DIHEDRAL>
-16.7823

>  <SCORE.INTRA.DIHEDRAL.0>
21.6454

>  <SCORE.INTRA.POLAR>
0

>  <SCORE.INTRA.POLAR.0>
0

>  <SCORE.INTRA.REPUL>
0

>  <SCORE.INTRA.REPUL.0>
0

>  <SCORE.INTRA.SOLV>
0.573362

>  <SCORE.INTRA.SOLV.lig_0>
-16.5947

>  <SCORE.INTRA.VDW>
1.85843

>  <SCORE.INTRA.VDW.0>
-0.691398

>  <SCORE.INTRA.norm>
-0.567822

>  <SCORE.RESTR>
0

>  <SCORE.RESTR.CAVITY>
0

>  <SCORE.RESTR.norm>
0

>  <SCORE.SYSTEM>
0

>  <SCORE.SYSTEM.CONST>
0

>  <SCORE.SYSTEM.DIHEDRAL>
0

>  <SCORE.SYSTEM.SOLV>
0

>  <SCORE.SYSTEM.norm>
0

>  <SCORE.heavy>
11

>  <SCORE.norm>
-1.94824

>  <RMSD>
4.361

$$$$
1akx_lig
 OpenBabel11021811383D
libRbt.so/2013.1/901 2013/11/27
 11 10  0  0  0  0  0  0  0  0999 V2000
   -6.7540   -3.4042   -0.3985 N   0  0  0  0  0  0  0  0  0  0  0  0
   -5.3544   -3.9231   -0.4071 C   0  0  2  0  0  0  0  0  0  0  0  0
   -4.8949   -4.1803    1.0335 C   0  0  0  0  0  0  0  0  0  0  0  0
   -4.9109   -3.2854    1.8550 O   0  0  0  0  0  0  0  0  0  0  0  0
   -4.4277   -2.8944   -1.0694 C   0  0  0  0  0  0  0  0  0  0  0  0
   -4.4895   -3.0482   -2.5925 C   0  0  0  0  0  0  0  0  0  0  0  0
   -3.3434   -2.2643   -3.2320 C   0  0  0  0  0  0  0  0  0  0  0  0
   -2.1458   -3.1444   -3.3476 N   0  0  0  0  0  0  0  0  0  0  0  0
   -1.3855   -3.3638   -2.3054 C   0  0  0  0  0  0  0  0  0  0  0  0
   -1.5650   -4.4319   -1.5717 N   0  0  0  0  0  0  0  0  0  0  0  0
   -0.4400   -2.5158   -2.0006 N   0  0  0  0  0  0  0  0  0  0  0  0
  2  1  1  1  0  0  0
  2  3  1  0  0  0  0
  2  5  1  0  0  0  0
  3  4  1  0  0  0  0
  5  6  1  0  0  0  0
  6  7  1  0  0  0  0
  7  8  1  0  0  0  0
  8  9  1  0  0  0  0
  9 10  1  0  0  0  0
  9 11  1  0  0  0  0
M  END
>  <CHROM.1>
70.79262791,-57.05225143,-82.84765415,-166.89159869,89.55002748,-79.32903396
95.72819224,91.24032388,-113.01464162,-3.61510736,-3.31564547,-1.24628875
2.50521536,-0.06848508,1.82118182

>  <Name>
1akx_lig

>  <RI>
0

>  <Rbt.Current_Directory>
/home/itssahil/PROJECTS/Mol_Feturizer/New_Systems/rnas/1akx

>  <Rbt.Executable>
rbdock ($Id: //depot/dev/client3/rdock/2013.1/src/exe/rbdock.cxx#4 $)

>  <Rbt.Library>
libRbt.so (2013.1, Build901 2013/11/27)

>  <Rbt.Parameter_File>
/export/apps/rDock/src/rDock_2013.1_src/data/scripts/dock_solv.prm

>  <Rbt.Receptor>
prm/pocket_docking_7.prm

>  <SCORE>
-22.8327

>  <SCORE.INTER>
-16.9429

>  <SCORE.INTER.CONST>
1

>  <SCORE.INTER.POLAR>
-1.65491

>  <SCORE.INTER.ROT>
8

>  <SCORE.INTER.SOLV>
7.5628

>  <SCORE.INTER.VDW>
-17.2332

>  <SCORE.INTER.norm>
-1.54027

>  <SCORE.INTRA>
-5.88979

>  <SCORE.INTRA.DIHEDRAL>
-11.2807

>  <SCORE.INTRA.DIHEDRAL.0>
21.6454

>  <SCORE.INTRA.POLAR>
0

>  <SCORE.INTRA.POLAR.0>
0

>  <SCORE.INTRA.REPUL>
0

>  <SCORE.INTRA.REPUL.0>
0

>  <SCORE.INTRA.SOLV>
1.05646

>  <SCORE.INTRA.SOLV.lig_0>
-16.5947

>  <SCORE.INTRA.VDW>
-0.777681

>  <SCORE.INTRA.VDW.0>
-0.691398

>  <SCORE.INTRA.norm>
-0.535435

>  <SCORE.RESTR>
0

>  <SCORE.RESTR.CAVITY>
0

>  <SCORE.RESTR.norm>
0

>  <SCORE.SYSTEM>
0

>  <SCORE.SYSTEM.CONST>
0

>  <SCORE.SYSTEM.DIHEDRAL>
0

>  <SCORE.SYSTEM.SOLV>
0

>  <SCORE.SYSTEM.norm>
0

>  <SCORE.heavy>
11

>  <SCORE.norm>
-2.0757

>  <RMSD>
4.380

$$$$
1akx_lig
 OpenBabel11021811383D
libRbt.so/2013.1/901 2013/11/27
 11 10  0  0  0  0  0  0  0  0999 V2000
   -7.2278   -4.3034   -0.4943 N   0  0  0  0  0  0  0  0  0  0  0  0
   -5.7807   -4.2605   -0.8579 C   0  0  2  0  0  0  0  0  0  0  0  0
   -4.9575   -4.9543    0.2347 C   0  0  0  0  0  0  0  0  0  0  0  0
   -3.7549   -5.0795    0.1150 O   0  0  0  0  0  0  0  0  0  0  0  0
   -5.3277   -2.8009   -0.9980 C   0  0  0  0  0  0  0  0  0  0  0  0
   -4.5197   -2.6319   -2.2887 C   0  0  0  0  0  0  0  0  0  0  0  0
   -3.1459   -3.2809   -2.1200 C   0  0  0  0  0  0  0  0  0  0  0  0
   -2.3008   -2.4280   -1.2365 N   0  0  0  0  0  0  0  0  0  0  0  0
   -1.0091   -2.6262   -1.1680 C   0  0  0  0  0  0  0  0  0  0  0  0
   -0.4588   -3.0027   -0.0425 N   0  0  0  0  0  0  0  0  0  0  0  0
   -0.2680   -2.4535   -2.2295 N   0  0  0  0  0  0  0  0  0  0  0  0
  2  1  1  1  0  0  0
  2  3  1  0  0  0  0
  2  5  1  0  0  0  0
  3  4  1  0  0  0  0
  5  6  1  0  0  0  0
  6  7  1  0  0  0  0
  7  8  1  0  0  0  0
  8  9  1  0  0  0  0
  9 10  1  0  0  0  0
  9 11  1  0  0  0  0
M  END
>  <CHROM.1>
64.11177731,177.14117686,-133.14544907,-72.86636598,-73.79194095,-165.79150108
-116.24134907,-11.67695807,6.10304235,-3.51337132,-3.44732888,-0.98393763
2.84908871,0.12802861,2.29008777

>  <Name>
1akx_lig

>  <RI>
0

>  <Rbt.Current_Directory>
/home/afrankz/demos/rdock_decoys_rna/rnas/1akx

>  <Rbt.Executable>
rbdock ($Id: //depot/dev/client3/rdock/2013.1/src/exe/rbdock.cxx#4 $)

>  <Rbt.Library>
libRbt.so (2013.1, Build901 2013/11/27)

>  <Rbt.Parameter_File>
/export/apps/rDock/src/rDock_2013.1_src/data/scripts/dock_solv.prm

>  <Rbt.Receptor>
prm/pocket_docking_5.prm

>  <SCORE>
-26.1983

>  <SCORE.INTER>
-21.7368

>  <SCORE.INTER.CONST>
1

>  <SCORE.INTER.POLAR>
-3.48637

>  <SCORE.INTER.ROT>
8

>  <SCORE.INTER.SOLV>
6.52075

>  <SCORE.INTER.VDW>
-13.9769

>  <SCORE.INTER.norm>
-1.97607

>  <SCORE.INTRA>
-4.47965

>  <SCORE.INTRA.DIHEDRAL>
-10.2071

>  <SCORE.INTRA.DIHEDRAL.0>
21.6454

>  <SCORE.INTRA.POLAR>
0

>  <SCORE.INTRA.POLAR.0>
0

>  <SCORE.INTRA.REPUL>
0

>  <SCORE.INTRA.REPUL.0>
0

>  <SCORE.INTRA.SOLV>
1.09375

>  <SCORE.INTRA.SOLV.lig_0>
-16.5947

>  <SCORE.INTRA.VDW>
0.0770209

>  <SCORE.INTRA.VDW.0>
-0.691398

>  <SCORE.INTRA.norm>
-0.407241

>  <SCORE.RESTR>
0.0181904

>  <SCORE.RESTR.CAVITY>
0.0181904

>  <SCORE.RESTR.norm>
0.00165367

>  <SCORE.SYSTEM>
0

>  <SCORE.SYSTEM.CONST>
0

>  <SCORE.SYSTEM.DIHEDRAL>
0

>  <SCORE.SYSTEM.SOLV>
0

>  <SCORE.SYSTEM.norm>
0

>  <SCORE.heavy>
11

>  <SCORE.norm>
-2.38166

>  <RMSD>
4.388

>  <RMSD>
4.388

$$$$
1akx_lig
 OpenBabel11021811383D
libRbt.so/2013.1/901 2013/11/27
 11 10  0  0  0  0  0  0  0  0999 V2000
   -7.2278   -4.3034   -0.4943 N   0  0  0  0  0  0  0  0  0  0  0  0
   -5.7807   -4.2605   -0.8579 C   0  0  2  0  0  0  0  0  0  0  0  0
   -4.9575   -4.9543    0.2347 C   0  0  0  0  0  0  0  0  0  0  0  0
   -3.7549   -5.0795    0.1150 O   0  0  0  0  0  0  0  0  0  0  0  0
   -5.3277   -2.8009   -0.9980 C   0  0  0  0  0  0  0  0  0  0  0  0
   -4.5197   -2.6319   -2.2887 C   0  0  0  0  0  0  0  0  0  0  0  0
   -3.1459   -3.2809   -2.1200 C   0  0  0  0  0  0  0  0  0  0  0  0
   -2.3008   -2.4280   -1.2365 N   0  0  0  0  0  0  0  0  0  0  0  0
   -1.0091   -2.6262   -1.1680 C   0  0  0  0  0  0  0  0  0  0  0  0
   -0.4588   -3.0027   -0.0425 N   0  0  0  0  0  0  0  0  0  0  0  0
   -0.2680   -2.4535   -2.2295 N   0  0  0  0  0  0  0  0  0  0  0  0
  2  1  1  1  0  0  0
  2  3  1  0  0  0  0
  2  5  1  0  0  0  0
  3  4  1  0  0  0  0
  5  6  1  0  0  0  0
  6  7  1  0  0  0  0
  7  8  1  0  0  0  0
  8  9  1  0  0  0  0
  9 10  1  0  0  0  0
  9 11  1  0  0  0  0
M  END
>  <CHROM.1>
64.11177731,177.14117686,-133.14544907,-72.86636598,-73.79194095,-165.79150108
-116.24134907,-11.67695807,6.10304235,-3.51337132,-3.44732888,-0.98393763
2.84908871,0.12802861,2.29008777

>  <Name>
1akx_lig

>  <RI>
0

>  <Rbt.Current_Directory>
/home/afrankz/demos/rdock_decoys_rna/rnas/1akx

>  <Rbt.Executable>
rbdock ($Id: //depot/dev/client3/rdock/2013.1/src/exe/rbdock.cxx#4 $)

>  <Rbt.Library>
libRbt.so (2013.1, Build901 2013/11/27)

>  <Rbt.Parameter_File>
/export/apps/rDock/src/rDock_2013.1_src/data/scripts/dock_solv.prm

>  <Rbt.Receptor>
prm/pocket_docking_5.prm

>  <SCORE>
-26.1983

>  <SCORE.INTER>
-21.7368

>  <SCORE.INTER.CONST>
1

>  <SCORE.INTER.POLAR>
-3.48637

>  <SCORE.INTER.ROT>
8

>  <SCORE.INTER.SOLV>
6.52075

>  <SCORE.INTER.VDW>
-13.9769

>  <SCORE.INTER.norm>
-1.97607

>  <SCORE.INTRA>
-4.47965

>  <SCORE.INTRA.DIHEDRAL>
-10.2071

>  <SCORE.INTRA.DIHEDRAL.0>
21.6454

>  <SCORE.INTRA.POLAR>
0

>  <SCORE.INTRA.POLAR.0>
0

>  <SCORE.INTRA.REPUL>
0

>  <SCORE.INTRA.REPUL.0>
0

>  <SCORE.INTRA.SOLV>
1.09375

>  <SCORE.INTRA.SOLV.lig_0>
-16.5947

>  <SCORE.INTRA.VDW>
0.0770209

>  <SCORE.INTRA.VDW.0>
-0.691398

>  <SCORE.INTRA.norm>
-0.407241

>  <SCORE.RESTR>
0.0181904

>  <SCORE.RESTR.CAVITY>
0.0181904

>  <SCORE.RESTR.norm>
0.00165367

>  <SCORE.SYSTEM>
0

>  <SCORE.SYSTEM.CONST>
0

>  <SCORE.SYSTEM.DIHEDRAL>
0

>  <SCORE.SYSTEM.SOLV>
0

>  <SCORE.SYSTEM.norm>
0

>  <SCORE.heavy>
11

>  <SCORE.norm>
-2.38166

>  <RMSD>
4.388

>  <RMSD>
4.388

$$$$
1akx_lig
 OpenBabel11021811383D
libRbt.so/2013.1/901 2013/11/27
 11 10  0  0  0  0  0  0  0  0999 V2000
   -8.0619   -5.0091   -0.1757 N   0  0  0  0  0  0  0  0  0  0  0  0
   -6.5879   -4.8058   -0.2953 C   0  0  2  0  0  0  0  0  0  0  0  0
   -5.8664   -5.6624    0.7527 C   0  0  0  0  0  0  0  0  0  0  0  0
   -6.1225   -5.5375    1.9338 O   0  0  0  0  0  0  0  0  0  0  0  0
   -6.2524   -3.3249   -0.0724 C   0  0  0  0  0  0  0  0  0  0  0  0
   -4.7972   -3.0589   -0.4710 C   0  0  0  0  0  0  0  0  0  0  0  0
   -4.6603   -3.1435   -1.9912 C   0  0  0  0  0  0  0  0  0  0  0  0
   -3.2842   -2.7297   -2.3880 N   0  0  0  0  0  0  0  0  0  0  0  0
   -2.8924   -2.8487   -3.6309 C   0  0  0  0  0  0  0  0  0  0  0  0
   -3.7068   -2.5504   -4.6102 N   0  0  0  0  0  0  0  0  0  0  0  0
   -1.6812   -3.2610   -3.8938 N   0  0  0  0  0  0  0  0  0  0  0  0
  2  1  1  1  0  0  0
  2  3  1  0  0  0  0
  2  5  1  0  0  0  0
  3  4  1  0  0  0  0
  5  6  1  0  0  0  0
  6  7  1  0  0  0  0
  7  8  1  0  0  0  0
  8  9  1  0  0  0  0
  9 10  1  0  0  0  0
  9 11  1  0  0  0  0
M  END
>  <CHROM.1>
64.42295987,-57.07406631,-168.55975779,70.85319308,173.46107321,173.21482492
40.65595469,-65.82285216,-10.92979932,-4.91313310,-3.82525836,-1.35894806
2.23788074,0.03820740,2.00439854

>  <Name>
1akx_lig

>  <RI>
0

>  <Rbt.Current_Directory>
/home/itssahil/PROJECTS/Mol_Feturizer/New_Systems/rnas/1akx

>  <Rbt.Executable>
rbdock ($Id: //depot/dev/client3/rdock/2013.1/src/exe/rbdock.cxx#4 $)

>  <Rbt.Library>
libRbt.so (2013.1, Build901 2013/11/27)

>  <Rbt.Parameter_File>
/export/apps/rDock/src/rDock_2013.1_src/data/scripts/dock_solv.prm

>  <Rbt.Receptor>
prm/pocket_docking_7.prm

>  <SCORE>
-29.0952

>  <SCORE.INTER>
-22.7447

>  <SCORE.INTER.CONST>
1

>  <SCORE.INTER.POLAR>
-3.4997

>  <SCORE.INTER.ROT>
8

>  <SCORE.INTER.SOLV>
7.11473

>  <SCORE.INTER.VDW>
-14.8024

>  <SCORE.INTER.norm>
-2.0677

>  <SCORE.INTRA>
-6.3505

>  <SCORE.INTRA.DIHEDRAL>
-15.6169

>  <SCORE.INTRA.DIHEDRAL.0>
21.6454

>  <SCORE.INTRA.POLAR>
0

>  <SCORE.INTRA.POLAR.0>
0

>  <SCORE.INTRA.REPUL>
0

>  <SCORE.INTRA.REPUL.0>
0

>  <SCORE.INTRA.SOLV>
0.349749

>  <SCORE.INTRA.SOLV.lig_0>
-16.5947

>  <SCORE.INTRA.VDW>
1.28306

>  <SCORE.INTRA.VDW.0>
-0.691398

>  <SCORE.INTRA.norm>
-0.577318

>  <SCORE.RESTR>
0

>  <SCORE.RESTR.CAVITY>
0

>  <SCORE.RESTR.norm>
0

>  <SCORE.SYSTEM>
0

>  <SCORE.SYSTEM.CONST>
0

>  <SCORE.SYSTEM.DIHEDRAL>
0

>  <SCORE.SYSTEM.SOLV>
0

>  <SCORE.SYSTEM.norm>
0

>  <SCORE.heavy>
11

>  <SCORE.norm>
-2.64502

>  <RMSD>
4.392

$$$$
1akx_lig
 OpenBabel11021811383D
libRbt.so/2013.1/901 2013/11/27
 11 10  0  0  0  0  0  0  0  0999 V2000
   -7.3579   -3.8107    0.0792 N   0  0  0  0  0  0  0  0  0  0  0  0
   -6.0027   -4.4306    0.1649 C   0  0  2  0  0  0  0  0  0  0  0  0
   -5.6423   -4.6717    1.6362 C   0  0  0  0  0  0  0  0  0  0  0  0
   -6.2997   -5.4354    2.3150 O   0  0  0  0  0  0  0  0  0  0  0  0
   -4.9671   -3.4956   -0.4744 C   0  0  0  0  0  0  0  0  0  0  0  0
   -5.2313   -3.3837   -1.9794 C   0  0  0  0  0  0  0  0  0  0  0  0
   -4.1574   -2.5063   -2.6227 C   0  0  0  0  0  0  0  0  0  0  0  0
   -2.8157   -3.1099   -2.3821 N   0  0  0  0  0  0  0  0  0  0  0  0
   -1.9428   -2.4962   -1.6246 C   0  0  0  0  0  0  0  0  0  0  0  0
   -0.8157   -2.0678   -2.1318 N   0  0  0  0  0  0  0  0  0  0  0  0
   -2.2013   -2.3056   -0.3585 N   0  0  0  0  0  0  0  0  0  0  0  0
  2  1  1  1  0  0  0
  2  3  1  0  0  0  0
  2  5  1  0  0  0  0
  3  4  1  0  0  0  0
  5  6  1  0  0  0  0
  6  7  1  0  0  0  0
  7  8  1  0  0  0  0
  8  9  1  0  0  0  0
  9 10  1  0  0  0  0
  9 11  1  0  0  0  0
M  END
>  <CHROM.1>
70.58665202,63.10081696,-66.28858618,-177.26577587,59.27438016,-113.64816356
-115.94058790,30.77289189,91.62166547,-4.31917610,-3.42675216,-0.64369759
2.47034624,0.22093217,1.93103068

>  <Name>
1akx_lig

>  <RI>
0

>  <Rbt.Current_Directory>
/home/itssahil/PROJECTS/Mol_Feturizer/New_Systems/rnas/1akx

>  <Rbt.Executable>
rbdock ($Id: //depot/dev/client3/rdock/2013.1/src/exe/rbdock.cxx#4 $)

>  <Rbt.Library>
libRbt.so (2013.1, Build901 2013/11/27)

>  <Rbt.Parameter_File>
/export/apps/rDock/src/rDock_2013.1_src/data/scripts/dock_solv.prm

>  <Rbt.Receptor>
prm/pocket_docking_7.prm

>  <SCORE>
-31.7862

>  <SCORE.INTER>
-23.6023

>  <SCORE.INTER.CONST>
1

>  <SCORE.INTER.POLAR>
-3.58929

>  <SCORE.INTER.ROT>
8

>  <SCORE.INTER.SOLV>
6.70144

>  <SCORE.INTER.VDW>
-14.9377

>  <SCORE.INTER.norm>
-2.14566

>  <SCORE.INTRA>
-8.18392

>  <SCORE.INTRA.DIHEDRAL>
-16.353

>  <SCORE.INTRA.DIHEDRAL.0>
21.6454

>  <SCORE.INTRA.POLAR>
0

>  <SCORE.INTRA.POLAR.0>
0

>  <SCORE.INTRA.REPUL>
0

>  <SCORE.INTRA.REPUL.0>
0

>  <SCORE.INTRA.SOLV>
0.748811

>  <SCORE.INTRA.SOLV.lig_0>
-16.5947

>  <SCORE.INTRA.VDW>
-0.381814

>  <SCORE.INTRA.VDW.0>
-0.691398

>  <SCORE.INTRA.norm>
-0.743993

>  <SCORE.RESTR>
0

>  <SCORE.RESTR.CAVITY>
0

>  <SCORE.RESTR.norm>
0

>  <SCORE.SYSTEM>
0

>  <SCORE.SYSTEM.CONST>
0

>  <SCORE.SYSTEM.DIHEDRAL>
0

>  <SCORE.SYSTEM.SOLV>
0

>  <SCORE.SYSTEM.norm>
0

>  <SCORE.heavy>
11

>  <SCORE.norm>
-2.88966

>  <RMSD>
4.397

$$$$
1akx_lig
 OpenBabel11021811383D
libRbt.so/2013.1/901 2013/11/27
 11 10  0  0  0  0  0  0  0  0999 V2000
   -7.0109   -4.6313   -0.7853 N   0  0  0  0  0  0  0  0  0  0  0  0
   -5.5397   -4.3823   -0.7419 C   0  0  2  0  0  0  0  0  0  0  0  0
   -5.0184   -4.6411    0.6772 C   0  0  0  0  0  0  0  0  0  0  0  0
   -5.1220   -5.7419    1.1811 O   0  0  0  0  0  0  0  0  0  0  0  0
   -5.2512   -2.9289   -1.1415 C   0  0  0  0  0  0  0  0  0  0  0  0
   -3.7409   -2.6736   -1.1081 C   0  0  0  0  0  0  0  0  0  0  0  0
   -3.1232   -3.0869   -2.4439 C   0  0  0  0  0  0  0  0  0  0  0  0
   -1.6524   -2.8471   -2.4044 N   0  0  0  0  0  0  0  0  0  0  0  0
   -0.8823   -3.5945   -1.6556 C   0  0  0  0  0  0  0  0  0  0  0  0
   -0.7200   -4.8620   -1.9358 N   0  0  0  0  0  0  0  0  0  0  0  0
   -0.2687   -3.0709   -0.6283 N   0  0  0  0  0  0  0  0  0  0  0  0
  2  1  1  1  0  0  0
  2  3  1  0  0  0  0
  2  5  1  0  0  0  0
  3  4  1  0  0  0  0
  5  6  1  0  0  0  0
  6  7  1  0  0  0  0
  7  8  1  0  0  0  0
  8  9  1  0  0  0  0
  9 10  1  0  0  0  0
  9 11  1  0  0  0  0
M  END
>  <CHROM.1>
176.25521470,61.10260209,-179.57441030,85.78065730,-179.56843727,70.26199334
66.87829494,-15.63389697,-135.46442126,-3.48863591,-3.89217394,-0.98135777
2.77658043,-0.04900215,2.33048433

>  <Name>
1akx_lig

>  <RI>
0

>  <Rbt.Current_Directory>
/home/itssahil/PROJECTS/Mol_Feturizer/New_Systems/rnas/1akx

>  <Rbt.Executable>
rbdock ($Id: //depot/dev/client3/rdock/2013.1/src/exe/rbdock.cxx#4 $)

>  <Rbt.Library>
libRbt.so (2013.1, Build901 2013/11/27)

>  <Rbt.Parameter_File>
/export/apps/rDock/src/rDock_2013.1_src/data/scripts/dock_solv.prm

>  <Rbt.Receptor>
prm/pocket_docking_6.prm

>  <SCORE>
-24.4258

>  <SCORE.INTER>
-18.4042

>  <SCORE.INTER.CONST>
1

>  <SCORE.INTER.POLAR>
-3.04689

>  <SCORE.INTER.ROT>
8

>  <SCORE.INTER.SOLV>
5.96322

>  <SCORE.INTER.VDW>
-13.0342

>  <SCORE.INTER.norm>
-1.67311

>  <SCORE.INTRA>
-6.0216

>  <SCORE.INTRA.DIHEDRAL>
-14.418

>  <SCORE.INTRA.DIHEDRAL.0>
21.6454

>  <SCORE.INTRA.POLAR>
0

>  <SCORE.INTRA.POLAR.0>
0

>  <SCORE.INTRA.REPUL>
0

>  <SCORE.INTRA.REPUL.0>
0

>  <SCORE.INTRA.SOLV>
0.414199

>  <SCORE.INTRA.SOLV.lig_0>
-16.5947

>  <SCORE.INTRA.VDW>
0.980325

>  <SCORE.INTRA.VDW.0>
-0.691398

>  <SCORE.INTRA.norm>
-0.547418

>  <SCORE.RESTR>
0

>  <SCORE.RESTR.CAVITY>
0

>  <SCORE.RESTR.norm>
0

>  <SCORE.SYSTEM>
0

>  <SCORE.SYSTEM.CONST>
0

>  <SCORE.SYSTEM.DIHEDRAL>
0

>  <SCORE.SYSTEM.SOLV>
0

>  <SCORE.SYSTEM.norm>
0

>  <SCORE.heavy>
11

>  <SCORE.norm>
-2.22053

>  <RMSD>
4.399

$$$$
1akx_lig
 OpenBabel11021811383D
libRbt.so/2013.1/901 2013/11/27
 11 10  0  0  0  0  0  0  0  0999 V2000
   -7.5065   -3.8569    0.2074 N   0  0  0  0  0  0  0  0  0  0  0  0
   -6.2329   -4.6268    0.0927 C   0  0  2  0  0  0  0  0  0  0  0  0
   -5.7913   -5.0961    1.4846 C   0  0  0  0  0  0  0  0  0  0  0  0
   -6.4866   -5.8564    2.1285 O   0  0  0  0  0  0  0  0  0  0  0  0
   -5.1452   -3.7350   -0.5213 C   0  0  0  0  0  0  0  0  0  0  0  0
   -5.5492   -3.3316   -1.9431 C   0  0  0  0  0  0  0  0  0  0  0  0
   -4.3801   -2.6199   -2.6239 C   0  0  0  0  0  0  0  0  0  0  0  0
   -3.2181   -3.5496   -2.7116 N   0  0  0  0  0  0  0  0  0  0  0  0
   -2.0827   -3.1402   -3.2173 C   0  0  0  0  0  0  0  0  0  0  0  0
   -1.0998   -2.7865   -2.4298 N   0  0  0  0  0  0  0  0  0  0  0  0
   -1.9288   -3.0909   -4.5134 N   0  0  0  0  0  0  0  0  0  0  0  0
  2  1  1  1  0  0  0
  2  3  1  0  0  0  0
  2  5  1  0  0  0  0
  3  4  1  0  0  0  0
  5  6  1  0  0  0  0
  6  7  1  0  0  0  0
  7  8  1  0  0  0  0
  8  9  1  0  0  0  0
  9 10  1  0  0  0  0
  9 11  1  0  0  0  0
M  END
>  <CHROM.1>
-160.20826702,62.45183954,-62.98658005,-171.70988570,61.36134952,-177.56021757
99.85609521,57.09907354,-113.76295160,-4.49670399,-3.79329942,-1.26722075
2.32613483,-0.12462635,2.08404107

>  <Name>
1akx_lig

>  <RI>
0

>  <Rbt.Current_Directory>
/home/itssahil/PROJECTS/Mol_Feturizer/New_Systems/rnas/1akx

>  <Rbt.Executable>
rbdock ($Id: //depot/dev/client3/rdock/2013.1/src/exe/rbdock.cxx#4 $)

>  <Rbt.Library>
libRbt.so (2013.1, Build901 2013/11/27)

>  <Rbt.Parameter_File>
/export/apps/rDock/src/rDock_2013.1_src/data/scripts/dock_solv.prm

>  <Rbt.Receptor>
prm/pocket_docking_6.prm

>  <SCORE>
-32.8079

>  <SCORE.INTER>
-25.4207

>  <SCORE.INTER.CONST>
1

>  <SCORE.INTER.POLAR>
-3.50069

>  <SCORE.INTER.ROT>
8

>  <SCORE.INTER.SOLV>
7.86901

>  <SCORE.INTER.VDW>
-16.8345

>  <SCORE.INTER.norm>
-2.31098

>  <SCORE.INTRA>
-7.38717

>  <SCORE.INTRA.DIHEDRAL>
-15.6143

>  <SCORE.INTRA.DIHEDRAL.0>
21.6454

>  <SCORE.INTRA.POLAR>
0

>  <SCORE.INTRA.POLAR.0>
0

>  <SCORE.INTRA.REPUL>
0

>  <SCORE.INTRA.REPUL.0>
0

>  <SCORE.INTRA.SOLV>
0.343866

>  <SCORE.INTRA.SOLV.lig_0>
-16.5947

>  <SCORE.INTRA.VDW>
0.248065

>  <SCORE.INTRA.VDW.0>
-0.691398

>  <SCORE.INTRA.norm>
-0.671561

>  <SCORE.RESTR>
0

>  <SCORE.RESTR.CAVITY>
0

>  <SCORE.RESTR.norm>
0

>  <SCORE.SYSTEM>
0

>  <SCORE.SYSTEM.CONST>
0

>  <SCORE.SYSTEM.DIHEDRAL>
0

>  <SCORE.SYSTEM.SOLV>
0

>  <SCORE.SYSTEM.norm>
0

>  <SCORE.heavy>
11

>  <SCORE.norm>
-2.98254

>  <RMSD>
4.410

$$$$
1akx_lig
 OpenBabel11021811383D
libRbt.so/2013.1/901 2013/11/27
 11 10  0  0  0  0  0  0  0  0999 V2000
   -6.7158   -3.3554   -0.4044 N   0  0  0  0  0  0  0  0  0  0  0  0
   -5.2984   -3.8064   -0.5289 C   0  0  2  0  0  0  0  0  0  0  0  0
   -4.6397   -3.8129    0.8563 C   0  0  0  0  0  0  0  0  0  0  0  0
   -4.5213   -2.7816    1.4877 O   0  0  0  0  0  0  0  0  0  0  0  0
   -4.5349   -2.8548   -1.4600 C   0  0  0  0  0  0  0  0  0  0  0  0
   -4.8767   -3.1743   -2.9189 C   0  0  0  0  0  0  0  0  0  0  0  0
   -3.9368   -2.4021   -3.8447 C   0  0  0  0  0  0  0  0  0  0  0  0
   -2.5906   -3.0423   -3.8290 N   0  0  0  0  0  0  0  0  0  0  0  0
   -1.8674   -3.0304   -2.7385 C   0  0  0  0  0  0  0  0  0  0  0  0
   -1.8439   -4.0752   -1.9517 N   0  0  0  0  0  0  0  0  0  0  0  0
   -1.1615   -1.9732   -2.4384 N   0  0  0  0  0  0  0  0  0  0  0  0
  2  1  1  1  0  0  0
  2  3  1  0  0  0  0
  2  5  1  0  0  0  0
  3  4  1  0  0  0  0
  5  6  1  0  0  0  0
  6  7  1  0  0  0  0
  7  8  1  0  0  0  0
  8  9  1  0  0  0  0
  9 10  1  0  0  0  0
  9 11  1  0  0  0  0
M  END
>  <CHROM.1>
-179.43558675,-62.36559936,-78.10795723,-169.99447584,74.81095233,-66.29434312
98.60189676,54.01876145,-22.19864493,-3.81829167,-3.11336087,-1.58216935
2.33658306,0.06147145,1.66599284

>  <Name>
1akx_lig

>  <RI>
0

>  <Rbt.Current_Directory>
/home/itssahil/PROJECTS/Mol_Feturizer/New_Systems/rnas/1akx

>  <Rbt.Executable>
rbdock ($Id: //depot/dev/client3/rdock/2013.1/src/exe/rbdock.cxx#4 $)

>  <Rbt.Library>
libRbt.so (2013.1, Build901 2013/11/27)

>  <Rbt.Parameter_File>
/export/apps/rDock/src/rDock_2013.1_src/data/scripts/dock_solv.prm

>  <Rbt.Receptor>
prm/pocket_docking_3.prm

>  <SCORE>
-26.4084

>  <SCORE.INTER>
-20.7687

>  <SCORE.INTER.CONST>
1

>  <SCORE.INTER.POLAR>
-2.40864

>  <SCORE.INTER.ROT>
8

>  <SCORE.INTER.SOLV>
8.1332

>  <SCORE.INTER.VDW>
-17.4614

>  <SCORE.INTER.norm>
-1.88807

>  <SCORE.INTRA>
-6.26482

>  <SCORE.INTRA.DIHEDRAL>
-14.3999

>  <SCORE.INTRA.DIHEDRAL.0>
21.6454

>  <SCORE.INTRA.POLAR>
0

>  <SCORE.INTRA.POLAR.0>
0

>  <SCORE.INTRA.REPUL>
0

>  <SCORE.INTRA.REPUL.0>
0

>  <SCORE.INTRA.SOLV>
1.38559

>  <SCORE.INTRA.SOLV.lig_0>
-16.5947

>  <SCORE.INTRA.VDW>
0.242338

>  <SCORE.INTRA.VDW.0>
-0.691398

>  <SCORE.INTRA.norm>
-0.569529

>  <SCORE.RESTR>
0.625159

>  <SCORE.RESTR.CAVITY>
0.625159

>  <SCORE.RESTR.norm>
0.0568327

>  <SCORE.SYSTEM>
0

>  <SCORE.SYSTEM.CONST>
0

>  <SCORE.SYSTEM.DIHEDRAL>
0

>  <SCORE.SYSTEM.SOLV>
0

>  <SCORE.SYSTEM.norm>
0

>  <SCORE.heavy>
11

>  <SCORE.norm>
-2.40076

>  <RMSD>
4.412

$$$$
1akx_lig
 OpenBabel11021811383D
libRbt.so/2013.1/901 2013/11/27
 11 10  0  0  0  0  0  0  0  0999 V2000
   -6.5103   -5.4467   -1.3834 N   0  0  0  0  0  0  0  0  0  0  0  0
   -5.3188   -4.8877   -0.6791 C   0  0  2  0  0  0  0  0  0  0  0  0
   -5.6065   -3.4422   -0.2546 C   0  0  0  0  0  0  0  0  0  0  0  0
   -5.9208   -2.6079   -1.0801 O   0  0  0  0  0  0  0  0  0  0  0  0
   -4.1044   -4.9191   -1.6170 C   0  0  0  0  0  0  0  0  0  0  0  0
   -2.8339   -4.5840   -0.8291 C   0  0  0  0  0  0  0  0  0  0  0  0
   -1.6433   -4.5137   -1.7853 C   0  0  0  0  0  0  0  0  0  0  0  0
   -1.6337   -3.1882   -2.4673 N   0  0  0  0  0  0  0  0  0  0  0  0
   -2.4376   -2.9587   -3.4740 C   0  0  0  0  0  0  0  0  0  0  0  0
   -2.0135   -3.1052   -4.7028 N   0  0  0  0  0  0  0  0  0  0  0  0
   -3.6699   -2.5880   -3.2502 N   0  0  0  0  0  0  0  0  0  0  0  0
  2  1  1  6  0  0  0
  2  3  1  0  0  0  0
  2  5  1  0  0  0  0
  3  4  1  0  0  0  0
  5  6  1  0  0  0  0
  6  7  1  0  0  0  0
  7  8  1  0  0  0  0
  8  9  1  0  0  0  0
  9 10  1  0  0  0  0
  9 11  1  0  0  0  0
M  END
>  <CHROM.1>
169.59264202,-57.25343074,-169.98920093,-175.80402914,80.52338780,-78.92840120
-96.02149775,24.89318441,52.57105180,-3.83418743,-3.82241489,-1.99261856
2.56227416,-0.24646506,2.34543060

>  <Name>
1akx_lig

>  <RI>
0

>  <Rbt.Current_Directory>
/home/itssahil/PROJECTS/Mol_Feturizer/New_Systems/rnas/1akx

>  <Rbt.Executable>
rbdock ($Id: //depot/dev/client3/rdock/2013.1/src/exe/rbdock.cxx#4 $)

>  <Rbt.Library>
libRbt.so (2013.1, Build901 2013/11/27)

>  <Rbt.Parameter_File>
/export/apps/rDock/src/rDock_2013.1_src/data/scripts/dock_solv.prm

>  <Rbt.Receptor>
prm/pocket_docking_4.prm

>  <SCORE>
-24.4587

>  <SCORE.INTER>
-18.1621

>  <SCORE.INTER.CONST>
1

>  <SCORE.INTER.POLAR>
-2.40885

>  <SCORE.INTER.ROT>
8

>  <SCORE.INTER.SOLV>
7.64307

>  <SCORE.INTER.VDW>
-15.5596

>  <SCORE.INTER.norm>
-1.6511

>  <SCORE.INTRA>
-6.30109

>  <SCORE.INTRA.DIHEDRAL>
-14.6402

>  <SCORE.INTRA.DIHEDRAL.0>
21.6454

>  <SCORE.INTRA.POLAR>
0

>  <SCORE.INTRA.POLAR.0>
0

>  <SCORE.INTRA.REPUL>
0

>  <SCORE.INTRA.REPUL.0>
0

>  <SCORE.INTRA.SOLV>
1.78913

>  <SCORE.INTRA.SOLV.lig_0>
-16.5947

>  <SCORE.INTRA.VDW>
0.124452

>  <SCORE.INTRA.VDW.0>
-0.691398

>  <SCORE.INTRA.norm>
-0.572827

>  <SCORE.RESTR>
0.00442939

>  <SCORE.RESTR.CAVITY>
0.00442939

>  <SCORE.RESTR.norm>
0.000402672

>  <SCORE.SYSTEM>
0

>  <SCORE.SYSTEM.CONST>
0

>  <SCORE.SYSTEM.DIHEDRAL>
0

>  <SCORE.SYSTEM.SOLV>
0

>  <SCORE.SYSTEM.norm>
0

>  <SCORE.heavy>
11

>  <SCORE.norm>
-2.22352

>  <RMSD>
4.412

$$$$
1akx_lig
 OpenBabel11021811383D
libRbt.so/2013.1/901 2013/11/27
 11 10  0  0  0  0  0  0  0  0999 V2000
   -6.3491   -2.8600   -0.8663 N   0  0  0  0  0  0  0  0  0  0  0  0
   -5.7276   -3.9909   -0.1159 C   0  0  2  0  0  0  0  0  0  0  0  0
   -6.8273   -4.8380    0.5367 C   0  0  0  0  0  0  0  0  0  0  0  0
   -7.5996   -4.3399    1.3314 O   0  0  0  0  0  0  0  0  0  0  0  0
   -4.7905   -3.4376    0.9663 C   0  0  0  0  0  0  0  0  0  0  0  0
   -3.6460   -2.6587    0.3102 C   0  0  0  0  0  0  0  0  0  0  0  0
   -2.7196   -3.6306   -0.4205 C   0  0  0  0  0  0  0  0  0  0  0  0
   -3.1644   -3.7683   -1.8367 N   0  0  0  0  0  0  0  0  0  0  0  0
   -2.5165   -3.1550   -2.7940 C   0  0  0  0  0  0  0  0  0  0  0  0
   -1.2090   -3.1126   -2.7829 N   0  0  0  0  0  0  0  0  0  0  0  0
   -3.1781   -2.5888   -3.7674 N   0  0  0  0  0  0  0  0  0  0  0  0
  2  1  1  1  0  0  0
  2  3  1  0  0  0  0
  2  5  1  0  0  0  0
  3  4  1  0  0  0  0
  5  6  1  0  0  0  0
  6  7  1  0  0  0  0
  7  8  1  0  0  0  0
  8  9  1  0  0  0  0
  9 10  1  0  0  0  0
  9 11  1  0  0  0  0
M  END
>  <CHROM.1>
-167.00078833,-59.20397657,-62.99341344,-69.61925754,91.67791849,103.08627778
40.98798509,-161.53930000,4.54529559,-4.36302951,-3.46836846,-0.89879599
2.46767107,0.07744662,1.76296970

>  <Name>
1akx_lig

>  <RI>
0

>  <Rbt.Current_Directory>
/home/itssahil/PROJECTS/Mol_Feturizer/New_Systems/rnas/1akx

>  <Rbt.Executable>
rbdock ($Id: //depot/dev/client3/rdock/2013.1/src/exe/rbdock.cxx#4 $)

>  <Rbt.Library>
libRbt.so (2013.1, Build901 2013/11/27)

>  <Rbt.Parameter_File>
/export/apps/rDock/src/rDock_2013.1_src/data/scripts/dock_solv.prm

>  <Rbt.Receptor>
prm/pocket_docking_7.prm

>  <SCORE>
-31.6294

>  <SCORE.INTER>
-25.9577

>  <SCORE.INTER.CONST>
1

>  <SCORE.INTER.POLAR>
-4.11197

>  <SCORE.INTER.ROT>
8

>  <SCORE.INTER.SOLV>
6.57101

>  <SCORE.INTER.VDW>
-14.7223

>  <SCORE.INTER.norm>
-2.35979

>  <SCORE.INTRA>
-5.67169

>  <SCORE.INTRA.DIHEDRAL>
-13.0247

>  <SCORE.INTRA.DIHEDRAL.0>
21.6454

>  <SCORE.INTRA.POLAR>
0

>  <SCORE.INTRA.POLAR.0>
0

>  <SCORE.INTRA.REPUL>
0.000638888

>  <SCORE.INTRA.REPUL.0>
0

>  <SCORE.INTRA.SOLV>
1.45049

>  <SCORE.INTRA.SOLV.lig_0>
-16.5947

>  <SCORE.INTRA.VDW>
0.112204

>  <SCORE.INTRA.VDW.0>
-0.691398

>  <SCORE.INTRA.norm>
-0.515608

>  <SCORE.RESTR>
0

>  <SCORE.RESTR.CAVITY>
0

>  <SCORE.RESTR.norm>
0

>  <SCORE.SYSTEM>
0

>  <SCORE.SYSTEM.CONST>
0

>  <SCORE.SYSTEM.DIHEDRAL>
0

>  <SCORE.SYSTEM.SOLV>
0

>  <SCORE.SYSTEM.norm>
0

>  <SCORE.heavy>
11

>  <SCORE.norm>
-2.8754

>  <RMSD>
4.412

$$$$
1akx_lig
 OpenBabel11021811383D
libRbt.so/2013.1/901 2013/11/27
 11 10  0  0  0  0  0  0  0  0999 V2000
   -7.4402   -3.7375   -0.0034 N   0  0  0  0  0  0  0  0  0  0  0  0
   -6.3453   -4.6754    0.3835 C   0  0  2  0  0  0  0  0  0  0  0  0
   -6.5368   -5.1122    1.8414 C   0  0  0  0  0  0  0  0  0  0  0  0
   -6.5388   -4.2903    2.7362 O   0  0  0  0  0  0  0  0  0  0  0  0
   -4.9884   -3.9757    0.2274 C   0  0  0  0  0  0  0  0  0  0  0  0
   -4.7808   -3.5708   -1.2355 C   0  0  0  0  0  0  0  0  0  0  0  0
   -3.5187   -2.7164   -1.3550 C   0  0  0  0  0  0  0  0  0  0  0  0
   -3.1952   -2.5103   -2.7955 N   0  0  0  0  0  0  0  0  0  0  0  0
   -2.1690   -3.1178   -3.3344 C   0  0  0  0  0  0  0  0  0  0  0  0
   -1.3256   -3.7787   -2.5838 N   0  0  0  0  0  0  0  0  0  0  0  0
   -1.9902   -3.0689   -4.6273 N   0  0  0  0  0  0  0  0  0  0  0  0
  2  1  1  1  0  0  0
  2  3  1  0  0  0  0
  2  5  1  0  0  0  0
  3  4  1  0  0  0  0
  5  6  1  0  0  0  0
  6  7  1  0  0  0  0
  7  8  1  0  0  0  0
  8  9  1  0  0  0  0
  9 10  1  0  0  0  0
  9 11  1  0  0  0  0
M  END
>  <CHROM.1>
80.86725175,-60.10498455,-61.18474662,172.65175751,170.84499633,-108.07901627
-8.33964446,-87.50781239,14.28996620,-4.44970361,-3.67389207,-0.99098590
2.31105221,-0.12142838,1.94110042

>  <Name>
1akx_lig

>  <RI>
0

>  <Rbt.Current_Directory>
/home/afrankz/demos/rdock_decoys_rna/rnas/1akx

>  <Rbt.Executable>
rbdock ($Id: //depot/dev/client3/rdock/2013.1/src/exe/rbdock.cxx#4 $)

>  <Rbt.Library>
libRbt.so (2013.1, Build901 2013/11/27)

>  <Rbt.Parameter_File>
/export/apps/rDock/src/rDock_2013.1_src/data/scripts/dock_solv.prm

>  <Rbt.Receptor>
prm/pocket_docking_6.prm

>  <SCORE>
-33.3572

>  <SCORE.INTER>
-26.7346

>  <SCORE.INTER.CONST>
1

>  <SCORE.INTER.POLAR>
-4.02197

>  <SCORE.INTER.ROT>
8

>  <SCORE.INTER.SOLV>
8.06754

>  <SCORE.INTER.VDW>
-16.039

>  <SCORE.INTER.norm>
-2.43042

>  <SCORE.INTRA>
-6.62258

>  <SCORE.INTRA.DIHEDRAL>
-15.3315

>  <SCORE.INTRA.DIHEDRAL.0>
21.6454

>  <SCORE.INTRA.POLAR>
0

>  <SCORE.INTRA.POLAR.0>
0

>  <SCORE.INTRA.REPUL>
0

>  <SCORE.INTRA.REPUL.0>
0

>  <SCORE.INTRA.SOLV>
0.434747

>  <SCORE.INTRA.SOLV.lig_0>
-16.5947

>  <SCORE.INTRA.VDW>
0.825782

>  <SCORE.INTRA.VDW.0>
-0.691398

>  <SCORE.INTRA.norm>
-0.602053

>  <SCORE.RESTR>
0

>  <SCORE.RESTR.CAVITY>
0

>  <SCORE.RESTR.norm>
0

>  <SCORE.SYSTEM>
0

>  <SCORE.SYSTEM.CONST>
0

>  <SCORE.SYSTEM.DIHEDRAL>
0

>  <SCORE.SYSTEM.SOLV>
0

>  <SCORE.SYSTEM.norm>
0

>  <SCORE.heavy>
11

>  <SCORE.norm>
-3.03247

>  <RMSD>
4.426

>  <RMSD>
4.426

$$$$
1akx_lig
 OpenBabel11021811383D
libRbt.so/2013.1/901 2013/11/27
 11 10  0  0  0  0  0  0  0  0999 V2000
   -7.4402   -3.7375   -0.0034 N   0  0  0  0  0  0  0  0  0  0  0  0
   -6.3453   -4.6754    0.3835 C   0  0  2  0  0  0  0  0  0  0  0  0
   -6.5368   -5.1122    1.8414 C   0  0  0  0  0  0  0  0  0  0  0  0
   -6.5388   -4.2903    2.7362 O   0  0  0  0  0  0  0  0  0  0  0  0
   -4.9884   -3.9757    0.2274 C   0  0  0  0  0  0  0  0  0  0  0  0
   -4.7808   -3.5708   -1.2355 C   0  0  0  0  0  0  0  0  0  0  0  0
   -3.5187   -2.7164   -1.3550 C   0  0  0  0  0  0  0  0  0  0  0  0
   -3.1952   -2.5103   -2.7955 N   0  0  0  0  0  0  0  0  0  0  0  0
   -2.1690   -3.1178   -3.3344 C   0  0  0  0  0  0  0  0  0  0  0  0
   -1.3256   -3.7787   -2.5838 N   0  0  0  0  0  0  0  0  0  0  0  0
   -1.9902   -3.0689   -4.6273 N   0  0  0  0  0  0  0  0  0  0  0  0
  2  1  1  1  0  0  0
  2  3  1  0  0  0  0
  2  5  1  0  0  0  0
  3  4  1  0  0  0  0
  5  6  1  0  0  0  0
  6  7  1  0  0  0  0
  7  8  1  0  0  0  0
  8  9  1  0  0  0  0
  9 10  1  0  0  0  0
  9 11  1  0  0  0  0
M  END
>  <CHROM.1>
80.86725175,-60.10498455,-61.18474662,172.65175751,170.84499633,-108.07901627
-8.33964446,-87.50781239,14.28996620,-4.44970361,-3.67389207,-0.99098590
2.31105221,-0.12142838,1.94110042

>  <Name>
1akx_lig

>  <RI>
0

>  <Rbt.Current_Directory>
/home/afrankz/demos/rdock_decoys_rna/rnas/1akx

>  <Rbt.Executable>
rbdock ($Id: //depot/dev/client3/rdock/2013.1/src/exe/rbdock.cxx#4 $)

>  <Rbt.Library>
libRbt.so (2013.1, Build901 2013/11/27)

>  <Rbt.Parameter_File>
/export/apps/rDock/src/rDock_2013.1_src/data/scripts/dock_solv.prm

>  <Rbt.Receptor>
prm/pocket_docking_6.prm

>  <SCORE>
-33.3572

>  <SCORE.INTER>
-26.7346

>  <SCORE.INTER.CONST>
1

>  <SCORE.INTER.POLAR>
-4.02197

>  <SCORE.INTER.ROT>
8

>  <SCORE.INTER.SOLV>
8.06754

>  <SCORE.INTER.VDW>
-16.039

>  <SCORE.INTER.norm>
-2.43042

>  <SCORE.INTRA>
-6.62258

>  <SCORE.INTRA.DIHEDRAL>
-15.3315

>  <SCORE.INTRA.DIHEDRAL.0>
21.6454

>  <SCORE.INTRA.POLAR>
0

>  <SCORE.INTRA.POLAR.0>
0

>  <SCORE.INTRA.REPUL>
0

>  <SCORE.INTRA.REPUL.0>
0

>  <SCORE.INTRA.SOLV>
0.434747

>  <SCORE.INTRA.SOLV.lig_0>
-16.5947

>  <SCORE.INTRA.VDW>
0.825782

>  <SCORE.INTRA.VDW.0>
-0.691398

>  <SCORE.INTRA.norm>
-0.602053

>  <SCORE.RESTR>
0

>  <SCORE.RESTR.CAVITY>
0

>  <SCORE.RESTR.norm>
0

>  <SCORE.SYSTEM>
0

>  <SCORE.SYSTEM.CONST>
0

>  <SCORE.SYSTEM.DIHEDRAL>
0

>  <SCORE.SYSTEM.SOLV>
0

>  <SCORE.SYSTEM.norm>
0

>  <SCORE.heavy>
11

>  <SCORE.norm>
-3.03247

>  <RMSD>
4.426

>  <RMSD>
4.426

$$$$
1akx_lig
 OpenBabel11021811383D
libRbt.so/2013.1/901 2013/11/27
 11 10  0  0  0  0  0  0  0  0999 V2000
   -7.2322   -3.8380    1.8160 N   0  0  0  0  0  0  0  0  0  0  0  0
   -6.8946   -3.9317    0.3650 C   0  0  2  0  0  0  0  0  0  0  0  0
   -6.9163   -5.4019   -0.0718 C   0  0  0  0  0  0  0  0  0  0  0  0
   -6.2198   -6.2229    0.4912 O   0  0  0  0  0  0  0  0  0  0  0  0
   -5.4993   -3.3406    0.1215 C   0  0  0  0  0  0  0  0  0  0  0  0
   -5.3282   -3.0148   -1.3657 C   0  0  0  0  0  0  0  0  0  0  0  0
   -4.0189   -3.6186   -1.8737 C   0  0  0  0  0  0  0  0  0  0  0  0
   -3.7067   -3.0614   -3.2206 N   0  0  0  0  0  0  0  0  0  0  0  0
   -2.4638   -2.8761   -3.5857 C   0  0  0  0  0  0  0  0  0  0  0  0
   -1.5879   -2.4130   -2.7315 N   0  0  0  0  0  0  0  0  0  0  0  0
   -2.0956   -3.1608   -4.8061 N   0  0  0  0  0  0  0  0  0  0  0  0
  2  1  1  1  0  0  0
  2  3  1  0  0  0  0
  2  5  1  0  0  0  0
  3  4  1  0  0  0  0
  5  6  1  0  0  0  0
  6  7  1  0  0  0  0
  7  8  1  0  0  0  0
  8  9  1  0  0  0  0
  9 10  1  0  0  0  0
  9 11  1  0  0  0  0
M  END
>  <CHROM.1>
56.91597836,-56.53782213,-161.77619677,-129.68375159,-167.82129218,146.95840257
-40.01587570,26.02148953,-128.07990343,-4.71211932,-3.72345262,-1.33692771
-3.04641570,-0.82176433,-2.64138470

>  <Name>
1akx_lig

>  <RI>
0

>  <Rbt.Current_Directory>
/home/itssahil/PROJECTS/Mol_Feturizer/New_Systems/rnas/1akx

>  <Rbt.Executable>
rbdock ($Id: //depot/dev/client3/rdock/2013.1/src/exe/rbdock.cxx#4 $)

>  <Rbt.Library>
libRbt.so (2013.1, Build901 2013/11/27)

>  <Rbt.Parameter_File>
/export/apps/rDock/src/rDock_2013.1_src/data/scripts/dock_solv.prm

>  <Rbt.Receptor>
prm/pocket_docking_7.prm

>  <SCORE>
-27.4032

>  <SCORE.INTER>
-23.6505

>  <SCORE.INTER.CONST>
1

>  <SCORE.INTER.POLAR>
-3.03589

>  <SCORE.INTER.ROT>
8

>  <SCORE.INTER.SOLV>
8.16458

>  <SCORE.INTER.VDW>
-17.3022

>  <SCORE.INTER.norm>
-2.15004

>  <SCORE.INTRA>
-3.75272

>  <SCORE.INTRA.DIHEDRAL>
-9.26327

>  <SCORE.INTRA.DIHEDRAL.0>
21.6454

>  <SCORE.INTRA.POLAR>
0

>  <SCORE.INTRA.POLAR.0>
0

>  <SCORE.INTRA.REPUL>
0

>  <SCORE.INTRA.REPUL.0>
0

>  <SCORE.INTRA.SOLV>
0.354306

>  <SCORE.INTRA.SOLV.lig_0>
-16.5947

>  <SCORE.INTRA.VDW>
0.701766

>  <SCORE.INTRA.VDW.0>
-0.691398

>  <SCORE.INTRA.norm>
-0.341156

>  <SCORE.RESTR>
0

>  <SCORE.RESTR.CAVITY>
0

>  <SCORE.RESTR.norm>
0

>  <SCORE.SYSTEM>
0

>  <SCORE.SYSTEM.CONST>
0

>  <SCORE.SYSTEM.DIHEDRAL>
0

>  <SCORE.SYSTEM.SOLV>
0

>  <SCORE.SYSTEM.norm>
0

>  <SCORE.heavy>
11

>  <SCORE.norm>
-2.4912

>  <RMSD>
4.426

$$$$
1akx_lig
 OpenBabel11021811383D
libRbt.so/2013.1/901 2013/11/27
 11 10  0  0  0  0  0  0  0  0999 V2000
   -6.2861   -3.6703   -1.2519 N   0  0  0  0  0  0  0  0  0  0  0  0
   -5.5446   -4.9532   -1.4318 C   0  0  2  0  0  0  0  0  0  0  0  0
   -6.5447   -6.1095   -1.5557 C   0  0  0  0  0  0  0  0  0  0  0  0
   -6.1540   -7.2475   -1.7247 O   0  0  0  0  0  0  0  0  0  0  0  0
   -4.6263   -5.1910   -0.2253 C   0  0  0  0  0  0  0  0  0  0  0  0
   -3.4513   -4.2088   -0.2684 C   0  0  0  0  0  0  0  0  0  0  0  0
   -2.5505   -4.5418   -1.4578 C   0  0  0  0  0  0  0  0  0  0  0  0
   -3.0349   -3.8131   -2.6648 N   0  0  0  0  0  0  0  0  0  0  0  0
   -2.2347   -3.0057   -3.3130 C   0  0  0  0  0  0  0  0  0  0  0  0
   -2.0699   -3.1374   -4.6041 N   0  0  0  0  0  0  0  0  0  0  0  0
   -1.6033   -2.0610   -2.6689 N   0  0  0  0  0  0  0  0  0  0  0  0
  2  1  1  1  0  0  0
  2  3  1  0  0  0  0
  2  5  1  0  0  0  0
  3  4  1  0  0  0  0
  5  6  1  0  0  0  0
  6  7  1  0  0  0  0
  7  8  1  0  0  0  0
  8  9  1  0  0  0  0
  9 10  1  0  0  0  0
  9 11  1  0  0  0  0
M  END
>  <CHROM.1>
-48.19303717,179.15622294,-71.60089945,-67.60054684,88.45335216,123.02592609
127.57946031,-93.87893052,167.15750072,-4.02465564,-4.32996743,-1.95463192
-2.85145679,-0.67611733,-1.72899207

>  <Name>
1akx_lig

>  <RI>
0

>  <Rbt.Current_Directory>
/home/itssahil/PROJECTS/Mol_Feturizer/New_Systems/rnas/1akx

>  <Rbt.Executable>
rbdock ($Id: //depot/dev/client3/rdock/2013.1/src/exe/rbdock.cxx#4 $)

>  <Rbt.Library>
libRbt.so (2013.1, Build901 2013/11/27)

>  <Rbt.Parameter_File>
/export/apps/rDock/src/rDock_2013.1_src/data/scripts/dock_solv.prm

>  <Rbt.Receptor>
prm/pocket_docking_5.prm

>  <SCORE>
-27.65

>  <SCORE.INTER>
-21.8262

>  <SCORE.INTER.CONST>
1

>  <SCORE.INTER.POLAR>
-3.65721

>  <SCORE.INTER.ROT>
8

>  <SCORE.INTER.SOLV>
7.50531

>  <SCORE.INTER.VDW>
-13.7952

>  <SCORE.INTER.norm>
-1.9842

>  <SCORE.INTRA>
-5.83496

>  <SCORE.INTRA.DIHEDRAL>
-13.2041

>  <SCORE.INTRA.DIHEDRAL.0>
21.6454

>  <SCORE.INTRA.POLAR>
0

>  <SCORE.INTRA.POLAR.0>
0

>  <SCORE.INTRA.REPUL>
0

>  <SCORE.INTRA.REPUL.0>
0

>  <SCORE.INTRA.SOLV>
0.943562

>  <SCORE.INTRA.SOLV.lig_0>
-16.5947

>  <SCORE.INTRA.VDW>
0.295335

>  <SCORE.INTRA.VDW.0>
-0.691398

>  <SCORE.INTRA.norm>
-0.53045

>  <SCORE.RESTR>
0.0111594

>  <SCORE.RESTR.CAVITY>
0.0111594

>  <SCORE.RESTR.norm>
0.00101449

>  <SCORE.SYSTEM>
0

>  <SCORE.SYSTEM.CONST>
0

>  <SCORE.SYSTEM.DIHEDRAL>
0

>  <SCORE.SYSTEM.SOLV>
0

>  <SCORE.SYSTEM.norm>
0

>  <SCORE.heavy>
11

>  <SCORE.norm>
-2.51364

>  <RMSD>
4.431

$$$$
1akx_lig
 OpenBabel11021811383D
libRbt.so/2013.1/901 2013/11/27
 11 10  0  0  0  0  0  0  0  0999 V2000
   -6.9552   -3.4375   -0.2567 N   0  0  0  0  0  0  0  0  0  0  0  0
   -5.6150   -4.0890   -0.3449 C   0  0  2  0  0  0  0  0  0  0  0  0
   -5.0529   -4.2966    1.0671 C   0  0  0  0  0  0  0  0  0  0  0  0
   -5.6689   -4.9488    1.8864 O   0  0  0  0  0  0  0  0  0  0  0  0
   -4.6622   -3.1997   -1.1551 C   0  0  0  0  0  0  0  0  0  0  0  0
   -3.8318   -4.0655   -2.1081 C   0  0  0  0  0  0  0  0  0  0  0  0
   -2.9107   -4.9778   -1.2981 C   0  0  0  0  0  0  0  0  0  0  0  0
   -1.4925   -4.6997   -1.6637 N   0  0  0  0  0  0  0  0  0  0  0  0
   -0.9509   -3.5444   -1.3732 C   0  0  0  0  0  0  0  0  0  0  0  0
   -1.1938   -2.4968   -2.1181 N   0  0  0  0  0  0  0  0  0  0  0  0
   -0.1701   -3.4361   -0.3318 N   0  0  0  0  0  0  0  0  0  0  0  0
  2  1  1  1  0  0  0
  2  3  1  0  0  0  0
  2  5  1  0  0  0  0
  3  4  1  0  0  0  0
  5  6  1  0  0  0  0
  6  7  1  0  0  0  0
  7  8  1  0  0  0  0
  8  9  1  0  0  0  0
  9 10  1  0  0  0  0
  9 11  1  0  0  0  0
M  END
>  <CHROM.1>
-177.47388459,58.02275532,-137.77985232,-65.76510184,-120.54444638,66.32155047
-79.06701585,110.74678003,-73.47735429,-3.51178410,-3.90835034,-0.67785483
2.77308873,-0.04561180,1.97392128

>  <Name>
1akx_lig

>  <RI>
0

>  <Rbt.Current_Directory>
/home/itssahil/PROJECTS/Mol_Feturizer/New_Systems/rnas/1akx

>  <Rbt.Executable>
rbdock ($Id: //depot/dev/client3/rdock/2013.1/src/exe/rbdock.cxx#4 $)

>  <Rbt.Library>
libRbt.so (2013.1, Build901 2013/11/27)

>  <Rbt.Parameter_File>
/export/apps/rDock/src/rDock_2013.1_src/data/scripts/dock_solv.prm

>  <Rbt.Receptor>
prm/pocket_docking_6.prm

>  <SCORE>
-21.045

>  <SCORE.INTER>
-18.4657

>  <SCORE.INTER.CONST>
1

>  <SCORE.INTER.POLAR>
-3.56394

>  <SCORE.INTER.ROT>
8

>  <SCORE.INTER.SOLV>
5.98566

>  <SCORE.INTER.VDW>
-11.3592

>  <SCORE.INTER.norm>
-1.6787

>  <SCORE.INTRA>
-2.57927

>  <SCORE.INTRA.DIHEDRAL>
-6.46263

>  <SCORE.INTRA.DIHEDRAL.0>
21.6454

>  <SCORE.INTRA.POLAR>
0

>  <SCORE.INTRA.POLAR.0>
0

>  <SCORE.INTRA.REPUL>
0

>  <SCORE.INTRA.REPUL.0>
0

>  <SCORE.INTRA.SOLV>
0.734245

>  <SCORE.INTRA.SOLV.lig_0>
-16.5947

>  <SCORE.INTRA.VDW>
0.284928

>  <SCORE.INTRA.VDW.0>
-0.691398

>  <SCORE.INTRA.norm>
-0.234479

>  <SCORE.RESTR>
0

>  <SCORE.RESTR.CAVITY>
0

>  <SCORE.RESTR.norm>
0

>  <SCORE.SYSTEM>
0

>  <SCORE.SYSTEM.CONST>
0

>  <SCORE.SYSTEM.DIHEDRAL>
0

>  <SCORE.SYSTEM.SOLV>
0

>  <SCORE.SYSTEM.norm>
0

>  <SCORE.heavy>
11

>  <SCORE.norm>
-1.91318

>  <RMSD>
4.441

$$$$
1akx_lig
 OpenBabel11021811383D
libRbt.so/2013.1/901 2013/11/27
 11 10  0  0  0  0  0  0  0  0999 V2000
   -7.0049   -3.7050   -0.0667 N   0  0  0  0  0  0  0  0  0  0  0  0
   -5.6149   -4.0908   -0.4503 C   0  0  2  0  0  0  0  0  0  0  0  0
   -4.7315   -4.1347    0.8029 C   0  0  0  0  0  0  0  0  0  0  0  0
   -4.5780   -3.1406    1.4843 O   0  0  0  0  0  0  0  0  0  0  0  0
   -5.0516   -3.0662   -1.4443 C   0  0  0  0  0  0  0  0  0  0  0  0
   -3.6826   -3.5338   -1.9487 C   0  0  0  0  0  0  0  0  0  0  0  0
   -2.8912   -2.3327   -2.4661 C   0  0  0  0  0  0  0  0  0  0  0  0
   -1.4628   -2.7205   -2.6439 N   0  0  0  0  0  0  0  0  0  0  0  0
   -0.8645   -3.4628   -1.7475 C   0  0  0  0  0  0  0  0  0  0  0  0
   -0.7603   -4.7547   -1.9247 N   0  0  0  0  0  0  0  0  0  0  0  0
   -0.3641   -2.9101   -0.6751 N   0  0  0  0  0  0  0  0  0  0  0  0
  2  1  1  1  0  0  0
  2  3  1  0  0  0  0
  2  5  1  0  0  0  0
  3  4  1  0  0  0  0
  5  6  1  0  0  0  0
  6  7  1  0  0  0  0
  7  8  1  0  0  0  0
  8  9  1  0  0  0  0
  9 10  1  0  0  0  0
  9 11  1  0  0  0  0
M  END
>  <CHROM.1>
-55.76163891,-59.89303356,-174.28593879,-157.74182817,166.34247831,-41.71352139
97.35316298,-25.57006282,-132.79168369,-3.36749004,-3.44327841,-0.97462088
2.75266457,-0.02071561,1.75528682

>  <Name>
1akx_lig

>  <RI>
0

>  <Rbt.Current_Directory>
/home/itssahil/PROJECTS/Mol_Feturizer/New_Systems/rnas/1akx

>  <Rbt.Executable>
rbdock ($Id: //depot/dev/client3/rdock/2013.1/src/exe/rbdock.cxx#4 $)

>  <Rbt.Library>
libRbt.so (2013.1, Build901 2013/11/27)

>  <Rbt.Parameter_File>
/export/apps/rDock/src/rDock_2013.1_src/data/scripts/dock_solv.prm

>  <Rbt.Receptor>
prm/pocket_docking_7.prm

>  <SCORE>
-27.2926

>  <SCORE.INTER>
-22.2299

>  <SCORE.INTER.CONST>
1

>  <SCORE.INTER.POLAR>
-3.36169

>  <SCORE.INTER.ROT>
8

>  <SCORE.INTER.SOLV>
7.19652

>  <SCORE.INTER.VDW>
-14.9465

>  <SCORE.INTER.norm>
-2.0209

>  <SCORE.INTRA>
-5.06272

>  <SCORE.INTRA.DIHEDRAL>
-14.1451

>  <SCORE.INTRA.DIHEDRAL.0>
21.6454

>  <SCORE.INTRA.POLAR>
0

>  <SCORE.INTRA.POLAR.0>
0

>  <SCORE.INTRA.REPUL>
0

>  <SCORE.INTRA.REPUL.0>
0

>  <SCORE.INTRA.SOLV>
0.661459

>  <SCORE.INTRA.SOLV.lig_0>
-16.5947

>  <SCORE.INTRA.VDW>
1.67912

>  <SCORE.INTRA.VDW.0>
-0.691398

>  <SCORE.INTRA.norm>
-0.460247

>  <SCORE.RESTR>
0

>  <SCORE.RESTR.CAVITY>
0

>  <SCORE.RESTR.norm>
0

>  <SCORE.SYSTEM>
0

>  <SCORE.SYSTEM.CONST>
0

>  <SCORE.SYSTEM.DIHEDRAL>
0

>  <SCORE.SYSTEM.SOLV>
0

>  <SCORE.SYSTEM.norm>
0

>  <SCORE.heavy>
11

>  <SCORE.norm>
-2.48115

>  <RMSD>
4.448

$$$$
1akx_lig
 OpenBabel11021811383D
libRbt.so/2013.1/901 2013/11/27
 11 10  0  0  0  0  0  0  0  0999 V2000
   -7.6911   -4.0984    0.1584 N   0  0  0  0  0  0  0  0  0  0  0  0
   -6.3552   -4.4712   -0.3935 C   0  0  2  0  0  0  0  0  0  0  0  0
   -5.4386   -4.9274    0.7487 C   0  0  0  0  0  0  0  0  0  0  0  0
   -5.7479   -5.8715    1.4480 O   0  0  0  0  0  0  0  0  0  0  0  0
   -5.7343   -3.2598   -1.1022 C   0  0  0  0  0  0  0  0  0  0  0  0
   -4.8195   -3.7365   -2.2350 C   0  0  0  0  0  0  0  0  0  0  0  0
   -3.9495   -2.5737   -2.7126 C   0  0  0  0  0  0  0  0  0  0  0  0
   -2.8893   -2.3007   -1.7009 N   0  0  0  0  0  0  0  0  0  0  0  0
   -1.6899   -2.8020   -1.8508 C   0  0  0  0  0  0  0  0  0  0  0  0
   -1.3483   -3.3675   -2.9799 N   0  0  0  0  0  0  0  0  0  0  0  0
   -0.8289   -2.7315   -0.8712 N   0  0  0  0  0  0  0  0  0  0  0  0
  2  1  1  1  0  0  0
  2  3  1  0  0  0  0
  2  5  1  0  0  0  0
  3  4  1  0  0  0  0
  5  6  1  0  0  0  0
  6  7  1  0  0  0  0
  7  8  1  0  0  0  0
  8  9  1  0  0  0  0
  9 10  1  0  0  0  0
  9 11  1  0  0  0  0
M  END
>  <CHROM.1>
70.47693632,59.19639376,-150.55530864,-166.34309927,74.00115863,96.95827203
10.68610200,-92.90143025,-72.15022897,-4.22779745,-3.65891679,-1.01019448
2.57417555,0.05664145,2.13992704

>  <Name>
1akx_lig

>  <RI>
0

>  <Rbt.Current_Directory>
/home/itssahil/PROJECTS/Mol_Feturizer/New_Systems/rnas/1akx

>  <Rbt.Executable>
rbdock ($Id: //depot/dev/client3/rdock/2013.1/src/exe/rbdock.cxx#4 $)

>  <Rbt.Library>
libRbt.so (2013.1, Build901 2013/11/27)

>  <Rbt.Parameter_File>
/export/apps/rDock/src/rDock_2013.1_src/data/scripts/dock_solv.prm

>  <Rbt.Receptor>
prm/pocket_docking_8.prm

>  <SCORE>
-24.9617

>  <SCORE.INTER>
-19.3638

>  <SCORE.INTER.CONST>
1

>  <SCORE.INTER.POLAR>
-2.56087

>  <SCORE.INTER.ROT>
8

>  <SCORE.INTER.SOLV>
6.7808

>  <SCORE.INTER.VDW>
-15.5666

>  <SCORE.INTER.norm>
-1.76035

>  <SCORE.INTRA>
-5.59785

>  <SCORE.INTRA.DIHEDRAL>
-12.2657

>  <SCORE.INTRA.DIHEDRAL.0>
21.6454

>  <SCORE.INTRA.POLAR>
0

>  <SCORE.INTRA.POLAR.0>
0

>  <SCORE.INTRA.REPUL>
0

>  <SCORE.INTRA.REPUL.0>
0

>  <SCORE.INTRA.SOLV>
0.466639

>  <SCORE.INTRA.SOLV.lig_0>
-16.5947

>  <SCORE.INTRA.VDW>
0.301692

>  <SCORE.INTRA.VDW.0>
-0.691398

>  <SCORE.INTRA.norm>
-0.508895

>  <SCORE.RESTR>
0

>  <SCORE.RESTR.CAVITY>
0

>  <SCORE.RESTR.norm>
0

>  <SCORE.SYSTEM>
0

>  <SCORE.SYSTEM.CONST>
0

>  <SCORE.SYSTEM.DIHEDRAL>
0

>  <SCORE.SYSTEM.SOLV>
0

>  <SCORE.SYSTEM.norm>
0

>  <SCORE.heavy>
11

>  <SCORE.norm>
-2.26924

>  <RMSD>
4.461

$$$$
1akx_lig
 OpenBabel11021811383D
libRbt.so/2013.1/901 2013/11/27
 11 10  0  0  0  0  0  0  0  0999 V2000
   -6.6063   -3.2840   -0.4618 N   0  0  0  0  0  0  0  0  0  0  0  0
   -5.2495   -3.4911   -1.0485 C   0  0  2  0  0  0  0  0  0  0  0  0
   -5.3863   -4.0547   -2.4685 C   0  0  0  0  0  0  0  0  0  0  0  0
   -6.0072   -5.0799   -2.6679 O   0  0  0  0  0  0  0  0  0  0  0  0
   -4.4556   -4.4735   -0.1766 C   0  0  0  0  0  0  0  0  0  0  0  0
   -3.8927   -3.7412    1.0458 C   0  0  0  0  0  0  0  0  0  0  0  0
   -2.4330   -3.3664    0.7893 C   0  0  0  0  0  0  0  0  0  0  0  0
   -2.3637   -2.3834   -0.3293 N   0  0  0  0  0  0  0  0  0  0  0  0
   -1.8578   -2.7334   -1.4843 C   0  0  0  0  0  0  0  0  0  0  0  0
   -2.3649   -3.7403   -2.1481 N   0  0  0  0  0  0  0  0  0  0  0  0
   -0.8468   -2.0705   -1.9787 N   0  0  0  0  0  0  0  0  0  0  0  0
  2  1  1  1  0  0  0
  2  3  1  0  0  0  0
  2  5  1  0  0  0  0
  3  4  1  0  0  0  0
  5  6  1  0  0  0  0
  6  7  1  0  0  0  0
  7  8  1  0  0  0  0
  8  9  1  0  0  0  0
  9 10  1  0  0  0  0
  9 11  1  0  0  0  0
M  END
>  <CHROM.1>
-135.00945499,-56.15559440,-79.66166300,-98.34991277,64.87819392,-110.42535366
57.70303435,116.23167561,44.64902204,-3.79560944,-3.48664276,-1.02508248
3.03141767,-0.32900714,-1.69842952

>  <Name>
1akx_lig

>  <RI>
0

>  <Rbt.Current_Directory>
/home/afrankz/demos/rdock_decoys_rna/rnas/1akx

>  <Rbt.Executable>
rbdock ($Id: //depot/dev/client3/rdock/2013.1/src/exe/rbdock.cxx#4 $)

>  <Rbt.Library>
libRbt.so (2013.1, Build901 2013/11/27)

>  <Rbt.Parameter_File>
/export/apps/rDock/src/rDock_2013.1_src/data/scripts/dock_solv.prm

>  <Rbt.Receptor>
prm/pocket_docking_3.prm

>  <SCORE>
-24.3177

>  <SCORE.INTER>
-21.9898

>  <SCORE.INTER.CONST>
1

>  <SCORE.INTER.POLAR>
-3.71543

>  <SCORE.INTER.ROT>
8

>  <SCORE.INTER.SOLV>
7.34114

>  <SCORE.INTER.VDW>
-13.6555

>  <SCORE.INTER.norm>
-1.99908

>  <SCORE.INTRA>
-2.84041

>  <SCORE.INTRA.DIHEDRAL>
-7.84738

>  <SCORE.INTRA.DIHEDRAL.0>
21.6454

>  <SCORE.INTRA.POLAR>
0

>  <SCORE.INTRA.POLAR.0>
0

>  <SCORE.INTRA.REPUL>
0

>  <SCORE.INTRA.REPUL.0>
0

>  <SCORE.INTRA.SOLV>
1.84675

>  <SCORE.INTRA.SOLV.lig_0>
-16.5947

>  <SCORE.INTRA.VDW>
0.159902

>  <SCORE.INTRA.VDW.0>
-0.691398

>  <SCORE.INTRA.norm>
-0.258219

>  <SCORE.RESTR>
0.512528

>  <SCORE.RESTR.CAVITY>
0.512528

>  <SCORE.RESTR.norm>
0.0465935

>  <SCORE.SYSTEM>
0

>  <SCORE.SYSTEM.CONST>
0

>  <SCORE.SYSTEM.DIHEDRAL>
0

>  <SCORE.SYSTEM.SOLV>
0

>  <SCORE.SYSTEM.norm>
0

>  <SCORE.heavy>
11

>  <SCORE.norm>
-2.2107

>  <RMSD>
4.463

>  <RMSD>
4.463

$$$$
1akx_lig
 OpenBabel11021811383D
libRbt.so/2013.1/901 2013/11/27
 11 10  0  0  0  0  0  0  0  0999 V2000
   -6.6063   -3.2840   -0.4618 N   0  0  0  0  0  0  0  0  0  0  0  0
   -5.2495   -3.4911   -1.0485 C   0  0  2  0  0  0  0  0  0  0  0  0
   -5.3863   -4.0547   -2.4685 C   0  0  0  0  0  0  0  0  0  0  0  0
   -6.0072   -5.0799   -2.6679 O   0  0  0  0  0  0  0  0  0  0  0  0
   -4.4556   -4.4735   -0.1766 C   0  0  0  0  0  0  0  0  0  0  0  0
   -3.8927   -3.7412    1.0458 C   0  0  0  0  0  0  0  0  0  0  0  0
   -2.4330   -3.3664    0.7893 C   0  0  0  0  0  0  0  0  0  0  0  0
   -2.3637   -2.3834   -0.3293 N   0  0  0  0  0  0  0  0  0  0  0  0
   -1.8578   -2.7334   -1.4843 C   0  0  0  0  0  0  0  0  0  0  0  0
   -2.3649   -3.7403   -2.1481 N   0  0  0  0  0  0  0  0  0  0  0  0
   -0.8468   -2.0705   -1.9787 N   0  0  0  0  0  0  0  0  0  0  0  0
  2  1  1  1  0  0  0
  2  3  1  0  0  0  0
  2  5  1  0  0  0  0
  3  4  1  0  0  0  0
  5  6  1  0  0  0  0
  6  7  1  0  0  0  0
  7  8  1  0  0  0  0
  8  9  1  0  0  0  0
  9 10  1  0  0  0  0
  9 11  1  0  0  0  0
M  END
>  <CHROM.1>
-135.00945499,-56.15559440,-79.66166300,-98.34991277,64.87819392,-110.42535366
57.70303435,116.23167561,44.64902204,-3.79560944,-3.48664276,-1.02508248
3.03141767,-0.32900714,-1.69842952

>  <Name>
1akx_lig

>  <RI>
0

>  <Rbt.Current_Directory>
/home/afrankz/demos/rdock_decoys_rna/rnas/1akx

>  <Rbt.Executable>
rbdock ($Id: //depot/dev/client3/rdock/2013.1/src/exe/rbdock.cxx#4 $)

>  <Rbt.Library>
libRbt.so (2013.1, Build901 2013/11/27)

>  <Rbt.Parameter_File>
/export/apps/rDock/src/rDock_2013.1_src/data/scripts/dock_solv.prm

>  <Rbt.Receptor>
prm/pocket_docking_3.prm

>  <SCORE>
-24.3177

>  <SCORE.INTER>
-21.9898

>  <SCORE.INTER.CONST>
1

>  <SCORE.INTER.POLAR>
-3.71543

>  <SCORE.INTER.ROT>
8

>  <SCORE.INTER.SOLV>
7.34114

>  <SCORE.INTER.VDW>
-13.6555

>  <SCORE.INTER.norm>
-1.99908

>  <SCORE.INTRA>
-2.84041

>  <SCORE.INTRA.DIHEDRAL>
-7.84738

>  <SCORE.INTRA.DIHEDRAL.0>
21.6454

>  <SCORE.INTRA.POLAR>
0

>  <SCORE.INTRA.POLAR.0>
0

>  <SCORE.INTRA.REPUL>
0

>  <SCORE.INTRA.REPUL.0>
0

>  <SCORE.INTRA.SOLV>
1.84675

>  <SCORE.INTRA.SOLV.lig_0>
-16.5947

>  <SCORE.INTRA.VDW>
0.159902

>  <SCORE.INTRA.VDW.0>
-0.691398

>  <SCORE.INTRA.norm>
-0.258219

>  <SCORE.RESTR>
0.512528

>  <SCORE.RESTR.CAVITY>
0.512528

>  <SCORE.RESTR.norm>
0.0465935

>  <SCORE.SYSTEM>
0

>  <SCORE.SYSTEM.CONST>
0

>  <SCORE.SYSTEM.DIHEDRAL>
0

>  <SCORE.SYSTEM.SOLV>
0

>  <SCORE.SYSTEM.norm>
0

>  <SCORE.heavy>
11

>  <SCORE.norm>
-2.2107

>  <RMSD>
4.463

>  <RMSD>
4.463

$$$$
1akx_lig
 OpenBabel11021811383D
libRbt.so/2013.1/901 2013/11/27
 11 10  0  0  0  0  0  0  0  0999 V2000
   -6.4903   -3.0789   -0.7196 N   0  0  0  0  0  0  0  0  0  0  0  0
   -5.9503   -4.3253   -0.1006 C   0  0  2  0  0  0  0  0  0  0  0  0
   -6.5861   -4.5281    1.2804 C   0  0  0  0  0  0  0  0  0  0  0  0
   -6.6427   -3.6099    2.0741 O   0  0  0  0  0  0  0  0  0  0  0  0
   -4.4266   -4.2105    0.0435 C   0  0  0  0  0  0  0  0  0  0  0  0
   -3.7688   -4.2967   -1.3375 C   0  0  0  0  0  0  0  0  0  0  0  0
   -2.2522   -4.3991   -1.1754 C   0  0  0  0  0  0  0  0  0  0  0  0
   -1.6055   -4.3343   -2.5170 N   0  0  0  0  0  0  0  0  0  0  0  0
   -1.6444   -3.2281   -3.2150 C   0  0  0  0  0  0  0  0  0  0  0  0
   -1.5747   -2.0675   -2.6153 N   0  0  0  0  0  0  0  0  0  0  0  0
   -1.7467   -3.2837   -4.5159 N   0  0  0  0  0  0  0  0  0  0  0  0
  2  1  1  1  0  0  0
  2  3  1  0  0  0  0
  2  5  1  0  0  0  0
  3  4  1  0  0  0  0
  5  6  1  0  0  0  0
  6  7  1  0  0  0  0
  7  8  1  0  0  0  0
  8  9  1  0  0  0  0
  9 10  1  0  0  0  0
  9 11  1  0  0  0  0
M  END
>  <CHROM.1>
-82.70596711,-47.71958310,-71.27479242,-171.33607550,-173.93143894,67.63751442
35.84628292,142.40640383,132.33846569,-3.89485332,-3.71656072,-1.18534712
2.51088277,-0.39005032,2.19669304

>  <Name>
1akx_lig

>  <RI>
0

>  <Rbt.Current_Directory>
/home/itssahil/PROJECTS/Mol_Feturizer/New_Systems/rnas/1akx

>  <Rbt.Executable>
rbdock ($Id: //depot/dev/client3/rdock/2013.1/src/exe/rbdock.cxx#4 $)

>  <Rbt.Library>
libRbt.so (2013.1, Build901 2013/11/27)

>  <Rbt.Parameter_File>
/export/apps/rDock/src/rDock_2013.1_src/data/scripts/dock_solv.prm

>  <Rbt.Receptor>
prm/pocket_docking_6.prm

>  <SCORE>
-30.0133

>  <SCORE.INTER>
-24.3999

>  <SCORE.INTER.CONST>
1

>  <SCORE.INTER.POLAR>
-4.69618

>  <SCORE.INTER.ROT>
8

>  <SCORE.INTER.SOLV>
9.66914

>  <SCORE.INTER.VDW>
-12.7691

>  <SCORE.INTER.norm>
-2.21817

>  <SCORE.INTRA>
-5.61339

>  <SCORE.INTRA.DIHEDRAL>
-14.2375

>  <SCORE.INTRA.DIHEDRAL.0>
21.6454

>  <SCORE.INTRA.POLAR>
0

>  <SCORE.INTRA.POLAR.0>
0

>  <SCORE.INTRA.REPUL>
0

>  <SCORE.INTRA.REPUL.0>
0

>  <SCORE.INTRA.SOLV>
0.572393

>  <SCORE.INTRA.SOLV.lig_0>
-16.5947

>  <SCORE.INTRA.VDW>
1.21916

>  <SCORE.INTRA.VDW.0>
-0.691398

>  <SCORE.INTRA.norm>
-0.510308

>  <SCORE.RESTR>
0

>  <SCORE.RESTR.CAVITY>
0

>  <SCORE.RESTR.norm>
0

>  <SCORE.SYSTEM>
0

>  <SCORE.SYSTEM.CONST>
0

>  <SCORE.SYSTEM.DIHEDRAL>
0

>  <SCORE.SYSTEM.SOLV>
0

>  <SCORE.SYSTEM.norm>
0

>  <SCORE.heavy>
11

>  <SCORE.norm>
-2.72848

>  <RMSD>
4.463

$$$$
1akx_lig
 OpenBabel11021811383D
libRbt.so/2013.1/901 2013/11/27
 11 10  0  0  0  0  0  0  0  0999 V2000
   -7.5912   -6.0343   -0.9549 N   0  0  0  0  0  0  0  0  0  0  0  0
   -6.2528   -5.8372   -1.5858 C   0  0  2  0  0  0  0  0  0  0  0  0
   -5.2578   -6.8482   -1.0022 C   0  0  0  0  0  0  0  0  0  0  0  0
   -4.1129   -6.8905   -1.4065 O   0  0  0  0  0  0  0  0  0  0  0  0
   -5.7596   -4.4098   -1.3125 C   0  0  0  0  0  0  0  0  0  0  0  0
   -4.7542   -3.9948   -2.3915 C   0  0  0  0  0  0  0  0  0  0  0  0
   -3.9347   -2.8036   -1.8952 C   0  0  0  0  0  0  0  0  0  0  0  0
   -3.0690   -2.3033   -3.0009 N   0  0  0  0  0  0  0  0  0  0  0  0
   -2.0968   -3.0462   -3.4650 C   0  0  0  0  0  0  0  0  0  0  0  0
   -1.3279   -3.7139   -2.6438 N   0  0  0  0  0  0  0  0  0  0  0  0
   -1.8980   -3.1258   -4.7534 N   0  0  0  0  0  0  0  0  0  0  0  0
  2  1  1  1  0  0  0
  2  3  1  0  0  0  0
  2  5  1  0  0  0  0
  3  4  1  0  0  0  0
  5  6  1  0  0  0  0
  6  7  1  0  0  0  0
  7  8  1  0  0  0  0
  8  9  1  0  0  0  0
  9 10  1  0  0  0  0
  9 11  1  0  0  0  0
M  END
>  <CHROM.1>
63.88250450,177.78778834,-155.76162683,-161.63919001,-173.53753310,-66.36995270
-42.57108126,103.99793658,-178.48517648,-4.18118566,-4.47459537,-2.22518781
2.44217338,-0.31723795,2.84866778

>  <Name>
1akx_lig

>  <RI>
0

>  <Rbt.Current_Directory>
/home/afrankz/demos/rdock_decoys_rna/rnas/1akx

>  <Rbt.Executable>
rbdock ($Id: //depot/dev/client3/rdock/2013.1/src/exe/rbdock.cxx#4 $)

>  <Rbt.Library>
libRbt.so (2013.1, Build901 2013/11/27)

>  <Rbt.Parameter_File>
/export/apps/rDock/src/rDock_2013.1_src/data/scripts/dock_solv.prm

>  <Rbt.Receptor>
prm/pocket_docking_5.prm

>  <SCORE>
-28.2519

>  <SCORE.INTER>
-22.2055

>  <SCORE.INTER.CONST>
1

>  <SCORE.INTER.POLAR>
-3.31334

>  <SCORE.INTER.ROT>
8

>  <SCORE.INTER.SOLV>
7.81246

>  <SCORE.INTER.VDW>
-15.2967

>  <SCORE.INTER.norm>
-2.01869

>  <SCORE.INTRA>
-6.0464

>  <SCORE.INTRA.DIHEDRAL>
-13.2623

>  <SCORE.INTRA.DIHEDRAL.0>
21.6454

>  <SCORE.INTRA.POLAR>
0

>  <SCORE.INTRA.POLAR.0>
0

>  <SCORE.INTRA.REPUL>
0

>  <SCORE.INTRA.REPUL.0>
0

>  <SCORE.INTRA.SOLV>
0.372074

>  <SCORE.INTRA.SOLV.lig_0>
-16.5947

>  <SCORE.INTRA.VDW>
0.398724

>  <SCORE.INTRA.VDW.0>
-0.691398

>  <SCORE.INTRA.norm>
-0.549672

>  <SCORE.RESTR>
0

>  <SCORE.RESTR.CAVITY>
0

>  <SCORE.RESTR.norm>
0

>  <SCORE.SYSTEM>
0

>  <SCORE.SYSTEM.CONST>
0

>  <SCORE.SYSTEM.DIHEDRAL>
0

>  <SCORE.SYSTEM.SOLV>
0

>  <SCORE.SYSTEM.norm>
0

>  <SCORE.heavy>
11

>  <SCORE.norm>
-2.56836

>  <RMSD>
4.480

>  <RMSD>
4.480

$$$$
1akx_lig
 OpenBabel11021811383D
libRbt.so/2013.1/901 2013/11/27
 11 10  0  0  0  0  0  0  0  0999 V2000
   -7.5912   -6.0343   -0.9549 N   0  0  0  0  0  0  0  0  0  0  0  0
   -6.2528   -5.8372   -1.5858 C   0  0  2  0  0  0  0  0  0  0  0  0
   -5.2578   -6.8482   -1.0022 C   0  0  0  0  0  0  0  0  0  0  0  0
   -4.1129   -6.8905   -1.4065 O   0  0  0  0  0  0  0  0  0  0  0  0
   -5.7596   -4.4098   -1.3125 C   0  0  0  0  0  0  0  0  0  0  0  0
   -4.7542   -3.9948   -2.3915 C   0  0  0  0  0  0  0  0  0  0  0  0
   -3.9347   -2.8036   -1.8952 C   0  0  0  0  0  0  0  0  0  0  0  0
   -3.0690   -2.3033   -3.0009 N   0  0  0  0  0  0  0  0  0  0  0  0
   -2.0968   -3.0462   -3.4650 C   0  0  0  0  0  0  0  0  0  0  0  0
   -1.3279   -3.7139   -2.6438 N   0  0  0  0  0  0  0  0  0  0  0  0
   -1.8980   -3.1258   -4.7534 N   0  0  0  0  0  0  0  0  0  0  0  0
  2  1  1  1  0  0  0
  2  3  1  0  0  0  0
  2  5  1  0  0  0  0
  3  4  1  0  0  0  0
  5  6  1  0  0  0  0
  6  7  1  0  0  0  0
  7  8  1  0  0  0  0
  8  9  1  0  0  0  0
  9 10  1  0  0  0  0
  9 11  1  0  0  0  0
M  END
>  <CHROM.1>
63.88250450,177.78778834,-155.76162683,-161.63919001,-173.53753310,-66.36995270
-42.57108126,103.99793658,-178.48517648,-4.18118566,-4.47459537,-2.22518781
2.44217338,-0.31723795,2.84866778

>  <Name>
1akx_lig

>  <RI>
0

>  <Rbt.Current_Directory>
/home/afrankz/demos/rdock_decoys_rna/rnas/1akx

>  <Rbt.Executable>
rbdock ($Id: //depot/dev/client3/rdock/2013.1/src/exe/rbdock.cxx#4 $)

>  <Rbt.Library>
libRbt.so (2013.1, Build901 2013/11/27)

>  <Rbt.Parameter_File>
/export/apps/rDock/src/rDock_2013.1_src/data/scripts/dock_solv.prm

>  <Rbt.Receptor>
prm/pocket_docking_5.prm

>  <SCORE>
-28.2519

>  <SCORE.INTER>
-22.2055

>  <SCORE.INTER.CONST>
1

>  <SCORE.INTER.POLAR>
-3.31334

>  <SCORE.INTER.ROT>
8

>  <SCORE.INTER.SOLV>
7.81246

>  <SCORE.INTER.VDW>
-15.2967

>  <SCORE.INTER.norm>
-2.01869

>  <SCORE.INTRA>
-6.0464

>  <SCORE.INTRA.DIHEDRAL>
-13.2623

>  <SCORE.INTRA.DIHEDRAL.0>
21.6454

>  <SCORE.INTRA.POLAR>
0

>  <SCORE.INTRA.POLAR.0>
0

>  <SCORE.INTRA.REPUL>
0

>  <SCORE.INTRA.REPUL.0>
0

>  <SCORE.INTRA.SOLV>
0.372074

>  <SCORE.INTRA.SOLV.lig_0>
-16.5947

>  <SCORE.INTRA.VDW>
0.398724

>  <SCORE.INTRA.VDW.0>
-0.691398

>  <SCORE.INTRA.norm>
-0.549672

>  <SCORE.RESTR>
0

>  <SCORE.RESTR.CAVITY>
0

>  <SCORE.RESTR.norm>
0

>  <SCORE.SYSTEM>
0

>  <SCORE.SYSTEM.CONST>
0

>  <SCORE.SYSTEM.DIHEDRAL>
0

>  <SCORE.SYSTEM.SOLV>
0

>  <SCORE.SYSTEM.norm>
0

>  <SCORE.heavy>
11

>  <SCORE.norm>
-2.56836

>  <RMSD>
4.480

>  <RMSD>
4.480

$$$$
1akx_lig
 OpenBabel11021811383D
libRbt.so/2013.1/901 2013/11/27
 11 10  0  0  0  0  0  0  0  0999 V2000
   -7.6005   -4.2445    0.0530 N   0  0  0  0  0  0  0  0  0  0  0  0
   -6.1483   -3.9026    0.0024 C   0  0  2  0  0  0  0  0  0  0  0  0
   -5.7066   -3.3433    1.3607 C   0  0  0  0  0  0  0  0  0  0  0  0
   -4.5673   -2.9551    1.5267 O   0  0  0  0  0  0  0  0  0  0  0  0
   -5.9035   -2.8552   -1.0923 C   0  0  0  0  0  0  0  0  0  0  0  0
   -4.8103   -3.3492   -2.0452 C   0  0  0  0  0  0  0  0  0  0  0  0
   -3.4438   -3.1997   -1.3763 C   0  0  0  0  0  0  0  0  0  0  0  0
   -2.4109   -3.8886   -2.2014 N   0  0  0  0  0  0  0  0  0  0  0  0
   -1.5620   -3.1912   -2.9123 C   0  0  0  0  0  0  0  0  0  0  0  0
   -1.6664   -3.1563   -4.2159 N   0  0  0  0  0  0  0  0  0  0  0  0
   -0.6108   -2.5227   -2.3171 N   0  0  0  0  0  0  0  0  0  0  0  0
  2  1  1  1  0  0  0
  2  3  1  0  0  0  0
  2  5  1  0  0  0  0
  3  4  1  0  0  0  0
  5  6  1  0  0  0  0
  6  7  1  0  0  0  0
  7  8  1  0  0  0  0
  8  9  1  0  0  0  0
  9 10  1  0  0  0  0
  9 11  1  0  0  0  0
M  END
>  <CHROM.1>
51.38577401,-177.37902923,-126.55442224,-75.94163396,170.45316399,106.17499638
-107.95075246,81.87826940,90.89954615,-4.03448194,-3.33336747,-1.20217900
2.54716762,0.21016860,1.42739858

>  <Name>
1akx_lig

>  <RI>
0

>  <Rbt.Current_Directory>
/home/itssahil/PROJECTS/Mol_Feturizer/New_Systems/rnas/1akx

>  <Rbt.Executable>
rbdock ($Id: //depot/dev/client3/rdock/2013.1/src/exe/rbdock.cxx#4 $)

>  <Rbt.Library>
libRbt.so (2013.1, Build901 2013/11/27)

>  <Rbt.Parameter_File>
/export/apps/rDock/src/rDock_2013.1_src/data/scripts/dock_solv.prm

>  <Rbt.Receptor>
prm/pocket_docking_7.prm

>  <SCORE>
-24.9304

>  <SCORE.INTER>
-20.131

>  <SCORE.INTER.CONST>
1

>  <SCORE.INTER.POLAR>
-3.04065

>  <SCORE.INTER.ROT>
8

>  <SCORE.INTER.SOLV>
8.59789

>  <SCORE.INTER.VDW>
-15.0845

>  <SCORE.INTER.norm>
-1.83009

>  <SCORE.INTRA>
-4.79937

>  <SCORE.INTRA.DIHEDRAL>
-9.59302

>  <SCORE.INTRA.DIHEDRAL.0>
21.6454

>  <SCORE.INTRA.POLAR>
0

>  <SCORE.INTRA.POLAR.0>
0

>  <SCORE.INTRA.REPUL>
0

>  <SCORE.INTRA.REPUL.0>
0

>  <SCORE.INTRA.SOLV>
0.362075

>  <SCORE.INTRA.SOLV.lig_0>
-16.5947

>  <SCORE.INTRA.VDW>
-0.183901

>  <SCORE.INTRA.VDW.0>
-0.691398

>  <SCORE.INTRA.norm>
-0.436307

>  <SCORE.RESTR>
0

>  <SCORE.RESTR.CAVITY>
0

>  <SCORE.RESTR.norm>
0

>  <SCORE.SYSTEM>
0

>  <SCORE.SYSTEM.CONST>
0

>  <SCORE.SYSTEM.DIHEDRAL>
0

>  <SCORE.SYSTEM.SOLV>
0

>  <SCORE.SYSTEM.norm>
0

>  <SCORE.heavy>
11

>  <SCORE.norm>
-2.2664

>  <RMSD>
4.482

$$$$
1akx_lig
 OpenBabel11021811383D
libRbt.so/2013.1/901 2013/11/27
 11 10  0  0  0  0  0  0  0  0999 V2000
   -7.7554   -4.0924    0.1789 N   0  0  0  0  0  0  0  0  0  0  0  0
   -6.4035   -4.4904   -0.3131 C   0  0  2  0  0  0  0  0  0  0  0  0
   -5.5252   -4.8975    0.8767 C   0  0  0  0  0  0  0  0  0  0  0  0
   -5.8345   -5.8407    1.5773 O   0  0  0  0  0  0  0  0  0  0  0  0
   -5.7571   -3.3116   -1.0534 C   0  0  0  0  0  0  0  0  0  0  0  0
   -4.8211   -3.8382   -2.1461 C   0  0  0  0  0  0  0  0  0  0  0  0
   -3.9473   -2.6959   -2.6643 C   0  0  0  0  0  0  0  0  0  0  0  0
   -2.9739   -2.2987   -1.6075 N   0  0  0  0  0  0  0  0  0  0  0  0
   -1.7104   -2.6200   -1.7202 C   0  0  0  0  0  0  0  0  0  0  0  0
   -1.2455   -3.0783   -2.8539 N   0  0  0  0  0  0  0  0  0  0  0  0
   -0.9096   -2.4765   -0.6984 N   0  0  0  0  0  0  0  0  0  0  0  0
  2  1  1  1  0  0  0
  2  3  1  0  0  0  0
  2  5  1  0  0  0  0
  3  4  1  0  0  0  0
  5  6  1  0  0  0  0
  6  7  1  0  0  0  0
  7  8  1  0  0  0  0
  8  9  1  0  0  0  0
  9 10  1  0  0  0  0
  9 11  1  0  0  0  0
M  END
>  <CHROM.1>
-51.71138014,61.86515195,-149.84693275,-167.27477089,69.64528012,106.41755749
12.07886263,106.74918652,-120.90231449,-4.26407230,-3.60882272,-0.91311612
2.57849229,0.12985784,2.07621527

>  <Name>
1akx_lig

>  <RI>
0

>  <Rbt.Current_Directory>
/home/itssahil/PROJECTS/Mol_Feturizer/New_Systems/rnas/1akx

>  <Rbt.Executable>
rbdock ($Id: //depot/dev/client3/rdock/2013.1/src/exe/rbdock.cxx#4 $)

>  <Rbt.Library>
libRbt.so (2013.1, Build901 2013/11/27)

>  <Rbt.Parameter_File>
/export/apps/rDock/src/rDock_2013.1_src/data/scripts/dock_solv.prm

>  <Rbt.Receptor>
prm/pocket_docking_8.prm

>  <SCORE>
-25.3241

>  <SCORE.INTER>
-19.518

>  <SCORE.INTER.CONST>
1

>  <SCORE.INTER.POLAR>
-2.47286

>  <SCORE.INTER.ROT>
8

>  <SCORE.INTER.SOLV>
6.83311

>  <SCORE.INTER.VDW>
-15.9802

>  <SCORE.INTER.norm>
-1.77437

>  <SCORE.INTRA>
-5.80609

>  <SCORE.INTRA.DIHEDRAL>
-12.7075

>  <SCORE.INTRA.DIHEDRAL.0>
21.6454

>  <SCORE.INTRA.POLAR>
0

>  <SCORE.INTRA.POLAR.0>
0

>  <SCORE.INTRA.REPUL>
0

>  <SCORE.INTRA.REPUL.0>
0

>  <SCORE.INTRA.SOLV>
0.446945

>  <SCORE.INTRA.SOLV.lig_0>
-16.5947

>  <SCORE.INTRA.VDW>
0.324163

>  <SCORE.INTRA.VDW.0>
-0.691398

>  <SCORE.INTRA.norm>
-0.527827

>  <SCORE.RESTR>
0

>  <SCORE.RESTR.CAVITY>
0

>  <SCORE.RESTR.norm>
0

>  <SCORE.SYSTEM>
0

>  <SCORE.SYSTEM.CONST>
0

>  <SCORE.SYSTEM.DIHEDRAL>
0

>  <SCORE.SYSTEM.SOLV>
0

>  <SCORE.SYSTEM.norm>
0

>  <SCORE.heavy>
11

>  <SCORE.norm>
-2.30219

>  <RMSD>
4.484

$$$$
1akx_lig
 OpenBabel11021811383D
libRbt.so/2013.1/901 2013/11/27
 11 10  0  0  0  0  0  0  0  0999 V2000
   -6.1875   -3.4114    1.7623 N   0  0  0  0  0  0  0  0  0  0  0  0
   -6.7442   -4.4465    0.8421 C   0  0  2  0  0  0  0  0  0  0  0  0
   -6.8476   -5.7864    1.5814 C   0  0  0  0  0  0  0  0  0  0  0  0
   -7.5698   -5.9014    2.5516 O   0  0  0  0  0  0  0  0  0  0  0  0
   -5.8256   -4.5987   -0.3779 C   0  0  0  0  0  0  0  0  0  0  0  0
   -5.8886   -3.3297   -1.2340 C   0  0  0  0  0  0  0  0  0  0  0  0
   -5.0724   -3.5335   -2.5104 C   0  0  0  0  0  0  0  0  0  0  0  0
   -3.6203   -3.5393   -2.1736 N   0  0  0  0  0  0  0  0  0  0  0  0
   -2.7523   -2.9951   -2.9877 C   0  0  0  0  0  0  0  0  0  0  0  0
   -1.4925   -3.3438   -2.9372 N   0  0  0  0  0  0  0  0  0  0  0  0
   -3.1471   -2.1048   -3.8582 N   0  0  0  0  0  0  0  0  0  0  0  0
  2  1  1  1  0  0  0
  2  3  1  0  0  0  0
  2  5  1  0  0  0  0
  3  4  1  0  0  0  0
  5  6  1  0  0  0  0
  6  7  1  0  0  0  0
  7  8  1  0  0  0  0
  8  9  1  0  0  0  0
  9 10  1  0  0  0  0
  9 11  1  0  0  0  0
M  END
>  <CHROM.1>
79.71527097,62.55017662,-68.30670078,-174.93559491,-71.60814496,-143.02091039
-158.45937158,-148.59189414,-152.52972343,-4.98640622,-3.88973328,-0.82225597
2.26401905,-0.27675370,2.20905499

>  <Name>
1akx_lig

>  <RI>
0

>  <Rbt.Current_Directory>
/home/itssahil/PROJECTS/Mol_Feturizer/New_Systems/rnas/1akx

>  <Rbt.Executable>
rbdock ($Id: //depot/dev/client3/rdock/2013.1/src/exe/rbdock.cxx#4 $)

>  <Rbt.Library>
libRbt.so (2013.1, Build901 2013/11/27)

>  <Rbt.Parameter_File>
/export/apps/rDock/src/rDock_2013.1_src/data/scripts/dock_solv.prm

>  <Rbt.Receptor>
prm/pocket_docking_8.prm

>  <SCORE>
-29.6821

>  <SCORE.INTER>
-23.2379

>  <SCORE.INTER.CONST>
1

>  <SCORE.INTER.POLAR>
-3.58719

>  <SCORE.INTER.ROT>
8

>  <SCORE.INTER.SOLV>
6.18659

>  <SCORE.INTER.VDW>
-14.5302

>  <SCORE.INTER.norm>
-2.11254

>  <SCORE.INTRA>
-6.44414

>  <SCORE.INTRA.DIHEDRAL>
-15.0758

>  <SCORE.INTRA.DIHEDRAL.0>
21.6454

>  <SCORE.INTRA.POLAR>
0

>  <SCORE.INTRA.POLAR.0>
0

>  <SCORE.INTRA.REPUL>
0

>  <SCORE.INTRA.REPUL.0>
0

>  <SCORE.INTRA.SOLV>
0.345119

>  <SCORE.INTRA.SOLV.lig_0>
-16.5947

>  <SCORE.INTRA.VDW>
0.921224

>  <SCORE.INTRA.VDW.0>
-0.691398

>  <SCORE.INTRA.norm>
-0.58583

>  <SCORE.RESTR>
0

>  <SCORE.RESTR.CAVITY>
0

>  <SCORE.RESTR.norm>
0

>  <SCORE.SYSTEM>
0

>  <SCORE.SYSTEM.CONST>
0

>  <SCORE.SYSTEM.DIHEDRAL>
0

>  <SCORE.SYSTEM.SOLV>
0

>  <SCORE.SYSTEM.norm>
0

>  <SCORE.heavy>
11

>  <SCORE.norm>
-2.69837

>  <RMSD>
4.486

$$$$
1akx_lig
 OpenBabel11021811383D
libRbt.so/2013.1/901 2013/11/27
 11 10  0  0  0  0  0  0  0  0999 V2000
   -7.2865   -3.5755   -0.1249 N   0  0  0  0  0  0  0  0  0  0  0  0
   -6.3580   -4.5446    0.5284 C   0  0  2  0  0  0  0  0  0  0  0  0
   -6.7990   -4.7777    1.9789 C   0  0  0  0  0  0  0  0  0  0  0  0
   -7.8816   -5.2723    2.2224 O   0  0  0  0  0  0  0  0  0  0  0  0
   -4.9294   -3.9843    0.5061 C   0  0  0  0  0  0  0  0  0  0  0  0
   -4.3280   -4.1574   -0.8924 C   0  0  0  0  0  0  0  0  0  0  0  0
   -4.7274   -2.9715   -1.7706 C   0  0  0  0  0  0  0  0  0  0  0  0
   -3.5031   -2.3560   -2.3576 N   0  0  0  0  0  0  0  0  0  0  0  0
   -3.3209   -2.3572   -3.6534 C   0  0  0  0  0  0  0  0  0  0  0  0
   -2.1947   -2.7889   -4.1602 N   0  0  0  0  0  0  0  0  0  0  0  0
   -4.2698   -1.9316   -4.4436 N   0  0  0  0  0  0  0  0  0  0  0  0
  2  1  1  1  0  0  0
  2  3  1  0  0  0  0
  2  5  1  0  0  0  0
  3  4  1  0  0  0  0
  5  6  1  0  0  0  0
  6  7  1  0  0  0  0
  7  8  1  0  0  0  0
  8  9  1  0  0  0  0
  9 10  1  0  0  0  0
  9 11  1  0  0  0  0
M  END
>  <CHROM.1>
-159.12788534,62.76935672,-77.27851163,85.83849641,126.12859876,116.56879336
-128.98115134,123.09024861,85.00706432,-5.07752083,-3.50058226,-1.13340241
2.16694858,-0.13438733,2.07434143

>  <Name>
1akx_lig

>  <RI>
0

>  <Rbt.Current_Directory>
/home/itssahil/PROJECTS/Mol_Feturizer/New_Systems/rnas/1akx

>  <Rbt.Executable>
rbdock ($Id: //depot/dev/client3/rdock/2013.1/src/exe/rbdock.cxx#4 $)

>  <Rbt.Library>
libRbt.so (2013.1, Build901 2013/11/27)

>  <Rbt.Parameter_File>
/export/apps/rDock/src/rDock_2013.1_src/data/scripts/dock_solv.prm

>  <Rbt.Receptor>
prm/pocket_docking_6.prm

>  <SCORE>
-28.9273

>  <SCORE.INTER>
-25.649

>  <SCORE.INTER.CONST>
1

>  <SCORE.INTER.POLAR>
-3.5968

>  <SCORE.INTER.ROT>
8

>  <SCORE.INTER.SOLV>
8.92377

>  <SCORE.INTER.VDW>
-17.0179

>  <SCORE.INTER.norm>
-2.33173

>  <SCORE.INTRA>
-3.27829

>  <SCORE.INTRA.DIHEDRAL>
-6.94852

>  <SCORE.INTRA.DIHEDRAL.0>
21.6454

>  <SCORE.INTRA.POLAR>
0

>  <SCORE.INTRA.POLAR.0>
0

>  <SCORE.INTRA.REPUL>
0

>  <SCORE.INTRA.REPUL.0>
0

>  <SCORE.INTRA.SOLV>
0.385341

>  <SCORE.INTRA.SOLV.lig_0>
-16.5947

>  <SCORE.INTRA.VDW>
0.00329669

>  <SCORE.INTRA.VDW.0>
-0.691398

>  <SCORE.INTRA.norm>
-0.298027

>  <SCORE.RESTR>
0

>  <SCORE.RESTR.CAVITY>
0

>  <SCORE.RESTR.norm>
0

>  <SCORE.SYSTEM>
0

>  <SCORE.SYSTEM.CONST>
0

>  <SCORE.SYSTEM.DIHEDRAL>
0

>  <SCORE.SYSTEM.SOLV>
0

>  <SCORE.SYSTEM.norm>
0

>  <SCORE.heavy>
11

>  <SCORE.norm>
-2.62975

>  <RMSD>
4.490

$$$$
1akx_lig
 OpenBabel11021811383D
libRbt.so/2013.1/901 2013/11/27
 11 10  0  0  0  0  0  0  0  0999 V2000
   -6.7864   -3.3928    2.3384 N   0  0  0  0  0  0  0  0  0  0  0  0
   -6.9288   -4.1128    1.0386 C   0  0  2  0  0  0  0  0  0  0  0  0
   -6.8541   -5.6256    1.2805 C   0  0  0  0  0  0  0  0  0  0  0  0
   -7.6191   -6.1648    2.0552 O   0  0  0  0  0  0  0  0  0  0  0  0
   -5.8033   -3.6852    0.0868 C   0  0  0  0  0  0  0  0  0  0  0  0
   -6.1083   -4.1814   -1.3303 C   0  0  0  0  0  0  0  0  0  0  0  0
   -4.8198   -4.2016   -2.1528 C   0  0  0  0  0  0  0  0  0  0  0  0
   -4.3903   -2.8021   -2.4342 N   0  0  0  0  0  0  0  0  0  0  0  0
   -3.6427   -2.5385   -3.4753 C   0  0  0  0  0  0  0  0  0  0  0  0
   -2.3693   -2.8380   -3.4651 N   0  0  0  0  0  0  0  0  0  0  0  0
   -4.1718   -1.9799   -4.5308 N   0  0  0  0  0  0  0  0  0  0  0  0
  2  1  1  1  0  0  0
  2  3  1  0  0  0  0
  2  5  1  0  0  0  0
  3  4  1  0  0  0  0
  5  6  1  0  0  0  0
  6  7  1  0  0  0  0
  7  8  1  0  0  0  0
  8  9  1  0  0  0  0
  9 10  1  0  0  0  0
  9 11  1  0  0  0  0
M  END
>  <CHROM.1>
57.21952730,56.30908055,-167.99450023,-160.29954170,-70.43721151,-155.20489758
-75.25877228,59.24854656,92.35491971,-5.40122089,-3.75393878,-0.94091754
-3.02464675,-1.02870255,-2.59610802

>  <Name>
1akx_lig

>  <RI>
0

>  <Rbt.Current_Directory>
/home/itssahil/PROJECTS/Mol_Feturizer/New_Systems/rnas/1akx

>  <Rbt.Executable>
rbdock ($Id: //depot/dev/client3/rdock/2013.1/src/exe/rbdock.cxx#4 $)

>  <Rbt.Library>
libRbt.so (2013.1, Build901 2013/11/27)

>  <Rbt.Parameter_File>
/export/apps/rDock/src/rDock_2013.1_src/data/scripts/dock_solv.prm

>  <Rbt.Receptor>
prm/pocket_docking_7.prm

>  <SCORE>
-32.8389

>  <SCORE.INTER>
-26.1616

>  <SCORE.INTER.CONST>
1

>  <SCORE.INTER.POLAR>
-3.79603

>  <SCORE.INTER.ROT>
8

>  <SCORE.INTER.SOLV>
7.54499

>  <SCORE.INTER.VDW>
-16.236

>  <SCORE.INTER.norm>
-2.37833

>  <SCORE.INTRA>
-6.67734

>  <SCORE.INTRA.DIHEDRAL>
-14.3282

>  <SCORE.INTRA.DIHEDRAL.0>
21.6454

>  <SCORE.INTRA.POLAR>
0

>  <SCORE.INTRA.POLAR.0>
0

>  <SCORE.INTRA.REPUL>
0

>  <SCORE.INTRA.REPUL.0>
0

>  <SCORE.INTRA.SOLV>
0.257866

>  <SCORE.INTRA.SOLV.lig_0>
-16.5947

>  <SCORE.INTRA.VDW>
0.357823

>  <SCORE.INTRA.VDW.0>
-0.691398

>  <SCORE.INTRA.norm>
-0.607031

>  <SCORE.RESTR>
0

>  <SCORE.RESTR.CAVITY>
0

>  <SCORE.RESTR.norm>
0

>  <SCORE.SYSTEM>
0

>  <SCORE.SYSTEM.CONST>
0

>  <SCORE.SYSTEM.DIHEDRAL>
0

>  <SCORE.SYSTEM.SOLV>
0

>  <SCORE.SYSTEM.norm>
0

>  <SCORE.heavy>
11

>  <SCORE.norm>
-2.98536

>  <RMSD>
4.498

$$$$
1akx_lig
 OpenBabel11021811383D
libRbt.so/2013.1/901 2013/11/27
 11 10  0  0  0  0  0  0  0  0999 V2000
   -0.5958  -10.6239   -0.8959 N   0  0  0  0  0  0  0  0  0  0  0  0
   -1.4858   -9.4504   -0.6533 C   0  0  2  0  0  0  0  0  0  0  0  0
   -2.9065   -9.7783   -1.1295 C   0  0  0  0  0  0  0  0  0  0  0  0
   -3.1099  -10.1102   -2.2805 O   0  0  0  0  0  0  0  0  0  0  0  0
   -0.9522   -8.2321   -1.4190 C   0  0  0  0  0  0  0  0  0  0  0  0
   -1.6392   -6.9605   -0.9106 C   0  0  0  0  0  0  0  0  0  0  0  0
   -0.9923   -5.7364   -1.5586 C   0  0  0  0  0  0  0  0  0  0  0  0
   -1.6814   -4.5028   -1.0837 N   0  0  0  0  0  0  0  0  0  0  0  0
   -1.1502   -3.3264   -1.2987 C   0  0  0  0  0  0  0  0  0  0  0  0
   -1.5384   -2.6042   -2.3181 N   0  0  0  0  0  0  0  0  0  0  0  0
   -0.2334   -2.8694   -0.4884 N   0  0  0  0  0  0  0  0  0  0  0  0
  2  1  1  6  0  0  0
  2  3  1  0  0  0  0
  2  5  1  0  0  0  0
  3  4  1  0  0  0  0
  5  6  1  0  0  0  0
  6  7  1  0  0  0  0
  7  8  1  0  0  0  0
  8  9  1  0  0  0  0
  9 10  1  0  0  0  0
  9 11  1  0  0  0  0
M  END
>  <CHROM.1>
-51.19299954,-57.34148442,-166.03310998,173.51303635,178.83026217,167.04692972
97.07799643,71.96200268,66.07750359,-1.47142632,-6.74976044,-1.28599335,-1.71086079
-0.53749391,-0.07948563

>  <Name>
1akx_lig

>  <RI>
0

>  <Rbt.Current_Directory>
/home/itssahil/PROJECTS/Mol_Feturizer/New_Systems/rnas/1akx

>  <Rbt.Executable>
rbdock ($Id: //depot/dev/client3/rdock/2013.1/src/exe/rbdock.cxx#4 $)

>  <Rbt.Library>
libRbt.so (2013.1, Build901 2013/11/27)

>  <Rbt.Parameter_File>
/export/apps/rDock/src/rDock_2013.1_src/data/scripts/dock_solv.prm

>  <Rbt.Receptor>
prm/pocket_docking_7.prm

>  <SCORE>
-25.3149

>  <SCORE.INTER>
-17.9954

>  <SCORE.INTER.CONST>
1

>  <SCORE.INTER.POLAR>
-3.63847

>  <SCORE.INTER.ROT>
8

>  <SCORE.INTER.SOLV>
6.28473

>  <SCORE.INTER.VDW>
-10.8969

>  <SCORE.INTER.norm>
-1.63594

>  <SCORE.INTRA>
-7.3195

>  <SCORE.INTRA.DIHEDRAL>
-15.7044

>  <SCORE.INTRA.DIHEDRAL.0>
21.6454

>  <SCORE.INTRA.POLAR>
0

>  <SCORE.INTRA.POLAR.0>
0

>  <SCORE.INTRA.REPUL>
0

>  <SCORE.INTRA.REPUL.0>
0

>  <SCORE.INTRA.SOLV>
0.222768

>  <SCORE.INTRA.SOLV.lig_0>
-16.5947

>  <SCORE.INTRA.VDW>
0.421306

>  <SCORE.INTRA.VDW.0>
-0.691398

>  <SCORE.INTRA.norm>
-0.665409

>  <SCORE.RESTR>
0

>  <SCORE.RESTR.CAVITY>
0

>  <SCORE.RESTR.norm>
0

>  <SCORE.SYSTEM>
0

>  <SCORE.SYSTEM.CONST>
0

>  <SCORE.SYSTEM.DIHEDRAL>
0

>  <SCORE.SYSTEM.SOLV>
0

>  <SCORE.SYSTEM.norm>
0

>  <SCORE.heavy>
11

>  <SCORE.norm>
-2.30135

>  <RMSD>
4.523

$$$$
1akx_lig
 OpenBabel11021811383D
libRbt.so/2013.1/901 2013/11/27
 11 10  0  0  0  0  0  0  0  0999 V2000
   -5.8421   -2.5167   -0.0847 N   0  0  0  0  0  0  0  0  0  0  0  0
   -6.3646   -3.9146   -0.1168 C   0  0  2  0  0  0  0  0  0  0  0  0
   -6.8066   -4.3284    1.2925 C   0  0  0  0  0  0  0  0  0  0  0  0
   -6.0503   -4.2092    2.2359 O   0  0  0  0  0  0  0  0  0  0  0  0
   -5.2658   -4.8640   -0.6135 C   0  0  0  0  0  0  0  0  0  0  0  0
   -5.4752   -5.1636   -2.1014 C   0  0  0  0  0  0  0  0  0  0  0  0
   -5.5237   -3.8517   -2.8847 C   0  0  0  0  0  0  0  0  0  0  0  0
   -4.2695   -3.0835   -2.6415 N   0  0  0  0  0  0  0  0  0  0  0  0
   -3.6020   -2.5755   -3.6459 C   0  0  0  0  0  0  0  0  0  0  0  0
   -2.3061   -2.7360   -3.7246 N   0  0  0  0  0  0  0  0  0  0  0  0
   -4.2336   -1.9112   -4.5764 N   0  0  0  0  0  0  0  0  0  0  0  0
  2  1  1  1  0  0  0
  2  3  1  0  0  0  0
  2  5  1  0  0  0  0
  3  4  1  0  0  0  0
  5  6  1  0  0  0  0
  6  7  1  0  0  0  0
  7  8  1  0  0  0  0
  8  9  1  0  0  0  0
  9 10  1  0  0  0  0
  9 11  1  0  0  0  0
M  END
>  <CHROM.1>
58.32374885,-52.37780421,-98.98887025,55.66433083,56.92810226,131.79064337
-132.75122979,-109.65187163,-66.35021895,-5.03808102,-3.50943053,-1.52596282
-2.65580901,-1.02887795,-2.28760862

>  <Name>
1akx_lig

>  <RI>
0

>  <Rbt.Current_Directory>
/home/itssahil/PROJECTS/Mol_Feturizer/New_Systems/rnas/1akx

>  <Rbt.Executable>
rbdock ($Id: //depot/dev/client3/rdock/2013.1/src/exe/rbdock.cxx#4 $)

>  <Rbt.Library>
libRbt.so (2013.1, Build901 2013/11/27)

>  <Rbt.Parameter_File>
/export/apps/rDock/src/rDock_2013.1_src/data/scripts/dock_solv.prm

>  <Rbt.Receptor>
prm/pocket_docking_5.prm

>  <SCORE>
-31.8736

>  <SCORE.INTER>
-26.6821

>  <SCORE.INTER.CONST>
1

>  <SCORE.INTER.POLAR>
-3.3068

>  <SCORE.INTER.ROT>
8

>  <SCORE.INTER.SOLV>
8.35889

>  <SCORE.INTER.VDW>
-18.485

>  <SCORE.INTER.norm>
-2.42564

>  <SCORE.INTRA>
-5.19154

>  <SCORE.INTRA.DIHEDRAL>
-12.24

>  <SCORE.INTRA.DIHEDRAL.0>
21.6454

>  <SCORE.INTRA.POLAR>
-0.55722

>  <SCORE.INTRA.POLAR.0>
0

>  <SCORE.INTRA.REPUL>
0

>  <SCORE.INTRA.REPUL.0>
0

>  <SCORE.INTRA.SOLV>
1.49821

>  <SCORE.INTRA.SOLV.lig_0>
-16.5947

>  <SCORE.INTRA.VDW>
2.07388

>  <SCORE.INTRA.VDW.0>
-0.691398

>  <SCORE.INTRA.norm>
-0.471959

>  <SCORE.RESTR>
0

>  <SCORE.RESTR.CAVITY>
0

>  <SCORE.RESTR.norm>
0

>  <SCORE.SYSTEM>
0

>  <SCORE.SYSTEM.CONST>
0

>  <SCORE.SYSTEM.DIHEDRAL>
0

>  <SCORE.SYSTEM.SOLV>
0

>  <SCORE.SYSTEM.norm>
0

>  <SCORE.heavy>
11

>  <SCORE.norm>
-2.8976

>  <RMSD>
4.524

$$$$
1akx_lig
 OpenBabel11021811383D
libRbt.so/2013.1/901 2013/11/27
 11 10  0  0  0  0  0  0  0  0999 V2000
   -7.3564   -3.6364   -0.0402 N   0  0  0  0  0  0  0  0  0  0  0  0
   -6.3660   -4.6658    0.3929 C   0  0  2  0  0  0  0  0  0  0  0  0
   -6.2520   -4.6547    1.9225 C   0  0  0  0  0  0  0  0  0  0  0  0
   -7.2037   -4.9581    2.6141 O   0  0  0  0  0  0  0  0  0  0  0  0
   -4.9975   -4.3581   -0.2297 C   0  0  0  0  0  0  0  0  0  0  0  0
   -4.9562   -4.8784   -1.6702 C   0  0  0  0  0  0  0  0  0  0  0  0
   -5.4969   -3.8062   -2.6163 C   0  0  0  0  0  0  0  0  0  0  0  0
   -4.5345   -2.6694   -2.6777 N   0  0  0  0  0  0  0  0  0  0  0  0
   -3.8906   -2.4097   -3.7869 C   0  0  0  0  0  0  0  0  0  0  0  0
   -4.4867   -1.7719   -4.7612 N   0  0  0  0  0  0  0  0  0  0  0  0
   -2.6460   -2.7835   -3.9187 N   0  0  0  0  0  0  0  0  0  0  0  0
  2  1  1  1  0  0  0
  2  3  1  0  0  0  0
  2  5  1  0  0  0  0
  3  4  1  0  0  0  0
  5  6  1  0  0  0  0
  6  7  1  0  0  0  0
  7  8  1  0  0  0  0
  8  9  1  0  0  0  0
  9 10  1  0  0  0  0
  9 11  1  0  0  0  0
M  END
>  <CHROM.1>
63.60750600,64.34137579,-81.30571127,87.64654916,69.33319277,113.31232905
78.74931329,-83.18498360,12.19856403,-5.30651540,-3.65640993,-1.35031342
2.05262079,-0.32571647,2.11377183

>  <Name>
1akx_lig

>  <RI>
0

>  <Rbt.Current_Directory>
/home/itssahil/PROJECTS/Mol_Feturizer/New_Systems/rnas/1akx

>  <Rbt.Executable>
rbdock ($Id: //depot/dev/client3/rdock/2013.1/src/exe/rbdock.cxx#4 $)

>  <Rbt.Library>
libRbt.so (2013.1, Build901 2013/11/27)

>  <Rbt.Parameter_File>
/export/apps/rDock/src/rDock_2013.1_src/data/scripts/dock_solv.prm

>  <Rbt.Receptor>
prm/pocket_docking_8.prm

>  <SCORE>
-34.2851

>  <SCORE.INTER>
-28.2298

>  <SCORE.INTER.CONST>
1

>  <SCORE.INTER.POLAR>
-3.99023

>  <SCORE.INTER.ROT>
8

>  <SCORE.INTER.SOLV>
8.6648

>  <SCORE.INTER.VDW>
-17.3407

>  <SCORE.INTER.norm>
-2.56634

>  <SCORE.INTRA>
-6.05531

>  <SCORE.INTRA.DIHEDRAL>
-12.0862

>  <SCORE.INTRA.DIHEDRAL.0>
21.6454

>  <SCORE.INTRA.POLAR>
0

>  <SCORE.INTRA.POLAR.0>
0

>  <SCORE.INTRA.REPUL>
0

>  <SCORE.INTRA.REPUL.0>
0

>  <SCORE.INTRA.SOLV>
0.740367

>  <SCORE.INTRA.SOLV.lig_0>
-16.5947

>  <SCORE.INTRA.VDW>
-0.382368

>  <SCORE.INTRA.VDW.0>
-0.691398

>  <SCORE.INTRA.norm>
-0.550483

>  <SCORE.RESTR>
0

>  <SCORE.RESTR.CAVITY>
0

>  <SCORE.RESTR.norm>
0

>  <SCORE.SYSTEM>
0

>  <SCORE.SYSTEM.CONST>
0

>  <SCORE.SYSTEM.DIHEDRAL>
0

>  <SCORE.SYSTEM.SOLV>
0

>  <SCORE.SYSTEM.norm>
0

>  <SCORE.heavy>
11

>  <SCORE.norm>
-3.11682

>  <RMSD>
4.524

$$$$
1akx_lig
 OpenBabel11021811383D
libRbt.so/2013.1/901 2013/11/27
 11 10  0  0  0  0  0  0  0  0999 V2000
   -6.8470   -5.9366   -2.3648 N   0  0  0  0  0  0  0  0  0  0  0  0
   -5.5556   -5.2311   -2.1147 C   0  0  2  0  0  0  0  0  0  0  0  0
   -4.5543   -6.2053   -1.4814 C   0  0  0  0  0  0  0  0  0  0  0  0
   -3.3934   -5.8823   -1.3261 O   0  0  0  0  0  0  0  0  0  0  0  0
   -5.7911   -4.0450   -1.1697 C   0  0  0  0  0  0  0  0  0  0  0  0
   -4.6583   -3.0256   -1.3274 C   0  0  0  0  0  0  0  0  0  0  0  0
   -3.5841   -3.2883   -0.2720 C   0  0  0  0  0  0  0  0  0  0  0  0
   -2.5065   -2.2659   -0.3974 N   0  0  0  0  0  0  0  0  0  0  0  0
   -1.3464   -2.5898   -0.9089 C   0  0  0  0  0  0  0  0  0  0  0  0
   -1.2333   -2.8230   -2.1912 N   0  0  0  0  0  0  0  0  0  0  0  0
   -0.2964   -2.6744   -0.1366 N   0  0  0  0  0  0  0  0  0  0  0  0
  2  1  1  1  0  0  0
  2  3  1  0  0  0  0
  2  5  1  0  0  0  0
  3  4  1  0  0  0  0
  5  6  1  0  0  0  0
  6  7  1  0  0  0  0
  7  8  1  0  0  0  0
  8  9  1  0  0  0  0
  9 10  1  0  0  0  0
  9 11  1  0  0  0  0
M  END
>  <CHROM.1>
175.88259009,172.03455192,-158.26218504,-94.63649501,-178.04236795,-106.27806729
71.95177515,-84.71988542,149.97908718,-3.59849283,-4.01452886,-1.25747965
2.54914816,0.05884747,-2.86428475

>  <Name>
1akx_lig

>  <RI>
0

>  <Rbt.Current_Directory>
/home/itssahil/PROJECTS/Mol_Feturizer/New_Systems/rnas/1akx

>  <Rbt.Executable>
rbdock ($Id: //depot/dev/client3/rdock/2013.1/src/exe/rbdock.cxx#4 $)

>  <Rbt.Library>
libRbt.so (2013.1, Build901 2013/11/27)

>  <Rbt.Parameter_File>
/export/apps/rDock/src/rDock_2013.1_src/data/scripts/dock_solv.prm

>  <Rbt.Receptor>
prm/pocket_docking_7.prm

>  <SCORE>
-27.4161

>  <SCORE.INTER>
-22.4743

>  <SCORE.INTER.CONST>
1

>  <SCORE.INTER.POLAR>
-3.77693

>  <SCORE.INTER.ROT>
8

>  <SCORE.INTER.SOLV>
5.89392

>  <SCORE.INTER.VDW>
-13.291

>  <SCORE.INTER.norm>
-2.04312

>  <SCORE.INTRA>
-4.94188

>  <SCORE.INTRA.DIHEDRAL>
-11.0554

>  <SCORE.INTRA.DIHEDRAL.0>
21.6454

>  <SCORE.INTRA.POLAR>
0

>  <SCORE.INTRA.POLAR.0>
0

>  <SCORE.INTRA.REPUL>
0

>  <SCORE.INTRA.REPUL.0>
0

>  <SCORE.INTRA.SOLV>
0.802684

>  <SCORE.INTRA.SOLV.lig_0>
-16.5947

>  <SCORE.INTRA.VDW>
0.184478

>  <SCORE.INTRA.VDW.0>
-0.691398

>  <SCORE.INTRA.norm>
-0.449262

>  <SCORE.RESTR>
0

>  <SCORE.RESTR.CAVITY>
0

>  <SCORE.RESTR.norm>
0

>  <SCORE.SYSTEM>
0

>  <SCORE.SYSTEM.CONST>
0

>  <SCORE.SYSTEM.DIHEDRAL>
0

>  <SCORE.SYSTEM.SOLV>
0

>  <SCORE.SYSTEM.norm>
0

>  <SCORE.heavy>
11

>  <SCORE.norm>
-2.49238

>  <RMSD>
4.535

$$$$
1akx_lig
 OpenBabel11021811383D
libRbt.so/2013.1/901 2013/11/27
 11 10  0  0  0  0  0  0  0  0999 V2000
   -7.0184   -3.5975   -0.1080 N   0  0  0  0  0  0  0  0  0  0  0  0
   -5.5746   -3.8427   -0.3968 C   0  0  2  0  0  0  0  0  0  0  0  0
   -4.7191   -3.2453    0.7274 C   0  0  0  0  0  0  0  0  0  0  0  0
   -4.8600   -3.6191    1.8748 O   0  0  0  0  0  0  0  0  0  0  0  0
   -5.1988   -3.1909   -1.7345 C   0  0  0  0  0  0  0  0  0  0  0  0
   -3.7766   -3.6024   -2.1285 C   0  0  0  0  0  0  0  0  0  0  0  0
   -3.0117   -2.3783   -2.6319 C   0  0  0  0  0  0  0  0  0  0  0  0
   -1.5733   -2.5070   -2.2621 N   0  0  0  0  0  0  0  0  0  0  0  0
   -1.2280   -2.7035   -1.0152 C   0  0  0  0  0  0  0  0  0  0  0  0
   -1.5450   -1.8268   -0.0975 N   0  0  0  0  0  0  0  0  0  0  0  0
   -0.5699   -3.7825   -0.6855 N   0  0  0  0  0  0  0  0  0  0  0  0
  2  1  1  1  0  0  0
  2  3  1  0  0  0  0
  2  5  1  0  0  0  0
  3  4  1  0  0  0  0
  5  6  1  0  0  0  0
  6  7  1  0  0  0  0
  7  8  1  0  0  0  0
  8  9  1  0  0  0  0
  9 10  1  0  0  0  0
  9 11  1  0  0  0  0
M  END
>  <CHROM.1>
168.38294781,59.37393396,-172.19209958,-135.87172797,146.82316105,-54.82816959
-60.13932407,-138.38314454,-72.48753025,-3.56117413,-3.11895718,-0.72224053
2.82333078,0.14520192,1.66470853

>  <Name>
1akx_lig

>  <RI>
0

>  <Rbt.Current_Directory>
/home/itssahil/PROJECTS/Mol_Feturizer/New_Systems/rnas/1akx

>  <Rbt.Executable>
rbdock ($Id: //depot/dev/client3/rdock/2013.1/src/exe/rbdock.cxx#4 $)

>  <Rbt.Library>
libRbt.so (2013.1, Build901 2013/11/27)

>  <Rbt.Parameter_File>
/export/apps/rDock/src/rDock_2013.1_src/data/scripts/dock_solv.prm

>  <Rbt.Receptor>
prm/pocket_docking_4.prm

>  <SCORE>
-30.2848

>  <SCORE.INTER>
-27.2643

>  <SCORE.INTER.CONST>
1

>  <SCORE.INTER.POLAR>
-4.19836

>  <SCORE.INTER.ROT>
8

>  <SCORE.INTER.SOLV>
6.25978

>  <SCORE.INTER.VDW>
-15.2016

>  <SCORE.INTER.norm>
-2.47857

>  <SCORE.INTRA>
-3.02046

>  <SCORE.INTRA.DIHEDRAL>
-7.93634

>  <SCORE.INTRA.DIHEDRAL.0>
21.6454

>  <SCORE.INTRA.POLAR>
0

>  <SCORE.INTRA.POLAR.0>
0

>  <SCORE.INTRA.REPUL>
0

>  <SCORE.INTRA.REPUL.0>
0

>  <SCORE.INTRA.SOLV>
0.837257

>  <SCORE.INTRA.SOLV.lig_0>
-16.5947

>  <SCORE.INTRA.VDW>
0.529084

>  <SCORE.INTRA.VDW.0>
-0.691398

>  <SCORE.INTRA.norm>
-0.274587

>  <SCORE.RESTR>
0

>  <SCORE.RESTR.CAVITY>
0

>  <SCORE.RESTR.norm>
0

>  <SCORE.SYSTEM>
0

>  <SCORE.SYSTEM.CONST>
0

>  <SCORE.SYSTEM.DIHEDRAL>
0

>  <SCORE.SYSTEM.SOLV>
0

>  <SCORE.SYSTEM.norm>
0

>  <SCORE.heavy>
11

>  <SCORE.norm>
-2.75316

>  <RMSD>
4.542

$$$$
1akx_lig
 OpenBabel11021811383D
libRbt.so/2013.1/901 2013/11/27
 11 10  0  0  0  0  0  0  0  0999 V2000
   -8.7554   -4.4415    0.3153 N   0  0  0  0  0  0  0  0  0  0  0  0
   -7.3865   -5.0333    0.2517 C   0  0  2  0  0  0  0  0  0  0  0  0
   -6.9823   -5.5390    1.6422 C   0  0  0  0  0  0  0  0  0  0  0  0
   -5.9337   -6.1315    1.8022 O   0  0  0  0  0  0  0  0  0  0  0  0
   -6.3869   -3.9696   -0.2223 C   0  0  0  0  0  0  0  0  0  0  0  0
   -5.1146   -4.6493   -0.7386 C   0  0  0  0  0  0  0  0  0  0  0  0
   -4.0571   -3.5888   -1.0450 C   0  0  0  0  0  0  0  0  0  0  0  0
   -4.5048   -2.7635   -2.2029 N   0  0  0  0  0  0  0  0  0  0  0  0
   -3.6538   -2.4194   -3.1355 C   0  0  0  0  0  0  0  0  0  0  0  0
   -4.0335   -2.3637   -4.3862 N   0  0  0  0  0  0  0  0  0  0  0  0
   -2.4225   -2.1243   -2.8151 N   0  0  0  0  0  0  0  0  0  0  0  0
  2  1  1  1  0  0  0
  2  3  1  0  0  0  0
  2  5  1  0  0  0  0
  3  4  1  0  0  0  0
  5  6  1  0  0  0  0
  6  7  1  0  0  0  0
  7  8  1  0  0  0  0
  8  9  1  0  0  0  0
  9 10  1  0  0  0  0
  9 11  1  0  0  0  0
M  END
>  <CHROM.1>
59.20165303,175.58373191,-161.02140987,-172.96047854,-67.22503598,-138.24740531
143.45276237,-22.02484900,-16.17974098,-5.40133545,-3.89637871,-0.97165460
2.20823443,0.00234702,2.16057840

>  <Name>
1akx_lig

>  <RI>
0

>  <Rbt.Current_Directory>
/home/itssahil/PROJECTS/Mol_Feturizer/New_Systems/rnas/1akx

>  <Rbt.Executable>
rbdock ($Id: //depot/dev/client3/rdock/2013.1/src/exe/rbdock.cxx#4 $)

>  <Rbt.Library>
libRbt.so (2013.1, Build901 2013/11/27)

>  <Rbt.Parameter_File>
/export/apps/rDock/src/rDock_2013.1_src/data/scripts/dock_solv.prm

>  <Rbt.Receptor>
prm/pocket_docking_6.prm

>  <SCORE>
-36.0918

>  <SCORE.INTER>
-29.7368

>  <SCORE.INTER.CONST>
1

>  <SCORE.INTER.POLAR>
-4.46223

>  <SCORE.INTER.ROT>
8

>  <SCORE.INTER.SOLV>
7.32607

>  <SCORE.INTER.VDW>
-16.3258

>  <SCORE.INTER.norm>
-2.70334

>  <SCORE.INTRA>
-6.51043

>  <SCORE.INTRA.DIHEDRAL>
-15.0415

>  <SCORE.INTRA.DIHEDRAL.0>
21.6454

>  <SCORE.INTRA.POLAR>
0

>  <SCORE.INTRA.POLAR.0>
0

>  <SCORE.INTRA.REPUL>
0

>  <SCORE.INTRA.REPUL.0>
0

>  <SCORE.INTRA.SOLV>
0.30199

>  <SCORE.INTRA.SOLV.lig_0>
-16.5947

>  <SCORE.INTRA.VDW>
0.859303

>  <SCORE.INTRA.VDW.0>
-0.691398

>  <SCORE.INTRA.norm>
-0.591857

>  <SCORE.RESTR>
0.155382

>  <SCORE.RESTR.CAVITY>
0.155382

>  <SCORE.RESTR.norm>
0.0141256

>  <SCORE.SYSTEM>
0

>  <SCORE.SYSTEM.CONST>
0

>  <SCORE.SYSTEM.DIHEDRAL>
0

>  <SCORE.SYSTEM.SOLV>
0

>  <SCORE.SYSTEM.norm>
0

>  <SCORE.heavy>
11

>  <SCORE.norm>
-3.28107

>  <RMSD>
4.545

$$$$
1akx_lig
 OpenBabel11021811383D
libRbt.so/2013.1/901 2013/11/27
 11 10  0  0  0  0  0  0  0  0999 V2000
   -8.3725   -4.7484   -0.1136 N   0  0  0  0  0  0  0  0  0  0  0  0
   -6.9634   -5.2403   -0.1377 C   0  0  2  0  0  0  0  0  0  0  0  0
   -6.8102   -6.4032    0.8507 C   0  0  0  0  0  0  0  0  0  0  0  0
   -5.7615   -7.0117    0.9293 O   0  0  0  0  0  0  0  0  0  0  0  0
   -6.0131   -4.1005    0.2538 C   0  0  0  0  0  0  0  0  0  0  0  0
   -6.0613   -2.9989   -0.8099 C   0  0  0  0  0  0  0  0  0  0  0  0
   -5.2889   -3.4512   -2.0491 C   0  0  0  0  0  0  0  0  0  0  0  0
   -4.0767   -2.5995   -2.2149 N   0  0  0  0  0  0  0  0  0  0  0  0
   -3.3825   -2.6491   -3.3230 C   0  0  0  0  0  0  0  0  0  0  0  0
   -2.1178   -2.9827   -3.2941 N   0  0  0  0  0  0  0  0  0  0  0  0
   -3.9566   -2.3704   -4.4626 N   0  0  0  0  0  0  0  0  0  0  0  0
  2  1  1  1  0  0  0
  2  3  1  0  0  0  0
  2  5  1  0  0  0  0
  3  4  1  0  0  0  0
  5  6  1  0  0  0  0
  6  7  1  0  0  0  0
  7  8  1  0  0  0  0
  8  9  1  0  0  0  0
  9 10  1  0  0  0  0
  9 11  1  0  0  0  0
M  END
>  <CHROM.1>
-163.23572083,175.23327507,-65.42965605,-75.21454333,-113.28491992,-168.51843067
-120.97748268,-105.41803567,-54.98404118,-5.34571286,-4.05251337,-1.32136235
2.22741398,-0.28911786,2.45312083

>  <Name>
1akx_lig

>  <RI>
0

>  <Rbt.Current_Directory>
/home/itssahil/PROJECTS/Mol_Feturizer/New_Systems/rnas/1akx

>  <Rbt.Executable>
rbdock ($Id: //depot/dev/client3/rdock/2013.1/src/exe/rbdock.cxx#4 $)

>  <Rbt.Library>
libRbt.so (2013.1, Build901 2013/11/27)

>  <Rbt.Parameter_File>
/export/apps/rDock/src/rDock_2013.1_src/data/scripts/dock_solv.prm

>  <Rbt.Receptor>
prm/pocket_docking_8.prm

>  <SCORE>
-33.3071

>  <SCORE.INTER>
-28.9961

>  <SCORE.INTER.CONST>
1

>  <SCORE.INTER.POLAR>
-4.17198

>  <SCORE.INTER.ROT>
8

>  <SCORE.INTER.SOLV>
7.31293

>  <SCORE.INTER.VDW>
-16.7951

>  <SCORE.INTER.norm>
-2.63601

>  <SCORE.INTRA>
-4.311

>  <SCORE.INTRA.DIHEDRAL>
-9.72427

>  <SCORE.INTRA.DIHEDRAL.0>
21.6454

>  <SCORE.INTRA.POLAR>
0

>  <SCORE.INTRA.POLAR.0>
0

>  <SCORE.INTRA.REPUL>
0

>  <SCORE.INTRA.REPUL.0>
0

>  <SCORE.INTRA.SOLV>
0.0949874

>  <SCORE.INTRA.SOLV.lig_0>
-16.5947

>  <SCORE.INTRA.VDW>
0.503644

>  <SCORE.INTRA.VDW.0>
-0.691398

>  <SCORE.INTRA.norm>
-0.391909

>  <SCORE.RESTR>
0

>  <SCORE.RESTR.CAVITY>
0

>  <SCORE.RESTR.norm>
0

>  <SCORE.SYSTEM>
0

>  <SCORE.SYSTEM.CONST>
0

>  <SCORE.SYSTEM.DIHEDRAL>
0

>  <SCORE.SYSTEM.SOLV>
0

>  <SCORE.SYSTEM.norm>
0

>  <SCORE.heavy>
11

>  <SCORE.norm>
-3.02792

>  <RMSD>
4.547

$$$$
1akx_lig
 OpenBabel11021811383D
libRbt.so/2013.1/901 2013/11/27
 11 10  0  0  0  0  0  0  0  0999 V2000
   -6.4760   -3.1183   -0.6540 N   0  0  0  0  0  0  0  0  0  0  0  0
   -6.2142   -4.2882    0.2353 C   0  0  2  0  0  0  0  0  0  0  0  0
   -7.3860   -4.4630    1.2095 C   0  0  0  0  0  0  0  0  0  0  0  0
   -8.5103   -4.6592    0.7930 O   0  0  0  0  0  0  0  0  0  0  0  0
   -4.9174   -4.0568    1.0228 C   0  0  0  0  0  0  0  0  0  0  0  0
   -3.7150   -4.1518    0.0780 C   0  0  0  0  0  0  0  0  0  0  0  0
   -3.3103   -2.7494   -0.3765 C   0  0  0  0  0  0  0  0  0  0  0  0
   -2.5105   -2.8472   -1.6307 N   0  0  0  0  0  0  0  0  0  0  0  0
   -3.0542   -2.5534   -2.7841 C   0  0  0  0  0  0  0  0  0  0  0  0
   -2.3203   -2.0764   -3.7564 N   0  0  0  0  0  0  0  0  0  0  0  0
   -4.3335   -2.7432   -2.9667 N   0  0  0  0  0  0  0  0  0  0  0  0
  2  1  1  6  0  0  0
  2  3  1  0  0  0  0
  2  5  1  0  0  0  0
  3  4  1  0  0  0  0
  5  6  1  0  0  0  0
  6  7  1  0  0  0  0
  7  8  1  0  0  0  0
  8  9  1  0  0  0  0
  9 10  1  0  0  0  0
  9 11  1  0  0  0  0
M  END
>  <CHROM.1>
177.19291080,59.72904439,-70.61126140,96.25931880,-159.54250257,103.54196197
150.35911514,-178.02662131,-76.55367444,-4.82143501,-3.40397584,-0.85176121
2.42491417,0.10503530,1.93897299

>  <Name>
1akx_lig

>  <RI>
0

>  <Rbt.Current_Directory>
/home/itssahil/PROJECTS/Mol_Feturizer/New_Systems/rnas/1akx

>  <Rbt.Executable>
rbdock ($Id: //depot/dev/client3/rdock/2013.1/src/exe/rbdock.cxx#4 $)

>  <Rbt.Library>
libRbt.so (2013.1, Build901 2013/11/27)

>  <Rbt.Parameter_File>
/export/apps/rDock/src/rDock_2013.1_src/data/scripts/dock_solv.prm

>  <Rbt.Receptor>
prm/pocket_docking_6.prm

>  <SCORE>
-31.354

>  <SCORE.INTER>
-23.0502

>  <SCORE.INTER.CONST>
1

>  <SCORE.INTER.POLAR>
-3.46465

>  <SCORE.INTER.ROT>
8

>  <SCORE.INTER.SOLV>
6.98299

>  <SCORE.INTER.VDW>
-15.079

>  <SCORE.INTER.norm>
-2.09547

>  <SCORE.INTRA>
-8.30379

>  <SCORE.INTRA.DIHEDRAL>
-10.8957

>  <SCORE.INTRA.DIHEDRAL.0>
21.6454

>  <SCORE.INTRA.POLAR>
-0.989997

>  <SCORE.INTRA.POLAR.0>
0

>  <SCORE.INTRA.REPUL>
0

>  <SCORE.INTRA.REPUL.0>
0

>  <SCORE.INTRA.SOLV>
1.46314

>  <SCORE.INTRA.SOLV.lig_0>
-16.5947

>  <SCORE.INTRA.VDW>
-0.2215

>  <SCORE.INTRA.VDW.0>
-0.691398

>  <SCORE.INTRA.norm>
-0.75489

>  <SCORE.RESTR>
0

>  <SCORE.RESTR.CAVITY>
0

>  <SCORE.RESTR.norm>
0

>  <SCORE.SYSTEM>
0

>  <SCORE.SYSTEM.CONST>
0

>  <SCORE.SYSTEM.DIHEDRAL>
0

>  <SCORE.SYSTEM.SOLV>
0

>  <SCORE.SYSTEM.norm>
0

>  <SCORE.heavy>
11

>  <SCORE.norm>
-2.85036

>  <RMSD>
4.549

$$$$
1akx_lig
 OpenBabel11021811383D
libRbt.so/2013.1/901 2013/11/27
 11 10  0  0  0  0  0  0  0  0999 V2000
   -6.4468   -4.1670   -1.1382 N   0  0  0  0  0  0  0  0  0  0  0  0
   -5.1881   -4.1516   -1.9405 C   0  0  2  0  0  0  0  0  0  0  0  0
   -4.1493   -5.0671   -1.2807 C   0  0  0  0  0  0  0  0  0  0  0  0
   -4.3509   -6.2616   -1.1868 O   0  0  0  0  0  0  0  0  0  0  0  0
   -4.6420   -2.7193   -2.0147 C   0  0  0  0  0  0  0  0  0  0  0  0
   -3.7166   -2.5811   -3.2279 C   0  0  0  0  0  0  0  0  0  0  0  0
   -2.4029   -3.3134   -2.9545 C   0  0  0  0  0  0  0  0  0  0  0  0
   -1.4200   -2.3621   -2.3619 N   0  0  0  0  0  0  0  0  0  0  0  0
   -1.2220   -2.3390   -1.0686 C   0  0  0  0  0  0  0  0  0  0  0  0
   -0.0057   -2.3622   -0.5875 N   0  0  0  0  0  0  0  0  0  0  0  0
   -2.2430   -2.2863   -0.2557 N   0  0  0  0  0  0  0  0  0  0  0  0
  2  1  1  1  0  0  0
  2  3  1  0  0  0  0
  2  5  1  0  0  0  0
  3  4  1  0  0  0  0
  5  6  1  0  0  0  0
  6  7  1  0  0  0  0
  7  8  1  0  0  0  0
  8  9  1  0  0  0  0
  9 10  1  0  0  0  0
  9 11  1  0  0  0  0
M  END
>  <CHROM.1>
75.28010381,63.61077393,-158.06924054,-72.77562239,-91.93681175,99.25497010
131.46498345,172.76018248,-82.04030008,-3.26439640,-3.43248933,-1.59332442
2.79320736,0.35954426,2.46727910

>  <Name>
1akx_lig

>  <RI>
0

>  <Rbt.Current_Directory>
/home/itssahil/PROJECTS/Mol_Feturizer/New_Systems/rnas/1akx

>  <Rbt.Executable>
rbdock ($Id: //depot/dev/client3/rdock/2013.1/src/exe/rbdock.cxx#4 $)

>  <Rbt.Library>
libRbt.so (2013.1, Build901 2013/11/27)

>  <Rbt.Parameter_File>
/export/apps/rDock/src/rDock_2013.1_src/data/scripts/dock_solv.prm

>  <Rbt.Receptor>
prm/pocket_docking_7.prm

>  <SCORE>
-27.4866

>  <SCORE.INTER>
-23.4963

>  <SCORE.INTER.CONST>
1

>  <SCORE.INTER.POLAR>
-2.93379

>  <SCORE.INTER.ROT>
8

>  <SCORE.INTER.SOLV>
7.15533

>  <SCORE.INTER.VDW>
-17.2033

>  <SCORE.INTER.norm>
-2.13602

>  <SCORE.INTRA>
-3.99031

>  <SCORE.INTRA.DIHEDRAL>
-10.8191

>  <SCORE.INTRA.DIHEDRAL.0>
21.6454

>  <SCORE.INTRA.POLAR>
0

>  <SCORE.INTRA.POLAR.0>
0

>  <SCORE.INTRA.REPUL>
0

>  <SCORE.INTRA.REPUL.0>
0

>  <SCORE.INTRA.SOLV>
1.24081

>  <SCORE.INTRA.SOLV.lig_0>
-16.5947

>  <SCORE.INTRA.VDW>
0.79885

>  <SCORE.INTRA.VDW.0>
-0.691398

>  <SCORE.INTRA.norm>
-0.362756

>  <SCORE.RESTR>
0

>  <SCORE.RESTR.CAVITY>
0

>  <SCORE.RESTR.norm>
0

>  <SCORE.SYSTEM>
0

>  <SCORE.SYSTEM.CONST>
0

>  <SCORE.SYSTEM.DIHEDRAL>
0

>  <SCORE.SYSTEM.SOLV>
0

>  <SCORE.SYSTEM.norm>
0

>  <SCORE.heavy>
11

>  <SCORE.norm>
-2.49878

>  <RMSD>
4.550

$$$$
1akx_lig
 OpenBabel11021811383D
libRbt.so/2013.1/901 2013/11/27
 11 10  0  0  0  0  0  0  0  0999 V2000
   -7.4468   -3.7116    0.0788 N   0  0  0  0  0  0  0  0  0  0  0  0
   -6.5403   -4.7982    0.5541 C   0  0  2  0  0  0  0  0  0  0  0  0
   -6.5142   -4.8088    2.0877 C   0  0  0  0  0  0  0  0  0  0  0  0
   -7.5360   -4.9859    2.7207 O   0  0  0  0  0  0  0  0  0  0  0  0
   -5.1235   -4.5599    0.0145 C   0  0  0  0  0  0  0  0  0  0  0  0
   -5.0581   -4.9628   -1.4622 C   0  0  0  0  0  0  0  0  0  0  0  0
   -5.4922   -3.7838   -2.3331 C   0  0  0  0  0  0  0  0  0  0  0  0
   -4.4756   -2.6976   -2.2380 N   0  0  0  0  0  0  0  0  0  0  0  0
   -3.6371   -2.4912   -3.2212 C   0  0  0  0  0  0  0  0  0  0  0  0
   -4.0822   -2.2327   -4.4238 N   0  0  0  0  0  0  0  0  0  0  0  0
   -2.3508   -2.5375   -2.9988 N   0  0  0  0  0  0  0  0  0  0  0  0
  2  1  1  1  0  0  0
  2  3  1  0  0  0  0
  2  5  1  0  0  0  0
  3  4  1  0  0  0  0
  5  6  1  0  0  0  0
  6  7  1  0  0  0  0
  7  8  1  0  0  0  0
  8  9  1  0  0  0  0
  9 10  1  0  0  0  0
  9 11  1  0  0  0  0
M  END
>  <CHROM.1>
63.19270976,59.83198888,-76.78031878,86.45587812,67.86582110,104.23805172
57.52845315,141.54278527,37.45087134,-5.30921483,-3.74409929,-1.02579524
2.12483226,-0.04177652,2.00236926

>  <Name>
1akx_lig

>  <RI>
0

>  <Rbt.Current_Directory>
/home/itssahil/PROJECTS/Mol_Feturizer/New_Systems/rnas/1akx

>  <Rbt.Executable>
rbdock ($Id: //depot/dev/client3/rdock/2013.1/src/exe/rbdock.cxx#4 $)

>  <Rbt.Library>
libRbt.so (2013.1, Build901 2013/11/27)

>  <Rbt.Parameter_File>
/export/apps/rDock/src/rDock_2013.1_src/data/scripts/dock_solv.prm

>  <Rbt.Receptor>
prm/pocket_docking_8.prm

>  <SCORE>
-37.0308

>  <SCORE.INTER>
-31.1493

>  <SCORE.INTER.CONST>
1

>  <SCORE.INTER.POLAR>
-4.63244

>  <SCORE.INTER.ROT>
8

>  <SCORE.INTER.SOLV>
7.53627

>  <SCORE.INTER.VDW>
-16.7702

>  <SCORE.INTER.norm>
-2.83176

>  <SCORE.INTRA>
-5.88147

>  <SCORE.INTRA.DIHEDRAL>
-13.0239

>  <SCORE.INTRA.DIHEDRAL.0>
21.6454

>  <SCORE.INTRA.POLAR>
0

>  <SCORE.INTRA.POLAR.0>
0

>  <SCORE.INTRA.REPUL>
0

>  <SCORE.INTRA.REPUL.0>
0

>  <SCORE.INTRA.SOLV>
0.872504

>  <SCORE.INTRA.SOLV.lig_0>
-16.5947

>  <SCORE.INTRA.VDW>
0.194242

>  <SCORE.INTRA.VDW.0>
-0.691398

>  <SCORE.INTRA.norm>
-0.53468

>  <SCORE.RESTR>
0

>  <SCORE.RESTR.CAVITY>
0

>  <SCORE.RESTR.norm>
0

>  <SCORE.SYSTEM>
0

>  <SCORE.SYSTEM.CONST>
0

>  <SCORE.SYSTEM.DIHEDRAL>
0

>  <SCORE.SYSTEM.SOLV>
0

>  <SCORE.SYSTEM.norm>
0

>  <SCORE.heavy>
11

>  <SCORE.norm>
-3.36644

>  <RMSD>
4.552

$$$$
1akx_lig
 OpenBabel11021811383D
libRbt.so/2013.1/901 2013/11/27
 11 10  0  0  0  0  0  0  0  0999 V2000
   -6.3398   -7.9105   -2.2563 N   0  0  0  0  0  0  0  0  0  0  0  0
   -5.4753   -6.6975   -2.3538 C   0  0  2  0  0  0  0  0  0  0  0  0
   -4.2509   -6.8672   -1.4456 C   0  0  0  0  0  0  0  0  0  0  0  0
   -3.4373   -7.7426   -1.6645 O   0  0  0  0  0  0  0  0  0  0  0  0
   -6.2730   -5.4602   -1.9202 C   0  0  0  0  0  0  0  0  0  0  0  0
   -5.7602   -4.2259   -2.6691 C   0  0  0  0  0  0  0  0  0  0  0  0
   -4.4481   -3.7559   -2.0410 C   0  0  0  0  0  0  0  0  0  0  0  0
   -3.9391   -2.5700   -2.7872 N   0  0  0  0  0  0  0  0  0  0  0  0
   -2.6879   -2.5169   -3.1669 C   0  0  0  0  0  0  0  0  0  0  0  0
   -2.3404   -2.9452   -4.3531 N   0  0  0  0  0  0  0  0  0  0  0  0
   -1.7841   -2.0286   -2.3602 N   0  0  0  0  0  0  0  0  0  0  0  0
  2  1  1  1  0  0  0
  2  3  1  0  0  0  0
  2  5  1  0  0  0  0
  3  4  1  0  0  0  0
  5  6  1  0  0  0  0
  6  7  1  0  0  0  0
  7  8  1  0  0  0  0
  8  9  1  0  0  0  0
  9 10  1  0  0  0  0
  9 11  1  0  0  0  0
M  END
>  <CHROM.1>
-55.40126887,64.06512884,-149.90063080,-77.30682504,178.98683941,-132.13662066
92.32586193,68.90964270,26.05625316,-4.22552968,-4.81878899,-2.46589300,2.08443421
-0.01590484,2.91734952

>  <Name>
1akx_lig

>  <RI>
0

>  <Rbt.Current_Directory>
/home/itssahil/PROJECTS/Mol_Feturizer/New_Systems/rnas/1akx

>  <Rbt.Executable>
rbdock ($Id: //depot/dev/client3/rdock/2013.1/src/exe/rbdock.cxx#4 $)

>  <Rbt.Library>
libRbt.so (2013.1, Build901 2013/11/27)

>  <Rbt.Parameter_File>
/export/apps/rDock/src/rDock_2013.1_src/data/scripts/dock_solv.prm

>  <Rbt.Receptor>
prm/pocket_docking_8.prm

>  <SCORE>
-22.781

>  <SCORE.INTER>
-16.7277

>  <SCORE.INTER.CONST>
1

>  <SCORE.INTER.POLAR>
-2.19294

>  <SCORE.INTER.ROT>
8

>  <SCORE.INTER.SOLV>
7.89957

>  <SCORE.INTER.VDW>
-15.4085

>  <SCORE.INTER.norm>
-1.5207

>  <SCORE.INTRA>
-6.05332

>  <SCORE.INTRA.DIHEDRAL>
-12.6017

>  <SCORE.INTRA.DIHEDRAL.0>
21.6454

>  <SCORE.INTRA.POLAR>
0

>  <SCORE.INTRA.POLAR.0>
0

>  <SCORE.INTRA.REPUL>
0

>  <SCORE.INTRA.REPUL.0>
0

>  <SCORE.INTRA.SOLV>
0.272664

>  <SCORE.INTRA.SOLV.lig_0>
-16.5947

>  <SCORE.INTRA.VDW>
0.111197

>  <SCORE.INTRA.VDW.0>
-0.691398

>  <SCORE.INTRA.norm>
-0.550302

>  <SCORE.RESTR>
0

>  <SCORE.RESTR.CAVITY>
0

>  <SCORE.RESTR.norm>
0

>  <SCORE.SYSTEM>
0

>  <SCORE.SYSTEM.CONST>
0

>  <SCORE.SYSTEM.DIHEDRAL>
0

>  <SCORE.SYSTEM.SOLV>
0

>  <SCORE.SYSTEM.norm>
0

>  <SCORE.heavy>
11

>  <SCORE.norm>
-2.071

>  <RMSD>
4.556

$$$$
1akx_lig
 OpenBabel11021811383D
libRbt.so/2013.1/901 2013/11/27
 11 10  0  0  0  0  0  0  0  0999 V2000
   -6.9377   -3.4882    2.7731 N   0  0  0  0  0  0  0  0  0  0  0  0
   -6.9712   -3.9260    1.3464 C   0  0  2  0  0  0  0  0  0  0  0  0
   -7.0729   -5.4552    1.2824 C   0  0  0  0  0  0  0  0  0  0  0  0
   -8.0339   -6.0296    1.7542 O   0  0  0  0  0  0  0  0  0  0  0  0
   -5.6925   -3.4627    0.6352 C   0  0  0  0  0  0  0  0  0  0  0  0
   -5.8932   -3.5260   -0.8824 C   0  0  0  0  0  0  0  0  0  0  0  0
   -4.7098   -2.8580   -1.5825 C   0  0  0  0  0  0  0  0  0  0  0  0
   -4.7956   -3.1104   -3.0491 N   0  0  0  0  0  0  0  0  0  0  0  0
   -4.0187   -2.4596   -3.8769 C   0  0  0  0  0  0  0  0  0  0  0  0
   -4.5346   -1.7779   -4.8671 N   0  0  0  0  0  0  0  0  0  0  0  0
   -2.7236   -2.4860   -3.7095 N   0  0  0  0  0  0  0  0  0  0  0  0
  2  1  1  1  0  0  0
  2  3  1  0  0  0  0
  2  5  1  0  0  0  0
  3  4  1  0  0  0  0
  5  6  1  0  0  0  0
  6  7  1  0  0  0  0
  7  8  1  0  0  0  0
  8  9  1  0  0  0  0
  9 10  1  0  0  0  0
  9 11  1  0  0  0  0
M  END
>  <CHROM.1>
-178.39641809,61.77507131,-163.11087086,171.01654122,171.01358494,168.84619086
-124.75073183,119.74857471,173.74126625,-5.58370592,-3.50426252,-0.91534124
-2.37466749,-0.86757722,-1.85433812

>  <Name>
1akx_lig

>  <RI>
0

>  <Rbt.Current_Directory>
/home/afrankz/demos/rdock_decoys_rna/rnas/1akx

>  <Rbt.Executable>
rbdock ($Id: //depot/dev/client3/rdock/2013.1/src/exe/rbdock.cxx#4 $)

>  <Rbt.Library>
libRbt.so (2013.1, Build901 2013/11/27)

>  <Rbt.Parameter_File>
/export/apps/rDock/src/rDock_2013.1_src/data/scripts/dock_solv.prm

>  <Rbt.Receptor>
prm/pocket_docking_8.prm

>  <SCORE>
-31.0711

>  <SCORE.INTER>
-24.0064

>  <SCORE.INTER.CONST>
1

>  <SCORE.INTER.POLAR>
-3.22941

>  <SCORE.INTER.ROT>
8

>  <SCORE.INTER.SOLV>
8.29912

>  <SCORE.INTER.VDW>
-16.9393

>  <SCORE.INTER.norm>
-2.1824

>  <SCORE.INTRA>
-7.0647

>  <SCORE.INTRA.DIHEDRAL>
-15.1193

>  <SCORE.INTRA.DIHEDRAL.0>
21.6454

>  <SCORE.INTRA.POLAR>
0

>  <SCORE.INTRA.POLAR.0>
0

>  <SCORE.INTRA.REPUL>
0

>  <SCORE.INTRA.REPUL.0>
0

>  <SCORE.INTRA.SOLV>
0.0837062

>  <SCORE.INTRA.SOLV.lig_0>
-16.5947

>  <SCORE.INTRA.VDW>
0.453109

>  <SCORE.INTRA.VDW.0>
-0.691398

>  <SCORE.INTRA.norm>
-0.642245

>  <SCORE.RESTR>
0

>  <SCORE.RESTR.CAVITY>
0

>  <SCORE.RESTR.norm>
0

>  <SCORE.SYSTEM>
0

>  <SCORE.SYSTEM.CONST>
0

>  <SCORE.SYSTEM.DIHEDRAL>
0

>  <SCORE.SYSTEM.SOLV>
0

>  <SCORE.SYSTEM.norm>
0

>  <SCORE.heavy>
11

>  <SCORE.norm>
-2.82464

>  <RMSD>
4.574

>  <RMSD>
4.574

$$$$
1akx_lig
 OpenBabel11021811383D
libRbt.so/2013.1/901 2013/11/27
 11 10  0  0  0  0  0  0  0  0999 V2000
   -6.9377   -3.4882    2.7731 N   0  0  0  0  0  0  0  0  0  0  0  0
   -6.9712   -3.9260    1.3464 C   0  0  2  0  0  0  0  0  0  0  0  0
   -7.0729   -5.4552    1.2824 C   0  0  0  0  0  0  0  0  0  0  0  0
   -8.0339   -6.0296    1.7542 O   0  0  0  0  0  0  0  0  0  0  0  0
   -5.6925   -3.4627    0.6352 C   0  0  0  0  0  0  0  0  0  0  0  0
   -5.8932   -3.5260   -0.8824 C   0  0  0  0  0  0  0  0  0  0  0  0
   -4.7098   -2.8580   -1.5825 C   0  0  0  0  0  0  0  0  0  0  0  0
   -4.7956   -3.1104   -3.0491 N   0  0  0  0  0  0  0  0  0  0  0  0
   -4.0187   -2.4596   -3.8769 C   0  0  0  0  0  0  0  0  0  0  0  0
   -4.5346   -1.7779   -4.8671 N   0  0  0  0  0  0  0  0  0  0  0  0
   -2.7236   -2.4860   -3.7095 N   0  0  0  0  0  0  0  0  0  0  0  0
  2  1  1  1  0  0  0
  2  3  1  0  0  0  0
  2  5  1  0  0  0  0
  3  4  1  0  0  0  0
  5  6  1  0  0  0  0
  6  7  1  0  0  0  0
  7  8  1  0  0  0  0
  8  9  1  0  0  0  0
  9 10  1  0  0  0  0
  9 11  1  0  0  0  0
M  END
>  <CHROM.1>
-178.39641809,61.77507131,-163.11087086,171.01654122,171.01358494,168.84619086
-124.75073183,119.74857471,173.74126625,-5.58370592,-3.50426252,-0.91534124
-2.37466749,-0.86757722,-1.85433812

>  <Name>
1akx_lig

>  <RI>
0

>  <Rbt.Current_Directory>
/home/afrankz/demos/rdock_decoys_rna/rnas/1akx

>  <Rbt.Executable>
rbdock ($Id: //depot/dev/client3/rdock/2013.1/src/exe/rbdock.cxx#4 $)

>  <Rbt.Library>
libRbt.so (2013.1, Build901 2013/11/27)

>  <Rbt.Parameter_File>
/export/apps/rDock/src/rDock_2013.1_src/data/scripts/dock_solv.prm

>  <Rbt.Receptor>
prm/pocket_docking_8.prm

>  <SCORE>
-31.0711

>  <SCORE.INTER>
-24.0064

>  <SCORE.INTER.CONST>
1

>  <SCORE.INTER.POLAR>
-3.22941

>  <SCORE.INTER.ROT>
8

>  <SCORE.INTER.SOLV>
8.29912

>  <SCORE.INTER.VDW>
-16.9393

>  <SCORE.INTER.norm>
-2.1824

>  <SCORE.INTRA>
-7.0647

>  <SCORE.INTRA.DIHEDRAL>
-15.1193

>  <SCORE.INTRA.DIHEDRAL.0>
21.6454

>  <SCORE.INTRA.POLAR>
0

>  <SCORE.INTRA.POLAR.0>
0

>  <SCORE.INTRA.REPUL>
0

>  <SCORE.INTRA.REPUL.0>
0

>  <SCORE.INTRA.SOLV>
0.0837062

>  <SCORE.INTRA.SOLV.lig_0>
-16.5947

>  <SCORE.INTRA.VDW>
0.453109

>  <SCORE.INTRA.VDW.0>
-0.691398

>  <SCORE.INTRA.norm>
-0.642245

>  <SCORE.RESTR>
0

>  <SCORE.RESTR.CAVITY>
0

>  <SCORE.RESTR.norm>
0

>  <SCORE.SYSTEM>
0

>  <SCORE.SYSTEM.CONST>
0

>  <SCORE.SYSTEM.DIHEDRAL>
0

>  <SCORE.SYSTEM.SOLV>
0

>  <SCORE.SYSTEM.norm>
0

>  <SCORE.heavy>
11

>  <SCORE.norm>
-2.82464

>  <RMSD>
4.574

>  <RMSD>
4.574

$$$$
1akx_lig
 OpenBabel11021811383D
libRbt.so/2013.1/901 2013/11/27
 11 10  0  0  0  0  0  0  0  0999 V2000
   -7.4690   -4.3665   -0.0111 N   0  0  0  0  0  0  0  0  0  0  0  0
   -6.0377   -4.2542    0.3976 C   0  0  2  0  0  0  0  0  0  0  0  0
   -5.9130   -4.5186    1.9034 C   0  0  0  0  0  0  0  0  0  0  0  0
   -6.5204   -3.8337    2.7022 O   0  0  0  0  0  0  0  0  0  0  0  0
   -5.5189   -2.8463    0.0753 C   0  0  0  0  0  0  0  0  0  0  0  0
   -5.1554   -2.7568   -1.4104 C   0  0  0  0  0  0  0  0  0  0  0  0
   -3.7893   -3.4026   -1.6419 C   0  0  0  0  0  0  0  0  0  0  0  0
   -2.7212   -2.4989   -1.1274 N   0  0  0  0  0  0  0  0  0  0  0  0
   -1.4664   -2.7277   -1.4199 C   0  0  0  0  0  0  0  0  0  0  0  0
   -0.5398   -2.5813   -0.5081 N   0  0  0  0  0  0  0  0  0  0  0  0
   -1.1393   -3.1098   -2.6253 N   0  0  0  0  0  0  0  0  0  0  0  0
  2  1  1  1  0  0  0
  2  3  1  0  0  0  0
  2  5  1  0  0  0  0
  3  4  1  0  0  0  0
  5  6  1  0  0  0  0
  6  7  1  0  0  0  0
  7  8  1  0  0  0  0
  8  9  1  0  0  0  0
  9 10  1  0  0  0  0
  9 11  1  0  0  0  0
M  END
>  <CHROM.1>
61.31163018,-58.33719755,-80.46446761,-79.19129476,-74.32317027,-168.12874945
-138.87101391,-35.64626763,104.74348936,-4.21041443,-3.35623130,-0.32302743
2.64701220,0.19596021,1.66211340

>  <Name>
1akx_lig

>  <RI>
0

>  <Rbt.Current_Directory>
/home/itssahil/PROJECTS/Mol_Feturizer/New_Systems/rnas/1akx

>  <Rbt.Executable>
rbdock ($Id: //depot/dev/client3/rdock/2013.1/src/exe/rbdock.cxx#4 $)

>  <Rbt.Library>
libRbt.so (2013.1, Build901 2013/11/27)

>  <Rbt.Parameter_File>
/export/apps/rDock/src/rDock_2013.1_src/data/scripts/dock_solv.prm

>  <Rbt.Receptor>
prm/pocket_docking_5.prm

>  <SCORE>
-26.4461

>  <SCORE.INTER>
-20.4849

>  <SCORE.INTER.CONST>
1

>  <SCORE.INTER.POLAR>
-3.30799

>  <SCORE.INTER.ROT>
8

>  <SCORE.INTER.SOLV>
6.27835

>  <SCORE.INTER.VDW>
-13.6561

>  <SCORE.INTER.norm>
-1.86227

>  <SCORE.INTRA>
-5.96117

>  <SCORE.INTRA.DIHEDRAL>
-13.1405

>  <SCORE.INTRA.DIHEDRAL.0>
21.6454

>  <SCORE.INTRA.POLAR>
0

>  <SCORE.INTRA.POLAR.0>
0

>  <SCORE.INTRA.REPUL>
0

>  <SCORE.INTRA.REPUL.0>
0

>  <SCORE.INTRA.SOLV>
0.521371

>  <SCORE.INTRA.SOLV.lig_0>
-16.5947

>  <SCORE.INTRA.VDW>
0.348415

>  <SCORE.INTRA.VDW.0>
-0.691398

>  <SCORE.INTRA.norm>
-0.541924

>  <SCORE.RESTR>
0

>  <SCORE.RESTR.CAVITY>
0

>  <SCORE.RESTR.norm>
0

>  <SCORE.SYSTEM>
0

>  <SCORE.SYSTEM.CONST>
0

>  <SCORE.SYSTEM.DIHEDRAL>
0

>  <SCORE.SYSTEM.SOLV>
0

>  <SCORE.SYSTEM.norm>
0

>  <SCORE.heavy>
11

>  <SCORE.norm>
-2.40419

>  <RMSD>
4.585

$$$$
1akx_lig
 OpenBabel11021811383D
libRbt.so/2013.1/901 2013/11/27
 11 10  0  0  0  0  0  0  0  0999 V2000
   -6.4058   -3.4553    0.1454 N   0  0  0  0  0  0  0  0  0  0  0  0
   -6.0368   -3.6436   -1.2887 C   0  0  2  0  0  0  0  0  0  0  0  0
   -5.7546   -5.1277   -1.5540 C   0  0  0  0  0  0  0  0  0  0  0  0
   -4.6859   -5.6169   -1.2461 O   0  0  0  0  0  0  0  0  0  0  0  0
   -4.7870   -2.8138   -1.6122 C   0  0  0  0  0  0  0  0  0  0  0  0
   -4.3790   -3.0412   -3.0714 C   0  0  0  0  0  0  0  0  0  0  0  0
   -3.2959   -2.0355   -3.4617 C   0  0  0  0  0  0  0  0  0  0  0  0
   -1.9856   -2.4786   -2.9056 N   0  0  0  0  0  0  0  0  0  0  0  0
   -1.9038   -2.9069   -1.6718 C   0  0  0  0  0  0  0  0  0  0  0  0
   -1.7731   -2.0567   -0.6862 N   0  0  0  0  0  0  0  0  0  0  0  0
   -1.9594   -4.1881   -1.4236 N   0  0  0  0  0  0  0  0  0  0  0  0
  2  1  1  1  0  0  0
  2  3  1  0  0  0  0
  2  5  1  0  0  0  0
  3  4  1  0  0  0  0
  5  6  1  0  0  0  0
  6  7  1  0  0  0  0
  7  8  1  0  0  0  0
  8  9  1  0  0  0  0
  9 10  1  0  0  0  0
  9 11  1  0  0  0  0
M  END
>  <CHROM.1>
176.18921594,-79.74082317,178.14792852,170.01109757,77.78784909,-44.70469003
-83.98392296,76.01870719,-99.46230451,-3.89544480,-3.41510203,-1.65249254
2.65282929,0.06160475,2.40577849

>  <Name>
1akx_lig

>  <RI>
0

>  <Rbt.Current_Directory>
/home/itssahil/PROJECTS/Mol_Feturizer/New_Systems/rnas/1akx

>  <Rbt.Executable>
rbdock ($Id: //depot/dev/client3/rdock/2013.1/src/exe/rbdock.cxx#4 $)

>  <Rbt.Library>
libRbt.so (2013.1, Build901 2013/11/27)

>  <Rbt.Parameter_File>
/export/apps/rDock/src/rDock_2013.1_src/data/scripts/dock_solv.prm

>  <Rbt.Receptor>
prm/pocket_docking_5.prm

>  <SCORE>
-29.3487

>  <SCORE.INTER>
-23.1959

>  <SCORE.INTER.CONST>
1

>  <SCORE.INTER.POLAR>
-2.81915

>  <SCORE.INTER.ROT>
8

>  <SCORE.INTER.SOLV>
6.1701

>  <SCORE.INTER.VDW>
-17.0568

>  <SCORE.INTER.norm>
-2.10872

>  <SCORE.INTRA>
-6.15284

>  <SCORE.INTRA.DIHEDRAL>
-13.9792

>  <SCORE.INTRA.DIHEDRAL.0>
21.6454

>  <SCORE.INTRA.POLAR>
-0.949093

>  <SCORE.INTRA.POLAR.0>
0

>  <SCORE.INTRA.REPUL>
0

>  <SCORE.INTRA.REPUL.0>
0

>  <SCORE.INTRA.SOLV>
1.95252

>  <SCORE.INTRA.SOLV.lig_0>
-16.5947

>  <SCORE.INTRA.VDW>
3.0874

>  <SCORE.INTRA.VDW.0>
-0.691398

>  <SCORE.INTRA.norm>
-0.559349

>  <SCORE.RESTR>
0

>  <SCORE.RESTR.CAVITY>
0

>  <SCORE.RESTR.norm>
0

>  <SCORE.SYSTEM>
0

>  <SCORE.SYSTEM.CONST>
0

>  <SCORE.SYSTEM.DIHEDRAL>
0

>  <SCORE.SYSTEM.SOLV>
0

>  <SCORE.SYSTEM.norm>
0

>  <SCORE.heavy>
11

>  <SCORE.norm>
-2.66807

>  <RMSD>
4.589

$$$$
1akx_lig
 OpenBabel11021811383D
libRbt.so/2013.1/901 2013/11/27
 11 10  0  0  0  0  0  0  0  0999 V2000
   -6.5862   -3.0044   -0.6731 N   0  0  0  0  0  0  0  0  0  0  0  0
   -5.4308   -3.9488   -0.6367 C   0  0  2  0  0  0  0  0  0  0  0  0
   -5.4685   -4.7537    0.6684 C   0  0  0  0  0  0  0  0  0  0  0  0
   -6.3360   -5.5833    0.8565 O   0  0  0  0  0  0  0  0  0  0  0  0
   -4.1173   -3.1593   -0.7194 C   0  0  0  0  0  0  0  0  0  0  0  0
   -3.9030   -2.6610   -2.1523 C   0  0  0  0  0  0  0  0  0  0  0  0
   -2.5881   -3.2196   -2.6961 C   0  0  0  0  0  0  0  0  0  0  0  0
   -1.4489   -2.4391   -2.1345 N   0  0  0  0  0  0  0  0  0  0  0  0
   -1.0869   -2.6048   -0.8880 C   0  0  0  0  0  0  0  0  0  0  0  0
   -1.4302   -1.7280    0.0202 N   0  0  0  0  0  0  0  0  0  0  0  0
   -0.3855   -3.6532   -0.5488 N   0  0  0  0  0  0  0  0  0  0  0  0
  2  1  1  1  0  0  0
  2  3  1  0  0  0  0
  2  5  1  0  0  0  0
  3  4  1  0  0  0  0
  5  6  1  0  0  0  0
  6  7  1  0  0  0  0
  7  8  1  0  0  0  0
  8  9  1  0  0  0  0
  9 10  1  0  0  0  0
  9 11  1  0  0  0  0
M  END
>  <CHROM.1>
-85.96274175,69.36081660,-74.72988502,-120.82221748,-77.91770293,74.19533917
-102.22839397,37.19503423,100.57577837,-3.54301737,-3.33443187,-0.77959181
2.75373430,0.13702935,2.18176563

>  <Name>
1akx_lig

>  <RI>
0

>  <Rbt.Current_Directory>
/home/itssahil/PROJECTS/Mol_Feturizer/New_Systems/rnas/1akx

>  <Rbt.Executable>
rbdock ($Id: //depot/dev/client3/rdock/2013.1/src/exe/rbdock.cxx#4 $)

>  <Rbt.Library>
libRbt.so (2013.1, Build901 2013/11/27)

>  <Rbt.Parameter_File>
/export/apps/rDock/src/rDock_2013.1_src/data/scripts/dock_solv.prm

>  <Rbt.Receptor>
prm/pocket_docking_5.prm

>  <SCORE>
-30.9196

>  <SCORE.INTER>
-28.1488

>  <SCORE.INTER.CONST>
1

>  <SCORE.INTER.POLAR>
-4.52982

>  <SCORE.INTER.ROT>
8

>  <SCORE.INTER.SOLV>
6.76335

>  <SCORE.INTER.VDW>
-14.8542

>  <SCORE.INTER.norm>
-2.55898

>  <SCORE.INTRA>
-2.77083

>  <SCORE.INTRA.DIHEDRAL>
-7.03348

>  <SCORE.INTRA.DIHEDRAL.0>
21.6454

>  <SCORE.INTRA.POLAR>
0

>  <SCORE.INTRA.POLAR.0>
0

>  <SCORE.INTRA.REPUL>
0

>  <SCORE.INTRA.REPUL.0>
0

>  <SCORE.INTRA.SOLV>
0.86561

>  <SCORE.INTRA.SOLV.lig_0>
-16.5947

>  <SCORE.INTRA.VDW>
0.313108

>  <SCORE.INTRA.VDW.0>
-0.691398

>  <SCORE.INTRA.norm>
-0.251893

>  <SCORE.RESTR>
0

>  <SCORE.RESTR.CAVITY>
0

>  <SCORE.RESTR.norm>
0

>  <SCORE.SYSTEM>
0

>  <SCORE.SYSTEM.CONST>
0

>  <SCORE.SYSTEM.DIHEDRAL>
0

>  <SCORE.SYSTEM.SOLV>
0

>  <SCORE.SYSTEM.norm>
0

>  <SCORE.heavy>
11

>  <SCORE.norm>
-2.81087

>  <RMSD>
4.590

$$$$
1akx_lig
 OpenBabel11021811383D
libRbt.so/2013.1/901 2013/11/27
 11 10  0  0  0  0  0  0  0  0999 V2000
   -7.0404   -5.5315   -1.3447 N   0  0  0  0  0  0  0  0  0  0  0  0
   -5.7405   -5.3130   -2.0452 C   0  0  2  0  0  0  0  0  0  0  0  0
   -4.7637   -6.4356   -1.6734 C   0  0  0  0  0  0  0  0  0  0  0  0
   -4.4975   -6.6612   -0.5096 O   0  0  0  0  0  0  0  0  0  0  0  0
   -5.1528   -3.9576   -1.6296 C   0  0  0  0  0  0  0  0  0  0  0  0
   -3.9449   -3.6255   -2.5117 C   0  0  0  0  0  0  0  0  0  0  0  0
   -3.2455   -2.3781   -1.9717 C   0  0  0  0  0  0  0  0  0  0  0  0
   -1.7935   -2.4422   -2.3032 N   0  0  0  0  0  0  0  0  0  0  0  0
   -1.0020   -3.2504   -1.6453 C   0  0  0  0  0  0  0  0  0  0  0  0
   -0.8295   -4.4812   -2.0538 N   0  0  0  0  0  0  0  0  0  0  0  0
   -0.3771   -2.8240   -0.5806 N   0  0  0  0  0  0  0  0  0  0  0  0
  2  1  1  1  0  0  0
  2  3  1  0  0  0  0
  2  5  1  0  0  0  0
  3  4  1  0  0  0  0
  5  6  1  0  0  0  0
  6  7  1  0  0  0  0
  7  8  1  0  0  0  0
  8  9  1  0  0  0  0
  9 10  1  0  0  0  0
  9 11  1  0  0  0  0
M  END
>  <CHROM.1>
-174.59157095,-55.90307663,-170.74481781,-172.09824293,150.74449119,-74.55751287
88.80347844,-8.40655375,39.71171435,-3.48747558,-4.29123705,-1.63236413,2.65177595
0.13491931,2.83117051

>  <Name>
1akx_lig

>  <RI>
0

>  <Rbt.Current_Directory>
/home/afrankz/demos/rdock_decoys_rna/rnas/1akx

>  <Rbt.Executable>
rbdock ($Id: //depot/dev/client3/rdock/2013.1/src/exe/rbdock.cxx#4 $)

>  <Rbt.Library>
libRbt.so (2013.1, Build901 2013/11/27)

>  <Rbt.Parameter_File>
/export/apps/rDock/src/rDock_2013.1_src/data/scripts/dock_solv.prm

>  <Rbt.Receptor>
prm/pocket_docking_5.prm

>  <SCORE>
-24.0193

>  <SCORE.INTER>
-17.7815

>  <SCORE.INTER.CONST>
1

>  <SCORE.INTER.POLAR>
-3.15615

>  <SCORE.INTER.ROT>
8

>  <SCORE.INTER.SOLV>
6.41367

>  <SCORE.INTER.VDW>
-12.4051

>  <SCORE.INTER.norm>
-1.6165

>  <SCORE.INTRA>
-6.23781

>  <SCORE.INTRA.DIHEDRAL>
-13.4629

>  <SCORE.INTRA.DIHEDRAL.0>
21.6454

>  <SCORE.INTRA.POLAR>
0

>  <SCORE.INTRA.POLAR.0>
0

>  <SCORE.INTRA.REPUL>
0

>  <SCORE.INTRA.REPUL.0>
0

>  <SCORE.INTRA.SOLV>
0.611715

>  <SCORE.INTRA.SOLV.lig_0>
-16.5947

>  <SCORE.INTRA.VDW>
0.187805

>  <SCORE.INTRA.VDW.0>
-0.691398

>  <SCORE.INTRA.norm>
-0.567074

>  <SCORE.RESTR>
0

>  <SCORE.RESTR.CAVITY>
0

>  <SCORE.RESTR.norm>
0

>  <SCORE.SYSTEM>
0

>  <SCORE.SYSTEM.CONST>
0

>  <SCORE.SYSTEM.DIHEDRAL>
0

>  <SCORE.SYSTEM.SOLV>
0

>  <SCORE.SYSTEM.norm>
0

>  <SCORE.heavy>
11

>  <SCORE.norm>
-2.18358

>  <RMSD>
4.591

>  <RMSD>
4.591

$$$$
1akx_lig
 OpenBabel11021811383D
libRbt.so/2013.1/901 2013/11/27
 11 10  0  0  0  0  0  0  0  0999 V2000
   -7.0404   -5.5315   -1.3447 N   0  0  0  0  0  0  0  0  0  0  0  0
   -5.7405   -5.3130   -2.0452 C   0  0  2  0  0  0  0  0  0  0  0  0
   -4.7637   -6.4356   -1.6734 C   0  0  0  0  0  0  0  0  0  0  0  0
   -4.4975   -6.6612   -0.5096 O   0  0  0  0  0  0  0  0  0  0  0  0
   -5.1528   -3.9576   -1.6296 C   0  0  0  0  0  0  0  0  0  0  0  0
   -3.9449   -3.6255   -2.5117 C   0  0  0  0  0  0  0  0  0  0  0  0
   -3.2455   -2.3781   -1.9717 C   0  0  0  0  0  0  0  0  0  0  0  0
   -1.7935   -2.4422   -2.3032 N   0  0  0  0  0  0  0  0  0  0  0  0
   -1.0020   -3.2504   -1.6453 C   0  0  0  0  0  0  0  0  0  0  0  0
   -0.8295   -4.4812   -2.0538 N   0  0  0  0  0  0  0  0  0  0  0  0
   -0.3771   -2.8240   -0.5806 N   0  0  0  0  0  0  0  0  0  0  0  0
  2  1  1  1  0  0  0
  2  3  1  0  0  0  0
  2  5  1  0  0  0  0
  3  4  1  0  0  0  0
  5  6  1  0  0  0  0
  6  7  1  0  0  0  0
  7  8  1  0  0  0  0
  8  9  1  0  0  0  0
  9 10  1  0  0  0  0
  9 11  1  0  0  0  0
M  END
>  <CHROM.1>
-174.59157095,-55.90307663,-170.74481781,-172.09824293,150.74449119,-74.55751287
88.80347844,-8.40655375,39.71171435,-3.48747558,-4.29123705,-1.63236413,2.65177595
0.13491931,2.83117051

>  <Name>
1akx_lig

>  <RI>
0

>  <Rbt.Current_Directory>
/home/afrankz/demos/rdock_decoys_rna/rnas/1akx

>  <Rbt.Executable>
rbdock ($Id: //depot/dev/client3/rdock/2013.1/src/exe/rbdock.cxx#4 $)

>  <Rbt.Library>
libRbt.so (2013.1, Build901 2013/11/27)

>  <Rbt.Parameter_File>
/export/apps/rDock/src/rDock_2013.1_src/data/scripts/dock_solv.prm

>  <Rbt.Receptor>
prm/pocket_docking_5.prm

>  <SCORE>
-24.0193

>  <SCORE.INTER>
-17.7815

>  <SCORE.INTER.CONST>
1

>  <SCORE.INTER.POLAR>
-3.15615

>  <SCORE.INTER.ROT>
8

>  <SCORE.INTER.SOLV>
6.41367

>  <SCORE.INTER.VDW>
-12.4051

>  <SCORE.INTER.norm>
-1.6165

>  <SCORE.INTRA>
-6.23781

>  <SCORE.INTRA.DIHEDRAL>
-13.4629

>  <SCORE.INTRA.DIHEDRAL.0>
21.6454

>  <SCORE.INTRA.POLAR>
0

>  <SCORE.INTRA.POLAR.0>
0

>  <SCORE.INTRA.REPUL>
0

>  <SCORE.INTRA.REPUL.0>
0

>  <SCORE.INTRA.SOLV>
0.611715

>  <SCORE.INTRA.SOLV.lig_0>
-16.5947

>  <SCORE.INTRA.VDW>
0.187805

>  <SCORE.INTRA.VDW.0>
-0.691398

>  <SCORE.INTRA.norm>
-0.567074

>  <SCORE.RESTR>
0

>  <SCORE.RESTR.CAVITY>
0

>  <SCORE.RESTR.norm>
0

>  <SCORE.SYSTEM>
0

>  <SCORE.SYSTEM.CONST>
0

>  <SCORE.SYSTEM.DIHEDRAL>
0

>  <SCORE.SYSTEM.SOLV>
0

>  <SCORE.SYSTEM.norm>
0

>  <SCORE.heavy>
11

>  <SCORE.norm>
-2.18358

>  <RMSD>
4.591

>  <RMSD>
4.591

$$$$
1akx_lig
 OpenBabel11021811383D
libRbt.so/2013.1/901 2013/11/27
 11 10  0  0  0  0  0  0  0  0999 V2000
   -5.8952   -2.4943   -0.4372 N   0  0  0  0  0  0  0  0  0  0  0  0
   -5.7087   -3.8843   -0.9485 C   0  0  2  0  0  0  0  0  0  0  0  0
   -5.9707   -4.8856    0.1835 C   0  0  0  0  0  0  0  0  0  0  0  0
   -5.8535   -6.0794   -0.0097 O   0  0  0  0  0  0  0  0  0  0  0  0
   -4.2743   -4.0542   -1.4673 C   0  0  0  0  0  0  0  0  0  0  0  0
   -3.9580   -2.9517   -2.4830 C   0  0  0  0  0  0  0  0  0  0  0  0
   -2.5764   -3.1970   -3.0895 C   0  0  0  0  0  0  0  0  0  0  0  0
   -1.5436   -2.5113   -2.2616 N   0  0  0  0  0  0  0  0  0  0  0  0
   -1.3517   -2.8688   -1.0175 C   0  0  0  0  0  0  0  0  0  0  0  0
   -1.9215   -2.2043   -0.0453 N   0  0  0  0  0  0  0  0  0  0  0  0
   -0.5932   -3.8971   -0.7464 N   0  0  0  0  0  0  0  0  0  0  0  0
  2  1  1  1  0  0  0
  2  3  1  0  0  0  0
  2  5  1  0  0  0  0
  3  4  1  0  0  0  0
  5  6  1  0  0  0  0
  6  7  1  0  0  0  0
  7  8  1  0  0  0  0
  8  9  1  0  0  0  0
  9 10  1  0  0  0  0
  9 11  1  0  0  0  0
M  END
>  <CHROM.1>
80.75105948,-178.83291340,-53.26187338,-174.95986696,-89.67167967,63.14131512
-96.98249463,175.46726073,101.04112009,-3.60121257,-3.53406074,-1.07918979
2.72456707,0.06412803,2.39830688

>  <Name>
1akx_lig

>  <RI>
0

>  <Rbt.Current_Directory>
/home/itssahil/PROJECTS/Mol_Feturizer/New_Systems/rnas/1akx

>  <Rbt.Executable>
rbdock ($Id: //depot/dev/client3/rdock/2013.1/src/exe/rbdock.cxx#4 $)

>  <Rbt.Library>
libRbt.so (2013.1, Build901 2013/11/27)

>  <Rbt.Parameter_File>
/export/apps/rDock/src/rDock_2013.1_src/data/scripts/dock_solv.prm

>  <Rbt.Receptor>
prm/pocket_docking_5.prm

>  <SCORE>
-26.1072

>  <SCORE.INTER>
-20.4959

>  <SCORE.INTER.CONST>
1

>  <SCORE.INTER.POLAR>
-2.95281

>  <SCORE.INTER.ROT>
8

>  <SCORE.INTER.SOLV>
5.80309

>  <SCORE.INTER.VDW>
-14.6889

>  <SCORE.INTER.norm>
-1.86327

>  <SCORE.INTRA>
-5.61127

>  <SCORE.INTRA.DIHEDRAL>
-12.8847

>  <SCORE.INTRA.DIHEDRAL.0>
21.6454

>  <SCORE.INTRA.POLAR>
0

>  <SCORE.INTRA.POLAR.0>
0

>  <SCORE.INTRA.REPUL>
0

>  <SCORE.INTRA.REPUL.0>
0

>  <SCORE.INTRA.SOLV>
0.956606

>  <SCORE.INTRA.SOLV.lig_0>
-16.5947

>  <SCORE.INTRA.VDW>
0.352762

>  <SCORE.INTRA.VDW.0>
-0.691398

>  <SCORE.INTRA.norm>
-0.510116

>  <SCORE.RESTR>
0

>  <SCORE.RESTR.CAVITY>
0

>  <SCORE.RESTR.norm>
0

>  <SCORE.SYSTEM>
0

>  <SCORE.SYSTEM.CONST>
0

>  <SCORE.SYSTEM.DIHEDRAL>
0

>  <SCORE.SYSTEM.SOLV>
0

>  <SCORE.SYSTEM.norm>
0

>  <SCORE.heavy>
11

>  <SCORE.norm>
-2.37338

>  <RMSD>
4.591

$$$$
1akx_lig
 OpenBabel11021811383D
libRbt.so/2013.1/901 2013/11/27
 11 10  0  0  0  0  0  0  0  0999 V2000
   -7.5153   -4.0454    1.4331 N   0  0  0  0  0  0  0  0  0  0  0  0
   -6.9663   -4.0170    0.0453 C   0  0  2  0  0  0  0  0  0  0  0  0
   -6.6278   -5.4450   -0.4006 C   0  0  0  0  0  0  0  0  0  0  0  0
   -6.2092   -5.6583   -1.5211 O   0  0  0  0  0  0  0  0  0  0  0  0
   -5.7000   -3.1505    0.0099 C   0  0  0  0  0  0  0  0  0  0  0  0
   -5.3008   -2.8777   -1.4439 C   0  0  0  0  0  0  0  0  0  0  0  0
   -3.9158   -3.4664   -1.7125 C   0  0  0  0  0  0  0  0  0  0  0  0
   -3.2786   -2.7358   -2.8449 N   0  0  0  0  0  0  0  0  0  0  0  0
   -2.1602   -3.1725   -3.3653 C   0  0  0  0  0  0  0  0  0  0  0  0
   -1.2329   -3.6862   -2.5988 N   0  0  0  0  0  0  0  0  0  0  0  0
   -1.9722   -3.1006   -4.6559 N   0  0  0  0  0  0  0  0  0  0  0  0
  2  1  1  1  0  0  0
  2  3  1  0  0  0  0
  2  5  1  0  0  0  0
  3  4  1  0  0  0  0
  5  6  1  0  0  0  0
  6  7  1  0  0  0  0
  7  8  1  0  0  0  0
  8  9  1  0  0  0  0
  9 10  1  0  0  0  0
  9 11  1  0  0  0  0
M  END
>  <CHROM.1>
41.62317284,177.40138394,-168.25005461,-118.35407954,-155.42733927,-171.31350909
-37.93372281,88.69766040,24.72285772,-4.61600854,-3.77192040,-1.55114398
-2.97036770,-0.66480987,-2.56846944

>  <Name>
1akx_lig

>  <RI>
0

>  <Rbt.Current_Directory>
/home/itssahil/PROJECTS/Mol_Feturizer/New_Systems/rnas/1akx

>  <Rbt.Executable>
rbdock ($Id: //depot/dev/client3/rdock/2013.1/src/exe/rbdock.cxx#4 $)

>  <Rbt.Library>
libRbt.so (2013.1, Build901 2013/11/27)

>  <Rbt.Parameter_File>
/export/apps/rDock/src/rDock_2013.1_src/data/scripts/dock_solv.prm

>  <Rbt.Receptor>
prm/pocket_docking_7.prm

>  <SCORE>
-26.6399

>  <SCORE.INTER>
-24.3492

>  <SCORE.INTER.CONST>
1

>  <SCORE.INTER.POLAR>
-3.17081

>  <SCORE.INTER.ROT>
8

>  <SCORE.INTER.SOLV>
8.04233

>  <SCORE.INTER.VDW>
-17.2775

>  <SCORE.INTER.norm>
-2.21356

>  <SCORE.INTRA>
-2.29073

>  <SCORE.INTRA.DIHEDRAL>
-7.41188

>  <SCORE.INTRA.DIHEDRAL.0>
21.6454

>  <SCORE.INTRA.POLAR>
0

>  <SCORE.INTRA.POLAR.0>
0

>  <SCORE.INTRA.REPUL>
0

>  <SCORE.INTRA.REPUL.0>
0

>  <SCORE.INTRA.SOLV>
0.264355

>  <SCORE.INTRA.SOLV.lig_0>
-16.5947

>  <SCORE.INTRA.VDW>
1.28303

>  <SCORE.INTRA.VDW.0>
-0.691398

>  <SCORE.INTRA.norm>
-0.208249

>  <SCORE.RESTR>
0

>  <SCORE.RESTR.CAVITY>
0

>  <SCORE.RESTR.norm>
0

>  <SCORE.SYSTEM>
0

>  <SCORE.SYSTEM.CONST>
0

>  <SCORE.SYSTEM.DIHEDRAL>
0

>  <SCORE.SYSTEM.SOLV>
0

>  <SCORE.SYSTEM.norm>
0

>  <SCORE.heavy>
11

>  <SCORE.norm>
-2.42181

>  <RMSD>
4.604

$$$$
1akx_lig
 OpenBabel11021811383D
libRbt.so/2013.1/901 2013/11/27
 11 10  0  0  0  0  0  0  0  0999 V2000
   -6.5710   -4.1189   -1.0490 N   0  0  0  0  0  0  0  0  0  0  0  0
   -5.2864   -4.1122   -1.8093 C   0  0  2  0  0  0  0  0  0  0  0  0
   -4.2982   -5.0847   -1.1534 C   0  0  0  0  0  0  0  0  0  0  0  0
   -4.5111   -6.2808   -1.1641 O   0  0  0  0  0  0  0  0  0  0  0  0
   -4.6952   -2.6959   -1.8092 C   0  0  0  0  0  0  0  0  0  0  0  0
   -3.7587   -2.5266   -3.0099 C   0  0  0  0  0  0  0  0  0  0  0  0
   -2.4930   -3.3555   -2.7915 C   0  0  0  0  0  0  0  0  0  0  0  0
   -1.4453   -2.5025   -2.1616 N   0  0  0  0  0  0  0  0  0  0  0  0
   -1.1296   -2.6676   -0.9024 C   0  0  0  0  0  0  0  0  0  0  0  0
   -0.3503   -3.6547   -0.5422 N   0  0  0  0  0  0  0  0  0  0  0  0
   -1.5895   -1.8395   -0.0031 N   0  0  0  0  0  0  0  0  0  0  0  0
  2  1  1  1  0  0  0
  2  3  1  0  0  0  0
  2  5  1  0  0  0  0
  3  4  1  0  0  0  0
  5  6  1  0  0  0  0
  6  7  1  0  0  0  0
  7  8  1  0  0  0  0
  8  9  1  0  0  0  0
  9 10  1  0  0  0  0
  9 11  1  0  0  0  0
M  END
>  <CHROM.1>
78.72478054,66.78630919,-156.37352674,-70.63760147,-93.27236766,107.00836922
78.34697915,94.97953766,-146.62914028,-3.29419981,-3.54782604,-1.44818763
2.80461827,0.25464220,2.70871358

>  <Name>
1akx_lig

>  <RI>
0

>  <Rbt.Current_Directory>
/home/itssahil/PROJECTS/Mol_Feturizer/New_Systems/rnas/1akx

>  <Rbt.Executable>
rbdock ($Id: //depot/dev/client3/rdock/2013.1/src/exe/rbdock.cxx#4 $)

>  <Rbt.Library>
libRbt.so (2013.1, Build901 2013/11/27)

>  <Rbt.Parameter_File>
/export/apps/rDock/src/rDock_2013.1_src/data/scripts/dock_solv.prm

>  <Rbt.Receptor>
prm/pocket_docking_4.prm

>  <SCORE>
-30.3019

>  <SCORE.INTER>
-26.2547

>  <SCORE.INTER.CONST>
1

>  <SCORE.INTER.POLAR>
-3.80358

>  <SCORE.INTER.ROT>
8

>  <SCORE.INTER.SOLV>
6.15398

>  <SCORE.INTER.VDW>
-15.8092

>  <SCORE.INTER.norm>
-2.38679

>  <SCORE.INTRA>
-4.05063

>  <SCORE.INTRA.DIHEDRAL>
-10.2218

>  <SCORE.INTRA.DIHEDRAL.0>
21.6454

>  <SCORE.INTRA.POLAR>
0

>  <SCORE.INTRA.POLAR.0>
0

>  <SCORE.INTRA.REPUL>
0

>  <SCORE.INTRA.REPUL.0>
0

>  <SCORE.INTRA.SOLV>
0.919471

>  <SCORE.INTRA.SOLV.lig_0>
-16.5947

>  <SCORE.INTRA.VDW>
0.600548

>  <SCORE.INTRA.VDW.0>
-0.691398

>  <SCORE.INTRA.norm>
-0.368239

>  <SCORE.RESTR>
0.00335079

>  <SCORE.RESTR.CAVITY>
0.00335079

>  <SCORE.RESTR.norm>
0.000304617

>  <SCORE.SYSTEM>
0

>  <SCORE.SYSTEM.CONST>
0

>  <SCORE.SYSTEM.DIHEDRAL>
0

>  <SCORE.SYSTEM.SOLV>
0

>  <SCORE.SYSTEM.norm>
0

>  <SCORE.heavy>
11

>  <SCORE.norm>
-2.75472

>  <RMSD>
4.609

$$$$
1akx_lig
 OpenBabel11021811383D
libRbt.so/2013.1/901 2013/11/27
 11 10  0  0  0  0  0  0  0  0999 V2000
   -6.9285   -3.9728    1.8185 N   0  0  0  0  0  0  0  0  0  0  0  0
   -7.0937   -4.6184    0.4828 C   0  0  2  0  0  0  0  0  0  0  0  0
   -7.3699   -6.1157    0.6687 C   0  0  0  0  0  0  0  0  0  0  0  0
   -8.2152   -6.4939    1.4553 O   0  0  0  0  0  0  0  0  0  0  0  0
   -5.8145   -4.4274   -0.3434 C   0  0  0  0  0  0  0  0  0  0  0  0
   -5.5736   -2.9338   -0.5853 C   0  0  0  0  0  0  0  0  0  0  0  0
   -4.1422   -2.7204   -1.0776 C   0  0  0  0  0  0  0  0  0  0  0  0
   -3.9914   -3.3178   -2.4350 N   0  0  0  0  0  0  0  0  0  0  0  0
   -3.2827   -2.7065   -3.3496 C   0  0  0  0  0  0  0  0  0  0  0  0
   -3.7160   -2.6370   -4.5820 N   0  0  0  0  0  0  0  0  0  0  0  0
   -2.1414   -2.1583   -3.0286 N   0  0  0  0  0  0  0  0  0  0  0  0
  2  1  1  1  0  0  0
  2  3  1  0  0  0  0
  2  5  1  0  0  0  0
  3  4  1  0  0  0  0
  5  6  1  0  0  0  0
  6  7  1  0  0  0  0
  7  8  1  0  0  0  0
  8  9  1  0  0  0  0
  9 10  1  0  0  0  0
  9 11  1  0  0  0  0
M  END
>  <CHROM.1>
63.68252905,48.60201073,-62.38617258,165.36212732,67.37968275,140.66007614
-137.39614387,9.56028967,-26.92735762,-5.29661495,-3.82588016,-0.98809142
-2.72138239,-0.81849558,-2.02994593

>  <Name>
1akx_lig

>  <RI>
0

>  <Rbt.Current_Directory>
/home/itssahil/PROJECTS/Mol_Feturizer/New_Systems/rnas/1akx

>  <Rbt.Executable>
rbdock ($Id: //depot/dev/client3/rdock/2013.1/src/exe/rbdock.cxx#4 $)

>  <Rbt.Library>
libRbt.so (2013.1, Build901 2013/11/27)

>  <Rbt.Parameter_File>
/export/apps/rDock/src/rDock_2013.1_src/data/scripts/dock_solv.prm

>  <Rbt.Receptor>
prm/pocket_docking_6.prm

>  <SCORE>
-32.1884

>  <SCORE.INTER>
-25.5886

>  <SCORE.INTER.CONST>
1

>  <SCORE.INTER.POLAR>
-4.07649

>  <SCORE.INTER.ROT>
8

>  <SCORE.INTER.SOLV>
6.55203

>  <SCORE.INTER.VDW>
-14.5881

>  <SCORE.INTER.norm>
-2.32624

>  <SCORE.INTRA>
-6.71492

>  <SCORE.INTRA.DIHEDRAL>
-15.2754

>  <SCORE.INTRA.DIHEDRAL.0>
21.6454

>  <SCORE.INTRA.POLAR>
0

>  <SCORE.INTRA.POLAR.0>
0

>  <SCORE.INTRA.REPUL>
0

>  <SCORE.INTRA.REPUL.0>
0

>  <SCORE.INTRA.SOLV>
0.431409

>  <SCORE.INTRA.SOLV.lig_0>
-16.5947

>  <SCORE.INTRA.VDW>
0.707082

>  <SCORE.INTRA.VDW.0>
-0.691398

>  <SCORE.INTRA.norm>
-0.610447

>  <SCORE.RESTR>
0.115168

>  <SCORE.RESTR.CAVITY>
0.115168

>  <SCORE.RESTR.norm>
0.0104698

>  <SCORE.SYSTEM>
0

>  <SCORE.SYSTEM.CONST>
0

>  <SCORE.SYSTEM.DIHEDRAL>
0

>  <SCORE.SYSTEM.SOLV>
0

>  <SCORE.SYSTEM.norm>
0

>  <SCORE.heavy>
11

>  <SCORE.norm>
-2.92621

>  <RMSD>
4.609

$$$$
1akx_lig
 OpenBabel11021811383D
libRbt.so/2013.1/901 2013/11/27
 11 10  0  0  0  0  0  0  0  0999 V2000
   -7.0928   -3.7906    0.5591 N   0  0  0  0  0  0  0  0  0  0  0  0
   -6.2721   -4.2655   -0.5938 C   0  0  2  0  0  0  0  0  0  0  0  0
   -6.4762   -5.7742   -0.7803 C   0  0  0  0  0  0  0  0  0  0  0  0
   -7.5772   -6.2210   -1.0337 O   0  0  0  0  0  0  0  0  0  0  0  0
   -4.7895   -3.9736   -0.3256 C   0  0  0  0  0  0  0  0  0  0  0  0
   -3.9773   -4.2068   -1.6037 C   0  0  0  0  0  0  0  0  0  0  0  0
   -2.5012   -4.3804   -1.2463 C   0  0  0  0  0  0  0  0  0  0  0  0
   -1.6796   -4.3081   -2.4881 N   0  0  0  0  0  0  0  0  0  0  0  0
   -1.6562   -3.2106   -3.2005 C   0  0  0  0  0  0  0  0  0  0  0  0
   -1.7385   -3.2695   -4.5047 N   0  0  0  0  0  0  0  0  0  0  0  0
   -1.5567   -2.0519   -2.6059 N   0  0  0  0  0  0  0  0  0  0  0  0
  2  1  1  1  0  0  0
  2  3  1  0  0  0  0
  2  5  1  0  0  0  0
  3  4  1  0  0  0  0
  5  6  1  0  0  0  0
  6  7  1  0  0  0  0
  7  8  1  0  0  0  0
  8  9  1  0  0  0  0
  9 10  1  0  0  0  0
  9 11  1  0  0  0  0
M  END
>  <CHROM.1>
175.42444815,61.34265535,-169.14468817,-161.09629004,-167.71421507,62.79537762
-136.33997397,-52.45405426,146.43085497,-4.14335196,-4.11840692,-1.62242433
-3.04833497,-0.56143037,-2.40045904

>  <Name>
1akx_lig

>  <RI>
0

>  <Rbt.Current_Directory>
/home/itssahil/PROJECTS/Mol_Feturizer/New_Systems/rnas/1akx

>  <Rbt.Executable>
rbdock ($Id: //depot/dev/client3/rdock/2013.1/src/exe/rbdock.cxx#4 $)

>  <Rbt.Library>
libRbt.so (2013.1, Build901 2013/11/27)

>  <Rbt.Parameter_File>
/export/apps/rDock/src/rDock_2013.1_src/data/scripts/dock_solv.prm

>  <Rbt.Receptor>
prm/pocket_docking_5.prm

>  <SCORE>
-26.579

>  <SCORE.INTER>
-20.7741

>  <SCORE.INTER.CONST>
1

>  <SCORE.INTER.POLAR>
-3.70204

>  <SCORE.INTER.ROT>
8

>  <SCORE.INTER.SOLV>
8.37744

>  <SCORE.INTER.VDW>
-13.2351

>  <SCORE.INTER.norm>
-1.88856

>  <SCORE.INTRA>
-5.80484

>  <SCORE.INTRA.DIHEDRAL>
-14.3899

>  <SCORE.INTRA.DIHEDRAL.0>
21.6454

>  <SCORE.INTRA.POLAR>
0

>  <SCORE.INTRA.POLAR.0>
0

>  <SCORE.INTRA.REPUL>
0

>  <SCORE.INTRA.REPUL.0>
0

>  <SCORE.INTRA.SOLV>
0.427043

>  <SCORE.INTRA.SOLV.lig_0>
-16.5947

>  <SCORE.INTRA.VDW>
1.17661

>  <SCORE.INTRA.VDW.0>
-0.691398

>  <SCORE.INTRA.norm>
-0.527713

>  <SCORE.RESTR>
0

>  <SCORE.RESTR.CAVITY>
0

>  <SCORE.RESTR.norm>
0

>  <SCORE.SYSTEM>
0

>  <SCORE.SYSTEM.CONST>
0

>  <SCORE.SYSTEM.DIHEDRAL>
0

>  <SCORE.SYSTEM.SOLV>
0

>  <SCORE.SYSTEM.norm>
0

>  <SCORE.heavy>
11

>  <SCORE.norm>
-2.41627

>  <RMSD>
4.615

$$$$
1akx_lig
 OpenBabel11021811383D
libRbt.so/2013.1/901 2013/11/27
 11 10  0  0  0  0  0  0  0  0999 V2000
   -7.1075   -3.7148   -0.1080 N   0  0  0  0  0  0  0  0  0  0  0  0
   -5.8830   -3.3504   -0.8799 C   0  0  2  0  0  0  0  0  0  0  0  0
   -5.5080   -4.5034   -1.8194 C   0  0  0  0  0  0  0  0  0  0  0  0
   -5.2982   -5.6156   -1.3775 O   0  0  0  0  0  0  0  0  0  0  0  0
   -4.7254   -3.0762    0.0897 C   0  0  0  0  0  0  0  0  0  0  0  0
   -3.4623   -2.7196   -0.7008 C   0  0  0  0  0  0  0  0  0  0  0  0
   -2.3127   -2.4467    0.2691 C   0  0  0  0  0  0  0  0  0  0  0  0
   -1.0204   -2.4794   -0.4735 N   0  0  0  0  0  0  0  0  0  0  0  0
   -0.7305   -3.4932   -1.2484 C   0  0  0  0  0  0  0  0  0  0  0  0
   -0.1123   -4.5387   -0.7623 N   0  0  0  0  0  0  0  0  0  0  0  0
   -1.0656   -3.4633   -2.5104 N   0  0  0  0  0  0  0  0  0  0  0  0
  2  1  1  1  0  0  0
  2  3  1  0  0  0  0
  2  5  1  0  0  0  0
  3  4  1  0  0  0  0
  5  6  1  0  0  0  0
  6  7  1  0  0  0  0
  7  8  1  0  0  0  0
  8  9  1  0  0  0  0
  9 10  1  0  0  0  0
  9 11  1  0  0  0  0
M  END
>  <CHROM.1>
58.33638129,-57.25184593,179.26854913,179.96699445,164.22661063,-50.82270628
-89.08906170,106.95317014,45.66585890,-3.39418752,-3.61651322,-0.87168418
3.09025584,-0.12245839,-2.48994052

>  <Name>
1akx_lig

>  <RI>
0

>  <Rbt.Current_Directory>
/home/itssahil/PROJECTS/Mol_Feturizer/New_Systems/rnas/1akx

>  <Rbt.Executable>
rbdock ($Id: //depot/dev/client3/rdock/2013.1/src/exe/rbdock.cxx#4 $)

>  <Rbt.Library>
libRbt.so (2013.1, Build901 2013/11/27)

>  <Rbt.Parameter_File>
/export/apps/rDock/src/rDock_2013.1_src/data/scripts/dock_solv.prm

>  <Rbt.Receptor>
prm/pocket_docking_7.prm

>  <SCORE>
-27.8894

>  <SCORE.INTER>
-21.9936

>  <SCORE.INTER.CONST>
1

>  <SCORE.INTER.POLAR>
-3.47565

>  <SCORE.INTER.ROT>
8

>  <SCORE.INTER.SOLV>
7.04286

>  <SCORE.INTER.VDW>
-14.3579

>  <SCORE.INTER.norm>
-1.99942

>  <SCORE.INTRA>
-5.89578

>  <SCORE.INTRA.DIHEDRAL>
-15.9175

>  <SCORE.INTRA.DIHEDRAL.0>
21.6454

>  <SCORE.INTRA.POLAR>
0

>  <SCORE.INTRA.POLAR.0>
0

>  <SCORE.INTRA.REPUL>
0

>  <SCORE.INTRA.REPUL.0>
0

>  <SCORE.INTRA.SOLV>
0.637144

>  <SCORE.INTRA.SOLV.lig_0>
-16.5947

>  <SCORE.INTRA.VDW>
1.74442

>  <SCORE.INTRA.VDW.0>
-0.691398

>  <SCORE.INTRA.norm>
-0.53598

>  <SCORE.RESTR>
0

>  <SCORE.RESTR.CAVITY>
0

>  <SCORE.RESTR.norm>
0

>  <SCORE.SYSTEM>
0

>  <SCORE.SYSTEM.CONST>
0

>  <SCORE.SYSTEM.DIHEDRAL>
0

>  <SCORE.SYSTEM.SOLV>
0

>  <SCORE.SYSTEM.norm>
0

>  <SCORE.heavy>
11

>  <SCORE.norm>
-2.5354

>  <RMSD>
4.618

$$$$
1akx_lig
 OpenBabel11021811383D
libRbt.so/2013.1/901 2013/11/27
 11 10  0  0  0  0  0  0  0  0999 V2000
   -5.4556   -2.6366    0.8050 N   0  0  0  0  0  0  0  0  0  0  0  0
   -6.2172   -3.7119    0.1036 C   0  0  2  0  0  0  0  0  0  0  0  0
   -7.5493   -3.9500    0.8257 C   0  0  0  0  0  0  0  0  0  0  0  0
   -8.3712   -4.7179    0.3663 O   0  0  0  0  0  0  0  0  0  0  0  0
   -5.3935   -5.0069    0.0982 C   0  0  0  0  0  0  0  0  0  0  0  0
   -4.0805   -4.7811   -0.6585 C   0  0  0  0  0  0  0  0  0  0  0  0
   -4.3795   -4.5282   -2.1362 C   0  0  0  0  0  0  0  0  0  0  0  0
   -4.4810   -3.0605   -2.3765 N   0  0  0  0  0  0  0  0  0  0  0  0
   -3.6626   -2.4706   -3.2100 C   0  0  0  0  0  0  0  0  0  0  0  0
   -2.4576   -2.1369   -2.8254 N   0  0  0  0  0  0  0  0  0  0  0  0
   -4.0489   -2.2200   -4.4323 N   0  0  0  0  0  0  0  0  0  0  0  0
  2  1  1  1  0  0  0
  2  3  1  0  0  0  0
  2  5  1  0  0  0  0
  3  4  1  0  0  0  0
  5  6  1  0  0  0  0
  6  7  1  0  0  0  0
  7  8  1  0  0  0  0
  8  9  1  0  0  0  0
  9 10  1  0  0  0  0
  9 11  1  0  0  0  0
M  END
>  <CHROM.1>
-54.38221489,174.65311112,-61.39602049,-66.49393920,93.57130704,119.45297191
-81.30378462,157.94134124,-17.75305247,-5.09594318,-3.52028912,-1.22514022
-2.27470878,-0.05749545,-1.20736031

>  <Name>
1akx_lig

>  <RI>
0

>  <Rbt.Current_Directory>
/home/itssahil/PROJECTS/Mol_Feturizer/New_Systems/rnas/1akx

>  <Rbt.Executable>
rbdock ($Id: //depot/dev/client3/rdock/2013.1/src/exe/rbdock.cxx#4 $)

>  <Rbt.Library>
libRbt.so (2013.1, Build901 2013/11/27)

>  <Rbt.Parameter_File>
/export/apps/rDock/src/rDock_2013.1_src/data/scripts/dock_solv.prm

>  <Rbt.Receptor>
prm/pocket_docking_7.prm

>  <SCORE>
-33.7794

>  <SCORE.INTER>
-27.578

>  <SCORE.INTER.CONST>
1

>  <SCORE.INTER.POLAR>
-4.30386

>  <SCORE.INTER.ROT>
8

>  <SCORE.INTER.SOLV>
7.51302

>  <SCORE.INTER.VDW>
-15.4768

>  <SCORE.INTER.norm>
-2.50709

>  <SCORE.INTRA>
-6.2014

>  <SCORE.INTRA.DIHEDRAL>
-13.2107

>  <SCORE.INTRA.DIHEDRAL.0>
21.6454

>  <SCORE.INTRA.POLAR>
0

>  <SCORE.INTRA.POLAR.0>
0

>  <SCORE.INTRA.REPUL>
0

>  <SCORE.INTRA.REPUL.0>
0

>  <SCORE.INTRA.SOLV>
1.02687

>  <SCORE.INTRA.SOLV.lig_0>
-16.5947

>  <SCORE.INTRA.VDW>
-0.109503

>  <SCORE.INTRA.VDW.0>
-0.691398

>  <SCORE.INTRA.norm>
-0.563764

>  <SCORE.RESTR>
0

>  <SCORE.RESTR.CAVITY>
0

>  <SCORE.RESTR.norm>
0

>  <SCORE.SYSTEM>
0

>  <SCORE.SYSTEM.CONST>
0

>  <SCORE.SYSTEM.DIHEDRAL>
0

>  <SCORE.SYSTEM.SOLV>
0

>  <SCORE.SYSTEM.norm>
0

>  <SCORE.heavy>
11

>  <SCORE.norm>
-3.07086

>  <RMSD>
4.621

$$$$
1akx_lig
 OpenBabel11021811383D
libRbt.so/2013.1/901 2013/11/27
 11 10  0  0  0  0  0  0  0  0999 V2000
   -6.4170   -4.0332   -1.0715 N   0  0  0  0  0  0  0  0  0  0  0  0
   -5.3123   -4.1091   -2.0725 C   0  0  2  0  0  0  0  0  0  0  0  0
   -4.2578   -5.1157   -1.5957 C   0  0  0  0  0  0  0  0  0  0  0  0
   -3.6584   -4.9343   -0.5545 O   0  0  0  0  0  0  0  0  0  0  0  0
   -4.6693   -2.7252   -2.2360 C   0  0  0  0  0  0  0  0  0  0  0  0
   -3.9693   -2.6379   -3.5960 C   0  0  0  0  0  0  0  0  0  0  0  0
   -2.5266   -2.1721   -3.3990 C   0  0  0  0  0  0  0  0  0  0  0  0
   -1.6646   -3.3484   -3.0901 N   0  0  0  0  0  0  0  0  0  0  0  0
   -1.1066   -3.4659   -1.9123 C   0  0  0  0  0  0  0  0  0  0  0  0
   -0.7656   -2.3998   -1.2352 N   0  0  0  0  0  0  0  0  0  0  0  0
   -0.8954   -4.6524   -1.4086 N   0  0  0  0  0  0  0  0  0  0  0  0
  2  1  1  1  0  0  0
  2  3  1  0  0  0  0
  2  5  1  0  0  0  0
  3  4  1  0  0  0  0
  5  6  1  0  0  0  0
  6  7  1  0  0  0  0
  7  8  1  0  0  0  0
  8  9  1  0  0  0  0
  9 10  1  0  0  0  0
  9 11  1  0  0  0  0
M  END
>  <CHROM.1>
-156.25807472,-61.57897922,-157.17183141,-127.78780005,85.12102233,-113.41075109
-31.08378640,-108.86847508,-90.20756544,-3.20233329,-3.62260376,-1.96438794
-2.93378053,-0.05411702,-0.76775266

>  <Name>
1akx_lig

>  <RI>
0

>  <Rbt.Current_Directory>
/home/itssahil/PROJECTS/Mol_Feturizer/New_Systems/rnas/1akx

>  <Rbt.Executable>
rbdock ($Id: //depot/dev/client3/rdock/2013.1/src/exe/rbdock.cxx#4 $)

>  <Rbt.Library>
libRbt.so (2013.1, Build901 2013/11/27)

>  <Rbt.Parameter_File>
/export/apps/rDock/src/rDock_2013.1_src/data/scripts/dock_solv.prm

>  <Rbt.Receptor>
prm/pocket_docking_7.prm

>  <SCORE>
-17.1691

>  <SCORE.INTER>
-14.1194

>  <SCORE.INTER.CONST>
1

>  <SCORE.INTER.POLAR>
-0.963107

>  <SCORE.INTER.ROT>
8

>  <SCORE.INTER.SOLV>
7.14405

>  <SCORE.INTER.VDW>
-17.5173

>  <SCORE.INTER.norm>
-1.28359

>  <SCORE.INTRA>
-3.04971

>  <SCORE.INTRA.DIHEDRAL>
-5.82221

>  <SCORE.INTRA.DIHEDRAL.0>
21.6454

>  <SCORE.INTRA.POLAR>
-0.247347

>  <SCORE.INTRA.POLAR.0>
0

>  <SCORE.INTRA.REPUL>
0

>  <SCORE.INTRA.REPUL.0>
0

>  <SCORE.INTRA.SOLV>
2.21257

>  <SCORE.INTRA.SOLV.lig_0>
-16.5947

>  <SCORE.INTRA.VDW>
-0.403902

>  <SCORE.INTRA.VDW.0>
-0.691398

>  <SCORE.INTRA.norm>
-0.277246

>  <SCORE.RESTR>
0

>  <SCORE.RESTR.CAVITY>
0

>  <SCORE.RESTR.norm>
0

>  <SCORE.SYSTEM>
0

>  <SCORE.SYSTEM.CONST>
0

>  <SCORE.SYSTEM.DIHEDRAL>
0

>  <SCORE.SYSTEM.SOLV>
0

>  <SCORE.SYSTEM.norm>
0

>  <SCORE.heavy>
11

>  <SCORE.norm>
-1.56083

>  <RMSD>
4.626

$$$$
1akx_lig
 OpenBabel11021811383D
libRbt.so/2013.1/901 2013/11/27
 11 10  0  0  0  0  0  0  0  0999 V2000
   -8.0410   -4.3225   -0.0174 N   0  0  0  0  0  0  0  0  0  0  0  0
   -6.7441   -4.5137   -0.7312 C   0  0  2  0  0  0  0  0  0  0  0  0
   -6.4583   -6.0132   -0.8808 C   0  0  0  0  0  0  0  0  0  0  0  0
   -6.4608   -6.7415    0.0917 O   0  0  0  0  0  0  0  0  0  0  0  0
   -5.6140   -3.8492    0.0668 C   0  0  0  0  0  0  0  0  0  0  0  0
   -4.8434   -2.8810   -0.8366 C   0  0  0  0  0  0  0  0  0  0  0  0
   -4.1869   -3.6591   -1.9769 C   0  0  0  0  0  0  0  0  0  0  0  0
   -3.2919   -2.7486   -2.7464 N   0  0  0  0  0  0  0  0  0  0  0  0
   -2.1866   -3.2048   -3.2781 C   0  0  0  0  0  0  0  0  0  0  0  0
   -1.2798   -3.7743   -2.5266 N   0  0  0  0  0  0  0  0  0  0  0  0
   -1.9915   -3.0963   -4.5650 N   0  0  0  0  0  0  0  0  0  0  0  0
  2  1  1  1  0  0  0
  2  3  1  0  0  0  0
  2  5  1  0  0  0  0
  3  4  1  0  0  0  0
  5  6  1  0  0  0  0
  6  7  1  0  0  0  0
  7  8  1  0  0  0  0
  8  9  1  0  0  0  0
  9 10  1  0  0  0  0
  9 11  1  0  0  0  0
M  END
>  <CHROM.1>
158.39951417,-54.01937388,-126.28668135,-62.85358446,-172.47096774,146.06398435
-57.56746130,-89.17039186,24.52810716,-4.65208304,-4.08454852,-1.58283960
2.74792871,-0.54156813,3.01448887

>  <Name>
1akx_lig

>  <RI>
0

>  <Rbt.Current_Directory>
/home/itssahil/PROJECTS/Mol_Feturizer/New_Systems/rnas/1akx

>  <Rbt.Executable>
rbdock ($Id: //depot/dev/client3/rdock/2013.1/src/exe/rbdock.cxx#4 $)

>  <Rbt.Library>
libRbt.so (2013.1, Build901 2013/11/27)

>  <Rbt.Parameter_File>
/export/apps/rDock/src/rDock_2013.1_src/data/scripts/dock_solv.prm

>  <Rbt.Receptor>
prm/pocket_docking_6.prm

>  <SCORE>
-27.0235

>  <SCORE.INTER>
-23.1205

>  <SCORE.INTER.CONST>
1

>  <SCORE.INTER.POLAR>
-3.22894

>  <SCORE.INTER.ROT>
8

>  <SCORE.INTER.SOLV>
7.49981

>  <SCORE.INTER.VDW>
-16.0838

>  <SCORE.INTER.norm>
-2.10187

>  <SCORE.INTRA>
-3.90296

>  <SCORE.INTRA.DIHEDRAL>
-9.70959

>  <SCORE.INTRA.DIHEDRAL.0>
21.6454

>  <SCORE.INTRA.POLAR>
0

>  <SCORE.INTRA.POLAR.0>
0

>  <SCORE.INTRA.REPUL>
0

>  <SCORE.INTRA.REPUL.0>
0

>  <SCORE.INTRA.SOLV>
0.358573

>  <SCORE.INTRA.SOLV.lig_0>
-16.5947

>  <SCORE.INTRA.VDW>
0.772555

>  <SCORE.INTRA.VDW.0>
-0.691398

>  <SCORE.INTRA.norm>
-0.354814

>  <SCORE.RESTR>
0

>  <SCORE.RESTR.CAVITY>
0

>  <SCORE.RESTR.norm>
0

>  <SCORE.SYSTEM>
0

>  <SCORE.SYSTEM.CONST>
0

>  <SCORE.SYSTEM.DIHEDRAL>
0

>  <SCORE.SYSTEM.SOLV>
0

>  <SCORE.SYSTEM.norm>
0

>  <SCORE.heavy>
11

>  <SCORE.norm>
-2.45668

>  <RMSD>
4.644

$$$$
1akx_lig
 OpenBabel11021811383D
libRbt.so/2013.1/901 2013/11/27
 11 10  0  0  0  0  0  0  0  0999 V2000
   -0.9811   -9.8626   -0.3397 N   0  0  0  0  0  0  0  0  0  0  0  0
   -1.2517   -9.3401   -1.7115 C   0  0  2  0  0  0  0  0  0  0  0  0
   -0.5416  -10.2235   -2.7450 C   0  0  0  0  0  0  0  0  0  0  0  0
   -0.7117  -10.0400   -3.9340 O   0  0  0  0  0  0  0  0  0  0  0  0
   -0.7384   -7.8982   -1.8241 C   0  0  0  0  0  0  0  0  0  0  0  0
   -1.5943   -6.9751   -0.9508 C   0  0  0  0  0  0  0  0  0  0  0  0
   -0.8318   -5.6787   -0.6775 C   0  0  0  0  0  0  0  0  0  0  0  0
   -1.0113   -4.7472   -1.8275 N   0  0  0  0  0  0  0  0  0  0  0  0
   -0.8868   -3.4559   -1.6559 C   0  0  0  0  0  0  0  0  0  0  0  0
   -0.2042   -2.9885   -0.6424 N   0  0  0  0  0  0  0  0  0  0  0  0
   -1.4410   -2.6312   -2.5036 N   0  0  0  0  0  0  0  0  0  0  0  0
  2  1  1  1  0  0  0
  2  3  1  0  0  0  0
  2  5  1  0  0  0  0
  3  4  1  0  0  0  0
  5  6  1  0  0  0  0
  6  7  1  0  0  0  0
  7  8  1  0  0  0  0
  8  9  1  0  0  0  0
  9 10  1  0  0  0  0
  9 11  1  0  0  0  0
M  END
>  <CHROM.1>
168.86300659,174.29178109,-68.50420389,160.77885399,83.08962198,155.34553266
22.14669756,51.63154375,102.92510584,-0.92082311,-6.70582895,-1.70829405
-0.72147652,-1.56219110,0.94880959

>  <Name>
1akx_lig

>  <RI>
0

>  <Rbt.Current_Directory>
/home/itssahil/PROJECTS/Mol_Feturizer/New_Systems/rnas/1akx

>  <Rbt.Executable>
rbdock ($Id: //depot/dev/client3/rdock/2013.1/src/exe/rbdock.cxx#4 $)

>  <Rbt.Library>
libRbt.so (2013.1, Build901 2013/11/27)

>  <Rbt.Parameter_File>
/export/apps/rDock/src/rDock_2013.1_src/data/scripts/dock_solv.prm

>  <Rbt.Receptor>
prm/pocket_docking_7.prm

>  <SCORE>
-23.1502

>  <SCORE.INTER>
-17.5155

>  <SCORE.INTER.CONST>
1

>  <SCORE.INTER.POLAR>
-3.4249

>  <SCORE.INTER.ROT>
8

>  <SCORE.INTER.SOLV>
7.53309

>  <SCORE.INTER.VDW>
-11.705

>  <SCORE.INTER.norm>
-1.59232

>  <SCORE.INTRA>
-5.63467

>  <SCORE.INTRA.DIHEDRAL>
-12.9369

>  <SCORE.INTRA.DIHEDRAL.0>
21.6454

>  <SCORE.INTRA.POLAR>
0

>  <SCORE.INTRA.POLAR.0>
0

>  <SCORE.INTRA.REPUL>
0

>  <SCORE.INTRA.REPUL.0>
0

>  <SCORE.INTRA.SOLV>
0.0880445

>  <SCORE.INTRA.SOLV.lig_0>
-16.5947

>  <SCORE.INTRA.VDW>
0.789737

>  <SCORE.INTRA.VDW.0>
-0.691398

>  <SCORE.INTRA.norm>
-0.512243

>  <SCORE.RESTR>
0

>  <SCORE.RESTR.CAVITY>
0

>  <SCORE.RESTR.norm>
0

>  <SCORE.SYSTEM>
0

>  <SCORE.SYSTEM.CONST>
0

>  <SCORE.SYSTEM.DIHEDRAL>
0

>  <SCORE.SYSTEM.SOLV>
0

>  <SCORE.SYSTEM.norm>
0

>  <SCORE.heavy>
11

>  <SCORE.norm>
-2.10456

>  <RMSD>
4.644

$$$$
1akx_lig
 OpenBabel11021811383D
libRbt.so/2013.1/901 2013/11/27
 11 10  0  0  0  0  0  0  0  0999 V2000
   -7.8195   -4.4524   -0.1210 N   0  0  0  0  0  0  0  0  0  0  0  0
   -6.4603   -3.9262   -0.4436 C   0  0  2  0  0  0  0  0  0  0  0  0
   -5.7639   -4.8756   -1.4267 C   0  0  0  0  0  0  0  0  0  0  0  0
   -6.2251   -5.0625   -2.5351 O   0  0  0  0  0  0  0  0  0  0  0  0
   -5.6317   -3.8160    0.8435 C   0  0  0  0  0  0  0  0  0  0  0  0
   -4.5181   -2.7809    0.6543 C   0  0  0  0  0  0  0  0  0  0  0  0
   -3.4407   -3.3523   -0.2674 C   0  0  0  0  0  0  0  0  0  0  0  0
   -2.5133   -2.2608   -0.6807 N   0  0  0  0  0  0  0  0  0  0  0  0
   -1.6648   -2.4514   -1.6585 C   0  0  0  0  0  0  0  0  0  0  0  0
   -0.4707   -2.9254   -1.4121 N   0  0  0  0  0  0  0  0  0  0  0  0
   -2.0144   -2.1729   -2.8858 N   0  0  0  0  0  0  0  0  0  0  0  0
  2  1  1  1  0  0  0
  2  3  1  0  0  0  0
  2  5  1  0  0  0  0
  3  4  1  0  0  0  0
  5  6  1  0  0  0  0
  6  7  1  0  0  0  0
  7  8  1  0  0  0  0
  8  9  1  0  0  0  0
  9 10  1  0  0  0  0
  9 11  1  0  0  0  0
M  END
>  <CHROM.1>
-64.04647026,62.73860215,-156.52715452,-72.63783913,168.16761504,-167.25211570
-89.73022724,95.08015225,-10.68284170,-4.24024314,-3.47075396,-0.93622422
-3.06769207,-0.38835915,-1.87644408

>  <Name>
1akx_lig

>  <RI>
0

>  <Rbt.Current_Directory>
/home/afrankz/demos/rdock_decoys_rna/rnas/1akx

>  <Rbt.Executable>
rbdock ($Id: //depot/dev/client3/rdock/2013.1/src/exe/rbdock.cxx#4 $)

>  <Rbt.Library>
libRbt.so (2013.1, Build901 2013/11/27)

>  <Rbt.Parameter_File>
/export/apps/rDock/src/rDock_2013.1_src/data/scripts/dock_solv.prm

>  <Rbt.Receptor>
prm/pocket_docking_5.prm

>  <SCORE>
-23.7949

>  <SCORE.INTER>
-18.2175

>  <SCORE.INTER.CONST>
1

>  <SCORE.INTER.POLAR>
-2.53958

>  <SCORE.INTER.ROT>
8

>  <SCORE.INTER.SOLV>
8.16464

>  <SCORE.INTER.VDW>
-15.3346

>  <SCORE.INTER.norm>
-1.65613

>  <SCORE.INTRA>
-5.5778

>  <SCORE.INTRA.DIHEDRAL>
-13.669

>  <SCORE.INTRA.DIHEDRAL.0>
21.6454

>  <SCORE.INTRA.POLAR>
0

>  <SCORE.INTRA.POLAR.0>
0

>  <SCORE.INTRA.REPUL>
0

>  <SCORE.INTRA.REPUL.0>
0

>  <SCORE.INTRA.SOLV>
0.334404

>  <SCORE.INTRA.SOLV.lig_0>
-16.5947

>  <SCORE.INTRA.VDW>
1.08948

>  <SCORE.INTRA.VDW.0>
-0.691398

>  <SCORE.INTRA.norm>
-0.507073

>  <SCORE.RESTR>
0.000407629

>  <SCORE.RESTR.CAVITY>
0.000407629

>  <SCORE.RESTR.norm>
3.70572e-05

>  <SCORE.SYSTEM>
0

>  <SCORE.SYSTEM.CONST>
0

>  <SCORE.SYSTEM.DIHEDRAL>
0

>  <SCORE.SYSTEM.SOLV>
0

>  <SCORE.SYSTEM.norm>
0

>  <SCORE.heavy>
11

>  <SCORE.norm>
-2.16317

>  <RMSD>
4.658

>  <RMSD>
4.658

$$$$
1akx_lig
 OpenBabel11021811383D
libRbt.so/2013.1/901 2013/11/27
 11 10  0  0  0  0  0  0  0  0999 V2000
   -7.8195   -4.4524   -0.1210 N   0  0  0  0  0  0  0  0  0  0  0  0
   -6.4603   -3.9262   -0.4436 C   0  0  2  0  0  0  0  0  0  0  0  0
   -5.7639   -4.8756   -1.4267 C   0  0  0  0  0  0  0  0  0  0  0  0
   -6.2251   -5.0625   -2.5351 O   0  0  0  0  0  0  0  0  0  0  0  0
   -5.6317   -3.8160    0.8435 C   0  0  0  0  0  0  0  0  0  0  0  0
   -4.5181   -2.7809    0.6543 C   0  0  0  0  0  0  0  0  0  0  0  0
   -3.4407   -3.3523   -0.2674 C   0  0  0  0  0  0  0  0  0  0  0  0
   -2.5133   -2.2608   -0.6807 N   0  0  0  0  0  0  0  0  0  0  0  0
   -1.6648   -2.4514   -1.6585 C   0  0  0  0  0  0  0  0  0  0  0  0
   -0.4707   -2.9254   -1.4121 N   0  0  0  0  0  0  0  0  0  0  0  0
   -2.0144   -2.1729   -2.8858 N   0  0  0  0  0  0  0  0  0  0  0  0
  2  1  1  1  0  0  0
  2  3  1  0  0  0  0
  2  5  1  0  0  0  0
  3  4  1  0  0  0  0
  5  6  1  0  0  0  0
  6  7  1  0  0  0  0
  7  8  1  0  0  0  0
  8  9  1  0  0  0  0
  9 10  1  0  0  0  0
  9 11  1  0  0  0  0
M  END
>  <CHROM.1>
-64.04647026,62.73860215,-156.52715452,-72.63783913,168.16761504,-167.25211570
-89.73022724,95.08015225,-10.68284170,-4.24024314,-3.47075396,-0.93622422
-3.06769207,-0.38835915,-1.87644408

>  <Name>
1akx_lig

>  <RI>
0

>  <Rbt.Current_Directory>
/home/afrankz/demos/rdock_decoys_rna/rnas/1akx

>  <Rbt.Executable>
rbdock ($Id: //depot/dev/client3/rdock/2013.1/src/exe/rbdock.cxx#4 $)

>  <Rbt.Library>
libRbt.so (2013.1, Build901 2013/11/27)

>  <Rbt.Parameter_File>
/export/apps/rDock/src/rDock_2013.1_src/data/scripts/dock_solv.prm

>  <Rbt.Receptor>
prm/pocket_docking_5.prm

>  <SCORE>
-23.7949

>  <SCORE.INTER>
-18.2175

>  <SCORE.INTER.CONST>
1

>  <SCORE.INTER.POLAR>
-2.53958

>  <SCORE.INTER.ROT>
8

>  <SCORE.INTER.SOLV>
8.16464

>  <SCORE.INTER.VDW>
-15.3346

>  <SCORE.INTER.norm>
-1.65613

>  <SCORE.INTRA>
-5.5778

>  <SCORE.INTRA.DIHEDRAL>
-13.669

>  <SCORE.INTRA.DIHEDRAL.0>
21.6454

>  <SCORE.INTRA.POLAR>
0

>  <SCORE.INTRA.POLAR.0>
0

>  <SCORE.INTRA.REPUL>
0

>  <SCORE.INTRA.REPUL.0>
0

>  <SCORE.INTRA.SOLV>
0.334404

>  <SCORE.INTRA.SOLV.lig_0>
-16.5947

>  <SCORE.INTRA.VDW>
1.08948

>  <SCORE.INTRA.VDW.0>
-0.691398

>  <SCORE.INTRA.norm>
-0.507073

>  <SCORE.RESTR>
0.000407629

>  <SCORE.RESTR.CAVITY>
0.000407629

>  <SCORE.RESTR.norm>
3.70572e-05

>  <SCORE.SYSTEM>
0

>  <SCORE.SYSTEM.CONST>
0

>  <SCORE.SYSTEM.DIHEDRAL>
0

>  <SCORE.SYSTEM.SOLV>
0

>  <SCORE.SYSTEM.norm>
0

>  <SCORE.heavy>
11

>  <SCORE.norm>
-2.16317

>  <RMSD>
4.658

>  <RMSD>
4.658

$$$$
1akx_lig
 OpenBabel11021811383D
libRbt.so/2013.1/901 2013/11/27
 11 10  0  0  0  0  0  0  0  0999 V2000
   -4.8220   -2.3481    0.8037 N   0  0  0  0  0  0  0  0  0  0  0  0
   -5.2202   -2.9161   -0.5180 C   0  0  2  0  0  0  0  0  0  0  0  0
   -6.1206   -4.1385   -0.2995 C   0  0  0  0  0  0  0  0  0  0  0  0
   -6.5594   -4.7586   -1.2477 O   0  0  0  0  0  0  0  0  0  0  0  0
   -3.9661   -3.3309   -1.2994 C   0  0  0  0  0  0  0  0  0  0  0  0
   -3.8068   -2.4370   -2.5334 C   0  0  0  0  0  0  0  0  0  0  0  0
   -2.6952   -2.9905   -3.4251 C   0  0  0  0  0  0  0  0  0  0  0  0
   -1.3760   -2.7660   -2.7682 N   0  0  0  0  0  0  0  0  0  0  0  0
   -1.0115   -3.5045   -1.7513 C   0  0  0  0  0  0  0  0  0  0  0  0
   -0.5341   -2.9462   -0.6688 N   0  0  0  0  0  0  0  0  0  0  0  0
   -1.1310   -4.8036   -1.8156 N   0  0  0  0  0  0  0  0  0  0  0  0
  2  1  1  1  0  0  0
  2  3  1  0  0  0  0
  2  5  1  0  0  0  0
  3  4  1  0  0  0  0
  5  6  1  0  0  0  0
  6  7  1  0  0  0  0
  7  8  1  0  0  0  0
  8  9  1  0  0  0  0
  9 10  1  0  0  0  0
  9 11  1  0  0  0  0
M  END
>  <CHROM.1>
179.72886655,-179.86686055,-113.26027153,-170.96458554,-71.23855859,74.79205581
-131.86035983,61.98865616,108.85037966,-3.37208278,-3.36415569,-1.36717942
-2.86082737,-0.14794573,-1.84480208

>  <Name>
1akx_lig

>  <RI>
0

>  <Rbt.Current_Directory>
/home/itssahil/PROJECTS/Mol_Feturizer/New_Systems/rnas/1akx

>  <Rbt.Executable>
rbdock ($Id: //depot/dev/client3/rdock/2013.1/src/exe/rbdock.cxx#4 $)

>  <Rbt.Library>
libRbt.so (2013.1, Build901 2013/11/27)

>  <Rbt.Parameter_File>
/export/apps/rDock/src/rDock_2013.1_src/data/scripts/dock_solv.prm

>  <Rbt.Receptor>
prm/pocket_docking_6.prm

>  <SCORE>
-28.9615

>  <SCORE.INTER>
-24.3841

>  <SCORE.INTER.CONST>
1

>  <SCORE.INTER.POLAR>
-3.67624

>  <SCORE.INTER.ROT>
8

>  <SCORE.INTER.SOLV>
6.68203

>  <SCORE.INTER.VDW>
-15.1626

>  <SCORE.INTER.norm>
-2.21674

>  <SCORE.INTRA>
-4.57742

>  <SCORE.INTRA.DIHEDRAL>
-10.347

>  <SCORE.INTRA.DIHEDRAL.0>
21.6454

>  <SCORE.INTRA.POLAR>
0

>  <SCORE.INTRA.POLAR.0>
0

>  <SCORE.INTRA.REPUL>
0

>  <SCORE.INTRA.REPUL.0>
0

>  <SCORE.INTRA.SOLV>
0.754559

>  <SCORE.INTRA.SOLV.lig_0>
-16.5947

>  <SCORE.INTRA.VDW>
0.218789

>  <SCORE.INTRA.VDW.0>
-0.691398

>  <SCORE.INTRA.norm>
-0.416129

>  <SCORE.RESTR>
0

>  <SCORE.RESTR.CAVITY>
0

>  <SCORE.RESTR.norm>
0

>  <SCORE.SYSTEM>
0

>  <SCORE.SYSTEM.CONST>
0

>  <SCORE.SYSTEM.DIHEDRAL>
0

>  <SCORE.SYSTEM.SOLV>
0

>  <SCORE.SYSTEM.norm>
0

>  <SCORE.heavy>
11

>  <SCORE.norm>
-2.63287

>  <RMSD>
4.669

$$$$
1akx_lig
 OpenBabel11021811383D
libRbt.so/2013.1/901 2013/11/27
 11 10  0  0  0  0  0  0  0  0999 V2000
   -7.1725   -3.9059   -0.5427 N   0  0  0  0  0  0  0  0  0  0  0  0
   -5.9238   -3.1190   -0.3200 C   0  0  2  0  0  0  0  0  0  0  0  0
   -4.9282   -3.4079   -1.4506 C   0  0  0  0  0  0  0  0  0  0  0  0
   -5.2470   -3.2400   -2.6109 O   0  0  0  0  0  0  0  0  0  0  0  0
   -5.3026   -3.5090    1.0281 C   0  0  0  0  0  0  0  0  0  0  0  0
   -4.2239   -2.4916    1.4138 C   0  0  0  0  0  0  0  0  0  0  0  0
   -2.8488   -3.0310    1.0200 C   0  0  0  0  0  0  0  0  0  0  0  0
   -2.2794   -2.1869   -0.0689 N   0  0  0  0  0  0  0  0  0  0  0  0
   -1.5290   -2.7248   -0.9962 C   0  0  0  0  0  0  0  0  0  0  0  0
   -1.7138   -2.4173   -2.2543 N   0  0  0  0  0  0  0  0  0  0  0  0
   -0.5878   -3.5670   -0.6632 N   0  0  0  0  0  0  0  0  0  0  0  0
  2  1  1  6  0  0  0
  2  3  1  0  0  0  0
  2  5  1  0  0  0  0
  3  4  1  0  0  0  0
  5  6  1  0  0  0  0
  6  7  1  0  0  0  0
  7  8  1  0  0  0  0
  8  9  1  0  0  0  0
  9 10  1  0  0  0  0
  9 11  1  0  0  0  0
M  END
>  <CHROM.1>
-175.38744228,55.63790835,-166.80704229,-97.42883454,113.18639665,-146.08427008
135.00697186,143.92272896,-89.85891244,-3.80576284,-3.06741953,-0.54617731
3.07271465,0.14183873,1.53322389

>  <Name>
1akx_lig

>  <RI>
0

>  <Rbt.Current_Directory>
/home/afrankz/demos/rdock_decoys_rna/rnas/1akx

>  <Rbt.Executable>
rbdock ($Id: //depot/dev/client3/rdock/2013.1/src/exe/rbdock.cxx#4 $)

>  <Rbt.Library>
libRbt.so (2013.1, Build901 2013/11/27)

>  <Rbt.Parameter_File>
/export/apps/rDock/src/rDock_2013.1_src/data/scripts/dock_solv.prm

>  <Rbt.Receptor>
prm/pocket_docking_6.prm

>  <SCORE>
-24.692

>  <SCORE.INTER>
-22.0148

>  <SCORE.INTER.CONST>
1

>  <SCORE.INTER.POLAR>
-3.46327

>  <SCORE.INTER.ROT>
8

>  <SCORE.INTER.SOLV>
6.57916

>  <SCORE.INTER.VDW>
-14.2587

>  <SCORE.INTER.norm>
-2.00135

>  <SCORE.INTRA>
-2.67722

>  <SCORE.INTRA.DIHEDRAL>
-6.48021

>  <SCORE.INTRA.DIHEDRAL.0>
21.6454

>  <SCORE.INTRA.POLAR>
0

>  <SCORE.INTRA.POLAR.0>
0

>  <SCORE.INTRA.REPUL>
0

>  <SCORE.INTRA.REPUL.0>
0

>  <SCORE.INTRA.SOLV>
1.33051

>  <SCORE.INTRA.SOLV.lig_0>
-16.5947

>  <SCORE.INTRA.VDW>
-0.102364

>  <SCORE.INTRA.VDW.0>
-0.691398

>  <SCORE.INTRA.norm>
-0.243383

>  <SCORE.RESTR>
0

>  <SCORE.RESTR.CAVITY>
0

>  <SCORE.RESTR.norm>
0

>  <SCORE.SYSTEM>
0

>  <SCORE.SYSTEM.CONST>
0

>  <SCORE.SYSTEM.DIHEDRAL>
0

>  <SCORE.SYSTEM.SOLV>
0

>  <SCORE.SYSTEM.norm>
0

>  <SCORE.heavy>
11

>  <SCORE.norm>
-2.24473

>  <RMSD>
4.677

>  <RMSD>
4.677

$$$$
1akx_lig
 OpenBabel11021811383D
libRbt.so/2013.1/901 2013/11/27
 11 10  0  0  0  0  0  0  0  0999 V2000
   -7.1725   -3.9059   -0.5427 N   0  0  0  0  0  0  0  0  0  0  0  0
   -5.9238   -3.1190   -0.3200 C   0  0  2  0  0  0  0  0  0  0  0  0
   -4.9282   -3.4079   -1.4506 C   0  0  0  0  0  0  0  0  0  0  0  0
   -5.2470   -3.2400   -2.6109 O   0  0  0  0  0  0  0  0  0  0  0  0
   -5.3026   -3.5090    1.0281 C   0  0  0  0  0  0  0  0  0  0  0  0
   -4.2239   -2.4916    1.4138 C   0  0  0  0  0  0  0  0  0  0  0  0
   -2.8488   -3.0310    1.0200 C   0  0  0  0  0  0  0  0  0  0  0  0
   -2.2794   -2.1869   -0.0689 N   0  0  0  0  0  0  0  0  0  0  0  0
   -1.5290   -2.7248   -0.9962 C   0  0  0  0  0  0  0  0  0  0  0  0
   -1.7138   -2.4173   -2.2543 N   0  0  0  0  0  0  0  0  0  0  0  0
   -0.5878   -3.5670   -0.6632 N   0  0  0  0  0  0  0  0  0  0  0  0
  2  1  1  6  0  0  0
  2  3  1  0  0  0  0
  2  5  1  0  0  0  0
  3  4  1  0  0  0  0
  5  6  1  0  0  0  0
  6  7  1  0  0  0  0
  7  8  1  0  0  0  0
  8  9  1  0  0  0  0
  9 10  1  0  0  0  0
  9 11  1  0  0  0  0
M  END
>  <CHROM.1>
-175.38744228,55.63790835,-166.80704229,-97.42883454,113.18639665,-146.08427008
135.00697186,143.92272896,-89.85891244,-3.80576284,-3.06741953,-0.54617731
3.07271465,0.14183873,1.53322389

>  <Name>
1akx_lig

>  <RI>
0

>  <Rbt.Current_Directory>
/home/afrankz/demos/rdock_decoys_rna/rnas/1akx

>  <Rbt.Executable>
rbdock ($Id: //depot/dev/client3/rdock/2013.1/src/exe/rbdock.cxx#4 $)

>  <Rbt.Library>
libRbt.so (2013.1, Build901 2013/11/27)

>  <Rbt.Parameter_File>
/export/apps/rDock/src/rDock_2013.1_src/data/scripts/dock_solv.prm

>  <Rbt.Receptor>
prm/pocket_docking_6.prm

>  <SCORE>
-24.692

>  <SCORE.INTER>
-22.0148

>  <SCORE.INTER.CONST>
1

>  <SCORE.INTER.POLAR>
-3.46327

>  <SCORE.INTER.ROT>
8

>  <SCORE.INTER.SOLV>
6.57916

>  <SCORE.INTER.VDW>
-14.2587

>  <SCORE.INTER.norm>
-2.00135

>  <SCORE.INTRA>
-2.67722

>  <SCORE.INTRA.DIHEDRAL>
-6.48021

>  <SCORE.INTRA.DIHEDRAL.0>
21.6454

>  <SCORE.INTRA.POLAR>
0

>  <SCORE.INTRA.POLAR.0>
0

>  <SCORE.INTRA.REPUL>
0

>  <SCORE.INTRA.REPUL.0>
0

>  <SCORE.INTRA.SOLV>
1.33051

>  <SCORE.INTRA.SOLV.lig_0>
-16.5947

>  <SCORE.INTRA.VDW>
-0.102364

>  <SCORE.INTRA.VDW.0>
-0.691398

>  <SCORE.INTRA.norm>
-0.243383

>  <SCORE.RESTR>
0

>  <SCORE.RESTR.CAVITY>
0

>  <SCORE.RESTR.norm>
0

>  <SCORE.SYSTEM>
0

>  <SCORE.SYSTEM.CONST>
0

>  <SCORE.SYSTEM.DIHEDRAL>
0

>  <SCORE.SYSTEM.SOLV>
0

>  <SCORE.SYSTEM.norm>
0

>  <SCORE.heavy>
11

>  <SCORE.norm>
-2.24473

>  <RMSD>
4.677

>  <RMSD>
4.677

$$$$
1akx_lig
 OpenBabel11021811383D
libRbt.so/2013.1/901 2013/11/27
 11 10  0  0  0  0  0  0  0  0999 V2000
   -8.5884   -4.4162    1.9183 N   0  0  0  0  0  0  0  0  0  0  0  0
   -7.8350   -4.8186    0.6942 C   0  0  2  0  0  0  0  0  0  0  0  0
   -7.0166   -6.0819    0.9890 C   0  0  0  0  0  0  0  0  0  0  0  0
   -6.1988   -6.0913    1.8875 O   0  0  0  0  0  0  0  0  0  0  0  0
   -6.8956   -3.6814    0.2703 C   0  0  0  0  0  0  0  0  0  0  0  0
   -6.1853   -4.0567   -1.0343 C   0  0  0  0  0  0  0  0  0  0  0  0
   -5.1669   -2.9739   -1.3912 C   0  0  0  0  0  0  0  0  0  0  0  0
   -4.2514   -3.4856   -2.4506 N   0  0  0  0  0  0  0  0  0  0  0  0
   -3.5940   -2.6503   -3.2139 C   0  0  0  0  0  0  0  0  0  0  0  0
   -2.4598   -2.1399   -2.8085 N   0  0  0  0  0  0  0  0  0  0  0  0
   -4.0696   -2.3303   -4.3875 N   0  0  0  0  0  0  0  0  0  0  0  0
  2  1  1  1  0  0  0
  2  3  1  0  0  0  0
  2  5  1  0  0  0  0
  3  4  1  0  0  0  0
  5  6  1  0  0  0  0
  6  7  1  0  0  0  0
  7  8  1  0  0  0  0
  8  9  1  0  0  0  0
  9 10  1  0  0  0  0
  9 11  1  0  0  0  0
M  END
>  <CHROM.1>
-51.67968858,-57.69760432,-176.50896254,-175.36252472,166.08574316,158.04054073
84.18810488,152.37658481,175.13904499,-5.65214656,-3.88004387,-0.85213346
2.23818632,-0.30332614,2.31259388

>  <Name>
1akx_lig

>  <RI>
0

>  <Rbt.Current_Directory>
/home/afrankz/demos/rdock_decoys_rna/rnas/1akx

>  <Rbt.Executable>
rbdock ($Id: //depot/dev/client3/rdock/2013.1/src/exe/rbdock.cxx#4 $)

>  <Rbt.Library>
libRbt.so (2013.1, Build901 2013/11/27)

>  <Rbt.Parameter_File>
/export/apps/rDock/src/rDock_2013.1_src/data/scripts/dock_solv.prm

>  <Rbt.Receptor>
prm/pocket_docking_6.prm

>  <SCORE>
-35.1391

>  <SCORE.INTER>
-28.1844

>  <SCORE.INTER.CONST>
1

>  <SCORE.INTER.POLAR>
-4.10483

>  <SCORE.INTER.ROT>
8

>  <SCORE.INTER.SOLV>
7.00023

>  <SCORE.INTER.VDW>
-16.3736

>  <SCORE.INTER.norm>
-2.56222

>  <SCORE.INTRA>
-6.95463

>  <SCORE.INTRA.DIHEDRAL>
-15.8179

>  <SCORE.INTRA.DIHEDRAL.0>
21.6454

>  <SCORE.INTRA.POLAR>
0

>  <SCORE.INTRA.POLAR.0>
0

>  <SCORE.INTRA.REPUL>
0

>  <SCORE.INTRA.REPUL.0>
0

>  <SCORE.INTRA.SOLV>
0.281557

>  <SCORE.INTRA.SOLV.lig_0>
-16.5947

>  <SCORE.INTRA.VDW>
0.813564

>  <SCORE.INTRA.VDW.0>
-0.691398

>  <SCORE.INTRA.norm>
-0.632239

>  <SCORE.RESTR>
0

>  <SCORE.RESTR.CAVITY>
0

>  <SCORE.RESTR.norm>
0

>  <SCORE.SYSTEM>
0

>  <SCORE.SYSTEM.CONST>
0

>  <SCORE.SYSTEM.DIHEDRAL>
0

>  <SCORE.SYSTEM.SOLV>
0

>  <SCORE.SYSTEM.norm>
0

>  <SCORE.heavy>
11

>  <SCORE.norm>
-3.19446

>  <RMSD>
4.688

>  <RMSD>
4.688

$$$$
1akx_lig
 OpenBabel11021811383D
libRbt.so/2013.1/901 2013/11/27
 11 10  0  0  0  0  0  0  0  0999 V2000
   -8.5884   -4.4162    1.9183 N   0  0  0  0  0  0  0  0  0  0  0  0
   -7.8350   -4.8186    0.6942 C   0  0  2  0  0  0  0  0  0  0  0  0
   -7.0166   -6.0819    0.9890 C   0  0  0  0  0  0  0  0  0  0  0  0
   -6.1988   -6.0913    1.8875 O   0  0  0  0  0  0  0  0  0  0  0  0
   -6.8956   -3.6814    0.2703 C   0  0  0  0  0  0  0  0  0  0  0  0
   -6.1853   -4.0567   -1.0343 C   0  0  0  0  0  0  0  0  0  0  0  0
   -5.1669   -2.9739   -1.3912 C   0  0  0  0  0  0  0  0  0  0  0  0
   -4.2514   -3.4856   -2.4506 N   0  0  0  0  0  0  0  0  0  0  0  0
   -3.5940   -2.6503   -3.2139 C   0  0  0  0  0  0  0  0  0  0  0  0
   -2.4598   -2.1399   -2.8085 N   0  0  0  0  0  0  0  0  0  0  0  0
   -4.0696   -2.3303   -4.3875 N   0  0  0  0  0  0  0  0  0  0  0  0
  2  1  1  1  0  0  0
  2  3  1  0  0  0  0
  2  5  1  0  0  0  0
  3  4  1  0  0  0  0
  5  6  1  0  0  0  0
  6  7  1  0  0  0  0
  7  8  1  0  0  0  0
  8  9  1  0  0  0  0
  9 10  1  0  0  0  0
  9 11  1  0  0  0  0
M  END
>  <CHROM.1>
-51.67968858,-57.69760432,-176.50896254,-175.36252472,166.08574316,158.04054073
84.18810488,152.37658481,175.13904499,-5.65214656,-3.88004387,-0.85213346
2.23818632,-0.30332614,2.31259388

>  <Name>
1akx_lig

>  <RI>
0

>  <Rbt.Current_Directory>
/home/afrankz/demos/rdock_decoys_rna/rnas/1akx

>  <Rbt.Executable>
rbdock ($Id: //depot/dev/client3/rdock/2013.1/src/exe/rbdock.cxx#4 $)

>  <Rbt.Library>
libRbt.so (2013.1, Build901 2013/11/27)

>  <Rbt.Parameter_File>
/export/apps/rDock/src/rDock_2013.1_src/data/scripts/dock_solv.prm

>  <Rbt.Receptor>
prm/pocket_docking_6.prm

>  <SCORE>
-35.1391

>  <SCORE.INTER>
-28.1844

>  <SCORE.INTER.CONST>
1

>  <SCORE.INTER.POLAR>
-4.10483

>  <SCORE.INTER.ROT>
8

>  <SCORE.INTER.SOLV>
7.00023

>  <SCORE.INTER.VDW>
-16.3736

>  <SCORE.INTER.norm>
-2.56222

>  <SCORE.INTRA>
-6.95463

>  <SCORE.INTRA.DIHEDRAL>
-15.8179

>  <SCORE.INTRA.DIHEDRAL.0>
21.6454

>  <SCORE.INTRA.POLAR>
0

>  <SCORE.INTRA.POLAR.0>
0

>  <SCORE.INTRA.REPUL>
0

>  <SCORE.INTRA.REPUL.0>
0

>  <SCORE.INTRA.SOLV>
0.281557

>  <SCORE.INTRA.SOLV.lig_0>
-16.5947

>  <SCORE.INTRA.VDW>
0.813564

>  <SCORE.INTRA.VDW.0>
-0.691398

>  <SCORE.INTRA.norm>
-0.632239

>  <SCORE.RESTR>
0

>  <SCORE.RESTR.CAVITY>
0

>  <SCORE.RESTR.norm>
0

>  <SCORE.SYSTEM>
0

>  <SCORE.SYSTEM.CONST>
0

>  <SCORE.SYSTEM.DIHEDRAL>
0

>  <SCORE.SYSTEM.SOLV>
0

>  <SCORE.SYSTEM.norm>
0

>  <SCORE.heavy>
11

>  <SCORE.norm>
-3.19446

>  <RMSD>
4.688

>  <RMSD>
4.688

$$$$
1akx_lig
 OpenBabel11021811383D
libRbt.so/2013.1/901 2013/11/27
 11 10  0  0  0  0  0  0  0  0999 V2000
   -8.5055   -4.3272    0.2452 N   0  0  0  0  0  0  0  0  0  0  0  0
   -7.0347   -4.5818    0.2377 C   0  0  2  0  0  0  0  0  0  0  0  0
   -6.5089   -4.5882    1.6786 C   0  0  0  0  0  0  0  0  0  0  0  0
   -6.9565   -5.3689    2.4949 O   0  0  0  0  0  0  0  0  0  0  0  0
   -6.3259   -3.4833   -0.5663 C   0  0  0  0  0  0  0  0  0  0  0  0
   -4.9603   -3.9900   -1.0415 C   0  0  0  0  0  0  0  0  0  0  0  0
   -4.2511   -2.8867   -1.8268 C   0  0  0  0  0  0  0  0  0  0  0  0
   -2.9953   -3.4297   -2.4188 N   0  0  0  0  0  0  0  0  0  0  0  0
   -2.6507   -3.1113   -3.6404 C   0  0  0  0  0  0  0  0  0  0  0  0
   -3.5496   -2.6810   -4.4879 N   0  0  0  0  0  0  0  0  0  0  0  0
   -1.4032   -3.2179   -4.0124 N   0  0  0  0  0  0  0  0  0  0  0  0
  2  1  1  1  0  0  0
  2  3  1  0  0  0  0
  2  5  1  0  0  0  0
  3  4  1  0  0  0  0
  5  6  1  0  0  0  0
  6  7  1  0  0  0  0
  7  8  1  0  0  0  0
  8  9  1  0  0  0  0
  9 10  1  0  0  0  0
  9 11  1  0  0  0  0
M  END
>  <CHROM.1>
51.16671219,58.34190481,-158.13334258,-179.30512230,-173.60564479,138.47961687
-21.26557807,163.71740011,129.85748122,-5.02977853,-3.79455384,-1.21896628
2.31278021,-0.07687659,1.96023583

>  <Name>
1akx_lig

>  <RI>
0

>  <Rbt.Current_Directory>
/home/itssahil/PROJECTS/Mol_Feturizer/New_Systems/rnas/1akx

>  <Rbt.Executable>
rbdock ($Id: //depot/dev/client3/rdock/2013.1/src/exe/rbdock.cxx#4 $)

>  <Rbt.Library>
libRbt.so (2013.1, Build901 2013/11/27)

>  <Rbt.Parameter_File>
/export/apps/rDock/src/rDock_2013.1_src/data/scripts/dock_solv.prm

>  <Rbt.Receptor>
prm/pocket_docking_8.prm

>  <SCORE>
-31.7154

>  <SCORE.INTER>
-25.4614

>  <SCORE.INTER.CONST>
1

>  <SCORE.INTER.POLAR>
-4.23211

>  <SCORE.INTER.ROT>
8

>  <SCORE.INTER.SOLV>
7.88366

>  <SCORE.INTER.VDW>
-14.4284

>  <SCORE.INTER.norm>
-2.31467

>  <SCORE.INTRA>
-6.25406

>  <SCORE.INTRA.DIHEDRAL>
-14.7632

>  <SCORE.INTRA.DIHEDRAL.0>
21.6454

>  <SCORE.INTRA.POLAR>
0

>  <SCORE.INTRA.POLAR.0>
0

>  <SCORE.INTRA.REPUL>
0

>  <SCORE.INTRA.REPUL.0>
0

>  <SCORE.INTRA.SOLV>
0.155813

>  <SCORE.INTRA.SOLV.lig_0>
-16.5947

>  <SCORE.INTRA.VDW>
1.04965

>  <SCORE.INTRA.VDW.0>
-0.691398

>  <SCORE.INTRA.norm>
-0.568551

>  <SCORE.RESTR>
0

>  <SCORE.RESTR.CAVITY>
0

>  <SCORE.RESTR.norm>
0

>  <SCORE.SYSTEM>
0

>  <SCORE.SYSTEM.CONST>
0

>  <SCORE.SYSTEM.DIHEDRAL>
0

>  <SCORE.SYSTEM.SOLV>
0

>  <SCORE.SYSTEM.norm>
0

>  <SCORE.heavy>
11

>  <SCORE.norm>
-2.88322

>  <RMSD>
4.697

$$$$
1akx_lig
 OpenBabel11021811383D
libRbt.so/2013.1/901 2013/11/27
 11 10  0  0  0  0  0  0  0  0999 V2000
   -7.9662   -4.2408    0.0028 N   0  0  0  0  0  0  0  0  0  0  0  0
   -6.9777   -5.2315   -0.5165 C   0  0  2  0  0  0  0  0  0  0  0  0
   -7.5010   -6.6526   -0.2727 C   0  0  0  0  0  0  0  0  0  0  0  0
   -6.9320   -7.6108   -0.7567 O   0  0  0  0  0  0  0  0  0  0  0  0
   -5.6348   -5.0447    0.2026 C   0  0  0  0  0  0  0  0  0  0  0  0
   -4.9554   -3.7650   -0.2956 C   0  0  0  0  0  0  0  0  0  0  0  0
   -4.6711   -3.8871   -1.7926 C   0  0  0  0  0  0  0  0  0  0  0  0
   -3.9516   -2.6683   -2.2608 N   0  0  0  0  0  0  0  0  0  0  0  0
   -3.5137   -2.5930   -3.4916 C   0  0  0  0  0  0  0  0  0  0  0  0
   -2.2435   -2.7681   -3.7511 N   0  0  0  0  0  0  0  0  0  0  0  0
   -4.3495   -2.3482   -4.4650 N   0  0  0  0  0  0  0  0  0  0  0  0
  2  1  1  1  0  0  0
  2  3  1  0  0  0  0
  2  5  1  0  0  0  0
  3  4  1  0  0  0  0
  5  6  1  0  0  0  0
  6  7  1  0  0  0  0
  7  8  1  0  0  0  0
  8  9  1  0  0  0  0
  9 10  1  0  0  0  0
  9 11  1  0  0  0  0
M  END
>  <CHROM.1>
-77.93867187,171.23984079,-72.89244435,-61.84929419,-177.30715388,174.83901748
-102.97495884,19.18310484,-46.22136490,-5.34800248,-4.23952629,-1.60298671
2.72480556,-0.82037894,-2.89149965

>  <Name>
1akx_lig

>  <RI>
0

>  <Rbt.Current_Directory>
/home/itssahil/PROJECTS/Mol_Feturizer/New_Systems/rnas/1akx

>  <Rbt.Executable>
rbdock ($Id: //depot/dev/client3/rdock/2013.1/src/exe/rbdock.cxx#4 $)

>  <Rbt.Library>
libRbt.so (2013.1, Build901 2013/11/27)

>  <Rbt.Parameter_File>
/export/apps/rDock/src/rDock_2013.1_src/data/scripts/dock_solv.prm

>  <Rbt.Receptor>
prm/pocket_docking_6.prm

>  <SCORE>
-27.2762

>  <SCORE.INTER>
-20.5877

>  <SCORE.INTER.CONST>
1

>  <SCORE.INTER.POLAR>
-2.71457

>  <SCORE.INTER.ROT>
8

>  <SCORE.INTER.SOLV>
7.34292

>  <SCORE.INTER.VDW>
-16.0576

>  <SCORE.INTER.norm>
-1.87161

>  <SCORE.INTRA>
-6.68841

>  <SCORE.INTRA.DIHEDRAL>
-15.1452

>  <SCORE.INTRA.DIHEDRAL.0>
21.6454

>  <SCORE.INTRA.POLAR>
0

>  <SCORE.INTRA.POLAR.0>
0

>  <SCORE.INTRA.REPUL>
0

>  <SCORE.INTRA.REPUL.0>
0

>  <SCORE.INTRA.SOLV>
0.0759206

>  <SCORE.INTRA.SOLV.lig_0>
-16.5947

>  <SCORE.INTRA.VDW>
0.846229

>  <SCORE.INTRA.VDW.0>
-0.691398

>  <SCORE.INTRA.norm>
-0.608037

>  <SCORE.RESTR>
0

>  <SCORE.RESTR.CAVITY>
0

>  <SCORE.RESTR.norm>
0

>  <SCORE.SYSTEM>
0

>  <SCORE.SYSTEM.CONST>
0

>  <SCORE.SYSTEM.DIHEDRAL>
0

>  <SCORE.SYSTEM.SOLV>
0

>  <SCORE.SYSTEM.norm>
0

>  <SCORE.heavy>
11

>  <SCORE.norm>
-2.47965

>  <RMSD>
4.708

$$$$
1akx_lig
 OpenBabel11021811383D
libRbt.so/2013.1/901 2013/11/27
 11 10  0  0  0  0  0  0  0  0999 V2000
   -6.1653   -3.2234   -1.5024 N   0  0  0  0  0  0  0  0  0  0  0  0
   -5.5117   -4.4701   -1.0056 C   0  0  2  0  0  0  0  0  0  0  0  0
   -6.1738   -4.9070    0.3072 C   0  0  0  0  0  0  0  0  0  0  0  0
   -7.3603   -5.1663    0.3431 O   0  0  0  0  0  0  0  0  0  0  0  0
   -4.0178   -4.2096   -0.7695 C   0  0  0  0  0  0  0  0  0  0  0  0
   -3.2794   -5.5427   -0.6113 C   0  0  0  0  0  0  0  0  0  0  0  0
   -1.7867   -5.2794   -0.4128 C   0  0  0  0  0  0  0  0  0  0  0  0
   -1.2492   -4.5573   -1.6011 N   0  0  0  0  0  0  0  0  0  0  0  0
   -0.9454   -3.2871   -1.5191 C   0  0  0  0  0  0  0  0  0  0  0  0
   -0.1203   -2.8650   -0.5958 N   0  0  0  0  0  0  0  0  0  0  0  0
   -1.4633   -2.4389   -2.3666 N   0  0  0  0  0  0  0  0  0  0  0  0
  2  1  1  1  0  0  0
  2  3  1  0  0  0  0
  2  5  1  0  0  0  0
  3  4  1  0  0  0  0
  5  6  1  0  0  0  0
  6  7  1  0  0  0  0
  7  8  1  0  0  0  0
  8  9  1  0  0  0  0
  9 10  1  0  0  0  0
  9 11  1  0  0  0  0
M  END
>  <CHROM.1>
57.49656772,59.77138110,-165.58465234,178.53499925,-60.26565519,106.74504524
54.54337878,-128.25650594,79.21311345,-3.48300625,-4.13135826,-0.90281170
2.86974094,-0.04788381,2.58338636

>  <Name>
1akx_lig

>  <RI>
0

>  <Rbt.Current_Directory>
/home/afrankz/demos/rdock_decoys_rna/rnas/1akx

>  <Rbt.Executable>
rbdock ($Id: //depot/dev/client3/rdock/2013.1/src/exe/rbdock.cxx#4 $)

>  <Rbt.Library>
libRbt.so (2013.1, Build901 2013/11/27)

>  <Rbt.Parameter_File>
/export/apps/rDock/src/rDock_2013.1_src/data/scripts/dock_solv.prm

>  <Rbt.Receptor>
prm/pocket_docking_7.prm

>  <SCORE>
-24.1341

>  <SCORE.INTER>
-16.525

>  <SCORE.INTER.CONST>
1

>  <SCORE.INTER.POLAR>
-2.91785

>  <SCORE.INTER.ROT>
8

>  <SCORE.INTER.SOLV>
6.5061

>  <SCORE.INTER.VDW>
-12.3925

>  <SCORE.INTER.norm>
-1.50227

>  <SCORE.INTRA>
-7.60915

>  <SCORE.INTRA.DIHEDRAL>
-16.0262

>  <SCORE.INTRA.DIHEDRAL.0>
21.6454

>  <SCORE.INTRA.POLAR>
0

>  <SCORE.INTRA.POLAR.0>
0

>  <SCORE.INTRA.REPUL>
0

>  <SCORE.INTRA.REPUL.0>
0

>  <SCORE.INTRA.SOLV>
0.689263

>  <SCORE.INTRA.SOLV.lig_0>
-16.5947

>  <SCORE.INTRA.VDW>
0.0593183

>  <SCORE.INTRA.VDW.0>
-0.691398

>  <SCORE.INTRA.norm>
-0.691741

>  <SCORE.RESTR>
0

>  <SCORE.RESTR.CAVITY>
0

>  <SCORE.RESTR.norm>
0

>  <SCORE.SYSTEM>
0

>  <SCORE.SYSTEM.CONST>
0

>  <SCORE.SYSTEM.DIHEDRAL>
0

>  <SCORE.SYSTEM.SOLV>
0

>  <SCORE.SYSTEM.norm>
0

>  <SCORE.heavy>
11

>  <SCORE.norm>
-2.19401

>  <RMSD>
4.709

>  <RMSD>
4.709

$$$$
1akx_lig
 OpenBabel11021811383D
libRbt.so/2013.1/901 2013/11/27
 11 10  0  0  0  0  0  0  0  0999 V2000
   -6.1653   -3.2234   -1.5024 N   0  0  0  0  0  0  0  0  0  0  0  0
   -5.5117   -4.4701   -1.0056 C   0  0  2  0  0  0  0  0  0  0  0  0
   -6.1738   -4.9070    0.3072 C   0  0  0  0  0  0  0  0  0  0  0  0
   -7.3603   -5.1663    0.3431 O   0  0  0  0  0  0  0  0  0  0  0  0
   -4.0178   -4.2096   -0.7695 C   0  0  0  0  0  0  0  0  0  0  0  0
   -3.2794   -5.5427   -0.6113 C   0  0  0  0  0  0  0  0  0  0  0  0
   -1.7867   -5.2794   -0.4128 C   0  0  0  0  0  0  0  0  0  0  0  0
   -1.2492   -4.5573   -1.6011 N   0  0  0  0  0  0  0  0  0  0  0  0
   -0.9454   -3.2871   -1.5191 C   0  0  0  0  0  0  0  0  0  0  0  0
   -0.1203   -2.8650   -0.5958 N   0  0  0  0  0  0  0  0  0  0  0  0
   -1.4633   -2.4389   -2.3666 N   0  0  0  0  0  0  0  0  0  0  0  0
  2  1  1  1  0  0  0
  2  3  1  0  0  0  0
  2  5  1  0  0  0  0
  3  4  1  0  0  0  0
  5  6  1  0  0  0  0
  6  7  1  0  0  0  0
  7  8  1  0  0  0  0
  8  9  1  0  0  0  0
  9 10  1  0  0  0  0
  9 11  1  0  0  0  0
M  END
>  <CHROM.1>
57.49656772,59.77138110,-165.58465234,178.53499925,-60.26565519,106.74504524
54.54337878,-128.25650594,79.21311345,-3.48300625,-4.13135826,-0.90281170
2.86974094,-0.04788381,2.58338636

>  <Name>
1akx_lig

>  <RI>
0

>  <Rbt.Current_Directory>
/home/afrankz/demos/rdock_decoys_rna/rnas/1akx

>  <Rbt.Executable>
rbdock ($Id: //depot/dev/client3/rdock/2013.1/src/exe/rbdock.cxx#4 $)

>  <Rbt.Library>
libRbt.so (2013.1, Build901 2013/11/27)

>  <Rbt.Parameter_File>
/export/apps/rDock/src/rDock_2013.1_src/data/scripts/dock_solv.prm

>  <Rbt.Receptor>
prm/pocket_docking_7.prm

>  <SCORE>
-24.1341

>  <SCORE.INTER>
-16.525

>  <SCORE.INTER.CONST>
1

>  <SCORE.INTER.POLAR>
-2.91785

>  <SCORE.INTER.ROT>
8

>  <SCORE.INTER.SOLV>
6.5061

>  <SCORE.INTER.VDW>
-12.3925

>  <SCORE.INTER.norm>
-1.50227

>  <SCORE.INTRA>
-7.60915

>  <SCORE.INTRA.DIHEDRAL>
-16.0262

>  <SCORE.INTRA.DIHEDRAL.0>
21.6454

>  <SCORE.INTRA.POLAR>
0

>  <SCORE.INTRA.POLAR.0>
0

>  <SCORE.INTRA.REPUL>
0

>  <SCORE.INTRA.REPUL.0>
0

>  <SCORE.INTRA.SOLV>
0.689263

>  <SCORE.INTRA.SOLV.lig_0>
-16.5947

>  <SCORE.INTRA.VDW>
0.0593183

>  <SCORE.INTRA.VDW.0>
-0.691398

>  <SCORE.INTRA.norm>
-0.691741

>  <SCORE.RESTR>
0

>  <SCORE.RESTR.CAVITY>
0

>  <SCORE.RESTR.norm>
0

>  <SCORE.SYSTEM>
0

>  <SCORE.SYSTEM.CONST>
0

>  <SCORE.SYSTEM.DIHEDRAL>
0

>  <SCORE.SYSTEM.SOLV>
0

>  <SCORE.SYSTEM.norm>
0

>  <SCORE.heavy>
11

>  <SCORE.norm>
-2.19401

>  <RMSD>
4.709

>  <RMSD>
4.709

$$$$
1akx_lig
 OpenBabel11021811383D
libRbt.so/2013.1/901 2013/11/27
 11 10  0  0  0  0  0  0  0  0999 V2000
   -7.4610   -5.1145   -0.5885 N   0  0  0  0  0  0  0  0  0  0  0  0
   -6.2381   -4.4729   -0.0219 C   0  0  2  0  0  0  0  0  0  0  0  0
   -6.5468   -3.9313    1.3796 C   0  0  0  0  0  0  0  0  0  0  0  0
   -5.6829   -3.3790    2.0313 O   0  0  0  0  0  0  0  0  0  0  0  0
   -5.7906   -3.3223   -0.9337 C   0  0  0  0  0  0  0  0  0  0  0  0
   -5.5896   -3.8419   -2.3609 C   0  0  0  0  0  0  0  0  0  0  0  0
   -4.5100   -3.0145   -3.0585 C   0  0  0  0  0  0  0  0  0  0  0  0
   -3.1655   -3.5352   -2.6797 N   0  0  0  0  0  0  0  0  0  0  0  0
   -2.0857   -3.0219   -3.2117 C   0  0  0  0  0  0  0  0  0  0  0  0
   -1.9258   -3.0234   -4.5101 N   0  0  0  0  0  0  0  0  0  0  0  0
   -1.1673   -2.5005   -2.4431 N   0  0  0  0  0  0  0  0  0  0  0  0
  2  1  1  6  0  0  0
  2  3  1  0  0  0  0
  2  5  1  0  0  0  0
  3  4  1  0  0  0  0
  5  6  1  0  0  0  0
  6  7  1  0  0  0  0
  7  8  1  0  0  0  0
  8  9  1  0  0  0  0
  9 10  1  0  0  0  0
  9 11  1  0  0  0  0
M  END
>  <CHROM.1>
-147.19247623,179.25955220,-55.27419378,-150.21938040,82.83752212,176.56268302
-57.99211998,72.03411728,153.17301021,-4.54966684,-3.56904422,-1.48658345
2.46876203,0.37222934,1.43689585

>  <Name>
1akx_lig

>  <RI>
0

>  <Rbt.Current_Directory>
/home/itssahil/PROJECTS/Mol_Feturizer/New_Systems/rnas/1akx

>  <Rbt.Executable>
rbdock ($Id: //depot/dev/client3/rdock/2013.1/src/exe/rbdock.cxx#4 $)

>  <Rbt.Library>
libRbt.so (2013.1, Build901 2013/11/27)

>  <Rbt.Parameter_File>
/export/apps/rDock/src/rDock_2013.1_src/data/scripts/dock_solv.prm

>  <Rbt.Receptor>
prm/pocket_docking_6.prm

>  <SCORE>
-27.9636

>  <SCORE.INTER>
-23.9832

>  <SCORE.INTER.CONST>
1

>  <SCORE.INTER.POLAR>
-2.90633

>  <SCORE.INTER.ROT>
8

>  <SCORE.INTER.SOLV>
7.88555

>  <SCORE.INTER.VDW>
-17.8629

>  <SCORE.INTER.norm>
-2.18029

>  <SCORE.INTRA>
-3.98042

>  <SCORE.INTRA.DIHEDRAL>
-9.91615

>  <SCORE.INTRA.DIHEDRAL.0>
21.6454

>  <SCORE.INTRA.POLAR>
0

>  <SCORE.INTRA.POLAR.0>
0

>  <SCORE.INTRA.REPUL>
0

>  <SCORE.INTRA.REPUL.0>
0

>  <SCORE.INTRA.SOLV>
0.155147

>  <SCORE.INTRA.SOLV.lig_0>
-16.5947

>  <SCORE.INTRA.VDW>
0.900087

>  <SCORE.INTRA.VDW.0>
-0.691398

>  <SCORE.INTRA.norm>
-0.361856

>  <SCORE.RESTR>
0

>  <SCORE.RESTR.CAVITY>
0

>  <SCORE.RESTR.norm>
0

>  <SCORE.SYSTEM>
0

>  <SCORE.SYSTEM.CONST>
0

>  <SCORE.SYSTEM.DIHEDRAL>
0

>  <SCORE.SYSTEM.SOLV>
0

>  <SCORE.SYSTEM.norm>
0

>  <SCORE.heavy>
11

>  <SCORE.norm>
-2.54215

>  <RMSD>
4.712

$$$$
1akx_lig
 OpenBabel11021811383D
libRbt.so/2013.1/901 2013/11/27
 11 10  0  0  0  0  0  0  0  0999 V2000
   -6.5846   -3.2080   -0.5629 N   0  0  0  0  0  0  0  0  0  0  0  0
   -6.2428   -4.3058    0.3890 C   0  0  2  0  0  0  0  0  0  0  0  0
   -7.0972   -4.1696    1.6556 C   0  0  0  0  0  0  0  0  0  0  0  0
   -8.3075   -4.2586    1.5955 O   0  0  0  0  0  0  0  0  0  0  0  0
   -4.7553   -4.2234    0.7577 C   0  0  0  0  0  0  0  0  0  0  0  0
   -3.9113   -4.8528   -0.3553 C   0  0  0  0  0  0  0  0  0  0  0  0
   -2.4521   -4.4269   -0.1929 C   0  0  0  0  0  0  0  0  0  0  0  0
   -2.2848   -3.0329   -0.6940 N   0  0  0  0  0  0  0  0  0  0  0  0
   -1.5351   -2.7935   -1.7395 C   0  0  0  0  0  0  0  0  0  0  0  0
   -2.0210   -2.1398   -2.7632 N   0  0  0  0  0  0  0  0  0  0  0  0
   -0.2952   -3.2036   -1.7578 N   0  0  0  0  0  0  0  0  0  0  0  0
  2  1  1  6  0  0  0
  2  3  1  0  0  0  0
  2  5  1  0  0  0  0
  3  4  1  0  0  0  0
  5  6  1  0  0  0  0
  6  7  1  0  0  0  0
  7  8  1  0  0  0  0
  8  9  1  0  0  0  0
  9 10  1  0  0  0  0
  9 11  1  0  0  0  0
M  END
>  <CHROM.1>
162.97982627,62.49055564,-80.37731032,163.99852284,-77.71955557,-115.09909515
125.63680947,179.27120053,-127.37705926,-4.15051810,-3.65230668,-0.36581874
2.69511278,-0.17139494,2.30297264

>  <Name>
1akx_lig

>  <RI>
0

>  <Rbt.Current_Directory>
/home/itssahil/PROJECTS/Mol_Feturizer/New_Systems/rnas/1akx

>  <Rbt.Executable>
rbdock ($Id: //depot/dev/client3/rdock/2013.1/src/exe/rbdock.cxx#4 $)

>  <Rbt.Library>
libRbt.so (2013.1, Build901 2013/11/27)

>  <Rbt.Parameter_File>
/export/apps/rDock/src/rDock_2013.1_src/data/scripts/dock_solv.prm

>  <Rbt.Receptor>
prm/pocket_docking_7.prm

>  <SCORE>
-21.8377

>  <SCORE.INTER>
-15.4952

>  <SCORE.INTER.CONST>
1

>  <SCORE.INTER.POLAR>
-2.63166

>  <SCORE.INTER.ROT>
8

>  <SCORE.INTER.SOLV>
7.78806

>  <SCORE.INTER.VDW>
-13.0873

>  <SCORE.INTER.norm>
-1.40865

>  <SCORE.INTRA>
-6.34254

>  <SCORE.INTRA.DIHEDRAL>
-12.513

>  <SCORE.INTRA.DIHEDRAL.0>
21.6454

>  <SCORE.INTRA.POLAR>
0

>  <SCORE.INTRA.POLAR.0>
0

>  <SCORE.INTRA.REPUL>
0

>  <SCORE.INTRA.REPUL.0>
0

>  <SCORE.INTRA.SOLV>
0.467715

>  <SCORE.INTRA.SOLV.lig_0>
-16.5947

>  <SCORE.INTRA.VDW>
-0.319911

>  <SCORE.INTRA.VDW.0>
-0.691398

>  <SCORE.INTRA.norm>
-0.576595

>  <SCORE.RESTR>
0

>  <SCORE.RESTR.CAVITY>
0

>  <SCORE.RESTR.norm>
0

>  <SCORE.SYSTEM>
0

>  <SCORE.SYSTEM.CONST>
0

>  <SCORE.SYSTEM.DIHEDRAL>
0

>  <SCORE.SYSTEM.SOLV>
0

>  <SCORE.SYSTEM.norm>
0

>  <SCORE.heavy>
11

>  <SCORE.norm>
-1.98525

>  <RMSD>
4.714

$$$$
1akx_lig
 OpenBabel11021811383D
libRbt.so/2013.1/901 2013/11/27
 11 10  0  0  0  0  0  0  0  0999 V2000
   -6.2308   -3.4074    0.6827 N   0  0  0  0  0  0  0  0  0  0  0  0
   -6.1211   -4.2625   -0.5358 C   0  0  2  0  0  0  0  0  0  0  0  0
   -6.3636   -5.7286   -0.1558 C   0  0  0  0  0  0  0  0  0  0  0  0
   -7.4837   -6.1213    0.1035 O   0  0  0  0  0  0  0  0  0  0  0  0
   -4.7213   -4.1115   -1.1468 C   0  0  0  0  0  0  0  0  0  0  0  0
   -4.5910   -2.7349   -1.8065 C   0  0  0  0  0  0  0  0  0  0  0  0
   -3.1737   -2.5623   -2.3527 C   0  0  0  0  0  0  0  0  0  0  0  0
   -2.2505   -2.2184   -1.2339 N   0  0  0  0  0  0  0  0  0  0  0  0
   -1.0241   -2.6748   -1.2268 C   0  0  0  0  0  0  0  0  0  0  0  0
   -0.5744   -3.3402   -0.1942 N   0  0  0  0  0  0  0  0  0  0  0  0
   -0.2486   -2.4703   -2.2578 N   0  0  0  0  0  0  0  0  0  0  0  0
  2  1  1  1  0  0  0
  2  3  1  0  0  0  0
  2  5  1  0  0  0  0
  3  4  1  0  0  0  0
  5  6  1  0  0  0  0
  6  7  1  0  0  0  0
  7  8  1  0  0  0  0
  8  9  1  0  0  0  0
  9 10  1  0  0  0  0
  9 11  1  0  0  0  0
M  END
>  <CHROM.1>
-38.99322899,73.82332354,-72.25734558,177.22089765,-78.70663040,144.13924055
-125.57669480,-175.35929781,170.82056207,-3.88138272,-3.60094355,-0.87830114
2.69184096,0.10698849,2.38409869

>  <Name>
1akx_lig

>  <RI>
0

>  <Rbt.Current_Directory>
/home/itssahil/PROJECTS/Mol_Feturizer/New_Systems/rnas/1akx

>  <Rbt.Executable>
rbdock ($Id: //depot/dev/client3/rdock/2013.1/src/exe/rbdock.cxx#4 $)

>  <Rbt.Library>
libRbt.so (2013.1, Build901 2013/11/27)

>  <Rbt.Parameter_File>
/export/apps/rDock/src/rDock_2013.1_src/data/scripts/dock_solv.prm

>  <Rbt.Receptor>
prm/pocket_docking_7.prm

>  <SCORE>
-26.0521

>  <SCORE.INTER>
-19.4741

>  <SCORE.INTER.CONST>
1

>  <SCORE.INTER.POLAR>
-3.23248

>  <SCORE.INTER.ROT>
8

>  <SCORE.INTER.SOLV>
6.66336

>  <SCORE.INTER.VDW>
-13.3623

>  <SCORE.INTER.norm>
-1.77038

>  <SCORE.INTRA>
-6.61475

>  <SCORE.INTRA.DIHEDRAL>
-13.362

>  <SCORE.INTRA.DIHEDRAL.0>
21.6454

>  <SCORE.INTRA.POLAR>
0

>  <SCORE.INTRA.POLAR.0>
0

>  <SCORE.INTRA.REPUL>
0

>  <SCORE.INTRA.REPUL.0>
0

>  <SCORE.INTRA.SOLV>
0.32243

>  <SCORE.INTRA.SOLV.lig_0>
-16.5947

>  <SCORE.INTRA.VDW>
-0.094983

>  <SCORE.INTRA.VDW.0>
-0.691398

>  <SCORE.INTRA.norm>
-0.601341

>  <SCORE.RESTR>
0.0368218

>  <SCORE.RESTR.CAVITY>
0.0368218

>  <SCORE.RESTR.norm>
0.00334744

>  <SCORE.SYSTEM>
0

>  <SCORE.SYSTEM.CONST>
0

>  <SCORE.SYSTEM.DIHEDRAL>
0

>  <SCORE.SYSTEM.SOLV>
0

>  <SCORE.SYSTEM.norm>
0

>  <SCORE.heavy>
11

>  <SCORE.norm>
-2.36837

>  <RMSD>
4.715

$$$$
1akx_lig
 OpenBabel11021811383D
libRbt.so/2013.1/901 2013/11/27
 11 10  0  0  0  0  0  0  0  0999 V2000
   -7.4018   -4.0398    1.1263 N   0  0  0  0  0  0  0  0  0  0  0  0
   -6.8657   -4.0266   -0.2668 C   0  0  2  0  0  0  0  0  0  0  0  0
   -6.8925   -5.4494   -0.8391 C   0  0  0  0  0  0  0  0  0  0  0  0
   -6.5894   -5.6539   -1.9977 O   0  0  0  0  0  0  0  0  0  0  0  0
   -5.4243   -3.4996   -0.2590 C   0  0  0  0  0  0  0  0  0  0  0  0
   -4.9754   -3.2007   -1.6930 C   0  0  0  0  0  0  0  0  0  0  0  0
   -3.5522   -2.6430   -1.6771 C   0  0  0  0  0  0  0  0  0  0  0  0
   -3.0948   -2.4138   -3.0773 N   0  0  0  0  0  0  0  0  0  0  0  0
   -2.0904   -3.0976   -3.5632 C   0  0  0  0  0  0  0  0  0  0  0  0
   -1.9037   -3.1658   -4.8562 N   0  0  0  0  0  0  0  0  0  0  0  0
   -1.2680   -3.7088   -2.7534 N   0  0  0  0  0  0  0  0  0  0  0  0
  2  1  1  1  0  0  0
  2  3  1  0  0  0  0
  2  5  1  0  0  0  0
  3  4  1  0  0  0  0
  5  6  1  0  0  0  0
  6  7  1  0  0  0  0
  7  8  1  0  0  0  0
  8  9  1  0  0  0  0
  9 10  1  0  0  0  0
  9 11  1  0  0  0  0
M  END
>  <CHROM.1>
53.03509521,174.66670093,-167.94580472,178.58349476,177.34534330,-115.65764797
162.15888042,5.98041562,101.41807434,-4.54774236,-3.73381962,-1.80852873
-2.83104116,-0.58848303,-2.23745778

>  <Name>
1akx_lig

>  <RI>
0

>  <Rbt.Current_Directory>
/home/itssahil/PROJECTS/Mol_Feturizer/New_Systems/rnas/1akx

>  <Rbt.Executable>
rbdock ($Id: //depot/dev/client3/rdock/2013.1/src/exe/rbdock.cxx#4 $)

>  <Rbt.Library>
libRbt.so (2013.1, Build901 2013/11/27)

>  <Rbt.Parameter_File>
/export/apps/rDock/src/rDock_2013.1_src/data/scripts/dock_solv.prm

>  <Rbt.Receptor>
prm/pocket_docking_5.prm

>  <SCORE>
-31.1319

>  <SCORE.INTER>
-24.3565

>  <SCORE.INTER.CONST>
1

>  <SCORE.INTER.POLAR>
-3.1262

>  <SCORE.INTER.ROT>
8

>  <SCORE.INTER.SOLV>
9.25527

>  <SCORE.INTER.VDW>
-17.8354

>  <SCORE.INTER.norm>
-2.21423

>  <SCORE.INTRA>
-6.77686

>  <SCORE.INTRA.DIHEDRAL>
-16.0254

>  <SCORE.INTRA.DIHEDRAL.0>
21.6454

>  <SCORE.INTRA.POLAR>
0

>  <SCORE.INTRA.POLAR.0>
0

>  <SCORE.INTRA.REPUL>
0

>  <SCORE.INTRA.REPUL.0>
0

>  <SCORE.INTRA.SOLV>
0.181729

>  <SCORE.INTRA.SOLV.lig_0>
-16.5947

>  <SCORE.INTRA.VDW>
1.14497

>  <SCORE.INTRA.VDW.0>
-0.691398

>  <SCORE.INTRA.norm>
-0.616079

>  <SCORE.RESTR>
0.00148365

>  <SCORE.RESTR.CAVITY>
0.00148365

>  <SCORE.RESTR.norm>
0.000134878

>  <SCORE.SYSTEM>
0

>  <SCORE.SYSTEM.CONST>
0

>  <SCORE.SYSTEM.DIHEDRAL>
0

>  <SCORE.SYSTEM.SOLV>
0

>  <SCORE.SYSTEM.norm>
0

>  <SCORE.heavy>
11

>  <SCORE.norm>
-2.83017

>  <RMSD>
4.730

$$$$
1akx_lig
 OpenBabel11021811383D
libRbt.so/2013.1/901 2013/11/27
 11 10  0  0  0  0  0  0  0  0999 V2000
   -5.8129   -3.7952   -3.0686 N   0  0  0  0  0  0  0  0  0  0  0  0
   -5.1039   -4.8914   -2.3449 C   0  0  2  0  0  0  0  0  0  0  0  0
   -6.0477   -6.0890   -2.1785 C   0  0  0  0  0  0  0  0  0  0  0  0
   -5.6337   -7.1445   -1.7418 O   0  0  0  0  0  0  0  0  0  0  0  0
   -4.6549   -4.3915   -0.9651 C   0  0  0  0  0  0  0  0  0  0  0  0
   -3.6811   -5.3973   -0.3426 C   0  0  0  0  0  0  0  0  0  0  0  0
   -2.4609   -5.5554   -1.2497 C   0  0  0  0  0  0  0  0  0  0  0  0
   -1.5400   -4.4009   -1.0463 N   0  0  0  0  0  0  0  0  0  0  0  0
   -1.6978   -3.3017   -1.7386 C   0  0  0  0  0  0  0  0  0  0  0  0
   -2.2556   -2.2525   -1.1915 N   0  0  0  0  0  0  0  0  0  0  0  0
   -1.2907   -3.2506   -2.9787 N   0  0  0  0  0  0  0  0  0  0  0  0
  2  1  1  1  0  0  0
  2  3  1  0  0  0  0
  2  5  1  0  0  0  0
  3  4  1  0  0  0  0
  5  6  1  0  0  0  0
  6  7  1  0  0  0  0
  7  8  1  0  0  0  0
  8  9  1  0  0  0  0
  9 10  1  0  0  0  0
  9 11  1  0  0  0  0
M  END
>  <CHROM.1>
-74.64492122,172.20777759,-168.11180132,59.79019123,78.89007216,-87.43274964
102.45418759,-100.77998960,52.30613013,-3.66008586,-4.55476943,-1.74210519
2.68603273,0.34470594,2.65666188

>  <Name>
1akx_lig

>  <RI>
0

>  <Rbt.Current_Directory>
/home/itssahil/PROJECTS/Mol_Feturizer/New_Systems/rnas/1akx

>  <Rbt.Executable>
rbdock ($Id: //depot/dev/client3/rdock/2013.1/src/exe/rbdock.cxx#4 $)

>  <Rbt.Library>
libRbt.so (2013.1, Build901 2013/11/27)

>  <Rbt.Parameter_File>
/export/apps/rDock/src/rDock_2013.1_src/data/scripts/dock_solv.prm

>  <Rbt.Receptor>
prm/pocket_docking_6.prm

>  <SCORE>
-24.596

>  <SCORE.INTER>
-18.8133

>  <SCORE.INTER.CONST>
1

>  <SCORE.INTER.POLAR>
-3.38905

>  <SCORE.INTER.ROT>
8

>  <SCORE.INTER.SOLV>
6.44644

>  <SCORE.INTER.VDW>
-12.3275

>  <SCORE.INTER.norm>
-1.7103

>  <SCORE.INTRA>
-5.78275

>  <SCORE.INTRA.DIHEDRAL>
-14.3256

>  <SCORE.INTRA.DIHEDRAL.0>
21.6454

>  <SCORE.INTRA.POLAR>
0

>  <SCORE.INTRA.POLAR.0>
0

>  <SCORE.INTRA.REPUL>
0

>  <SCORE.INTRA.REPUL.0>
0

>  <SCORE.INTRA.SOLV>
1.28723

>  <SCORE.INTRA.SOLV.lig_0>
-16.5947

>  <SCORE.INTRA.VDW>
0.73645

>  <SCORE.INTRA.VDW.0>
-0.691398

>  <SCORE.INTRA.norm>
-0.525704

>  <SCORE.RESTR>
0

>  <SCORE.RESTR.CAVITY>
0

>  <SCORE.RESTR.norm>
0

>  <SCORE.SYSTEM>
0

>  <SCORE.SYSTEM.CONST>
0

>  <SCORE.SYSTEM.DIHEDRAL>
0

>  <SCORE.SYSTEM.SOLV>
0

>  <SCORE.SYSTEM.norm>
0

>  <SCORE.heavy>
11

>  <SCORE.norm>
-2.236

>  <RMSD>
4.741

$$$$
1akx_lig
 OpenBabel11021811383D
libRbt.so/2013.1/901 2013/11/27
 11 10  0  0  0  0  0  0  0  0999 V2000
   -5.8474   -3.9061   -3.0414 N   0  0  0  0  0  0  0  0  0  0  0  0
   -5.2238   -5.1190   -2.4346 C   0  0  2  0  0  0  0  0  0  0  0  0
   -6.2558   -5.8420   -1.5599 C   0  0  0  0  0  0  0  0  0  0  0  0
   -5.9750   -6.8902   -1.0135 O   0  0  0  0  0  0  0  0  0  0  0  0
   -4.0194   -4.7053   -1.5781 C   0  0  0  0  0  0  0  0  0  0  0  0
   -4.4792   -3.7644   -0.4598 C   0  0  0  0  0  0  0  0  0  0  0  0
   -3.2782   -3.3641    0.3971 C   0  0  0  0  0  0  0  0  0  0  0  0
   -2.5406   -2.2548   -0.2719 N   0  0  0  0  0  0  0  0  0  0  0  0
   -1.5821   -2.5191   -1.1228 C   0  0  0  0  0  0  0  0  0  0  0  0
   -0.4141   -2.9242   -0.6950 N   0  0  0  0  0  0  0  0  0  0  0  0
   -1.7952   -2.3838   -2.4043 N   0  0  0  0  0  0  0  0  0  0  0  0
  2  1  1  1  0  0  0
  2  3  1  0  0  0  0
  2  5  1  0  0  0  0
  3  4  1  0  0  0  0
  5  6  1  0  0  0  0
  6  7  1  0  0  0  0
  7  8  1  0  0  0  0
  8  9  1  0  0  0  0
  9 10  1  0  0  0  0
  9 11  1  0  0  0  0
M  END
>  <CHROM.1>
6.62363829,176.87449826,60.18364107,179.54795971,81.58948383,-89.34924498
-75.30070453,84.89731429,128.97642755,-3.76124066,-3.95387490,-1.31816939
3.01818910,0.61570906,2.04566663

>  <Name>
1akx_lig

>  <RI>
0

>  <Rbt.Current_Directory>
/home/itssahil/PROJECTS/Mol_Feturizer/New_Systems/rnas/1akx

>  <Rbt.Executable>
rbdock ($Id: //depot/dev/client3/rdock/2013.1/src/exe/rbdock.cxx#4 $)

>  <Rbt.Library>
libRbt.so (2013.1, Build901 2013/11/27)

>  <Rbt.Parameter_File>
/export/apps/rDock/src/rDock_2013.1_src/data/scripts/dock_solv.prm

>  <Rbt.Receptor>
prm/pocket_docking_8.prm

>  <SCORE>
-25.2318

>  <SCORE.INTER>
-21.9085

>  <SCORE.INTER.CONST>
1

>  <SCORE.INTER.POLAR>
-3.84449

>  <SCORE.INTER.ROT>
8

>  <SCORE.INTER.SOLV>
7.0173

>  <SCORE.INTER.VDW>
-13.0631

>  <SCORE.INTER.norm>
-1.99168

>  <SCORE.INTRA>
-3.32337

>  <SCORE.INTRA.DIHEDRAL>
-11.7309

>  <SCORE.INTRA.DIHEDRAL.0>
21.6454

>  <SCORE.INTRA.POLAR>
0

>  <SCORE.INTRA.POLAR.0>
0

>  <SCORE.INTRA.REPUL>
0.00571488

>  <SCORE.INTRA.REPUL.0>
0

>  <SCORE.INTRA.SOLV>
0.858292

>  <SCORE.INTRA.SOLV.lig_0>
-16.5947

>  <SCORE.INTRA.VDW>
2.08435

>  <SCORE.INTRA.VDW.0>
-0.691398

>  <SCORE.INTRA.norm>
-0.302124

>  <SCORE.RESTR>
0

>  <SCORE.RESTR.CAVITY>
0

>  <SCORE.RESTR.norm>
0

>  <SCORE.SYSTEM>
0

>  <SCORE.SYSTEM.CONST>
0

>  <SCORE.SYSTEM.DIHEDRAL>
0

>  <SCORE.SYSTEM.SOLV>
0

>  <SCORE.SYSTEM.norm>
0

>  <SCORE.heavy>
11

>  <SCORE.norm>
-2.2938

>  <RMSD>
4.741

$$$$
1akx_lig
 OpenBabel11021811383D
libRbt.so/2013.1/901 2013/11/27
 11 10  0  0  0  0  0  0  0  0999 V2000
   -7.0651   -3.5679    2.2396 N   0  0  0  0  0  0  0  0  0  0  0  0
   -7.2338   -4.0634    0.8417 C   0  0  2  0  0  0  0  0  0  0  0  0
   -7.6650   -5.5351    0.8688 C   0  0  0  0  0  0  0  0  0  0  0  0
   -7.8691   -6.1371   -0.1666 O   0  0  0  0  0  0  0  0  0  0  0  0
   -5.9065   -3.9275    0.0833 C   0  0  0  0  0  0  0  0  0  0  0  0
   -6.1489   -4.1060   -1.4189 C   0  0  0  0  0  0  0  0  0  0  0  0
   -4.8099   -4.2822   -2.1351 C   0  0  0  0  0  0  0  0  0  0  0  0
   -4.1618   -2.9509   -2.3073 N   0  0  0  0  0  0  0  0  0  0  0  0
   -3.4044   -2.7158   -3.3482 C   0  0  0  0  0  0  0  0  0  0  0  0
   -3.9414   -2.3636   -4.4880 N   0  0  0  0  0  0  0  0  0  0  0  0
   -2.1070   -2.8273   -3.2465 N   0  0  0  0  0  0  0  0  0  0  0  0
  2  1  1  1  0  0  0
  2  3  1  0  0  0  0
  2  5  1  0  0  0  0
  3  4  1  0  0  0  0
  5  6  1  0  0  0  0
  6  7  1  0  0  0  0
  7  8  1  0  0  0  0
  8  9  1  0  0  0  0
  9 10  1  0  0  0  0
  9 11  1  0  0  0  0
M  END
>  <CHROM.1>
-174.67167061,179.46942452,-166.31063606,-167.46281907,-78.94043039,-148.08496395
82.97082403,-39.89255996,-129.26769630,-5.47133547,-3.84526314,-1.17948735
-2.60705890,-0.73493374,-1.99479130

>  <Name>
1akx_lig

>  <RI>
0

>  <Rbt.Current_Directory>
/home/itssahil/PROJECTS/Mol_Feturizer/New_Systems/rnas/1akx

>  <Rbt.Executable>
rbdock ($Id: //depot/dev/client3/rdock/2013.1/src/exe/rbdock.cxx#4 $)

>  <Rbt.Library>
libRbt.so (2013.1, Build901 2013/11/27)

>  <Rbt.Parameter_File>
/export/apps/rDock/src/rDock_2013.1_src/data/scripts/dock_solv.prm

>  <Rbt.Receptor>
prm/pocket_docking_8.prm

>  <SCORE>
-34.0068

>  <SCORE.INTER>
-27.48

>  <SCORE.INTER.CONST>
1

>  <SCORE.INTER.POLAR>
-4.06488

>  <SCORE.INTER.ROT>
8

>  <SCORE.INTER.SOLV>
6.99386

>  <SCORE.INTER.VDW>
-16.035

>  <SCORE.INTER.norm>
-2.49819

>  <SCORE.INTRA>
-6.5268

>  <SCORE.INTRA.DIHEDRAL>
-14.17

>  <SCORE.INTRA.DIHEDRAL.0>
21.6454

>  <SCORE.INTRA.POLAR>
0

>  <SCORE.INTRA.POLAR.0>
0

>  <SCORE.INTRA.REPUL>
0

>  <SCORE.INTRA.REPUL.0>
0

>  <SCORE.INTRA.SOLV>
0.254578

>  <SCORE.INTRA.SOLV.lig_0>
-16.5947

>  <SCORE.INTRA.VDW>
0.430912

>  <SCORE.INTRA.VDW.0>
-0.691398

>  <SCORE.INTRA.norm>
-0.593345

>  <SCORE.RESTR>
0

>  <SCORE.RESTR.CAVITY>
0

>  <SCORE.RESTR.norm>
0

>  <SCORE.SYSTEM>
0

>  <SCORE.SYSTEM.CONST>
0

>  <SCORE.SYSTEM.DIHEDRAL>
0

>  <SCORE.SYSTEM.SOLV>
0

>  <SCORE.SYSTEM.norm>
0

>  <SCORE.heavy>
11

>  <SCORE.norm>
-3.09153

>  <RMSD>
4.751

$$$$
1akx_lig
 OpenBabel11021811383D
libRbt.so/2013.1/901 2013/11/27
 11 10  0  0  0  0  0  0  0  0999 V2000
   -7.0293   -3.8732    2.0102 N   0  0  0  0  0  0  0  0  0  0  0  0
   -7.5941   -4.6865    0.8932 C   0  0  2  0  0  0  0  0  0  0  0  0
   -8.0987   -6.0275    1.4407 C   0  0  0  0  0  0  0  0  0  0  0  0
   -7.3391   -6.7868    2.0087 O   0  0  0  0  0  0  0  0  0  0  0  0
   -6.5089   -4.9348   -0.1632 C   0  0  0  0  0  0  0  0  0  0  0  0
   -6.1246   -3.6104   -0.8308 C   0  0  0  0  0  0  0  0  0  0  0  0
   -4.9773   -3.8473   -1.8129 C   0  0  0  0  0  0  0  0  0  0  0  0
   -4.6115   -2.5586   -2.4668 N   0  0  0  0  0  0  0  0  0  0  0  0
   -3.6201   -2.5099   -3.3195 C   0  0  0  0  0  0  0  0  0  0  0  0
   -3.8553   -2.5395   -4.6061 N   0  0  0  0  0  0  0  0  0  0  0  0
   -2.3917   -2.4250   -2.8839 N   0  0  0  0  0  0  0  0  0  0  0  0
  2  1  1  1  0  0  0
  2  3  1  0  0  0  0
  2  5  1  0  0  0  0
  3  4  1  0  0  0  0
  5  6  1  0  0  0  0
  6  7  1  0  0  0  0
  7  8  1  0  0  0  0
  8  9  1  0  0  0  0
  9 10  1  0  0  0  0
  9 11  1  0  0  0  0
M  END
>  <CHROM.1>
-50.32602379,-59.24820313,-66.53752256,176.14208654,179.65656630,177.81583026
98.77392834,164.68892632,-173.61873639,-5.62410706,-3.96419559,-0.86961864
-2.79395251,-0.93230381,-2.18277806

>  <Name>
1akx_lig

>  <RI>
0

>  <Rbt.Current_Directory>
/home/itssahil/PROJECTS/Mol_Feturizer/New_Systems/rnas/1akx

>  <Rbt.Executable>
rbdock ($Id: //depot/dev/client3/rdock/2013.1/src/exe/rbdock.cxx#4 $)

>  <Rbt.Library>
libRbt.so (2013.1, Build901 2013/11/27)

>  <Rbt.Parameter_File>
/export/apps/rDock/src/rDock_2013.1_src/data/scripts/dock_solv.prm

>  <Rbt.Receptor>
prm/pocket_docking_8.prm

>  <SCORE>
-35.5245

>  <SCORE.INTER>
-27.5018

>  <SCORE.INTER.CONST>
1

>  <SCORE.INTER.POLAR>
-4.15751

>  <SCORE.INTER.ROT>
8

>  <SCORE.INTER.SOLV>
7.26183

>  <SCORE.INTER.VDW>
-15.8301

>  <SCORE.INTER.norm>
-2.50016

>  <SCORE.INTRA>
-8.02274

>  <SCORE.INTRA.DIHEDRAL>
-16.3845

>  <SCORE.INTRA.DIHEDRAL.0>
21.6454

>  <SCORE.INTRA.POLAR>
0

>  <SCORE.INTRA.POLAR.0>
0

>  <SCORE.INTRA.REPUL>
0

>  <SCORE.INTRA.REPUL.0>
0

>  <SCORE.INTRA.SOLV>
0.262664

>  <SCORE.INTRA.SOLV.lig_0>
-16.5947

>  <SCORE.INTRA.VDW>
0.0381959

>  <SCORE.INTRA.VDW.0>
-0.691398

>  <SCORE.INTRA.norm>
-0.72934

>  <SCORE.RESTR>
0

>  <SCORE.RESTR.CAVITY>
0

>  <SCORE.RESTR.norm>
0

>  <SCORE.SYSTEM>
0

>  <SCORE.SYSTEM.CONST>
0

>  <SCORE.SYSTEM.DIHEDRAL>
0

>  <SCORE.SYSTEM.SOLV>
0

>  <SCORE.SYSTEM.norm>
0

>  <SCORE.heavy>
11

>  <SCORE.norm>
-3.2295

>  <RMSD>
4.760

$$$$
1akx_lig
 OpenBabel11021811383D
libRbt.so/2013.1/901 2013/11/27
 11 10  0  0  0  0  0  0  0  0999 V2000
   -8.5994   -4.3850    0.2444 N   0  0  0  0  0  0  0  0  0  0  0  0
   -7.2389   -4.6326    0.8065 C   0  0  2  0  0  0  0  0  0  0  0  0
   -7.2069   -4.2019    2.2783 C   0  0  0  0  0  0  0  0  0  0  0  0
   -6.2019   -4.3545    2.9438 O   0  0  0  0  0  0  0  0  0  0  0  0
   -6.1993   -3.8317    0.0108 C   0  0  0  0  0  0  0  0  0  0  0  0
   -5.9052   -4.5405   -1.3153 C   0  0  0  0  0  0  0  0  0  0  0  0
   -4.5349   -4.1048   -1.8345 C   0  0  0  0  0  0  0  0  0  0  0  0
   -4.6207   -2.7069   -2.3452 N   0  0  0  0  0  0  0  0  0  0  0  0
   -3.9690   -2.3582   -3.4250 C   0  0  0  0  0  0  0  0  0  0  0  0
   -2.7295   -1.9481   -3.3433 N   0  0  0  0  0  0  0  0  0  0  0  0
   -4.5570   -2.4263   -4.5894 N   0  0  0  0  0  0  0  0  0  0  0  0
  2  1  1  6  0  0  0
  2  3  1  0  0  0  0
  2  5  1  0  0  0  0
  3  4  1  0  0  0  0
  5  6  1  0  0  0  0
  6  7  1  0  0  0  0
  7  8  1  0  0  0  0
  8  9  1  0  0  0  0
  9 10  1  0  0  0  0
  9 11  1  0  0  0  0
M  END
>  <CHROM.1>
-76.72380345,177.75614379,-77.79556723,-157.42201430,-73.04735000,-141.23375881
-87.24841711,-173.77483681,-14.53131298,-5.62902157,-3.56848054,-0.97368962
2.14920769,0.32029488,1.73030133

>  <Name>
1akx_lig

>  <RI>
0

>  <Rbt.Current_Directory>
/home/itssahil/PROJECTS/Mol_Feturizer/New_Systems/rnas/1akx

>  <Rbt.Executable>
rbdock ($Id: //depot/dev/client3/rdock/2013.1/src/exe/rbdock.cxx#4 $)

>  <Rbt.Library>
libRbt.so (2013.1, Build901 2013/11/27)

>  <Rbt.Parameter_File>
/export/apps/rDock/src/rDock_2013.1_src/data/scripts/dock_solv.prm

>  <Rbt.Receptor>
prm/pocket_docking_6.prm

>  <SCORE>
-34.2608

>  <SCORE.INTER>
-28.0093

>  <SCORE.INTER.CONST>
1

>  <SCORE.INTER.POLAR>
-3.69516

>  <SCORE.INTER.ROT>
8

>  <SCORE.INTER.SOLV>
8.56696

>  <SCORE.INTER.VDW>
-18.1446

>  <SCORE.INTER.norm>
-2.5463

>  <SCORE.INTRA>
-6.25148

>  <SCORE.INTRA.DIHEDRAL>
-12.4718

>  <SCORE.INTRA.DIHEDRAL.0>
21.6454

>  <SCORE.INTRA.POLAR>
0

>  <SCORE.INTRA.POLAR.0>
0

>  <SCORE.INTRA.REPUL>
0

>  <SCORE.INTRA.REPUL.0>
0

>  <SCORE.INTRA.SOLV>
0.124303

>  <SCORE.INTRA.SOLV.lig_0>
-16.5947

>  <SCORE.INTRA.VDW>
-0.0777559

>  <SCORE.INTRA.VDW.0>
-0.691398

>  <SCORE.INTRA.norm>
-0.568317

>  <SCORE.RESTR>
0

>  <SCORE.RESTR.CAVITY>
0

>  <SCORE.RESTR.norm>
0

>  <SCORE.SYSTEM>
0

>  <SCORE.SYSTEM.CONST>
0

>  <SCORE.SYSTEM.DIHEDRAL>
0

>  <SCORE.SYSTEM.SOLV>
0

>  <SCORE.SYSTEM.norm>
0

>  <SCORE.heavy>
11

>  <SCORE.norm>
-3.11461

>  <RMSD>
4.762

$$$$
1akx_lig
 OpenBabel11021811383D
libRbt.so/2013.1/901 2013/11/27
 11 10  0  0  0  0  0  0  0  0999 V2000
   -6.8461   -5.5432   -0.8599 N   0  0  0  0  0  0  0  0  0  0  0  0
   -6.5205   -4.7118    0.3363 C   0  0  2  0  0  0  0  0  0  0  0  0
   -7.8194   -4.2151    0.9834 C   0  0  0  0  0  0  0  0  0  0  0  0
   -8.5746   -4.9955    1.5283 O   0  0  0  0  0  0  0  0  0  0  0  0
   -5.6627   -3.5120   -0.0883 C   0  0  0  0  0  0  0  0  0  0  0  0
   -4.2428   -3.9830   -0.4192 C   0  0  0  0  0  0  0  0  0  0  0  0
   -3.4334   -2.8123   -0.9770 C   0  0  0  0  0  0  0  0  0  0  0  0
   -4.0214   -2.3786   -2.2764 N   0  0  0  0  0  0  0  0  0  0  0  0
   -3.3520   -2.5385   -3.3893 C   0  0  0  0  0  0  0  0  0  0  0  0
   -2.0947   -2.8986   -3.3563 N   0  0  0  0  0  0  0  0  0  0  0  0
   -3.9437   -2.3438   -4.5373 N   0  0  0  0  0  0  0  0  0  0  0  0
  2  1  1  6  0  0  0
  2  3  1  0  0  0  0
  2  5  1  0  0  0  0
  3  4  1  0  0  0  0
  5  6  1  0  0  0  0
  6  7  1  0  0  0  0
  7  8  1  0  0  0  0
  8  9  1  0  0  0  0
  9 10  1  0  0  0  0
  9 11  1  0  0  0  0
M  END
>  <CHROM.1>
-58.38486988,68.06915507,-73.26472489,174.26122515,-64.85758691,-113.15219637
-9.85121209,-109.56130665,121.06308661,-5.15818703,-3.65173267,-1.22877602
2.40874765,0.37951498,1.67661030

>  <Name>
1akx_lig

>  <RI>
0

>  <Rbt.Current_Directory>
/home/afrankz/demos/rdock_decoys_rna/rnas/1akx

>  <Rbt.Executable>
rbdock ($Id: //depot/dev/client3/rdock/2013.1/src/exe/rbdock.cxx#4 $)

>  <Rbt.Library>
libRbt.so (2013.1, Build901 2013/11/27)

>  <Rbt.Parameter_File>
/export/apps/rDock/src/rDock_2013.1_src/data/scripts/dock_solv.prm

>  <Rbt.Receptor>
prm/pocket_docking_6.prm

>  <SCORE>
-34.9518

>  <SCORE.INTER>
-27.6844

>  <SCORE.INTER.CONST>
1

>  <SCORE.INTER.POLAR>
-4.17509

>  <SCORE.INTER.ROT>
8

>  <SCORE.INTER.SOLV>
6.98312

>  <SCORE.INTER.VDW>
-15.8003

>  <SCORE.INTER.norm>
-2.51676

>  <SCORE.INTRA>
-7.26759

>  <SCORE.INTRA.DIHEDRAL>
-15.6981

>  <SCORE.INTRA.DIHEDRAL.0>
21.6454

>  <SCORE.INTRA.POLAR>
0

>  <SCORE.INTRA.POLAR.0>
0

>  <SCORE.INTRA.REPUL>
0

>  <SCORE.INTRA.REPUL.0>
0

>  <SCORE.INTRA.SOLV>
0.424384

>  <SCORE.INTRA.SOLV.lig_0>
-16.5947

>  <SCORE.INTRA.VDW>
0.369283

>  <SCORE.INTRA.VDW.0>
-0.691398

>  <SCORE.INTRA.norm>
-0.66069

>  <SCORE.RESTR>
0.00016732

>  <SCORE.RESTR.CAVITY>
0.00016732

>  <SCORE.RESTR.norm>
1.52109e-05

>  <SCORE.SYSTEM>
0

>  <SCORE.SYSTEM.CONST>
0

>  <SCORE.SYSTEM.DIHEDRAL>
0

>  <SCORE.SYSTEM.SOLV>
0

>  <SCORE.SYSTEM.norm>
0

>  <SCORE.heavy>
11

>  <SCORE.norm>
-3.17744

>  <RMSD>
4.771

>  <RMSD>
4.771

$$$$
1akx_lig
 OpenBabel11021811383D
libRbt.so/2013.1/901 2013/11/27
 11 10  0  0  0  0  0  0  0  0999 V2000
   -6.8461   -5.5432   -0.8599 N   0  0  0  0  0  0  0  0  0  0  0  0
   -6.5205   -4.7118    0.3363 C   0  0  2  0  0  0  0  0  0  0  0  0
   -7.8194   -4.2151    0.9834 C   0  0  0  0  0  0  0  0  0  0  0  0
   -8.5746   -4.9955    1.5283 O   0  0  0  0  0  0  0  0  0  0  0  0
   -5.6627   -3.5120   -0.0883 C   0  0  0  0  0  0  0  0  0  0  0  0
   -4.2428   -3.9830   -0.4192 C   0  0  0  0  0  0  0  0  0  0  0  0
   -3.4334   -2.8123   -0.9770 C   0  0  0  0  0  0  0  0  0  0  0  0
   -4.0214   -2.3786   -2.2764 N   0  0  0  0  0  0  0  0  0  0  0  0
   -3.3520   -2.5385   -3.3893 C   0  0  0  0  0  0  0  0  0  0  0  0
   -2.0947   -2.8986   -3.3563 N   0  0  0  0  0  0  0  0  0  0  0  0
   -3.9437   -2.3438   -4.5373 N   0  0  0  0  0  0  0  0  0  0  0  0
  2  1  1  6  0  0  0
  2  3  1  0  0  0  0
  2  5  1  0  0  0  0
  3  4  1  0  0  0  0
  5  6  1  0  0  0  0
  6  7  1  0  0  0  0
  7  8  1  0  0  0  0
  8  9  1  0  0  0  0
  9 10  1  0  0  0  0
  9 11  1  0  0  0  0
M  END
>  <CHROM.1>
-58.38486988,68.06915507,-73.26472489,174.26122515,-64.85758691,-113.15219637
-9.85121209,-109.56130665,121.06308661,-5.15818703,-3.65173267,-1.22877602
2.40874765,0.37951498,1.67661030

>  <Name>
1akx_lig

>  <RI>
0

>  <Rbt.Current_Directory>
/home/afrankz/demos/rdock_decoys_rna/rnas/1akx

>  <Rbt.Executable>
rbdock ($Id: //depot/dev/client3/rdock/2013.1/src/exe/rbdock.cxx#4 $)

>  <Rbt.Library>
libRbt.so (2013.1, Build901 2013/11/27)

>  <Rbt.Parameter_File>
/export/apps/rDock/src/rDock_2013.1_src/data/scripts/dock_solv.prm

>  <Rbt.Receptor>
prm/pocket_docking_6.prm

>  <SCORE>
-34.9518

>  <SCORE.INTER>
-27.6844

>  <SCORE.INTER.CONST>
1

>  <SCORE.INTER.POLAR>
-4.17509

>  <SCORE.INTER.ROT>
8

>  <SCORE.INTER.SOLV>
6.98312

>  <SCORE.INTER.VDW>
-15.8003

>  <SCORE.INTER.norm>
-2.51676

>  <SCORE.INTRA>
-7.26759

>  <SCORE.INTRA.DIHEDRAL>
-15.6981

>  <SCORE.INTRA.DIHEDRAL.0>
21.6454

>  <SCORE.INTRA.POLAR>
0

>  <SCORE.INTRA.POLAR.0>
0

>  <SCORE.INTRA.REPUL>
0

>  <SCORE.INTRA.REPUL.0>
0

>  <SCORE.INTRA.SOLV>
0.424384

>  <SCORE.INTRA.SOLV.lig_0>
-16.5947

>  <SCORE.INTRA.VDW>
0.369283

>  <SCORE.INTRA.VDW.0>
-0.691398

>  <SCORE.INTRA.norm>
-0.66069

>  <SCORE.RESTR>
0.00016732

>  <SCORE.RESTR.CAVITY>
0.00016732

>  <SCORE.RESTR.norm>
1.52109e-05

>  <SCORE.SYSTEM>
0

>  <SCORE.SYSTEM.CONST>
0

>  <SCORE.SYSTEM.DIHEDRAL>
0

>  <SCORE.SYSTEM.SOLV>
0

>  <SCORE.SYSTEM.norm>
0

>  <SCORE.heavy>
11

>  <SCORE.norm>
-3.17744

>  <RMSD>
4.771

>  <RMSD>
4.771

$$$$
1akx_lig
 OpenBabel11021811383D
libRbt.so/2013.1/901 2013/11/27
 11 10  0  0  0  0  0  0  0  0999 V2000
   -8.3238   -4.3487    0.0977 N   0  0  0  0  0  0  0  0  0  0  0  0
   -6.8343   -4.2676    0.1529 C   0  0  2  0  0  0  0  0  0  0  0  0
   -6.3945   -3.8912    1.5733 C   0  0  0  0  0  0  0  0  0  0  0  0
   -6.6436   -4.6233    2.5104 O   0  0  0  0  0  0  0  0  0  0  0  0
   -6.3390   -3.2071   -0.8397 C   0  0  0  0  0  0  0  0  0  0  0  0
   -4.8202   -3.3228   -1.0046 C   0  0  0  0  0  0  0  0  0  0  0  0
   -4.4645   -3.3002   -2.4912 C   0  0  0  0  0  0  0  0  0  0  0  0
   -3.0664   -3.7844   -2.6730 N   0  0  0  0  0  0  0  0  0  0  0  0
   -2.1816   -3.0332   -3.2773 C   0  0  0  0  0  0  0  0  0  0  0  0
   -2.0198   -3.1176   -4.5727 N   0  0  0  0  0  0  0  0  0  0  0  0
   -1.4621   -2.1915   -2.5846 N   0  0  0  0  0  0  0  0  0  0  0  0
  2  1  1  1  0  0  0
  2  3  1  0  0  0  0
  2  5  1  0  0  0  0
  3  4  1  0  0  0  0
  5  6  1  0  0  0  0
  6  7  1  0  0  0  0
  7  8  1  0  0  0  0
  8  9  1  0  0  0  0
  9 10  1  0  0  0  0
  9 11  1  0  0  0  0
M  END
>  <CHROM.1>
-67.19562369,62.25083129,-168.14664472,132.68447643,-164.43062148,-123.31880957
-90.29454469,81.76198619,179.30891489,-4.78452428,-3.56143755,-1.18696923
2.41019156,0.20452595,1.62818630

>  <Name>
1akx_lig

>  <RI>
0

>  <Rbt.Current_Directory>
/home/itssahil/PROJECTS/Mol_Feturizer/New_Systems/rnas/1akx

>  <Rbt.Executable>
rbdock ($Id: //depot/dev/client3/rdock/2013.1/src/exe/rbdock.cxx#4 $)

>  <Rbt.Library>
libRbt.so (2013.1, Build901 2013/11/27)

>  <Rbt.Parameter_File>
/export/apps/rDock/src/rDock_2013.1_src/data/scripts/dock_solv.prm

>  <Rbt.Receptor>
prm/pocket_docking_6.prm

>  <SCORE>
-31.4221

>  <SCORE.INTER>
-26.6579

>  <SCORE.INTER.CONST>
1

>  <SCORE.INTER.POLAR>
-3.85595

>  <SCORE.INTER.ROT>
8

>  <SCORE.INTER.SOLV>
8.56857

>  <SCORE.INTER.VDW>
-16.7083

>  <SCORE.INTER.norm>
-2.42344

>  <SCORE.INTRA>
-4.7642

>  <SCORE.INTRA.DIHEDRAL>
-9.81635

>  <SCORE.INTRA.DIHEDRAL.0>
21.6454

>  <SCORE.INTRA.POLAR>
0

>  <SCORE.INTRA.POLAR.0>
0

>  <SCORE.INTRA.REPUL>
0

>  <SCORE.INTRA.REPUL.0>
0

>  <SCORE.INTRA.SOLV>
0.166527

>  <SCORE.INTRA.SOLV.lig_0>
-16.5947

>  <SCORE.INTRA.VDW>
0.0607089

>  <SCORE.INTRA.VDW.0>
-0.691398

>  <SCORE.INTRA.norm>
-0.433109

>  <SCORE.RESTR>
0

>  <SCORE.RESTR.CAVITY>
0

>  <SCORE.RESTR.norm>
0

>  <SCORE.SYSTEM>
0

>  <SCORE.SYSTEM.CONST>
0

>  <SCORE.SYSTEM.DIHEDRAL>
0

>  <SCORE.SYSTEM.SOLV>
0

>  <SCORE.SYSTEM.norm>
0

>  <SCORE.heavy>
11

>  <SCORE.norm>
-2.85655

>  <RMSD>
4.773

$$$$
1akx_lig
 OpenBabel11021811383D
libRbt.so/2013.1/901 2013/11/27
 11 10  0  0  0  0  0  0  0  0999 V2000
   -7.1686   -3.8672    1.1315 N   0  0  0  0  0  0  0  0  0  0  0  0
   -7.1436   -4.4815   -0.2287 C   0  0  2  0  0  0  0  0  0  0  0  0
   -7.4788   -5.9745   -0.1224 C   0  0  0  0  0  0  0  0  0  0  0  0
   -7.5220   -6.6693   -1.1182 O   0  0  0  0  0  0  0  0  0  0  0  0
   -5.7497   -4.3075   -0.8470 C   0  0  0  0  0  0  0  0  0  0  0  0
   -5.5680   -2.8592   -1.3126 C   0  0  0  0  0  0  0  0  0  0  0  0
   -4.0781   -2.5582   -1.4757 C   0  0  0  0  0  0  0  0  0  0  0  0
   -3.5348   -3.3515   -2.6149 N   0  0  0  0  0  0  0  0  0  0  0  0
   -3.2617   -2.7681   -3.7540 C   0  0  0  0  0  0  0  0  0  0  0  0
   -4.1871   -2.0953   -4.3884 N   0  0  0  0  0  0  0  0  0  0  0  0
   -2.0588   -2.8529   -4.2557 N   0  0  0  0  0  0  0  0  0  0  0  0
  2  1  1  1  0  0  0
  2  3  1  0  0  0  0
  2  5  1  0  0  0  0
  3  4  1  0  0  0  0
  5  6  1  0  0  0  0
  6  7  1  0  0  0  0
  7  8  1  0  0  0  0
  8  9  1  0  0  0  0
  9 10  1  0  0  0  0
  9 11  1  0  0  0  0
M  END
>  <CHROM.1>
60.78856491,179.54654726,-75.41051663,160.76734258,67.61712052,105.42859877
-56.22218271,104.96312061,105.55156171,-5.24889828,-3.80217938,-1.73056360
-3.04994839,-0.82741888,-2.41481811

>  <Name>
1akx_lig

>  <RI>
0

>  <Rbt.Current_Directory>
/home/itssahil/PROJECTS/Mol_Feturizer/New_Systems/rnas/1akx

>  <Rbt.Executable>
rbdock ($Id: //depot/dev/client3/rdock/2013.1/src/exe/rbdock.cxx#4 $)

>  <Rbt.Library>
libRbt.so (2013.1, Build901 2013/11/27)

>  <Rbt.Parameter_File>
/export/apps/rDock/src/rDock_2013.1_src/data/scripts/dock_solv.prm

>  <Rbt.Receptor>
prm/pocket_docking_7.prm

>  <SCORE>
-30.1545

>  <SCORE.INTER>
-22.8844

>  <SCORE.INTER.CONST>
1

>  <SCORE.INTER.POLAR>
-3.01216

>  <SCORE.INTER.ROT>
8

>  <SCORE.INTER.SOLV>
7.74095

>  <SCORE.INTER.VDW>
-16.7294

>  <SCORE.INTER.norm>
-2.0804

>  <SCORE.INTRA>
-7.27004

>  <SCORE.INTRA.DIHEDRAL>
-14.2965

>  <SCORE.INTRA.DIHEDRAL.0>
21.6454

>  <SCORE.INTRA.POLAR>
0

>  <SCORE.INTRA.POLAR.0>
0

>  <SCORE.INTRA.REPUL>
0

>  <SCORE.INTRA.REPUL.0>
0

>  <SCORE.INTRA.SOLV>
0.284452

>  <SCORE.INTRA.SOLV.lig_0>
-16.5947

>  <SCORE.INTRA.VDW>
-0.264022

>  <SCORE.INTRA.VDW.0>
-0.691398

>  <SCORE.INTRA.norm>
-0.660913

>  <SCORE.RESTR>
0

>  <SCORE.RESTR.CAVITY>
0

>  <SCORE.RESTR.norm>
0

>  <SCORE.SYSTEM>
0

>  <SCORE.SYSTEM.CONST>
0

>  <SCORE.SYSTEM.DIHEDRAL>
0

>  <SCORE.SYSTEM.SOLV>
0

>  <SCORE.SYSTEM.norm>
0

>  <SCORE.heavy>
11

>  <SCORE.norm>
-2.74132

>  <RMSD>
4.773

$$$$
1akx_lig
 OpenBabel11021811383D
libRbt.so/2013.1/901 2013/11/27
 11 10  0  0  0  0  0  0  0  0999 V2000
   -6.6509   -3.5300   -0.9166 N   0  0  0  0  0  0  0  0  0  0  0  0
   -5.5645   -4.3673   -1.5057 C   0  0  2  0  0  0  0  0  0  0  0  0
   -5.6447   -5.7876   -0.9320 C   0  0  0  0  0  0  0  0  0  0  0  0
   -6.6002   -6.4977   -1.1747 O   0  0  0  0  0  0  0  0  0  0  0  0
   -4.1997   -3.7506   -1.1704 C   0  0  0  0  0  0  0  0  0  0  0  0
   -3.9183   -2.5751   -2.1119 C   0  0  0  0  0  0  0  0  0  0  0  0
   -2.7101   -2.9016   -2.9897 C   0  0  0  0  0  0  0  0  0  0  0  0
   -1.4745   -2.3668   -2.3499 N   0  0  0  0  0  0  0  0  0  0  0  0
   -1.2037   -2.6485   -1.1010 C   0  0  0  0  0  0  0  0  0  0  0  0
   -1.5806   -1.8379   -0.1459 N   0  0  0  0  0  0  0  0  0  0  0  0
   -0.5601   -3.7464   -0.8072 N   0  0  0  0  0  0  0  0  0  0  0  0
  2  1  1  1  0  0  0
  2  3  1  0  0  0  0
  2  5  1  0  0  0  0
  3  4  1  0  0  0  0
  5  6  1  0  0  0  0
  6  7  1  0  0  0  0
  7  8  1  0  0  0  0
  8  9  1  0  0  0  0
  9 10  1  0  0  0  0
  9 11  1  0  0  0  0
M  END
>  <CHROM.1>
46.99358797,65.62552017,-79.11921005,-115.27416391,-93.40584826,51.61986492
-93.29858811,-137.17317091,111.99417794,-3.66399314,-3.63731502,-1.35041880
2.67550527,0.13098954,2.81862752

>  <Name>
1akx_lig

>  <RI>
0

>  <Rbt.Current_Directory>
/home/itssahil/PROJECTS/Mol_Feturizer/New_Systems/rnas/1akx

>  <Rbt.Executable>
rbdock ($Id: //depot/dev/client3/rdock/2013.1/src/exe/rbdock.cxx#4 $)

>  <Rbt.Library>
libRbt.so (2013.1, Build901 2013/11/27)

>  <Rbt.Parameter_File>
/export/apps/rDock/src/rDock_2013.1_src/data/scripts/dock_solv.prm

>  <Rbt.Receptor>
prm/pocket_docking_6.prm

>  <SCORE>
-26.7631

>  <SCORE.INTER>
-24.7232

>  <SCORE.INTER.CONST>
1

>  <SCORE.INTER.POLAR>
-3.51915

>  <SCORE.INTER.ROT>
8

>  <SCORE.INTER.SOLV>
6.58984

>  <SCORE.INTER.VDW>
-15.8816

>  <SCORE.INTER.norm>
-2.24756

>  <SCORE.INTRA>
-2.03993

>  <SCORE.INTRA.DIHEDRAL>
-5.69843

>  <SCORE.INTRA.DIHEDRAL.0>
21.6454

>  <SCORE.INTRA.POLAR>
0

>  <SCORE.INTRA.POLAR.0>
0

>  <SCORE.INTRA.REPUL>
0

>  <SCORE.INTRA.REPUL.0>
0

>  <SCORE.INTRA.SOLV>
0.866943

>  <SCORE.INTRA.SOLV.lig_0>
-16.5947

>  <SCORE.INTRA.VDW>
0.375815

>  <SCORE.INTRA.VDW.0>
-0.691398

>  <SCORE.INTRA.norm>
-0.185448

>  <SCORE.RESTR>
0

>  <SCORE.RESTR.CAVITY>
0

>  <SCORE.RESTR.norm>
0

>  <SCORE.SYSTEM>
0

>  <SCORE.SYSTEM.CONST>
0

>  <SCORE.SYSTEM.DIHEDRAL>
0

>  <SCORE.SYSTEM.SOLV>
0

>  <SCORE.SYSTEM.norm>
0

>  <SCORE.heavy>
11

>  <SCORE.norm>
-2.43301

>  <RMSD>
4.786

$$$$
1akx_lig
 OpenBabel11021811383D
libRbt.so/2013.1/901 2013/11/27
 11 10  0  0  0  0  0  0  0  0999 V2000
   -4.8572   -2.3763    0.7084 N   0  0  0  0  0  0  0  0  0  0  0  0
   -4.9962   -3.0883   -0.5962 C   0  0  2  0  0  0  0  0  0  0  0  0
   -6.0150   -4.2259   -0.4524 C   0  0  0  0  0  0  0  0  0  0  0  0
   -6.2690   -4.9491   -1.3952 O   0  0  0  0  0  0  0  0  0  0  0  0
   -3.6365   -3.6622   -1.0171 C   0  0  0  0  0  0  0  0  0  0  0  0
   -2.7686   -2.5500   -1.6147 C   0  0  0  0  0  0  0  0  0  0  0  0
   -1.2987   -2.9672   -1.5661 C   0  0  0  0  0  0  0  0  0  0  0  0
   -1.1444   -4.3102   -2.1943 N   0  0  0  0  0  0  0  0  0  0  0  0
   -0.6305   -5.3020   -1.5125 C   0  0  0  0  0  0  0  0  0  0  0  0
    0.0389   -5.0690   -0.4130 N   0  0  0  0  0  0  0  0  0  0  0  0
   -0.7925   -6.5294   -1.9286 N   0  0  0  0  0  0  0  0  0  0  0  0
  2  1  1  1  0  0  0
  2  3  1  0  0  0  0
  2  5  1  0  0  0  0
  3  4  1  0  0  0  0
  5  6  1  0  0  0  0
  6  7  1  0  0  0  0
  7  8  1  0  0  0  0
  8  9  1  0  0  0  0
  9 10  1  0  0  0  0
  9 11  1  0  0  0  0
M  END
>  <CHROM.1>
63.64317459,-179.04759913,-78.85431986,159.75626209,52.43718026,-122.15585775
-16.45292403,124.36234326,58.09524419,-2.94482647,-4.11675252,-1.06571412
-2.79528576,-0.10220608,-2.83116440

>  <Name>
1akx_lig

>  <RI>
0

>  <Rbt.Current_Directory>
/home/afrankz/demos/rdock_decoys_rna/rnas/1akx

>  <Rbt.Executable>
rbdock ($Id: //depot/dev/client3/rdock/2013.1/src/exe/rbdock.cxx#4 $)

>  <Rbt.Library>
libRbt.so (2013.1, Build901 2013/11/27)

>  <Rbt.Parameter_File>
/export/apps/rDock/src/rDock_2013.1_src/data/scripts/dock_solv.prm

>  <Rbt.Receptor>
prm/pocket_docking_5.prm

>  <SCORE>
-29.135

>  <SCORE.INTER>
-23.0846

>  <SCORE.INTER.CONST>
1

>  <SCORE.INTER.POLAR>
-4.23749

>  <SCORE.INTER.ROT>
8

>  <SCORE.INTER.SOLV>
6.97054

>  <SCORE.INTER.VDW>
-12.5216

>  <SCORE.INTER.norm>
-2.0986

>  <SCORE.INTRA>
-6.05037

>  <SCORE.INTRA.DIHEDRAL>
-13.7094

>  <SCORE.INTRA.DIHEDRAL.0>
21.6454

>  <SCORE.INTRA.POLAR>
0

>  <SCORE.INTRA.POLAR.0>
0

>  <SCORE.INTRA.REPUL>
0

>  <SCORE.INTRA.REPUL.0>
0

>  <SCORE.INTRA.SOLV>
0.448372

>  <SCORE.INTRA.SOLV.lig_0>
-16.5947

>  <SCORE.INTRA.VDW>
0.580124

>  <SCORE.INTRA.VDW.0>
-0.691398

>  <SCORE.INTRA.norm>
-0.550034

>  <SCORE.RESTR>
0

>  <SCORE.RESTR.CAVITY>
0

>  <SCORE.RESTR.norm>
0

>  <SCORE.SYSTEM>
0

>  <SCORE.SYSTEM.CONST>
0

>  <SCORE.SYSTEM.DIHEDRAL>
0

>  <SCORE.SYSTEM.SOLV>
0

>  <SCORE.SYSTEM.norm>
0

>  <SCORE.heavy>
11

>  <SCORE.norm>
-2.64864

>  <RMSD>
4.787

>  <RMSD>
4.787

$$$$
1akx_lig
 OpenBabel11021811383D
libRbt.so/2013.1/901 2013/11/27
 11 10  0  0  0  0  0  0  0  0999 V2000
   -4.8572   -2.3763    0.7084 N   0  0  0  0  0  0  0  0  0  0  0  0
   -4.9962   -3.0883   -0.5962 C   0  0  2  0  0  0  0  0  0  0  0  0
   -6.0150   -4.2259   -0.4524 C   0  0  0  0  0  0  0  0  0  0  0  0
   -6.2690   -4.9491   -1.3952 O   0  0  0  0  0  0  0  0  0  0  0  0
   -3.6365   -3.6622   -1.0171 C   0  0  0  0  0  0  0  0  0  0  0  0
   -2.7686   -2.5500   -1.6147 C   0  0  0  0  0  0  0  0  0  0  0  0
   -1.2987   -2.9672   -1.5661 C   0  0  0  0  0  0  0  0  0  0  0  0
   -1.1444   -4.3102   -2.1943 N   0  0  0  0  0  0  0  0  0  0  0  0
   -0.6305   -5.3020   -1.5125 C   0  0  0  0  0  0  0  0  0  0  0  0
    0.0389   -5.0690   -0.4130 N   0  0  0  0  0  0  0  0  0  0  0  0
   -0.7925   -6.5294   -1.9286 N   0  0  0  0  0  0  0  0  0  0  0  0
  2  1  1  1  0  0  0
  2  3  1  0  0  0  0
  2  5  1  0  0  0  0
  3  4  1  0  0  0  0
  5  6  1  0  0  0  0
  6  7  1  0  0  0  0
  7  8  1  0  0  0  0
  8  9  1  0  0  0  0
  9 10  1  0  0  0  0
  9 11  1  0  0  0  0
M  END
>  <CHROM.1>
63.64317459,-179.04759913,-78.85431986,159.75626209,52.43718026,-122.15585775
-16.45292403,124.36234326,58.09524419,-2.94482647,-4.11675252,-1.06571412
-2.79528576,-0.10220608,-2.83116440

>  <Name>
1akx_lig

>  <RI>
0

>  <Rbt.Current_Directory>
/home/afrankz/demos/rdock_decoys_rna/rnas/1akx

>  <Rbt.Executable>
rbdock ($Id: //depot/dev/client3/rdock/2013.1/src/exe/rbdock.cxx#4 $)

>  <Rbt.Library>
libRbt.so (2013.1, Build901 2013/11/27)

>  <Rbt.Parameter_File>
/export/apps/rDock/src/rDock_2013.1_src/data/scripts/dock_solv.prm

>  <Rbt.Receptor>
prm/pocket_docking_5.prm

>  <SCORE>
-29.135

>  <SCORE.INTER>
-23.0846

>  <SCORE.INTER.CONST>
1

>  <SCORE.INTER.POLAR>
-4.23749

>  <SCORE.INTER.ROT>
8

>  <SCORE.INTER.SOLV>
6.97054

>  <SCORE.INTER.VDW>
-12.5216

>  <SCORE.INTER.norm>
-2.0986

>  <SCORE.INTRA>
-6.05037

>  <SCORE.INTRA.DIHEDRAL>
-13.7094

>  <SCORE.INTRA.DIHEDRAL.0>
21.6454

>  <SCORE.INTRA.POLAR>
0

>  <SCORE.INTRA.POLAR.0>
0

>  <SCORE.INTRA.REPUL>
0

>  <SCORE.INTRA.REPUL.0>
0

>  <SCORE.INTRA.SOLV>
0.448372

>  <SCORE.INTRA.SOLV.lig_0>
-16.5947

>  <SCORE.INTRA.VDW>
0.580124

>  <SCORE.INTRA.VDW.0>
-0.691398

>  <SCORE.INTRA.norm>
-0.550034

>  <SCORE.RESTR>
0

>  <SCORE.RESTR.CAVITY>
0

>  <SCORE.RESTR.norm>
0

>  <SCORE.SYSTEM>
0

>  <SCORE.SYSTEM.CONST>
0

>  <SCORE.SYSTEM.DIHEDRAL>
0

>  <SCORE.SYSTEM.SOLV>
0

>  <SCORE.SYSTEM.norm>
0

>  <SCORE.heavy>
11

>  <SCORE.norm>
-2.64864

>  <RMSD>
4.787

>  <RMSD>
4.787

$$$$
1akx_lig
 OpenBabel11021811383D
libRbt.so/2013.1/901 2013/11/27
 11 10  0  0  0  0  0  0  0  0999 V2000
   -8.4398   -4.3594    0.2540 N   0  0  0  0  0  0  0  0  0  0  0  0
   -6.9508   -4.4513    0.2029 C   0  0  2  0  0  0  0  0  0  0  0  0
   -6.3769   -4.2492    1.6110 C   0  0  0  0  0  0  0  0  0  0  0  0
   -6.6226   -5.0435    2.4969 O   0  0  0  0  0  0  0  0  0  0  0  0
   -6.4001   -3.3724   -0.7395 C   0  0  0  0  0  0  0  0  0  0  0  0
   -4.9504   -3.7011   -1.1104 C   0  0  0  0  0  0  0  0  0  0  0  0
   -4.4175   -2.6425   -2.0759 C   0  0  0  0  0  0  0  0  0  0  0  0
   -2.9928   -2.9394   -2.3988 N   0  0  0  0  0  0  0  0  0  0  0  0
   -2.0329   -2.4552   -1.6527 C   0  0  0  0  0  0  0  0  0  0  0  0
   -0.8770   -2.1484   -2.1830 N   0  0  0  0  0  0  0  0  0  0  0  0
   -2.2324   -2.2719   -0.3750 N   0  0  0  0  0  0  0  0  0  0  0  0
  2  1  1  1  0  0  0
  2  3  1  0  0  0  0
  2  5  1  0  0  0  0
  3  4  1  0  0  0  0
  5  6  1  0  0  0  0
  6  7  1  0  0  0  0
  7  8  1  0  0  0  0
  8  9  1  0  0  0  0
  9 10  1  0  0  0  0
  9 11  1  0  0  0  0
M  END
>  <CHROM.1>
-71.34687012,64.01762757,-163.93959776,178.62403286,178.10615933,-88.90946025
-147.84199965,-151.72805017,-79.35309319,-4.75930719,-3.42604201,-0.51923653
2.59770721,0.23518676,1.83365790

>  <Name>
1akx_lig

>  <RI>
0

>  <Rbt.Current_Directory>
/home/itssahil/PROJECTS/Mol_Feturizer/New_Systems/rnas/1akx

>  <Rbt.Executable>
rbdock ($Id: //depot/dev/client3/rdock/2013.1/src/exe/rbdock.cxx#4 $)

>  <Rbt.Library>
libRbt.so (2013.1, Build901 2013/11/27)

>  <Rbt.Parameter_File>
/export/apps/rDock/src/rDock_2013.1_src/data/scripts/dock_solv.prm

>  <Rbt.Receptor>
prm/pocket_docking_8.prm

>  <SCORE>
-30.1093

>  <SCORE.INTER>
-23.1016

>  <SCORE.INTER.CONST>
1

>  <SCORE.INTER.POLAR>
-3.34096

>  <SCORE.INTER.ROT>
8

>  <SCORE.INTER.SOLV>
7.0475

>  <SCORE.INTER.VDW>
-15.547

>  <SCORE.INTER.norm>
-2.10014

>  <SCORE.INTRA>
-7.00771

>  <SCORE.INTRA.DIHEDRAL>
-15.4756

>  <SCORE.INTRA.DIHEDRAL.0>
21.6454

>  <SCORE.INTRA.POLAR>
0

>  <SCORE.INTRA.POLAR.0>
0

>  <SCORE.INTRA.REPUL>
0

>  <SCORE.INTRA.REPUL.0>
0

>  <SCORE.INTRA.SOLV>
0.347728

>  <SCORE.INTRA.SOLV.lig_0>
-16.5947

>  <SCORE.INTRA.VDW>
0.55622

>  <SCORE.INTRA.VDW.0>
-0.691398

>  <SCORE.INTRA.norm>
-0.637064

>  <SCORE.RESTR>
0

>  <SCORE.RESTR.CAVITY>
0

>  <SCORE.RESTR.norm>
0

>  <SCORE.SYSTEM>
0

>  <SCORE.SYSTEM.CONST>
0

>  <SCORE.SYSTEM.DIHEDRAL>
0

>  <SCORE.SYSTEM.SOLV>
0

>  <SCORE.SYSTEM.norm>
0

>  <SCORE.heavy>
11

>  <SCORE.norm>
-2.73721

>  <RMSD>
4.804

$$$$
1akx_lig
 OpenBabel11021811383D
libRbt.so/2013.1/901 2013/11/27
 11 10  0  0  0  0  0  0  0  0999 V2000
   -5.8708   -2.8887    0.5620 N   0  0  0  0  0  0  0  0  0  0  0  0
   -6.6821   -3.6899   -0.4013 C   0  0  2  0  0  0  0  0  0  0  0  0
   -7.6133   -4.6314    0.3727 C   0  0  0  0  0  0  0  0  0  0  0  0
   -7.1658   -5.3922    1.2077 O   0  0  0  0  0  0  0  0  0  0  0  0
   -5.7496   -4.5107   -1.3024 C   0  0  0  0  0  0  0  0  0  0  0  0
   -5.1501   -3.6076   -2.3852 C   0  0  0  0  0  0  0  0  0  0  0  0
   -3.8754   -2.9512   -1.8549 C   0  0  0  0  0  0  0  0  0  0  0  0
   -3.0695   -2.4390   -2.9995 N   0  0  0  0  0  0  0  0  0  0  0  0
   -2.0840   -3.1512   -3.4832 C   0  0  0  0  0  0  0  0  0  0  0  0
   -1.8582   -3.1750   -4.7715 N   0  0  0  0  0  0  0  0  0  0  0  0
   -1.3192   -3.8357   -2.6753 N   0  0  0  0  0  0  0  0  0  0  0  0
  2  1  1  1  0  0  0
  2  3  1  0  0  0  0
  2  5  1  0  0  0  0
  3  4  1  0  0  0  0
  5  6  1  0  0  0  0
  6  7  1  0  0  0  0
  7  8  1  0  0  0  0
  8  9  1  0  0  0  0
  9 10  1  0  0  0  0
  9 11  1  0  0  0  0
M  END
>  <CHROM.1>
-59.59010954,-54.02777917,-77.87992530,87.45622098,162.05635673,-96.96447501
142.17978101,-178.02234537,100.63334453,-4.55304188,-3.65409360,-1.59420099
2.88940430,-0.67934809,3.04572958

>  <Name>
1akx_lig

>  <RI>
0

>  <Rbt.Current_Directory>
/home/itssahil/PROJECTS/Mol_Feturizer/New_Systems/rnas/1akx

>  <Rbt.Executable>
rbdock ($Id: //depot/dev/client3/rdock/2013.1/src/exe/rbdock.cxx#4 $)

>  <Rbt.Library>
libRbt.so (2013.1, Build901 2013/11/27)

>  <Rbt.Parameter_File>
/export/apps/rDock/src/rDock_2013.1_src/data/scripts/dock_solv.prm

>  <Rbt.Receptor>
prm/pocket_docking_8.prm

>  <SCORE>
-32.1843

>  <SCORE.INTER>
-27.1878

>  <SCORE.INTER.CONST>
1

>  <SCORE.INTER.POLAR>
-3.5531

>  <SCORE.INTER.ROT>
8

>  <SCORE.INTER.SOLV>
8.84253

>  <SCORE.INTER.VDW>
-18.1624

>  <SCORE.INTER.norm>
-2.47162

>  <SCORE.INTRA>
-4.99652

>  <SCORE.INTRA.DIHEDRAL>
-11.7368

>  <SCORE.INTRA.DIHEDRAL.0>
21.6454

>  <SCORE.INTRA.POLAR>
0

>  <SCORE.INTRA.POLAR.0>
0

>  <SCORE.INTRA.REPUL>
0

>  <SCORE.INTRA.REPUL.0>
0

>  <SCORE.INTRA.SOLV>
0.601332

>  <SCORE.INTRA.SOLV.lig_0>
-16.5947

>  <SCORE.INTRA.VDW>
0.571224

>  <SCORE.INTRA.VDW.0>
-0.691398

>  <SCORE.INTRA.norm>
-0.454229

>  <SCORE.RESTR>
0

>  <SCORE.RESTR.CAVITY>
0

>  <SCORE.RESTR.norm>
0

>  <SCORE.SYSTEM>
0

>  <SCORE.SYSTEM.CONST>
0

>  <SCORE.SYSTEM.DIHEDRAL>
0

>  <SCORE.SYSTEM.SOLV>
0

>  <SCORE.SYSTEM.norm>
0

>  <SCORE.heavy>
11

>  <SCORE.norm>
-2.92585

>  <RMSD>
4.809

$$$$
1akx_lig
 OpenBabel11021811383D
libRbt.so/2013.1/901 2013/11/27
 11 10  0  0  0  0  0  0  0  0999 V2000
   -8.6048   -4.3706    0.2163 N   0  0  0  0  0  0  0  0  0  0  0  0
   -7.1196   -4.5149    0.2534 C   0  0  2  0  0  0  0  0  0  0  0  0
   -6.6248   -4.3460    1.6954 C   0  0  0  0  0  0  0  0  0  0  0  0
   -7.0593   -5.0525    2.5833 O   0  0  0  0  0  0  0  0  0  0  0  0
   -6.4758   -3.4479   -0.6423 C   0  0  0  0  0  0  0  0  0  0  0  0
   -5.0985   -3.9286   -1.1107 C   0  0  0  0  0  0  0  0  0  0  0  0
   -4.4760   -2.8777   -2.0299 C   0  0  0  0  0  0  0  0  0  0  0  0
   -3.1728   -3.3830   -2.5482 N   0  0  0  0  0  0  0  0  0  0  0  0
   -2.7762   -3.0680   -3.7548 C   0  0  0  0  0  0  0  0  0  0  0  0
   -3.6314   -2.6052   -4.6299 N   0  0  0  0  0  0  0  0  0  0  0  0
   -1.5203   -3.2105   -4.0840 N   0  0  0  0  0  0  0  0  0  0  0  0
  2  1  1  1  0  0  0
  2  3  1  0  0  0  0
  2  5  1  0  0  0  0
  3  4  1  0  0  0  0
  5  6  1  0  0  0  0
  6  7  1  0  0  0  0
  7  8  1  0  0  0  0
  8  9  1  0  0  0  0
  9 10  1  0  0  0  0
  9 11  1  0  0  0  0
M  END
>  <CHROM.1>
167.73180257,56.28301083,-155.04041596,178.62431057,-176.66760653,146.07365168
-17.20202728,128.36184509,132.25271253,-5.15752987,-3.71675299,-1.28279769
2.29725685,-0.03970617,1.89817328

>  <Name>
1akx_lig

>  <RI>
0

>  <Rbt.Current_Directory>
/home/itssahil/PROJECTS/Mol_Feturizer/New_Systems/rnas/1akx

>  <Rbt.Executable>
rbdock ($Id: //depot/dev/client3/rdock/2013.1/src/exe/rbdock.cxx#4 $)

>  <Rbt.Library>
libRbt.so (2013.1, Build901 2013/11/27)

>  <Rbt.Parameter_File>
/export/apps/rDock/src/rDock_2013.1_src/data/scripts/dock_solv.prm

>  <Rbt.Receptor>
prm/pocket_docking_7.prm

>  <SCORE>
-35.1417

>  <SCORE.INTER>
-28.8283

>  <SCORE.INTER.CONST>
1

>  <SCORE.INTER.POLAR>
-4.802

>  <SCORE.INTER.ROT>
8

>  <SCORE.INTER.SOLV>
8.20052

>  <SCORE.INTER.VDW>
-14.8791

>  <SCORE.INTER.norm>
-2.62076

>  <SCORE.INTRA>
-6.31332

>  <SCORE.INTRA.DIHEDRAL>
-14.211

>  <SCORE.INTRA.DIHEDRAL.0>
21.6454

>  <SCORE.INTRA.POLAR>
0

>  <SCORE.INTRA.POLAR.0>
0

>  <SCORE.INTRA.REPUL>
0

>  <SCORE.INTRA.REPUL.0>
0

>  <SCORE.INTRA.SOLV>
0.135288

>  <SCORE.INTRA.SOLV.lig_0>
-16.5947

>  <SCORE.INTRA.VDW>
0.724555

>  <SCORE.INTRA.VDW.0>
-0.691398

>  <SCORE.INTRA.norm>
-0.573938

>  <SCORE.RESTR>
0

>  <SCORE.RESTR.CAVITY>
0

>  <SCORE.RESTR.norm>
0

>  <SCORE.SYSTEM>
0

>  <SCORE.SYSTEM.CONST>
0

>  <SCORE.SYSTEM.DIHEDRAL>
0

>  <SCORE.SYSTEM.SOLV>
0

>  <SCORE.SYSTEM.norm>
0

>  <SCORE.heavy>
11

>  <SCORE.norm>
-3.1947

>  <RMSD>
4.811

$$$$
1akx_lig
 OpenBabel11021811383D
libRbt.so/2013.1/901 2013/11/27
 11 10  0  0  0  0  0  0  0  0999 V2000
   -6.9259   -6.0675   -2.5313 N   0  0  0  0  0  0  0  0  0  0  0  0
   -5.9773   -5.6462   -1.4585 C   0  0  2  0  0  0  0  0  0  0  0  0
   -6.7349   -5.5029   -0.1326 C   0  0  0  0  0  0  0  0  0  0  0  0
   -7.2172   -6.4769    0.4104 O   0  0  0  0  0  0  0  0  0  0  0  0
   -5.3367   -4.3035   -1.8356 C   0  0  0  0  0  0  0  0  0  0  0  0
   -4.0742   -4.0795   -0.9970 C   0  0  0  0  0  0  0  0  0  0  0  0
   -3.4810   -2.7087   -1.3228 C   0  0  0  0  0  0  0  0  0  0  0  0
   -3.2368   -2.6112   -2.7901 N   0  0  0  0  0  0  0  0  0  0  0  0
   -2.1627   -3.1417   -3.3166 C   0  0  0  0  0  0  0  0  0  0  0  0
   -1.9587   -3.0738   -4.6070 N   0  0  0  0  0  0  0  0  0  0  0  0
   -1.2883   -3.7356   -2.5493 N   0  0  0  0  0  0  0  0  0  0  0  0
  2  1  1  6  0  0  0
  2  3  1  0  0  0  0
  2  5  1  0  0  0  0
  3  4  1  0  0  0  0
  5  6  1  0  0  0  0
  6  7  1  0  0  0  0
  7  8  1  0  0  0  0
  8  9  1  0  0  0  0
  9 10  1  0  0  0  0
  9 11  1  0  0  0  0
M  END
>  <CHROM.1>
-58.26198874,66.27903101,-162.35378138,-177.02567485,-55.37909072,-81.05656810
178.95128712,18.57028992,-92.75247617,-4.41220781,-4.33125153,-1.95483527
2.76832215,0.58597792,1.45555437

>  <Name>
1akx_lig

>  <RI>
0

>  <Rbt.Current_Directory>
/home/itssahil/PROJECTS/Mol_Feturizer/New_Systems/rnas/1akx

>  <Rbt.Executable>
rbdock ($Id: //depot/dev/client3/rdock/2013.1/src/exe/rbdock.cxx#4 $)

>  <Rbt.Library>
libRbt.so (2013.1, Build901 2013/11/27)

>  <Rbt.Parameter_File>
/export/apps/rDock/src/rDock_2013.1_src/data/scripts/dock_solv.prm

>  <Rbt.Receptor>
prm/pocket_docking_6.prm

>  <SCORE>
-30.7049

>  <SCORE.INTER>
-24.4167

>  <SCORE.INTER.CONST>
1

>  <SCORE.INTER.POLAR>
-3.61144

>  <SCORE.INTER.ROT>
8

>  <SCORE.INTER.SOLV>
7.25101

>  <SCORE.INTER.VDW>
-15.59

>  <SCORE.INTER.norm>
-2.2197

>  <SCORE.INTRA>
-6.28818

>  <SCORE.INTRA.DIHEDRAL>
-15.4087

>  <SCORE.INTRA.DIHEDRAL.0>
21.6454

>  <SCORE.INTRA.POLAR>
0

>  <SCORE.INTRA.POLAR.0>
0

>  <SCORE.INTRA.REPUL>
0

>  <SCORE.INTRA.REPUL.0>
0

>  <SCORE.INTRA.SOLV>
0.6413

>  <SCORE.INTRA.SOLV.lig_0>
-16.5947

>  <SCORE.INTRA.VDW>
1.09552

>  <SCORE.INTRA.VDW.0>
-0.691398

>  <SCORE.INTRA.norm>
-0.571652

>  <SCORE.RESTR>
0

>  <SCORE.RESTR.CAVITY>
0

>  <SCORE.RESTR.norm>
0

>  <SCORE.SYSTEM>
0

>  <SCORE.SYSTEM.CONST>
0

>  <SCORE.SYSTEM.DIHEDRAL>
0

>  <SCORE.SYSTEM.SOLV>
0

>  <SCORE.SYSTEM.norm>
0

>  <SCORE.heavy>
11

>  <SCORE.norm>
-2.79136

>  <RMSD>
4.823

$$$$
1akx_lig
 OpenBabel11021811383D
libRbt.so/2013.1/901 2013/11/27
 11 10  0  0  0  0  0  0  0  0999 V2000
   -6.7096   -5.5158   -1.6893 N   0  0  0  0  0  0  0  0  0  0  0  0
   -5.7754   -4.6608   -0.8991 C   0  0  2  0  0  0  0  0  0  0  0  0
   -6.5549   -3.5032   -0.2629 C   0  0  0  0  0  0  0  0  0  0  0  0
   -7.4364   -3.7230    0.5439 O   0  0  0  0  0  0  0  0  0  0  0  0
   -4.6827   -4.1031   -1.8213 C   0  0  0  0  0  0  0  0  0  0  0  0
   -3.3145   -4.6344   -1.3817 C   0  0  0  0  0  0  0  0  0  0  0  0
   -2.7997   -3.8071   -0.2038 C   0  0  0  0  0  0  0  0  0  0  0  0
   -2.4182   -2.4479   -0.6829 N   0  0  0  0  0  0  0  0  0  0  0  0
   -1.5554   -2.3101   -1.6570 C   0  0  0  0  0  0  0  0  0  0  0  0
   -0.2712   -2.3457   -1.4099 N   0  0  0  0  0  0  0  0  0  0  0  0
   -1.9786   -2.1427   -2.8812 N   0  0  0  0  0  0  0  0  0  0  0  0
  2  1  1  6  0  0  0
  2  3  1  0  0  0  0
  2  5  1  0  0  0  0
  3  4  1  0  0  0  0
  5  6  1  0  0  0  0
  6  7  1  0  0  0  0
  7  8  1  0  0  0  0
  8  9  1  0  0  0  0
  9 10  1  0  0  0  0
  9 11  1  0  0  0  0
M  END
>  <CHROM.1>
51.03036954,62.45503386,-116.73965763,-80.96450946,-70.91143265,-55.47039433
-83.20851807,146.72912280,-172.46597629,-3.97465373,-3.56107942,-1.13860582
-3.08423612,0.38999574,0.93849785

>  <Name>
1akx_lig

>  <RI>
0

>  <Rbt.Current_Directory>
/home/itssahil/PROJECTS/Mol_Feturizer/New_Systems/rnas/1akx

>  <Rbt.Executable>
rbdock ($Id: //depot/dev/client3/rdock/2013.1/src/exe/rbdock.cxx#4 $)

>  <Rbt.Library>
libRbt.so (2013.1, Build901 2013/11/27)

>  <Rbt.Parameter_File>
/export/apps/rDock/src/rDock_2013.1_src/data/scripts/dock_solv.prm

>  <Rbt.Receptor>
prm/pocket_docking_6.prm

>  <SCORE>
-22.9835

>  <SCORE.INTER>
-19.0158

>  <SCORE.INTER.CONST>
1

>  <SCORE.INTER.POLAR>
-2.78679

>  <SCORE.INTER.ROT>
8

>  <SCORE.INTER.SOLV>
8.05495

>  <SCORE.INTER.VDW>
-15.0062

>  <SCORE.INTER.norm>
-1.72871

>  <SCORE.INTRA>
-3.96767

>  <SCORE.INTRA.DIHEDRAL>
-8.68611

>  <SCORE.INTRA.DIHEDRAL.0>
21.6454

>  <SCORE.INTRA.POLAR>
0

>  <SCORE.INTRA.POLAR.0>
0

>  <SCORE.INTRA.REPUL>
0

>  <SCORE.INTRA.REPUL.0>
0

>  <SCORE.INTRA.SOLV>
0.884044

>  <SCORE.INTRA.SOLV.lig_0>
-16.5947

>  <SCORE.INTRA.VDW>
-0.0666353

>  <SCORE.INTRA.VDW.0>
-0.691398

>  <SCORE.INTRA.norm>
-0.360697

>  <SCORE.RESTR>
0

>  <SCORE.RESTR.CAVITY>
0

>  <SCORE.RESTR.norm>
0

>  <SCORE.SYSTEM>
0

>  <SCORE.SYSTEM.CONST>
0

>  <SCORE.SYSTEM.DIHEDRAL>
0

>  <SCORE.SYSTEM.SOLV>
0

>  <SCORE.SYSTEM.norm>
0

>  <SCORE.heavy>
11

>  <SCORE.norm>
-2.08941

>  <RMSD>
4.823

$$$$
1akx_lig
 OpenBabel11021811383D
libRbt.so/2013.1/901 2013/11/27
 11 10  0  0  0  0  0  0  0  0999 V2000
   -6.1416   -4.7793   -3.2277 N   0  0  0  0  0  0  0  0  0  0  0  0
   -5.0894   -4.5008   -2.2062 C   0  0  2  0  0  0  0  0  0  0  0  0
   -5.3909   -5.2974   -0.9305 C   0  0  0  0  0  0  0  0  0  0  0  0
   -4.6989   -5.1623    0.0589 O   0  0  0  0  0  0  0  0  0  0  0  0
   -5.0671   -3.0002   -1.8854 C   0  0  0  0  0  0  0  0  0  0  0  0
   -3.6242   -2.5441   -1.6458 C   0  0  0  0  0  0  0  0  0  0  0  0
   -2.8146   -2.7141   -2.9314 C   0  0  0  0  0  0  0  0  0  0  0  0
   -1.3618   -2.5903   -2.6213 N   0  0  0  0  0  0  0  0  0  0  0  0
   -0.8130   -3.3590   -1.7155 C   0  0  0  0  0  0  0  0  0  0  0  0
   -0.7122   -4.6475   -1.9178 N   0  0  0  0  0  0  0  0  0  0  0  0
   -0.3586   -2.8361   -0.6082 N   0  0  0  0  0  0  0  0  0  0  0  0
  2  1  1  6  0  0  0
  2  3  1  0  0  0  0
  2  5  1  0  0  0  0
  3  4  1  0  0  0  0
  5  6  1  0  0  0  0
  6  7  1  0  0  0  0
  7  8  1  0  0  0  0
  8  9  1  0  0  0  0
  9 10  1  0  0  0  0
  9 11  1  0  0  0  0
M  END
>  <CHROM.1>
-61.39365010,-175.93232157,-143.53171709,63.95691581,-166.40667517,55.45552951
66.89680277,150.76348998,53.21816823,-3.27298803,-3.79314825,-1.78206007
2.98924946,0.26135921,2.24932981

>  <Name>
1akx_lig

>  <RI>
0

>  <Rbt.Current_Directory>
/home/itssahil/PROJECTS/Mol_Feturizer/New_Systems/rnas/1akx

>  <Rbt.Executable>
rbdock ($Id: //depot/dev/client3/rdock/2013.1/src/exe/rbdock.cxx#4 $)

>  <Rbt.Library>
libRbt.so (2013.1, Build901 2013/11/27)

>  <Rbt.Parameter_File>
/export/apps/rDock/src/rDock_2013.1_src/data/scripts/dock_solv.prm

>  <Rbt.Receptor>
prm/pocket_docking_4.prm

>  <SCORE>
-30.2208

>  <SCORE.INTER>
-25.1768

>  <SCORE.INTER.CONST>
1

>  <SCORE.INTER.POLAR>
-3.73727

>  <SCORE.INTER.ROT>
8

>  <SCORE.INTER.SOLV>
8.53399

>  <SCORE.INTER.VDW>
-16.105

>  <SCORE.INTER.norm>
-2.2888

>  <SCORE.INTRA>
-5.04913

>  <SCORE.INTRA.DIHEDRAL>
-12.1283

>  <SCORE.INTRA.DIHEDRAL.0>
21.6454

>  <SCORE.INTRA.POLAR>
0

>  <SCORE.INTRA.POLAR.0>
0

>  <SCORE.INTRA.REPUL>
0

>  <SCORE.INTRA.REPUL.0>
0

>  <SCORE.INTRA.SOLV>
0.56043

>  <SCORE.INTRA.SOLV.lig_0>
-16.5947

>  <SCORE.INTRA.VDW>
0.73481

>  <SCORE.INTRA.VDW.0>
-0.691398

>  <SCORE.INTRA.norm>
-0.459012

>  <SCORE.RESTR>
0.00510883

>  <SCORE.RESTR.CAVITY>
0.00510883

>  <SCORE.RESTR.norm>
0.00046444

>  <SCORE.SYSTEM>
0

>  <SCORE.SYSTEM.CONST>
0

>  <SCORE.SYSTEM.DIHEDRAL>
0

>  <SCORE.SYSTEM.SOLV>
0

>  <SCORE.SYSTEM.norm>
0

>  <SCORE.heavy>
11

>  <SCORE.norm>
-2.74735

>  <RMSD>
4.827

$$$$
1akx_lig
 OpenBabel11021811383D
libRbt.so/2013.1/901 2013/11/27
 11 10  0  0  0  0  0  0  0  0999 V2000
   -2.2129   -2.5283   -3.7244 N   0  0  0  0  0  0  0  0  0  0  0  0
   -2.5629   -2.3377   -2.2859 C   0  0  2  0  0  0  0  0  0  0  0  0
   -1.2997   -2.4829   -1.4281 C   0  0  0  0  0  0  0  0  0  0  0  0
   -0.6381   -3.5010   -1.4720 O   0  0  0  0  0  0  0  0  0  0  0  0
   -3.5980   -3.3892   -1.8639 C   0  0  0  0  0  0  0  0  0  0  0  0
   -4.9987   -2.9344   -2.2864 C   0  0  0  0  0  0  0  0  0  0  0  0
   -6.0333   -3.4905   -1.3080 C   0  0  0  0  0  0  0  0  0  0  0  0
   -5.9145   -2.7778   -0.0041 N   0  0  0  0  0  0  0  0  0  0  0  0
   -5.0296   -3.1629    0.8797 C   0  0  0  0  0  0  0  0  0  0  0  0
   -3.9579   -2.4445    1.0957 N   0  0  0  0  0  0  0  0  0  0  0  0
   -5.2209   -4.2657    1.5530 N   0  0  0  0  0  0  0  0  0  0  0  0
  2  1  1  6  0  0  0
  2  3  1  0  0  0  0
  2  5  1  0  0  0  0
  3  4  1  0  0  0  0
  5  6  1  0  0  0  0
  6  7  1  0  0  0  0
  7  8  1  0  0  0  0
  8  9  1  0  0  0  0
  9 10  1  0  0  0  0
  9 11  1  0  0  0  0
M  END
>  <CHROM.1>
-26.17514622,-57.28775966,-81.78264185,-150.07754188,71.43085946,-83.97201341
107.01556557,17.98845430,-126.74174448,-3.73366199,-3.03301369,-0.98395053
0.70037986,-0.04491995,-1.43987230

>  <Name>
1akx_lig

>  <RI>
0

>  <Rbt.Current_Directory>
/home/itssahil/PROJECTS/Mol_Feturizer/New_Systems/rnas/1akx

>  <Rbt.Executable>
rbdock ($Id: //depot/dev/client3/rdock/2013.1/src/exe/rbdock.cxx#4 $)

>  <Rbt.Library>
libRbt.so (2013.1, Build901 2013/11/27)

>  <Rbt.Parameter_File>
/export/apps/rDock/src/rDock_2013.1_src/data/scripts/dock_solv.prm

>  <Rbt.Receptor>
prm/pocket_docking_4.prm

>  <SCORE>
-31.0114

>  <SCORE.INTER>
-26.8532

>  <SCORE.INTER.CONST>
1

>  <SCORE.INTER.POLAR>
-3.70722

>  <SCORE.INTER.ROT>
8

>  <SCORE.INTER.SOLV>
6.16114

>  <SCORE.INTER.VDW>
-16.5318

>  <SCORE.INTER.norm>
-2.4412

>  <SCORE.INTRA>
-4.15821

>  <SCORE.INTRA.DIHEDRAL>
-9.42083

>  <SCORE.INTRA.DIHEDRAL.0>
21.6454

>  <SCORE.INTRA.POLAR>
0

>  <SCORE.INTRA.POLAR.0>
0

>  <SCORE.INTRA.REPUL>
0

>  <SCORE.INTRA.REPUL.0>
0

>  <SCORE.INTRA.SOLV>
1.36449

>  <SCORE.INTRA.SOLV.lig_0>
-16.5947

>  <SCORE.INTRA.VDW>
-0.130045

>  <SCORE.INTRA.VDW.0>
-0.691398

>  <SCORE.INTRA.norm>
-0.378019

>  <SCORE.RESTR>
0

>  <SCORE.RESTR.CAVITY>
0

>  <SCORE.RESTR.norm>
0

>  <SCORE.SYSTEM>
0

>  <SCORE.SYSTEM.CONST>
0

>  <SCORE.SYSTEM.DIHEDRAL>
0

>  <SCORE.SYSTEM.SOLV>
0

>  <SCORE.SYSTEM.norm>
0

>  <SCORE.heavy>
11

>  <SCORE.norm>
-2.81922

>  <RMSD>
4.831

$$$$
1akx_lig
 OpenBabel11021811383D
libRbt.so/2013.1/901 2013/11/27
 11 10  0  0  0  0  0  0  0  0999 V2000
   -8.4350   -4.3713    0.0905 N   0  0  0  0  0  0  0  0  0  0  0  0
   -6.9904   -4.7105   -0.0712 C   0  0  2  0  0  0  0  0  0  0  0  0
   -6.3307   -4.8117    1.3099 C   0  0  0  0  0  0  0  0  0  0  0  0
   -6.3733   -3.8760    2.0838 O   0  0  0  0  0  0  0  0  0  0  0  0
   -6.2947   -3.6204   -0.8977 C   0  0  0  0  0  0  0  0  0  0  0  0
   -5.5570   -4.2592   -2.0789 C   0  0  0  0  0  0  0  0  0  0  0  0
   -4.8429   -3.1728   -2.8831 C   0  0  0  0  0  0  0  0  0  0  0  0
   -3.8315   -2.5009   -2.0182 N   0  0  0  0  0  0  0  0  0  0  0  0
   -2.5695   -2.4923   -2.3640 C   0  0  0  0  0  0  0  0  0  0  0  0
   -2.2218   -2.1607   -3.5808 N   0  0  0  0  0  0  0  0  0  0  0  0
   -1.6536   -2.8099   -1.4887 N   0  0  0  0  0  0  0  0  0  0  0  0
  2  1  1  1  0  0  0
  2  3  1  0  0  0  0
  2  5  1  0  0  0  0
  3  4  1  0  0  0  0
  5  6  1  0  0  0  0
  6  7  1  0  0  0  0
  7  8  1  0  0  0  0
  8  9  1  0  0  0  0
  9 10  1  0  0  0  0
  9 11  1  0  0  0  0
M  END
>  <CHROM.1>
175.68632143,-56.58564534,-126.78198268,-178.88576913,61.84982847,121.59902014
48.02873051,-177.23379316,-35.81654881,-5.01128246,-3.50887233,-1.05697406
2.50908487,0.28268806,1.71575981

>  <Name>
1akx_lig

>  <RI>
0

>  <Rbt.Current_Directory>
/home/itssahil/PROJECTS/Mol_Feturizer/New_Systems/rnas/1akx

>  <Rbt.Executable>
rbdock ($Id: //depot/dev/client3/rdock/2013.1/src/exe/rbdock.cxx#4 $)

>  <Rbt.Library>
libRbt.so (2013.1, Build901 2013/11/27)

>  <Rbt.Parameter_File>
/export/apps/rDock/src/rDock_2013.1_src/data/scripts/dock_solv.prm

>  <Rbt.Receptor>
prm/pocket_docking_7.prm

>  <SCORE>
-25.5728

>  <SCORE.INTER>
-20.3964

>  <SCORE.INTER.CONST>
1

>  <SCORE.INTER.POLAR>
-2.46548

>  <SCORE.INTER.ROT>
8

>  <SCORE.INTER.SOLV>
7.48951

>  <SCORE.INTER.VDW>
-16.8092

>  <SCORE.INTER.norm>
-1.85422

>  <SCORE.INTRA>
-5.17641

>  <SCORE.INTRA.DIHEDRAL>
-11.0469

>  <SCORE.INTRA.DIHEDRAL.0>
21.6454

>  <SCORE.INTRA.POLAR>
0

>  <SCORE.INTRA.POLAR.0>
0

>  <SCORE.INTRA.REPUL>
0

>  <SCORE.INTRA.REPUL.0>
0

>  <SCORE.INTRA.SOLV>
0.496897

>  <SCORE.INTRA.SOLV.lig_0>
-16.5947

>  <SCORE.INTRA.VDW>
0.0985771

>  <SCORE.INTRA.VDW.0>
-0.691398

>  <SCORE.INTRA.norm>
-0.470583

>  <SCORE.RESTR>
0

>  <SCORE.RESTR.CAVITY>
0

>  <SCORE.RESTR.norm>
0

>  <SCORE.SYSTEM>
0

>  <SCORE.SYSTEM.CONST>
0

>  <SCORE.SYSTEM.DIHEDRAL>
0

>  <SCORE.SYSTEM.SOLV>
0

>  <SCORE.SYSTEM.norm>
0

>  <SCORE.heavy>
11

>  <SCORE.norm>
-2.3248

>  <RMSD>
4.833

$$$$
1akx_lig
 OpenBabel11021811383D
libRbt.so/2013.1/901 2013/11/27
 11 10  0  0  0  0  0  0  0  0999 V2000
   -8.7164   -4.4011    0.1484 N   0  0  0  0  0  0  0  0  0  0  0  0
   -7.5530   -5.2977    0.4141 C   0  0  2  0  0  0  0  0  0  0  0  0
   -7.7060   -5.9379    1.7996 C   0  0  0  0  0  0  0  0  0  0  0  0
   -6.8836   -6.7352    2.2047 O   0  0  0  0  0  0  0  0  0  0  0  0
   -6.2529   -4.4838    0.3615 C   0  0  0  0  0  0  0  0  0  0  0  0
   -6.0273   -3.9613   -1.0610 C   0  0  0  0  0  0  0  0  0  0  0  0
   -4.6110   -3.3985   -1.1799 C   0  0  0  0  0  0  0  0  0  0  0  0
   -4.5527   -2.4423   -2.3222 N   0  0  0  0  0  0  0  0  0  0  0  0
   -3.5598   -2.4913   -3.1731 C   0  0  0  0  0  0  0  0  0  0  0  0
   -2.3237   -2.4568   -2.7464 N   0  0  0  0  0  0  0  0  0  0  0  0
   -3.8046   -2.5814   -4.4530 N   0  0  0  0  0  0  0  0  0  0  0  0
  2  1  1  1  0  0  0
  2  3  1  0  0  0  0
  2  5  1  0  0  0  0
  3  4  1  0  0  0  0
  5  6  1  0  0  0  0
  6  7  1  0  0  0  0
  7  8  1  0  0  0  0
  8  9  1  0  0  0  0
  9 10  1  0  0  0  0
  9 11  1  0  0  0  0
M  END
>  <CHROM.1>
59.91656287,178.00698043,-65.43418123,-168.69167286,-158.11077432,-134.63899534
-52.90578024,-162.64737493,-20.09956683,-5.64366743,-4.00445241,-0.92717977
2.21696359,-0.01013917,2.18442466

>  <Name>
1akx_lig

>  <RI>
0

>  <Rbt.Current_Directory>
/home/itssahil/PROJECTS/Mol_Feturizer/New_Systems/rnas/1akx

>  <Rbt.Executable>
rbdock ($Id: //depot/dev/client3/rdock/2013.1/src/exe/rbdock.cxx#4 $)

>  <Rbt.Library>
libRbt.so (2013.1, Build901 2013/11/27)

>  <Rbt.Parameter_File>
/export/apps/rDock/src/rDock_2013.1_src/data/scripts/dock_solv.prm

>  <Rbt.Receptor>
prm/pocket_docking_7.prm

>  <SCORE>
-35.0054

>  <SCORE.INTER>
-27.9873

>  <SCORE.INTER.CONST>
1

>  <SCORE.INTER.POLAR>
-4.40847

>  <SCORE.INTER.ROT>
8

>  <SCORE.INTER.SOLV>
7.39927

>  <SCORE.INTER.VDW>
-15.363

>  <SCORE.INTER.norm>
-2.5443

>  <SCORE.INTRA>
-7.01807

>  <SCORE.INTRA.DIHEDRAL>
-14.5716

>  <SCORE.INTRA.DIHEDRAL.0>
21.6454

>  <SCORE.INTRA.POLAR>
0

>  <SCORE.INTRA.POLAR.0>
0

>  <SCORE.INTRA.REPUL>
0

>  <SCORE.INTRA.REPUL.0>
0

>  <SCORE.INTRA.SOLV>
-0.00298114

>  <SCORE.INTRA.SOLV.lig_0>
-16.5947

>  <SCORE.INTRA.VDW>
0.269225

>  <SCORE.INTRA.VDW.0>
-0.691398

>  <SCORE.INTRA.norm>
-0.638006

>  <SCORE.RESTR>
0

>  <SCORE.RESTR.CAVITY>
0

>  <SCORE.RESTR.norm>
0

>  <SCORE.SYSTEM>
0

>  <SCORE.SYSTEM.CONST>
0

>  <SCORE.SYSTEM.DIHEDRAL>
0

>  <SCORE.SYSTEM.SOLV>
0

>  <SCORE.SYSTEM.norm>
0

>  <SCORE.heavy>
11

>  <SCORE.norm>
-3.18231

>  <RMSD>
4.835

$$$$
1akx_lig
 OpenBabel11021811383D
libRbt.so/2013.1/901 2013/11/27
 11 10  0  0  0  0  0  0  0  0999 V2000
   -6.4647   -5.6197   -2.5081 N   0  0  0  0  0  0  0  0  0  0  0  0
   -5.8713   -4.9472   -1.3149 C   0  0  2  0  0  0  0  0  0  0  0  0
   -6.6505   -5.3538   -0.0578 C   0  0  0  0  0  0  0  0  0  0  0  0
   -6.7559   -6.5242    0.2507 O   0  0  0  0  0  0  0  0  0  0  0  0
   -5.9389   -3.4245   -1.4950 C   0  0  0  0  0  0  0  0  0  0  0  0
   -4.7171   -2.9426   -2.2839 C   0  0  0  0  0  0  0  0  0  0  0  0
   -3.4593   -3.1126   -1.4319 C   0  0  0  0  0  0  0  0  0  0  0  0
   -2.4101   -3.8070   -2.2315 N   0  0  0  0  0  0  0  0  0  0  0  0
   -1.5409   -3.1143   -2.9221 C   0  0  0  0  0  0  0  0  0  0  0  0
   -0.5697   -2.4824   -2.3148 N   0  0  0  0  0  0  0  0  0  0  0  0
   -1.6404   -3.0591   -4.2233 N   0  0  0  0  0  0  0  0  0  0  0  0
  2  1  1  6  0  0  0
  2  3  1  0  0  0  0
  2  5  1  0  0  0  0
  3  4  1  0  0  0  0
  5  6  1  0  0  0  0
  6  7  1  0  0  0  0
  7  8  1  0  0  0  0
  8  9  1  0  0  0  0
  9 10  1  0  0  0  0
  9 11  1  0  0  0  0
M  END
>  <CHROM.1>
-174.17441334,57.62482891,-85.72574250,-68.53018452,130.71653703,91.83971318
74.02640897,95.43560758,83.81317076,-4.17460699,-4.06810082,-1.89487999,2.69646762
0.40447387,1.75997673

>  <Name>
1akx_lig

>  <RI>
0

>  <Rbt.Current_Directory>
/home/afrankz/demos/rdock_decoys_rna/rnas/1akx

>  <Rbt.Executable>
rbdock ($Id: //depot/dev/client3/rdock/2013.1/src/exe/rbdock.cxx#4 $)

>  <Rbt.Library>
libRbt.so (2013.1, Build901 2013/11/27)

>  <Rbt.Parameter_File>
/export/apps/rDock/src/rDock_2013.1_src/data/scripts/dock_solv.prm

>  <Rbt.Receptor>
prm/pocket_docking_6.prm

>  <SCORE>
-24.6638

>  <SCORE.INTER>
-20.0127

>  <SCORE.INTER.CONST>
1

>  <SCORE.INTER.POLAR>
-3.18646

>  <SCORE.INTER.ROT>
8

>  <SCORE.INTER.SOLV>
8.12637

>  <SCORE.INTER.VDW>
-14.3624

>  <SCORE.INTER.norm>
-1.81933

>  <SCORE.INTRA>
-4.65116

>  <SCORE.INTRA.DIHEDRAL>
-9.05969

>  <SCORE.INTRA.DIHEDRAL.0>
21.6454

>  <SCORE.INTRA.POLAR>
0

>  <SCORE.INTRA.POLAR.0>
0

>  <SCORE.INTRA.REPUL>
0

>  <SCORE.INTRA.REPUL.0>
0

>  <SCORE.INTRA.SOLV>
0.513284

>  <SCORE.INTRA.SOLV.lig_0>
-16.5947

>  <SCORE.INTRA.VDW>
-0.377962

>  <SCORE.INTRA.VDW.0>
-0.691398

>  <SCORE.INTRA.norm>
-0.422833

>  <SCORE.RESTR>
0

>  <SCORE.RESTR.CAVITY>
0

>  <SCORE.RESTR.norm>
0

>  <SCORE.SYSTEM>
0

>  <SCORE.SYSTEM.CONST>
0

>  <SCORE.SYSTEM.DIHEDRAL>
0

>  <SCORE.SYSTEM.SOLV>
0

>  <SCORE.SYSTEM.norm>
0

>  <SCORE.heavy>
11

>  <SCORE.norm>
-2.24217

>  <RMSD>
4.840

>  <RMSD>
4.840

$$$$
1akx_lig
 OpenBabel11021811383D
libRbt.so/2013.1/901 2013/11/27
 11 10  0  0  0  0  0  0  0  0999 V2000
   -6.4647   -5.6197   -2.5081 N   0  0  0  0  0  0  0  0  0  0  0  0
   -5.8713   -4.9472   -1.3149 C   0  0  2  0  0  0  0  0  0  0  0  0
   -6.6505   -5.3538   -0.0578 C   0  0  0  0  0  0  0  0  0  0  0  0
   -6.7559   -6.5242    0.2507 O   0  0  0  0  0  0  0  0  0  0  0  0
   -5.9389   -3.4245   -1.4950 C   0  0  0  0  0  0  0  0  0  0  0  0
   -4.7171   -2.9426   -2.2839 C   0  0  0  0  0  0  0  0  0  0  0  0
   -3.4593   -3.1126   -1.4319 C   0  0  0  0  0  0  0  0  0  0  0  0
   -2.4101   -3.8070   -2.2315 N   0  0  0  0  0  0  0  0  0  0  0  0
   -1.5409   -3.1143   -2.9221 C   0  0  0  0  0  0  0  0  0  0  0  0
   -0.5697   -2.4824   -2.3148 N   0  0  0  0  0  0  0  0  0  0  0  0
   -1.6404   -3.0591   -4.2233 N   0  0  0  0  0  0  0  0  0  0  0  0
  2  1  1  6  0  0  0
  2  3  1  0  0  0  0
  2  5  1  0  0  0  0
  3  4  1  0  0  0  0
  5  6  1  0  0  0  0
  6  7  1  0  0  0  0
  7  8  1  0  0  0  0
  8  9  1  0  0  0  0
  9 10  1  0  0  0  0
  9 11  1  0  0  0  0
M  END
>  <CHROM.1>
-174.17441334,57.62482891,-85.72574250,-68.53018452,130.71653703,91.83971318
74.02640897,95.43560758,83.81317076,-4.17460699,-4.06810082,-1.89487999,2.69646762
0.40447387,1.75997673

>  <Name>
1akx_lig

>  <RI>
0

>  <Rbt.Current_Directory>
/home/afrankz/demos/rdock_decoys_rna/rnas/1akx

>  <Rbt.Executable>
rbdock ($Id: //depot/dev/client3/rdock/2013.1/src/exe/rbdock.cxx#4 $)

>  <Rbt.Library>
libRbt.so (2013.1, Build901 2013/11/27)

>  <Rbt.Parameter_File>
/export/apps/rDock/src/rDock_2013.1_src/data/scripts/dock_solv.prm

>  <Rbt.Receptor>
prm/pocket_docking_6.prm

>  <SCORE>
-24.6638

>  <SCORE.INTER>
-20.0127

>  <SCORE.INTER.CONST>
1

>  <SCORE.INTER.POLAR>
-3.18646

>  <SCORE.INTER.ROT>
8

>  <SCORE.INTER.SOLV>
8.12637

>  <SCORE.INTER.VDW>
-14.3624

>  <SCORE.INTER.norm>
-1.81933

>  <SCORE.INTRA>
-4.65116

>  <SCORE.INTRA.DIHEDRAL>
-9.05969

>  <SCORE.INTRA.DIHEDRAL.0>
21.6454

>  <SCORE.INTRA.POLAR>
0

>  <SCORE.INTRA.POLAR.0>
0

>  <SCORE.INTRA.REPUL>
0

>  <SCORE.INTRA.REPUL.0>
0

>  <SCORE.INTRA.SOLV>
0.513284

>  <SCORE.INTRA.SOLV.lig_0>
-16.5947

>  <SCORE.INTRA.VDW>
-0.377962

>  <SCORE.INTRA.VDW.0>
-0.691398

>  <SCORE.INTRA.norm>
-0.422833

>  <SCORE.RESTR>
0

>  <SCORE.RESTR.CAVITY>
0

>  <SCORE.RESTR.norm>
0

>  <SCORE.SYSTEM>
0

>  <SCORE.SYSTEM.CONST>
0

>  <SCORE.SYSTEM.DIHEDRAL>
0

>  <SCORE.SYSTEM.SOLV>
0

>  <SCORE.SYSTEM.norm>
0

>  <SCORE.heavy>
11

>  <SCORE.norm>
-2.24217

>  <RMSD>
4.840

>  <RMSD>
4.840

$$$$
1akx_lig
 OpenBabel11021811383D
libRbt.so/2013.1/901 2013/11/27
 11 10  0  0  0  0  0  0  0  0999 V2000
   -6.1969   -4.9156   -3.2064 N   0  0  0  0  0  0  0  0  0  0  0  0
   -5.1101   -5.0387   -2.1905 C   0  0  2  0  0  0  0  0  0  0  0  0
   -5.6566   -5.7355   -0.9381 C   0  0  0  0  0  0  0  0  0  0  0  0
   -4.9210   -5.9964   -0.0070 O   0  0  0  0  0  0  0  0  0  0  0  0
   -4.5904   -3.6429   -1.8203 C   0  0  0  0  0  0  0  0  0  0  0  0
   -3.7083   -3.1032   -2.9508 C   0  0  0  0  0  0  0  0  0  0  0  0
   -2.6763   -2.1335   -2.3749 C   0  0  0  0  0  0  0  0  0  0  0  0
   -1.3130   -2.7193   -2.5179 N   0  0  0  0  0  0  0  0  0  0  0  0
   -0.8648   -3.5707   -1.6309 C   0  0  0  0  0  0  0  0  0  0  0  0
   -0.2764   -3.1417   -0.5441 N   0  0  0  0  0  0  0  0  0  0  0  0
   -1.0114   -4.8533   -1.8292 N   0  0  0  0  0  0  0  0  0  0  0  0
  2  1  1  6  0  0  0
  2  3  1  0  0  0  0
  2  5  1  0  0  0  0
  3  4  1  0  0  0  0
  5  6  1  0  0  0  0
  6  7  1  0  0  0  0
  7  8  1  0  0  0  0
  8  9  1  0  0  0  0
  9 10  1  0  0  0  0
  9 11  1  0  0  0  0
M  END
>  <CHROM.1>
-64.23629038,176.45861810,-75.28363060,-152.03257638,113.03706842,-83.41443380
-86.07631467,-111.02133055,120.13965297,-3.30108514,-4.10509765,-1.81520394
2.88135880,0.31191857,2.35639973

>  <Name>
1akx_lig

>  <RI>
0

>  <Rbt.Current_Directory>
/home/afrankz/demos/rdock_decoys_rna/rnas/1akx

>  <Rbt.Executable>
rbdock ($Id: //depot/dev/client3/rdock/2013.1/src/exe/rbdock.cxx#4 $)

>  <Rbt.Library>
libRbt.so (2013.1, Build901 2013/11/27)

>  <Rbt.Parameter_File>
/export/apps/rDock/src/rDock_2013.1_src/data/scripts/dock_solv.prm

>  <Rbt.Receptor>
prm/pocket_docking_6.prm

>  <SCORE>
-24.9121

>  <SCORE.INTER>
-20.3944

>  <SCORE.INTER.CONST>
1

>  <SCORE.INTER.POLAR>
-3.69944

>  <SCORE.INTER.ROT>
8

>  <SCORE.INTER.SOLV>
7.76009

>  <SCORE.INTER.VDW>
-12.7848

>  <SCORE.INTER.norm>
-1.85404

>  <SCORE.INTRA>
-4.51774

>  <SCORE.INTRA.DIHEDRAL>
-7.78668

>  <SCORE.INTRA.DIHEDRAL.0>
21.6454

>  <SCORE.INTRA.POLAR>
0

>  <SCORE.INTRA.POLAR.0>
0

>  <SCORE.INTRA.REPUL>
0

>  <SCORE.INTRA.REPUL.0>
0

>  <SCORE.INTRA.SOLV>
0.484249

>  <SCORE.INTRA.SOLV.lig_0>
-16.5947

>  <SCORE.INTRA.VDW>
-0.866521

>  <SCORE.INTRA.VDW.0>
-0.691398

>  <SCORE.INTRA.norm>
-0.410703

>  <SCORE.RESTR>
0

>  <SCORE.RESTR.CAVITY>
0

>  <SCORE.RESTR.norm>
0

>  <SCORE.SYSTEM>
0

>  <SCORE.SYSTEM.CONST>
0

>  <SCORE.SYSTEM.DIHEDRAL>
0

>  <SCORE.SYSTEM.SOLV>
0

>  <SCORE.SYSTEM.norm>
0

>  <SCORE.heavy>
11

>  <SCORE.norm>
-2.26474

>  <RMSD>
4.842

>  <RMSD>
4.842

$$$$
1akx_lig
 OpenBabel11021811383D
libRbt.so/2013.1/901 2013/11/27
 11 10  0  0  0  0  0  0  0  0999 V2000
   -6.1969   -4.9156   -3.2064 N   0  0  0  0  0  0  0  0  0  0  0  0
   -5.1101   -5.0387   -2.1905 C   0  0  2  0  0  0  0  0  0  0  0  0
   -5.6566   -5.7355   -0.9381 C   0  0  0  0  0  0  0  0  0  0  0  0
   -4.9210   -5.9964   -0.0070 O   0  0  0  0  0  0  0  0  0  0  0  0
   -4.5904   -3.6429   -1.8203 C   0  0  0  0  0  0  0  0  0  0  0  0
   -3.7083   -3.1032   -2.9508 C   0  0  0  0  0  0  0  0  0  0  0  0
   -2.6763   -2.1335   -2.3749 C   0  0  0  0  0  0  0  0  0  0  0  0
   -1.3130   -2.7193   -2.5179 N   0  0  0  0  0  0  0  0  0  0  0  0
   -0.8648   -3.5707   -1.6309 C   0  0  0  0  0  0  0  0  0  0  0  0
   -0.2764   -3.1417   -0.5441 N   0  0  0  0  0  0  0  0  0  0  0  0
   -1.0114   -4.8533   -1.8292 N   0  0  0  0  0  0  0  0  0  0  0  0
  2  1  1  6  0  0  0
  2  3  1  0  0  0  0
  2  5  1  0  0  0  0
  3  4  1  0  0  0  0
  5  6  1  0  0  0  0
  6  7  1  0  0  0  0
  7  8  1  0  0  0  0
  8  9  1  0  0  0  0
  9 10  1  0  0  0  0
  9 11  1  0  0  0  0
M  END
>  <CHROM.1>
-64.23629038,176.45861810,-75.28363060,-152.03257638,113.03706842,-83.41443380
-86.07631467,-111.02133055,120.13965297,-3.30108514,-4.10509765,-1.81520394
2.88135880,0.31191857,2.35639973

>  <Name>
1akx_lig

>  <RI>
0

>  <Rbt.Current_Directory>
/home/afrankz/demos/rdock_decoys_rna/rnas/1akx

>  <Rbt.Executable>
rbdock ($Id: //depot/dev/client3/rdock/2013.1/src/exe/rbdock.cxx#4 $)

>  <Rbt.Library>
libRbt.so (2013.1, Build901 2013/11/27)

>  <Rbt.Parameter_File>
/export/apps/rDock/src/rDock_2013.1_src/data/scripts/dock_solv.prm

>  <Rbt.Receptor>
prm/pocket_docking_6.prm

>  <SCORE>
-24.9121

>  <SCORE.INTER>
-20.3944

>  <SCORE.INTER.CONST>
1

>  <SCORE.INTER.POLAR>
-3.69944

>  <SCORE.INTER.ROT>
8

>  <SCORE.INTER.SOLV>
7.76009

>  <SCORE.INTER.VDW>
-12.7848

>  <SCORE.INTER.norm>
-1.85404

>  <SCORE.INTRA>
-4.51774

>  <SCORE.INTRA.DIHEDRAL>
-7.78668

>  <SCORE.INTRA.DIHEDRAL.0>
21.6454

>  <SCORE.INTRA.POLAR>
0

>  <SCORE.INTRA.POLAR.0>
0

>  <SCORE.INTRA.REPUL>
0

>  <SCORE.INTRA.REPUL.0>
0

>  <SCORE.INTRA.SOLV>
0.484249

>  <SCORE.INTRA.SOLV.lig_0>
-16.5947

>  <SCORE.INTRA.VDW>
-0.866521

>  <SCORE.INTRA.VDW.0>
-0.691398

>  <SCORE.INTRA.norm>
-0.410703

>  <SCORE.RESTR>
0

>  <SCORE.RESTR.CAVITY>
0

>  <SCORE.RESTR.norm>
0

>  <SCORE.SYSTEM>
0

>  <SCORE.SYSTEM.CONST>
0

>  <SCORE.SYSTEM.DIHEDRAL>
0

>  <SCORE.SYSTEM.SOLV>
0

>  <SCORE.SYSTEM.norm>
0

>  <SCORE.heavy>
11

>  <SCORE.norm>
-2.26474

>  <RMSD>
4.842

>  <RMSD>
4.842

$$$$
1akx_lig
 OpenBabel11021811383D
libRbt.so/2013.1/901 2013/11/27
 11 10  0  0  0  0  0  0  0  0999 V2000
   -8.8832   -4.4432    0.2113 N   0  0  0  0  0  0  0  0  0  0  0  0
   -7.4816   -4.9566    0.2230 C   0  0  2  0  0  0  0  0  0  0  0  0
   -7.0761   -5.3051    1.6606 C   0  0  0  0  0  0  0  0  0  0  0  0
   -7.6924   -6.1422    2.2896 O   0  0  0  0  0  0  0  0  0  0  0  0
   -6.5358   -3.8848   -0.3355 C   0  0  0  0  0  0  0  0  0  0  0  0
   -5.2189   -4.5345   -0.7726 C   0  0  0  0  0  0  0  0  0  0  0  0
   -4.1638   -3.4509   -0.9953 C   0  0  0  0  0  0  0  0  0  0  0  0
   -4.5487   -2.6198   -2.1716 N   0  0  0  0  0  0  0  0  0  0  0  0
   -3.6765   -2.3663   -3.1136 C   0  0  0  0  0  0  0  0  0  0  0  0
   -2.4246   -2.1397   -2.8090 N   0  0  0  0  0  0  0  0  0  0  0  0
   -4.0568   -2.3458   -4.3630 N   0  0  0  0  0  0  0  0  0  0  0  0
  2  1  1  1  0  0  0
  2  3  1  0  0  0  0
  2  5  1  0  0  0  0
  3  4  1  0  0  0  0
  5  6  1  0  0  0  0
  6  7  1  0  0  0  0
  7  8  1  0  0  0  0
  8  9  1  0  0  0  0
  9 10  1  0  0  0  0
  9 11  1  0  0  0  0
M  END
>  <CHROM.1>
55.86680541,60.11463121,-160.80367702,-165.93992455,-67.22144186,-131.04038913
-37.98426559,169.35155779,-30.61812893,-5.64337236,-3.82456648,-0.93654360
2.25934286,0.08736953,2.08227123

>  <Name>
1akx_lig

>  <RI>
0

>  <Rbt.Current_Directory>
/home/itssahil/PROJECTS/Mol_Feturizer/New_Systems/rnas/1akx

>  <Rbt.Executable>
rbdock ($Id: //depot/dev/client3/rdock/2013.1/src/exe/rbdock.cxx#4 $)

>  <Rbt.Library>
libRbt.so (2013.1, Build901 2013/11/27)

>  <Rbt.Parameter_File>
/export/apps/rDock/src/rDock_2013.1_src/data/scripts/dock_solv.prm

>  <Rbt.Receptor>
prm/pocket_docking_7.prm

>  <SCORE>
-37.1006

>  <SCORE.INTER>
-30.6409

>  <SCORE.INTER.CONST>
1

>  <SCORE.INTER.POLAR>
-4.53906

>  <SCORE.INTER.ROT>
8

>  <SCORE.INTER.SOLV>
7.61848

>  <SCORE.INTER.VDW>
-16.7699

>  <SCORE.INTER.norm>
-2.78554

>  <SCORE.INTRA>
-6.45971

>  <SCORE.INTRA.DIHEDRAL>
-14.4557

>  <SCORE.INTRA.DIHEDRAL.0>
21.6454

>  <SCORE.INTRA.POLAR>
0

>  <SCORE.INTRA.POLAR.0>
0

>  <SCORE.INTRA.REPUL>
0

>  <SCORE.INTRA.REPUL.0>
0

>  <SCORE.INTRA.SOLV>
0.33818

>  <SCORE.INTRA.SOLV.lig_0>
-16.5947

>  <SCORE.INTRA.VDW>
0.599049

>  <SCORE.INTRA.VDW.0>
-0.691398

>  <SCORE.INTRA.norm>
-0.587247

>  <SCORE.RESTR>
0

>  <SCORE.RESTR.CAVITY>
0

>  <SCORE.RESTR.norm>
0

>  <SCORE.SYSTEM>
0

>  <SCORE.SYSTEM.CONST>
0

>  <SCORE.SYSTEM.DIHEDRAL>
0

>  <SCORE.SYSTEM.SOLV>
0

>  <SCORE.SYSTEM.norm>
0

>  <SCORE.heavy>
11

>  <SCORE.norm>
-3.37279

>  <RMSD>
4.862

$$$$
1akx_lig
 OpenBabel11021811383D
libRbt.so/2013.1/901 2013/11/27
 11 10  0  0  0  0  0  0  0  0999 V2000
   -8.2474   -4.3329    0.3814 N   0  0  0  0  0  0  0  0  0  0  0  0
   -6.7954   -4.2599    0.7199 C   0  0  2  0  0  0  0  0  0  0  0  0
   -6.6324   -4.0051    2.2236 C   0  0  0  0  0  0  0  0  0  0  0  0
   -7.1571   -4.7423    3.0344 O   0  0  0  0  0  0  0  0  0  0  0  0
   -6.1385   -3.1209   -0.0716 C   0  0  0  0  0  0  0  0  0  0  0  0
   -6.0199   -3.5178   -1.5467 C   0  0  0  0  0  0  0  0  0  0  0  0
   -4.5765   -3.9163   -1.8540 C   0  0  0  0  0  0  0  0  0  0  0  0
   -3.7536   -2.6878   -2.0440 N   0  0  0  0  0  0  0  0  0  0  0  0
   -2.5059   -2.6624   -1.6503 C   0  0  0  0  0  0  0  0  0  0  0  0
   -1.5541   -3.0703   -2.4498 N   0  0  0  0  0  0  0  0  0  0  0  0
   -2.2098   -2.2221   -0.4568 N   0  0  0  0  0  0  0  0  0  0  0  0
  2  1  1  1  0  0  0
  2  3  1  0  0  0  0
  2  5  1  0  0  0  0
  3  4  1  0  0  0  0
  5  6  1  0  0  0  0
  6  7  1  0  0  0  0
  7  8  1  0  0  0  0
  8  9  1  0  0  0  0
  9 10  1  0  0  0  0
  9 11  1  0  0  0  0
M  END
>  <CHROM.1>
49.70825229,54.83070801,-72.34845079,-103.13237501,-79.69818040,145.01056072
87.59155515,-80.64678100,135.51769396,-5.06027757,-3.50354773,-0.32179775
2.53206282,0.25841604,1.64279247

>  <Name>
1akx_lig

>  <RI>
0

>  <Rbt.Current_Directory>
/home/itssahil/PROJECTS/Mol_Feturizer/New_Systems/rnas/1akx

>  <Rbt.Executable>
rbdock ($Id: //depot/dev/client3/rdock/2013.1/src/exe/rbdock.cxx#4 $)

>  <Rbt.Library>
libRbt.so (2013.1, Build901 2013/11/27)

>  <Rbt.Parameter_File>
/export/apps/rDock/src/rDock_2013.1_src/data/scripts/dock_solv.prm

>  <Rbt.Receptor>
prm/pocket_docking_6.prm

>  <SCORE>
-26.8195

>  <SCORE.INTER>
-21.8541

>  <SCORE.INTER.CONST>
1

>  <SCORE.INTER.POLAR>
-3.14836

>  <SCORE.INTER.ROT>
8

>  <SCORE.INTER.SOLV>
6.05636

>  <SCORE.INTER.VDW>
-15.027

>  <SCORE.INTER.norm>
-1.98674

>  <SCORE.INTRA>
-4.96538

>  <SCORE.INTRA.DIHEDRAL>
-9.54873

>  <SCORE.INTRA.DIHEDRAL.0>
21.6454

>  <SCORE.INTRA.POLAR>
0

>  <SCORE.INTRA.POLAR.0>
0

>  <SCORE.INTRA.REPUL>
0

>  <SCORE.INTRA.REPUL.0>
0

>  <SCORE.INTRA.SOLV>
0.443718

>  <SCORE.INTRA.SOLV.lig_0>
-16.5947

>  <SCORE.INTRA.VDW>
-0.412879

>  <SCORE.INTRA.VDW.0>
-0.691398

>  <SCORE.INTRA.norm>
-0.451398

>  <SCORE.RESTR>
0

>  <SCORE.RESTR.CAVITY>
0

>  <SCORE.RESTR.norm>
0

>  <SCORE.SYSTEM>
0

>  <SCORE.SYSTEM.CONST>
0

>  <SCORE.SYSTEM.DIHEDRAL>
0

>  <SCORE.SYSTEM.SOLV>
0

>  <SCORE.SYSTEM.norm>
0

>  <SCORE.heavy>
11

>  <SCORE.norm>
-2.43813

>  <RMSD>
4.870

$$$$
1akx_lig
 OpenBabel11021811383D
libRbt.so/2013.1/901 2013/11/27
 11 10  0  0  0  0  0  0  0  0999 V2000
   -7.6622   -3.7268    0.8370 N   0  0  0  0  0  0  0  0  0  0  0  0
   -7.3251   -4.8031   -0.1408 C   0  0  2  0  0  0  0  0  0  0  0  0
   -8.0940   -6.0807    0.2190 C   0  0  0  0  0  0  0  0  0  0  0  0
   -8.0075   -6.5597    1.3322 O   0  0  0  0  0  0  0  0  0  0  0  0
   -5.8161   -5.0798   -0.1023 C   0  0  0  0  0  0  0  0  0  0  0  0
   -5.0463   -3.7924   -0.4145 C   0  0  0  0  0  0  0  0  0  0  0  0
   -5.0516   -3.5472   -1.9234 C   0  0  0  0  0  0  0  0  0  0  0  0
   -3.9921   -2.5566   -2.2675 N   0  0  0  0  0  0  0  0  0  0  0  0
   -3.3868   -2.6141   -3.4263 C   0  0  0  0  0  0  0  0  0  0  0  0
   -2.1043   -2.8644   -3.4883 N   0  0  0  0  0  0  0  0  0  0  0  0
   -4.0677   -2.4271   -4.5251 N   0  0  0  0  0  0  0  0  0  0  0  0
  2  1  1  1  0  0  0
  2  3  1  0  0  0  0
  2  5  1  0  0  0  0
  3  4  1  0  0  0  0
  5  6  1  0  0  0  0
  6  7  1  0  0  0  0
  7  8  1  0  0  0  0
  8  9  1  0  0  0  0
  9 10  1  0  0  0  0
  9 11  1  0  0  0  0
M  END
>  <CHROM.1>
-56.88731142,-54.70526753,-57.82344875,-78.96828231,-163.29348812,148.96229105
-115.97416129,74.52892303,-52.37109380,-5.50548818,-3.98334324,-1.25756810
2.45591937,-0.56674167,2.74453457

>  <Name>
1akx_lig

>  <RI>
0

>  <Rbt.Current_Directory>
/home/itssahil/PROJECTS/Mol_Feturizer/New_Systems/rnas/1akx

>  <Rbt.Executable>
rbdock ($Id: //depot/dev/client3/rdock/2013.1/src/exe/rbdock.cxx#4 $)

>  <Rbt.Library>
libRbt.so (2013.1, Build901 2013/11/27)

>  <Rbt.Parameter_File>
/export/apps/rDock/src/rDock_2013.1_src/data/scripts/dock_solv.prm

>  <Rbt.Receptor>
prm/pocket_docking_6.prm

>  <SCORE>
-31.5548

>  <SCORE.INTER>
-25.1208

>  <SCORE.INTER.CONST>
1

>  <SCORE.INTER.POLAR>
-3.55219

>  <SCORE.INTER.ROT>
8

>  <SCORE.INTER.SOLV>
7.61861

>  <SCORE.INTER.VDW>
-16.3794

>  <SCORE.INTER.norm>
-2.28371

>  <SCORE.INTRA>
-6.43402

>  <SCORE.INTRA.DIHEDRAL>
-14.3251

>  <SCORE.INTRA.DIHEDRAL.0>
21.6454

>  <SCORE.INTRA.POLAR>
0

>  <SCORE.INTRA.POLAR.0>
0

>  <SCORE.INTRA.REPUL>
0

>  <SCORE.INTRA.REPUL.0>
0

>  <SCORE.INTRA.SOLV>
0.377388

>  <SCORE.INTRA.SOLV.lig_0>
-16.5947

>  <SCORE.INTRA.VDW>
0.539825

>  <SCORE.INTRA.VDW.0>
-0.691398

>  <SCORE.INTRA.norm>
-0.584911

>  <SCORE.RESTR>
0

>  <SCORE.RESTR.CAVITY>
0

>  <SCORE.RESTR.norm>
0

>  <SCORE.SYSTEM>
0

>  <SCORE.SYSTEM.CONST>
0

>  <SCORE.SYSTEM.DIHEDRAL>
0

>  <SCORE.SYSTEM.SOLV>
0

>  <SCORE.SYSTEM.norm>
0

>  <SCORE.heavy>
11

>  <SCORE.norm>
-2.86862

>  <RMSD>
4.880

$$$$
1akx_lig
 OpenBabel11021811383D
libRbt.so/2013.1/901 2013/11/27
 11 10  0  0  0  0  0  0  0  0999 V2000
   -7.6789   -3.8833    1.0958 N   0  0  0  0  0  0  0  0  0  0  0  0
   -7.2252   -4.6663   -0.0913 C   0  0  2  0  0  0  0  0  0  0  0  0
   -7.9052   -6.0412   -0.0881 C   0  0  0  0  0  0  0  0  0  0  0  0
   -7.6132   -6.8756   -0.9215 O   0  0  0  0  0  0  0  0  0  0  0  0
   -5.7015   -4.8431   -0.0400 C   0  0  0  0  0  0  0  0  0  0  0  0
   -5.0171   -3.5980   -0.6132 C   0  0  0  0  0  0  0  0  0  0  0  0
   -5.1002   -3.6263   -2.1394 C   0  0  0  0  0  0  0  0  0  0  0  0
   -4.2210   -2.5624   -2.7027 N   0  0  0  0  0  0  0  0  0  0  0  0
   -2.9384   -2.7761   -2.8495 C   0  0  0  0  0  0  0  0  0  0  0  0
   -2.2954   -2.2567   -3.8635 N   0  0  0  0  0  0  0  0  0  0  0  0
   -2.2970   -3.5056   -1.9764 N   0  0  0  0  0  0  0  0  0  0  0  0
  2  1  1  1  0  0  0
  2  3  1  0  0  0  0
  2  5  1  0  0  0  0
  3  4  1  0  0  0  0
  5  6  1  0  0  0  0
  6  7  1  0  0  0  0
  7  8  1  0  0  0  0
  8  9  1  0  0  0  0
  9 10  1  0  0  0  0
  9 11  1  0  0  0  0
M  END
>  <CHROM.1>
174.54123981,-175.28004430,-83.12054519,-77.10676442,-169.41241418,82.54923879
145.14279327,-25.59972729,127.03909812,-5.26612520,-4.04706568,-1.28492352
3.06616293,-0.70742199,-2.53354997

>  <Name>
1akx_lig

>  <RI>
0

>  <Rbt.Current_Directory>
/home/afrankz/demos/rdock_decoys_rna/rnas/1akx

>  <Rbt.Executable>
rbdock ($Id: //depot/dev/client3/rdock/2013.1/src/exe/rbdock.cxx#4 $)

>  <Rbt.Library>
libRbt.so (2013.1, Build901 2013/11/27)

>  <Rbt.Parameter_File>
/export/apps/rDock/src/rDock_2013.1_src/data/scripts/dock_solv.prm

>  <Rbt.Receptor>
prm/pocket_docking_6.prm

>  <SCORE>
-24.9365

>  <SCORE.INTER>
-19.0546

>  <SCORE.INTER.CONST>
1

>  <SCORE.INTER.POLAR>
-2.61304

>  <SCORE.INTER.ROT>
8

>  <SCORE.INTER.SOLV>
6.25781

>  <SCORE.INTER.VDW>
-15.0122

>  <SCORE.INTER.norm>
-1.73224

>  <SCORE.INTRA>
-5.88191

>  <SCORE.INTRA.DIHEDRAL>
-13.2241

>  <SCORE.INTRA.DIHEDRAL.0>
21.6454

>  <SCORE.INTRA.POLAR>
0

>  <SCORE.INTRA.POLAR.0>
0

>  <SCORE.INTRA.REPUL>
0

>  <SCORE.INTRA.REPUL.0>
0

>  <SCORE.INTRA.SOLV>
0.391893

>  <SCORE.INTRA.SOLV.lig_0>
-16.5947

>  <SCORE.INTRA.VDW>
0.534213

>  <SCORE.INTRA.VDW.0>
-0.691398

>  <SCORE.INTRA.norm>
-0.534719

>  <SCORE.RESTR>
0

>  <SCORE.RESTR.CAVITY>
0

>  <SCORE.RESTR.norm>
0

>  <SCORE.SYSTEM>
0

>  <SCORE.SYSTEM.CONST>
0

>  <SCORE.SYSTEM.DIHEDRAL>
0

>  <SCORE.SYSTEM.SOLV>
0

>  <SCORE.SYSTEM.norm>
0

>  <SCORE.heavy>
11

>  <SCORE.norm>
-2.26696

>  <RMSD>
4.881

>  <RMSD>
4.881

$$$$
1akx_lig
 OpenBabel11021811383D
libRbt.so/2013.1/901 2013/11/27
 11 10  0  0  0  0  0  0  0  0999 V2000
   -7.6789   -3.8833    1.0958 N   0  0  0  0  0  0  0  0  0  0  0  0
   -7.2252   -4.6663   -0.0913 C   0  0  2  0  0  0  0  0  0  0  0  0
   -7.9052   -6.0412   -0.0881 C   0  0  0  0  0  0  0  0  0  0  0  0
   -7.6132   -6.8756   -0.9215 O   0  0  0  0  0  0  0  0  0  0  0  0
   -5.7015   -4.8431   -0.0400 C   0  0  0  0  0  0  0  0  0  0  0  0
   -5.0171   -3.5980   -0.6132 C   0  0  0  0  0  0  0  0  0  0  0  0
   -5.1002   -3.6263   -2.1394 C   0  0  0  0  0  0  0  0  0  0  0  0
   -4.2210   -2.5624   -2.7027 N   0  0  0  0  0  0  0  0  0  0  0  0
   -2.9384   -2.7761   -2.8495 C   0  0  0  0  0  0  0  0  0  0  0  0
   -2.2954   -2.2567   -3.8635 N   0  0  0  0  0  0  0  0  0  0  0  0
   -2.2970   -3.5056   -1.9764 N   0  0  0  0  0  0  0  0  0  0  0  0
  2  1  1  1  0  0  0
  2  3  1  0  0  0  0
  2  5  1  0  0  0  0
  3  4  1  0  0  0  0
  5  6  1  0  0  0  0
  6  7  1  0  0  0  0
  7  8  1  0  0  0  0
  8  9  1  0  0  0  0
  9 10  1  0  0  0  0
  9 11  1  0  0  0  0
M  END
>  <CHROM.1>
174.54123981,-175.28004430,-83.12054519,-77.10676442,-169.41241418,82.54923879
145.14279327,-25.59972729,127.03909812,-5.26612520,-4.04706568,-1.28492352
3.06616293,-0.70742199,-2.53354997

>  <Name>
1akx_lig

>  <RI>
0

>  <Rbt.Current_Directory>
/home/afrankz/demos/rdock_decoys_rna/rnas/1akx

>  <Rbt.Executable>
rbdock ($Id: //depot/dev/client3/rdock/2013.1/src/exe/rbdock.cxx#4 $)

>  <Rbt.Library>
libRbt.so (2013.1, Build901 2013/11/27)

>  <Rbt.Parameter_File>
/export/apps/rDock/src/rDock_2013.1_src/data/scripts/dock_solv.prm

>  <Rbt.Receptor>
prm/pocket_docking_6.prm

>  <SCORE>
-24.9365

>  <SCORE.INTER>
-19.0546

>  <SCORE.INTER.CONST>
1

>  <SCORE.INTER.POLAR>
-2.61304

>  <SCORE.INTER.ROT>
8

>  <SCORE.INTER.SOLV>
6.25781

>  <SCORE.INTER.VDW>
-15.0122

>  <SCORE.INTER.norm>
-1.73224

>  <SCORE.INTRA>
-5.88191

>  <SCORE.INTRA.DIHEDRAL>
-13.2241

>  <SCORE.INTRA.DIHEDRAL.0>
21.6454

>  <SCORE.INTRA.POLAR>
0

>  <SCORE.INTRA.POLAR.0>
0

>  <SCORE.INTRA.REPUL>
0

>  <SCORE.INTRA.REPUL.0>
0

>  <SCORE.INTRA.SOLV>
0.391893

>  <SCORE.INTRA.SOLV.lig_0>
-16.5947

>  <SCORE.INTRA.VDW>
0.534213

>  <SCORE.INTRA.VDW.0>
-0.691398

>  <SCORE.INTRA.norm>
-0.534719

>  <SCORE.RESTR>
0

>  <SCORE.RESTR.CAVITY>
0

>  <SCORE.RESTR.norm>
0

>  <SCORE.SYSTEM>
0

>  <SCORE.SYSTEM.CONST>
0

>  <SCORE.SYSTEM.DIHEDRAL>
0

>  <SCORE.SYSTEM.SOLV>
0

>  <SCORE.SYSTEM.norm>
0

>  <SCORE.heavy>
11

>  <SCORE.norm>
-2.26696

>  <RMSD>
4.881

>  <RMSD>
4.881

$$$$
1akx_lig
 OpenBabel11021811383D
libRbt.so/2013.1/901 2013/11/27
 11 10  0  0  0  0  0  0  0  0999 V2000
   -6.7950   -5.5202   -1.3127 N   0  0  0  0  0  0  0  0  0  0  0  0
   -5.8322   -4.7138   -0.5059 C   0  0  2  0  0  0  0  0  0  0  0  0
   -6.4215   -4.4558    0.8865 C   0  0  0  0  0  0  0  0  0  0  0  0
   -7.5306   -3.9747    1.0074 O   0  0  0  0  0  0  0  0  0  0  0  0
   -5.5638   -3.3766   -1.2096 C   0  0  0  0  0  0  0  0  0  0  0  0
   -5.1436   -3.6313   -2.6607 C   0  0  0  0  0  0  0  0  0  0  0  0
   -4.3465   -2.4344   -3.1794 C   0  0  0  0  0  0  0  0  0  0  0  0
   -2.9613   -2.4871   -2.6310 N   0  0  0  0  0  0  0  0  0  0  0  0
   -2.0387   -3.1903   -3.2365 C   0  0  0  0  0  0  0  0  0  0  0  0
   -1.8684   -3.0805   -4.5289 N   0  0  0  0  0  0  0  0  0  0  0  0
   -1.2810   -4.0000   -2.5463 N   0  0  0  0  0  0  0  0  0  0  0  0
  2  1  1  6  0  0  0
  2  3  1  0  0  0  0
  2  5  1  0  0  0  0
  3  4  1  0  0  0  0
  5  6  1  0  0  0  0
  6  7  1  0  0  0  0
  7  8  1  0  0  0  0
  8  9  1  0  0  0  0
  9 10  1  0  0  0  0
  9 11  1  0  0  0  0
M  END
>  <CHROM.1>
71.26038250,-52.84112497,-52.64255961,-156.91430733,77.09200446,85.53380356
47.98925356,-171.49932511,-77.01398315,-4.52786087,-3.74061022,-1.81513785
2.46317715,-0.05323921,1.99525802

>  <Name>
1akx_lig

>  <RI>
0

>  <Rbt.Current_Directory>
/home/itssahil/PROJECTS/Mol_Feturizer/New_Systems/rnas/1akx

>  <Rbt.Executable>
rbdock ($Id: //depot/dev/client3/rdock/2013.1/src/exe/rbdock.cxx#4 $)

>  <Rbt.Library>
libRbt.so (2013.1, Build901 2013/11/27)

>  <Rbt.Parameter_File>
/export/apps/rDock/src/rDock_2013.1_src/data/scripts/dock_solv.prm

>  <Rbt.Receptor>
prm/pocket_docking_5.prm

>  <SCORE>
-33.228

>  <SCORE.INTER>
-27.5008

>  <SCORE.INTER.CONST>
1

>  <SCORE.INTER.POLAR>
-3.66306

>  <SCORE.INTER.ROT>
8

>  <SCORE.INTER.SOLV>
8.32713

>  <SCORE.INTER.VDW>
-17.8327

>  <SCORE.INTER.norm>
-2.50007

>  <SCORE.INTRA>
-5.72719

>  <SCORE.INTRA.DIHEDRAL>
-13.1331

>  <SCORE.INTRA.DIHEDRAL.0>
21.6454

>  <SCORE.INTRA.POLAR>
0

>  <SCORE.INTRA.POLAR.0>
0

>  <SCORE.INTRA.REPUL>
0

>  <SCORE.INTRA.REPUL.0>
0

>  <SCORE.INTRA.SOLV>
0.71414

>  <SCORE.INTRA.SOLV.lig_0>
-16.5947

>  <SCORE.INTRA.VDW>
0.482289

>  <SCORE.INTRA.VDW.0>
-0.691398

>  <SCORE.INTRA.norm>
-0.520654

>  <SCORE.RESTR>
0

>  <SCORE.RESTR.CAVITY>
0

>  <SCORE.RESTR.norm>
0

>  <SCORE.SYSTEM>
0

>  <SCORE.SYSTEM.CONST>
0

>  <SCORE.SYSTEM.DIHEDRAL>
0

>  <SCORE.SYSTEM.SOLV>
0

>  <SCORE.SYSTEM.norm>
0

>  <SCORE.heavy>
11

>  <SCORE.norm>
-3.02073

>  <RMSD>
4.889

$$$$
1akx_lig
 OpenBabel11021811383D
libRbt.so/2013.1/901 2013/11/27
 11 10  0  0  0  0  0  0  0  0999 V2000
   -8.3925   -4.3756    0.3724 N   0  0  0  0  0  0  0  0  0  0  0  0
   -6.9500   -4.4010    0.7552 C   0  0  2  0  0  0  0  0  0  0  0  0
   -6.7975   -3.9318    2.2076 C   0  0  0  0  0  0  0  0  0  0  0  0
   -7.2646   -4.5854    3.1191 O   0  0  0  0  0  0  0  0  0  0  0  0
   -6.1541   -3.4741   -0.1737 C   0  0  0  0  0  0  0  0  0  0  0  0
   -6.0816   -4.0862   -1.5764 C   0  0  0  0  0  0  0  0  0  0  0  0
   -4.6347   -4.0635   -2.0694 C   0  0  0  0  0  0  0  0  0  0  0  0
   -4.2452   -2.6622   -2.3961 N   0  0  0  0  0  0  0  0  0  0  0  0
   -2.9850   -2.3094   -2.3893 C   0  0  0  0  0  0  0  0  0  0  0  0
   -2.3719   -2.0329   -3.5113 N   0  0  0  0  0  0  0  0  0  0  0  0
   -2.3393   -2.2271   -1.2569 N   0  0  0  0  0  0  0  0  0  0  0  0
  2  1  1  6  0  0  0
  2  3  1  0  0  0  0
  2  5  1  0  0  0  0
  3  4  1  0  0  0  0
  5  6  1  0  0  0  0
  6  7  1  0  0  0  0
  7  8  1  0  0  0  0
  8  9  1  0  0  0  0
  9 10  1  0  0  0  0
  9 11  1  0  0  0  0
M  END
>  <CHROM.1>
-79.14046124,65.29749642,-70.53691408,-131.01165292,-72.08313392,156.36616769
110.00266837,-165.65733495,-60.03746447,-5.30377656,-3.45616712,-0.61943938
2.42145663,0.39729526,1.58644210

>  <Name>
1akx_lig

>  <RI>
0

>  <Rbt.Current_Directory>
/home/itssahil/PROJECTS/Mol_Feturizer/New_Systems/rnas/1akx

>  <Rbt.Executable>
rbdock ($Id: //depot/dev/client3/rdock/2013.1/src/exe/rbdock.cxx#4 $)

>  <Rbt.Library>
libRbt.so (2013.1, Build901 2013/11/27)

>  <Rbt.Parameter_File>
/export/apps/rDock/src/rDock_2013.1_src/data/scripts/dock_solv.prm

>  <Rbt.Receptor>
prm/pocket_docking_7.prm

>  <SCORE>
-29.0264

>  <SCORE.INTER>
-24.658

>  <SCORE.INTER.CONST>
1

>  <SCORE.INTER.POLAR>
-3.40647

>  <SCORE.INTER.ROT>
8

>  <SCORE.INTER.SOLV>
7.43985

>  <SCORE.INTER.VDW>
-16.497

>  <SCORE.INTER.norm>
-2.24163

>  <SCORE.INTRA>
-4.36845

>  <SCORE.INTRA.DIHEDRAL>
-9.31522

>  <SCORE.INTRA.DIHEDRAL.0>
21.6454

>  <SCORE.INTRA.POLAR>
0

>  <SCORE.INTRA.POLAR.0>
0

>  <SCORE.INTRA.REPUL>
0

>  <SCORE.INTRA.REPUL.0>
0

>  <SCORE.INTRA.SOLV>
0.368534

>  <SCORE.INTRA.SOLV.lig_0>
-16.5947

>  <SCORE.INTRA.VDW>
0.104892

>  <SCORE.INTRA.VDW.0>
-0.691398

>  <SCORE.INTRA.norm>
-0.397132

>  <SCORE.RESTR>
0

>  <SCORE.RESTR.CAVITY>
0

>  <SCORE.RESTR.norm>
0

>  <SCORE.SYSTEM>
0

>  <SCORE.SYSTEM.CONST>
0

>  <SCORE.SYSTEM.DIHEDRAL>
0

>  <SCORE.SYSTEM.SOLV>
0

>  <SCORE.SYSTEM.norm>
0

>  <SCORE.heavy>
11

>  <SCORE.norm>
-2.63877

>  <RMSD>
4.889

$$$$
1akx_lig
 OpenBabel11021811383D
libRbt.so/2013.1/901 2013/11/27
 11 10  0  0  0  0  0  0  0  0999 V2000
   -2.0899   -2.7160   -3.4547 N   0  0  0  0  0  0  0  0  0  0  0  0
   -2.2238   -2.4055   -2.0008 C   0  0  2  0  0  0  0  0  0  0  0  0
   -0.9355   -2.8061   -1.2710 C   0  0  0  0  0  0  0  0  0  0  0  0
   -0.5263   -3.9488   -1.3245 O   0  0  0  0  0  0  0  0  0  0  0  0
   -3.4119   -3.1811   -1.4158 C   0  0  0  0  0  0  0  0  0  0  0  0
   -4.7150   -2.6898   -2.0545 C   0  0  0  0  0  0  0  0  0  0  0  0
   -5.9048   -3.1789   -1.2287 C   0  0  0  0  0  0  0  0  0  0  0  0
   -6.0341   -4.6568   -1.3741 N   0  0  0  0  0  0  0  0  0  0  0  0
   -6.6934   -5.3520   -0.4827 C   0  0  0  0  0  0  0  0  0  0  0  0
   -6.0819   -6.2686    0.2224 N   0  0  0  0  0  0  0  0  0  0  0  0
   -7.9655   -5.1248   -0.2923 N   0  0  0  0  0  0  0  0  0  0  0  0
  2  1  1  6  0  0  0
  2  3  1  0  0  0  0
  2  5  1  0  0  0  0
  3  4  1  0  0  0  0
  5  6  1  0  0  0  0
  6  7  1  0  0  0  0
  7  8  1  0  0  0  0
  8  9  1  0  0  0  0
  9 10  1  0  0  0  0
  9 11  1  0  0  0  0
M  END
>  <CHROM.1>
-177.56166214,-57.35746756,-64.88913511,-165.09717861,-69.28799765,159.41941564
-117.77546993,58.69182967,18.10032850,-4.22673003,-3.88580273,-1.34964287
0.46718074,-0.02761805,-0.67506317

>  <Name>
1akx_lig

>  <RI>
0

>  <Rbt.Current_Directory>
/home/itssahil/PROJECTS/Mol_Feturizer/New_Systems/rnas/1akx

>  <Rbt.Executable>
rbdock ($Id: //depot/dev/client3/rdock/2013.1/src/exe/rbdock.cxx#4 $)

>  <Rbt.Library>
libRbt.so (2013.1, Build901 2013/11/27)

>  <Rbt.Parameter_File>
/export/apps/rDock/src/rDock_2013.1_src/data/scripts/dock_solv.prm

>  <Rbt.Receptor>
prm/pocket_docking_8.prm

>  <SCORE>
-24.582

>  <SCORE.INTER>
-17.1782

>  <SCORE.INTER.CONST>
1

>  <SCORE.INTER.POLAR>
-1.95399

>  <SCORE.INTER.ROT>
8

>  <SCORE.INTER.SOLV>
4.71994

>  <SCORE.INTER.VDW>
-15.4454

>  <SCORE.INTER.norm>
-1.56165

>  <SCORE.INTRA>
-7.40387

>  <SCORE.INTRA.DIHEDRAL>
-15.5008

>  <SCORE.INTRA.DIHEDRAL.0>
21.6454

>  <SCORE.INTRA.POLAR>
0

>  <SCORE.INTRA.POLAR.0>
0

>  <SCORE.INTRA.REPUL>
0

>  <SCORE.INTRA.REPUL.0>
0

>  <SCORE.INTRA.SOLV>
0.484942

>  <SCORE.INTRA.SOLV.lig_0>
-16.5947

>  <SCORE.INTRA.VDW>
0.10407

>  <SCORE.INTRA.VDW.0>
-0.691398

>  <SCORE.INTRA.norm>
-0.673079

>  <SCORE.RESTR>
0

>  <SCORE.RESTR.CAVITY>
0

>  <SCORE.RESTR.norm>
0

>  <SCORE.SYSTEM>
0

>  <SCORE.SYSTEM.CONST>
0

>  <SCORE.SYSTEM.DIHEDRAL>
0

>  <SCORE.SYSTEM.SOLV>
0

>  <SCORE.SYSTEM.norm>
0

>  <SCORE.heavy>
11

>  <SCORE.norm>
-2.23473

>  <RMSD>
4.892

$$$$
1akx_lig
 OpenBabel11021811383D
libRbt.so/2013.1/901 2013/11/27
 11 10  0  0  0  0  0  0  0  0999 V2000
   -7.1220   -6.1102   -2.0639 N   0  0  0  0  0  0  0  0  0  0  0  0
   -5.6770   -6.2321   -2.4177 C   0  0  2  0  0  0  0  0  0  0  0  0
   -5.1182   -7.5405   -1.8446 C   0  0  0  0  0  0  0  0  0  0  0  0
   -5.5582   -8.6120   -2.2112 O   0  0  0  0  0  0  0  0  0  0  0  0
   -4.9023   -5.0410   -1.8374 C   0  0  0  0  0  0  0  0  0  0  0  0
   -5.3170   -3.7541   -2.5579 C   0  0  0  0  0  0  0  0  0  0  0  0
   -4.4384   -2.5968   -2.0829 C   0  0  0  0  0  0  0  0  0  0  0  0
   -3.0156   -2.8837   -2.4230 N   0  0  0  0  0  0  0  0  0  0  0  0
   -2.0514   -2.4257   -1.6661 C   0  0  0  0  0  0  0  0  0  0  0  0
   -0.8888   -2.1288   -2.1872 N   0  0  0  0  0  0  0  0  0  0  0  0
   -2.2532   -2.2588   -0.3864 N   0  0  0  0  0  0  0  0  0  0  0  0
  2  1  1  1  0  0  0
  2  3  1  0  0  0  0
  2  5  1  0  0  0  0
  3  4  1  0  0  0  0
  5  6  1  0  0  0  0
  6  7  1  0  0  0  0
  7  8  1  0  0  0  0
  8  9  1  0  0  0  0
  9 10  1  0  0  0  0
  9 11  1  0  0  0  0
M  END
>  <CHROM.1>
-175.89252442,62.38275022,-67.98799122,-173.97850205,61.54810504,-149.34156415
-149.29643624,28.61602355,104.05107262,-4.21553557,-4.52316488,-1.96022561
2.24627284,0.13470418,3.12709180

>  <Name>
1akx_lig

>  <RI>
0

>  <Rbt.Current_Directory>
/home/itssahil/PROJECTS/Mol_Feturizer/New_Systems/rnas/1akx

>  <Rbt.Executable>
rbdock ($Id: //depot/dev/client3/rdock/2013.1/src/exe/rbdock.cxx#4 $)

>  <Rbt.Library>
libRbt.so (2013.1, Build901 2013/11/27)

>  <Rbt.Parameter_File>
/export/apps/rDock/src/rDock_2013.1_src/data/scripts/dock_solv.prm

>  <Rbt.Receptor>
prm/pocket_docking_7.prm

>  <SCORE>
-28.005

>  <SCORE.INTER>
-20.3883

>  <SCORE.INTER.CONST>
1

>  <SCORE.INTER.POLAR>
-3.11773

>  <SCORE.INTER.ROT>
8

>  <SCORE.INTER.SOLV>
6.45209

>  <SCORE.INTER.VDW>
-14.2838

>  <SCORE.INTER.norm>
-1.85348

>  <SCORE.INTRA>
-7.61675

>  <SCORE.INTRA.DIHEDRAL>
-16.371

>  <SCORE.INTRA.DIHEDRAL.0>
21.6454

>  <SCORE.INTRA.POLAR>
0

>  <SCORE.INTRA.POLAR.0>
0

>  <SCORE.INTRA.REPUL>
0

>  <SCORE.INTRA.REPUL.0>
0

>  <SCORE.INTRA.SOLV>
0.4636

>  <SCORE.INTRA.SOLV.lig_0>
-16.5947

>  <SCORE.INTRA.VDW>
0.336933

>  <SCORE.INTRA.VDW.0>
-0.691398

>  <SCORE.INTRA.norm>
-0.692432

>  <SCORE.RESTR>
0

>  <SCORE.RESTR.CAVITY>
0

>  <SCORE.RESTR.norm>
0

>  <SCORE.SYSTEM>
0

>  <SCORE.SYSTEM.CONST>
0

>  <SCORE.SYSTEM.DIHEDRAL>
0

>  <SCORE.SYSTEM.SOLV>
0

>  <SCORE.SYSTEM.norm>
0

>  <SCORE.heavy>
11

>  <SCORE.norm>
-2.54591

>  <RMSD>
4.896

$$$$
1akx_lig
 OpenBabel11021811383D
libRbt.so/2013.1/901 2013/11/27
 11 10  0  0  0  0  0  0  0  0999 V2000
   -5.9993   -4.4874   -3.1610 N   0  0  0  0  0  0  0  0  0  0  0  0
   -4.8899   -4.1709   -2.2138 C   0  0  2  0  0  0  0  0  0  0  0  0
   -5.2832   -4.6130   -0.7987 C   0  0  0  0  0  0  0  0  0  0  0  0
   -4.4895   -4.5273    0.1171 O   0  0  0  0  0  0  0  0  0  0  0  0
   -4.6170   -2.6607   -2.2264 C   0  0  0  0  0  0  0  0  0  0  0  0
   -3.8732   -2.2805   -3.5108 C   0  0  0  0  0  0  0  0  0  0  0  0
   -2.4352   -2.7942   -3.4395 C   0  0  0  0  0  0  0  0  0  0  0  0
   -1.8693   -2.4960   -2.0930 N   0  0  0  0  0  0  0  0  0  0  0  0
   -1.0380   -3.3332   -1.5269 C   0  0  0  0  0  0  0  0  0  0  0  0
   -0.9140   -4.5515   -1.9870 N   0  0  0  0  0  0  0  0  0  0  0  0
   -0.3249   -2.9482   -0.5025 N   0  0  0  0  0  0  0  0  0  0  0  0
  2  1  1  6  0  0  0
  2  3  1  0  0  0  0
  2  5  1  0  0  0  0
  3  4  1  0  0  0  0
  5  6  1  0  0  0  0
  6  7  1  0  0  0  0
  7  8  1  0  0  0  0
  8  9  1  0  0  0  0
  9 10  1  0  0  0  0
  9 11  1  0  0  0  0
M  END
>  <CHROM.1>
-69.76562937,175.27211152,-74.84822022,-71.84116012,-44.48841321,144.76416182
-14.63018992,-20.31162992,-141.02668571,-3.24736227,-3.55922464,-1.92106354
-3.11034447,0.23371643,2.07005828

>  <Name>
1akx_lig

>  <RI>
0

>  <Rbt.Current_Directory>
/home/itssahil/PROJECTS/Mol_Feturizer/New_Systems/rnas/1akx

>  <Rbt.Executable>
rbdock ($Id: //depot/dev/client3/rdock/2013.1/src/exe/rbdock.cxx#4 $)

>  <Rbt.Library>
libRbt.so (2013.1, Build901 2013/11/27)

>  <Rbt.Parameter_File>
/export/apps/rDock/src/rDock_2013.1_src/data/scripts/dock_solv.prm

>  <Rbt.Receptor>
prm/pocket_docking_3.prm

>  <SCORE>
-29.7799

>  <SCORE.INTER>
-24.6986

>  <SCORE.INTER.CONST>
1

>  <SCORE.INTER.POLAR>
-2.97674

>  <SCORE.INTER.ROT>
8

>  <SCORE.INTER.SOLV>
7.84692

>  <SCORE.INTER.VDW>
-18.0923

>  <SCORE.INTER.norm>
-2.24533

>  <SCORE.INTRA>
-5.08127

>  <SCORE.INTRA.DIHEDRAL>
-14.2594

>  <SCORE.INTRA.DIHEDRAL.0>
21.6454

>  <SCORE.INTRA.POLAR>
0

>  <SCORE.INTRA.POLAR.0>
0

>  <SCORE.INTRA.REPUL>
0

>  <SCORE.INTRA.REPUL.0>
0

>  <SCORE.INTRA.SOLV>
1.00244

>  <SCORE.INTRA.SOLV.lig_0>
-16.5947

>  <SCORE.INTRA.VDW>
1.54722

>  <SCORE.INTRA.VDW.0>
-0.691398

>  <SCORE.INTRA.norm>
-0.461934

>  <SCORE.RESTR>
0

>  <SCORE.RESTR.CAVITY>
0

>  <SCORE.RESTR.norm>
0

>  <SCORE.SYSTEM>
0

>  <SCORE.SYSTEM.CONST>
0

>  <SCORE.SYSTEM.DIHEDRAL>
0

>  <SCORE.SYSTEM.SOLV>
0

>  <SCORE.SYSTEM.norm>
0

>  <SCORE.heavy>
11

>  <SCORE.norm>
-2.70726

>  <RMSD>
4.912

$$$$
1akx_lig
 OpenBabel11021811383D
libRbt.so/2013.1/901 2013/11/27
 11 10  0  0  0  0  0  0  0  0999 V2000
   -7.6648   -6.5864   -2.5853 N   0  0  0  0  0  0  0  0  0  0  0  0
   -6.2876   -6.0224   -2.4688 C   0  0  2  0  0  0  0  0  0  0  0  0
   -5.2632   -7.1636   -2.4949 C   0  0  0  0  0  0  0  0  0  0  0  0
   -5.3939   -8.1266   -1.7656 O   0  0  0  0  0  0  0  0  0  0  0  0
   -6.1598   -5.2429   -1.1529 C   0  0  0  0  0  0  0  0  0  0  0  0
   -5.5895   -3.8485   -1.4314 C   0  0  0  0  0  0  0  0  0  0  0  0
   -4.1583   -3.9767   -1.9532 C   0  0  0  0  0  0  0  0  0  0  0  0
   -3.6825   -2.6452   -2.4254 N   0  0  0  0  0  0  0  0  0  0  0  0
   -3.3827   -2.4610   -3.6857 C   0  0  0  0  0  0  0  0  0  0  0  0
   -4.2530   -1.9184   -4.4978 N   0  0  0  0  0  0  0  0  0  0  0  0
   -2.2075   -2.8148   -4.1326 N   0  0  0  0  0  0  0  0  0  0  0  0
  2  1  1  1  0  0  0
  2  3  1  0  0  0  0
  2  5  1  0  0  0  0
  3  4  1  0  0  0  0
  5  6  1  0  0  0  0
  6  7  1  0  0  0  0
  7  8  1  0  0  0  0
  8  9  1  0  0  0  0
  9 10  1  0  0  0  0
  9 11  1  0  0  0  0
M  END
>  <CHROM.1>
62.75261432,-50.06955325,-129.15268548,-65.35319030,171.11805489,-116.54515210
97.77157541,-84.55950393,-65.04719782,-4.92582472,-4.63205785,-2.62675181
2.17185395,-0.36828074,3.03884310

>  <Name>
1akx_lig

>  <RI>
0

>  <Rbt.Current_Directory>
/home/itssahil/PROJECTS/Mol_Feturizer/New_Systems/rnas/1akx

>  <Rbt.Executable>
rbdock ($Id: //depot/dev/client3/rdock/2013.1/src/exe/rbdock.cxx#4 $)

>  <Rbt.Library>
libRbt.so (2013.1, Build901 2013/11/27)

>  <Rbt.Parameter_File>
/export/apps/rDock/src/rDock_2013.1_src/data/scripts/dock_solv.prm

>  <Rbt.Receptor>
prm/pocket_docking_8.prm

>  <SCORE>
-30.228

>  <SCORE.INTER>
-25.1731

>  <SCORE.INTER.CONST>
1

>  <SCORE.INTER.POLAR>
-3.42364

>  <SCORE.INTER.ROT>
8

>  <SCORE.INTER.SOLV>
8.21492

>  <SCORE.INTER.VDW>
-17.0415

>  <SCORE.INTER.norm>
-2.28846

>  <SCORE.INTRA>
-5.05492

>  <SCORE.INTRA.DIHEDRAL>
-10.5166

>  <SCORE.INTRA.DIHEDRAL.0>
21.6454

>  <SCORE.INTRA.POLAR>
0

>  <SCORE.INTRA.POLAR.0>
0

>  <SCORE.INTRA.REPUL>
0

>  <SCORE.INTRA.REPUL.0>
0

>  <SCORE.INTRA.SOLV>
0.437324

>  <SCORE.INTRA.SOLV.lig_0>
-16.5947

>  <SCORE.INTRA.VDW>
-0.0152577

>  <SCORE.INTRA.VDW.0>
-0.691398

>  <SCORE.INTRA.norm>
-0.459538

>  <SCORE.RESTR>
0

>  <SCORE.RESTR.CAVITY>
0

>  <SCORE.RESTR.norm>
0

>  <SCORE.SYSTEM>
0

>  <SCORE.SYSTEM.CONST>
0

>  <SCORE.SYSTEM.DIHEDRAL>
0

>  <SCORE.SYSTEM.SOLV>
0

>  <SCORE.SYSTEM.norm>
0

>  <SCORE.heavy>
11

>  <SCORE.norm>
-2.748

>  <RMSD>
4.923

$$$$
1akx_lig
 OpenBabel11021811383D
libRbt.so/2013.1/901 2013/11/27
 11 10  0  0  0  0  0  0  0  0999 V2000
   -8.6354   -4.3809    0.1741 N   0  0  0  0  0  0  0  0  0  0  0  0
   -7.1497   -4.5192    0.2162 C   0  0  2  0  0  0  0  0  0  0  0  0
   -6.6653   -4.3991    1.6666 C   0  0  0  0  0  0  0  0  0  0  0  0
   -7.0088   -5.2128    2.5009 O   0  0  0  0  0  0  0  0  0  0  0  0
   -6.5055   -3.4179   -0.6368 C   0  0  0  0  0  0  0  0  0  0  0  0
   -5.0517   -3.7884   -0.9474 C   0  0  0  0  0  0  0  0  0  0  0  0
   -4.4234   -2.7030   -1.8214 C   0  0  0  0  0  0  0  0  0  0  0  0
   -3.0331   -3.1015   -2.1825 N   0  0  0  0  0  0  0  0  0  0  0  0
   -2.0134   -2.5964   -1.5364 C   0  0  0  0  0  0  0  0  0  0  0  0
   -0.8662   -2.4293   -2.1426 N   0  0  0  0  0  0  0  0  0  0  0  0
   -2.1440   -2.2520   -0.2832 N   0  0  0  0  0  0  0  0  0  0  0  0
  2  1  1  1  0  0  0
  2  3  1  0  0  0  0
  2  5  1  0  0  0  0
  3  4  1  0  0  0  0
  5  6  1  0  0  0  0
  6  7  1  0  0  0  0
  7  8  1  0  0  0  0
  8  9  1  0  0  0  0
  9 10  1  0  0  0  0
  9 11  1  0  0  0  0
M  END
>  <CHROM.1>
49.84046454,62.94016660,-162.97612040,178.82248149,-176.97695475,-100.23665759
-149.37703261,-128.40184164,-63.20486773,-4.86967688,-3.53245904,-0.43455360
2.63603067,0.21474099,1.84512006

>  <Name>
1akx_lig

>  <RI>
0

>  <Rbt.Current_Directory>
/home/itssahil/PROJECTS/Mol_Feturizer/New_Systems/rnas/1akx

>  <Rbt.Executable>
rbdock ($Id: //depot/dev/client3/rdock/2013.1/src/exe/rbdock.cxx#4 $)

>  <Rbt.Library>
libRbt.so (2013.1, Build901 2013/11/27)

>  <Rbt.Parameter_File>
/export/apps/rDock/src/rDock_2013.1_src/data/scripts/dock_solv.prm

>  <Rbt.Receptor>
prm/pocket_docking_8.prm

>  <SCORE>
-29.0257

>  <SCORE.INTER>
-22.0178

>  <SCORE.INTER.CONST>
1

>  <SCORE.INTER.POLAR>
-3.2282

>  <SCORE.INTER.ROT>
8

>  <SCORE.INTER.SOLV>
6.63747

>  <SCORE.INTER.VDW>
-15.0637

>  <SCORE.INTER.norm>
-2.00162

>  <SCORE.INTRA>
-7.00793

>  <SCORE.INTRA.DIHEDRAL>
-15.4325

>  <SCORE.INTRA.DIHEDRAL.0>
21.6454

>  <SCORE.INTRA.POLAR>
0

>  <SCORE.INTRA.POLAR.0>
0

>  <SCORE.INTRA.REPUL>
0

>  <SCORE.INTRA.REPUL.0>
0

>  <SCORE.INTRA.SOLV>
0.272728

>  <SCORE.INTRA.SOLV.lig_0>
-16.5947

>  <SCORE.INTRA.VDW>
0.571953

>  <SCORE.INTRA.VDW.0>
-0.691398

>  <SCORE.INTRA.norm>
-0.637085

>  <SCORE.RESTR>
0

>  <SCORE.RESTR.CAVITY>
0

>  <SCORE.RESTR.norm>
0

>  <SCORE.SYSTEM>
0

>  <SCORE.SYSTEM.CONST>
0

>  <SCORE.SYSTEM.DIHEDRAL>
0

>  <SCORE.SYSTEM.SOLV>
0

>  <SCORE.SYSTEM.norm>
0

>  <SCORE.heavy>
11

>  <SCORE.norm>
-2.6387

>  <RMSD>
4.931

$$$$
1akx_lig
 OpenBabel11021811383D
libRbt.so/2013.1/901 2013/11/27
 11 10  0  0  0  0  0  0  0  0999 V2000
   -7.0706   -5.6427   -1.1927 N   0  0  0  0  0  0  0  0  0  0  0  0
   -6.2499   -4.6780   -0.4029 C   0  0  2  0  0  0  0  0  0  0  0  0
   -7.0468   -4.2099    0.8212 C   0  0  0  0  0  0  0  0  0  0  0  0
   -6.5431   -3.4629    1.6363 O   0  0  0  0  0  0  0  0  0  0  0  0
   -5.8904   -3.4699   -1.2785 C   0  0  0  0  0  0  0  0  0  0  0  0
   -5.2100   -3.9482   -2.5652 C   0  0  0  0  0  0  0  0  0  0  0  0
   -4.5375   -2.7632   -3.2584 C   0  0  0  0  0  0  0  0  0  0  0  0
   -3.1735   -2.5664   -2.6900 N   0  0  0  0  0  0  0  0  0  0  0  0
   -2.1385   -3.1447   -3.2439 C   0  0  0  0  0  0  0  0  0  0  0  0
   -1.2922   -3.8226   -2.5120 N   0  0  0  0  0  0  0  0  0  0  0  0
   -1.9538   -3.0495   -4.5334 N   0  0  0  0  0  0  0  0  0  0  0  0
  2  1  1  6  0  0  0
  2  3  1  0  0  0  0
  2  5  1  0  0  0  0
  3  4  1  0  0  0  0
  5  6  1  0  0  0  0
  6  7  1  0  0  0  0
  7  8  1  0  0  0  0
  8  9  1  0  0  0  0
  9 10  1  0  0  0  0
  9 11  1  0  0  0  0
M  END
>  <CHROM.1>
67.59173989,176.75995774,-54.48245802,-165.54468260,85.74138480,92.11391422
-130.33282487,-82.00623211,-162.66105458,-4.63419134,-3.72554666,-1.74547229
2.54328893,0.39991896,1.36308164

>  <Name>
1akx_lig

>  <RI>
0

>  <Rbt.Current_Directory>
/home/itssahil/PROJECTS/Mol_Feturizer/New_Systems/rnas/1akx

>  <Rbt.Executable>
rbdock ($Id: //depot/dev/client3/rdock/2013.1/src/exe/rbdock.cxx#4 $)

>  <Rbt.Library>
libRbt.so (2013.1, Build901 2013/11/27)

>  <Rbt.Parameter_File>
/export/apps/rDock/src/rDock_2013.1_src/data/scripts/dock_solv.prm

>  <Rbt.Receptor>
prm/pocket_docking_6.prm

>  <SCORE>
-33.811

>  <SCORE.INTER>
-27.576

>  <SCORE.INTER.CONST>
1

>  <SCORE.INTER.POLAR>
-3.5988

>  <SCORE.INTER.ROT>
8

>  <SCORE.INTER.SOLV>
8.25825

>  <SCORE.INTER.VDW>
-18.074

>  <SCORE.INTER.norm>
-2.50691

>  <SCORE.INTRA>
-6.23505

>  <SCORE.INTRA.DIHEDRAL>
-13.5628

>  <SCORE.INTRA.DIHEDRAL.0>
21.6454

>  <SCORE.INTRA.POLAR>
0

>  <SCORE.INTRA.POLAR.0>
0

>  <SCORE.INTRA.REPUL>
0

>  <SCORE.INTRA.REPUL.0>
0

>  <SCORE.INTRA.SOLV>
0.268271

>  <SCORE.INTRA.SOLV.lig_0>
-16.5947

>  <SCORE.INTRA.VDW>
0.412234

>  <SCORE.INTRA.VDW.0>
-0.691398

>  <SCORE.INTRA.norm>
-0.566823

>  <SCORE.RESTR>
0

>  <SCORE.RESTR.CAVITY>
0

>  <SCORE.RESTR.norm>
0

>  <SCORE.SYSTEM>
0

>  <SCORE.SYSTEM.CONST>
0

>  <SCORE.SYSTEM.DIHEDRAL>
0

>  <SCORE.SYSTEM.SOLV>
0

>  <SCORE.SYSTEM.norm>
0

>  <SCORE.heavy>
11

>  <SCORE.norm>
-3.07373

>  <RMSD>
4.937

$$$$
1akx_lig
 OpenBabel11021811383D
libRbt.so/2013.1/901 2013/11/27
 11 10  0  0  0  0  0  0  0  0999 V2000
   -5.9790   -4.5359   -3.1591 N   0  0  0  0  0  0  0  0  0  0  0  0
   -4.8240   -4.2205   -2.2676 C   0  0  2  0  0  0  0  0  0  0  0  0
   -5.1497   -4.6575   -0.8339 C   0  0  0  0  0  0  0  0  0  0  0  0
   -5.3919   -5.8216   -0.5840 O   0  0  0  0  0  0  0  0  0  0  0  0
   -4.5472   -2.7112   -2.2977 C   0  0  0  0  0  0  0  0  0  0  0  0
   -3.8541   -2.3389   -3.6124 C   0  0  0  0  0  0  0  0  0  0  0  0
   -2.3676   -2.0927   -3.3543 C   0  0  0  0  0  0  0  0  0  0  0  0
   -1.6625   -3.4009   -3.2364 N   0  0  0  0  0  0  0  0  0  0  0  0
   -1.2824   -3.8419   -2.0645 C   0  0  0  0  0  0  0  0  0  0  0  0
   -1.4299   -5.1046   -1.7559 N   0  0  0  0  0  0  0  0  0  0  0  0
   -0.7481   -3.0190   -1.2024 N   0  0  0  0  0  0  0  0  0  0  0  0
  2  1  1  6  0  0  0
  2  3  1  0  0  0  0
  2  5  1  0  0  0  0
  3  4  1  0  0  0  0
  5  6  1  0  0  0  0
  6  7  1  0  0  0  0
  7  8  1  0  0  0  0
  8  9  1  0  0  0  0
  9 10  1  0  0  0  0
  9 11  1  0  0  0  0
M  END
>  <CHROM.1>
168.34262153,60.23073906,-75.34494375,-104.20296116,78.44454555,-105.08208935
138.45840468,-70.22936733,137.24491270,-3.39672511,-3.84135366,-2.20493635
2.81766216,0.15068919,2.39112251

>  <Name>
1akx_lig

>  <RI>
0

>  <Rbt.Current_Directory>
/home/itssahil/PROJECTS/Mol_Feturizer/New_Systems/rnas/1akx

>  <Rbt.Executable>
rbdock ($Id: //depot/dev/client3/rdock/2013.1/src/exe/rbdock.cxx#4 $)

>  <Rbt.Library>
libRbt.so (2013.1, Build901 2013/11/27)

>  <Rbt.Parameter_File>
/export/apps/rDock/src/rDock_2013.1_src/data/scripts/dock_solv.prm

>  <Rbt.Receptor>
prm/pocket_docking_8.prm

>  <SCORE>
-24.1838

>  <SCORE.INTER>
-19.1572

>  <SCORE.INTER.CONST>
1

>  <SCORE.INTER.POLAR>
-2.15147

>  <SCORE.INTER.ROT>
8

>  <SCORE.INTER.SOLV>
7.92154

>  <SCORE.INTER.VDW>
-17.1738

>  <SCORE.INTER.norm>
-1.74157

>  <SCORE.INTRA>
-5.02658

>  <SCORE.INTRA.DIHEDRAL>
-9.29231

>  <SCORE.INTRA.DIHEDRAL.0>
21.6454

>  <SCORE.INTRA.POLAR>
0

>  <SCORE.INTRA.POLAR.0>
0

>  <SCORE.INTRA.REPUL>
0

>  <SCORE.INTRA.REPUL.0>
0

>  <SCORE.INTRA.SOLV>
1.3819

>  <SCORE.INTRA.SOLV.lig_0>
-16.5947

>  <SCORE.INTRA.VDW>
-1.07138

>  <SCORE.INTRA.VDW.0>
-0.691398

>  <SCORE.INTRA.norm>
-0.456962

>  <SCORE.RESTR>
0

>  <SCORE.RESTR.CAVITY>
0

>  <SCORE.RESTR.norm>
0

>  <SCORE.SYSTEM>
0

>  <SCORE.SYSTEM.CONST>
0

>  <SCORE.SYSTEM.DIHEDRAL>
0

>  <SCORE.SYSTEM.SOLV>
0

>  <SCORE.SYSTEM.norm>
0

>  <SCORE.heavy>
11

>  <SCORE.norm>
-2.19853

>  <RMSD>
4.942

$$$$
1akx_lig
 OpenBabel11021811383D
libRbt.so/2013.1/901 2013/11/27
 11 10  0  0  0  0  0  0  0  0999 V2000
   -6.0112   -4.5376   -3.1556 N   0  0  0  0  0  0  0  0  0  0  0  0
   -4.8501   -4.2269   -2.2703 C   0  0  2  0  0  0  0  0  0  0  0  0
   -5.1730   -4.6555   -0.8334 C   0  0  0  0  0  0  0  0  0  0  0  0
   -5.3462   -5.8274   -0.5635 O   0  0  0  0  0  0  0  0  0  0  0  0
   -4.5623   -2.7199   -2.3080 C   0  0  0  0  0  0  0  0  0  0  0  0
   -3.8244   -2.3668   -3.6035 C   0  0  0  0  0  0  0  0  0  0  0  0
   -2.3506   -2.1018   -3.2959 C   0  0  0  0  0  0  0  0  0  0  0  0
   -1.6450   -3.4000   -3.0988 N   0  0  0  0  0  0  0  0  0  0  0  0
   -1.1651   -3.7180   -1.9237 C   0  0  0  0  0  0  0  0  0  0  0  0
   -1.3651   -4.9135   -1.4315 N   0  0  0  0  0  0  0  0  0  0  0  0
   -0.4785   -2.8399   -1.2428 N   0  0  0  0  0  0  0  0  0  0  0  0
  2  1  1  6  0  0  0
  2  3  1  0  0  0  0
  2  5  1  0  0  0  0
  3  4  1  0  0  0  0
  5  6  1  0  0  0  0
  6  7  1  0  0  0  0
  7  8  1  0  0  0  0
  8  9  1  0  0  0  0
  9 10  1  0  0  0  0
  9 11  1  0  0  0  0
M  END
>  <CHROM.1>
48.06631259,64.52788499,-77.48686731,-105.24871253,77.29943219,-113.49195755
134.11151073,160.16633104,99.23542323,-3.35294475,-3.79973205,-2.14536029
2.86378627,0.19615248,2.36529683

>  <Name>
1akx_lig

>  <RI>
0

>  <Rbt.Current_Directory>
/home/itssahil/PROJECTS/Mol_Feturizer/New_Systems/rnas/1akx

>  <Rbt.Executable>
rbdock ($Id: //depot/dev/client3/rdock/2013.1/src/exe/rbdock.cxx#4 $)

>  <Rbt.Library>
libRbt.so (2013.1, Build901 2013/11/27)

>  <Rbt.Parameter_File>
/export/apps/rDock/src/rDock_2013.1_src/data/scripts/dock_solv.prm

>  <Rbt.Receptor>
prm/pocket_docking_7.prm

>  <SCORE>
-24.0731

>  <SCORE.INTER>
-19.0965

>  <SCORE.INTER.CONST>
1

>  <SCORE.INTER.POLAR>
-2.08737

>  <SCORE.INTER.ROT>
8

>  <SCORE.INTER.SOLV>
7.9842

>  <SCORE.INTER.VDW>
-17.3678

>  <SCORE.INTER.norm>
-1.73604

>  <SCORE.INTRA>
-4.97667

>  <SCORE.INTRA.DIHEDRAL>
-8.97307

>  <SCORE.INTRA.DIHEDRAL.0>
21.6454

>  <SCORE.INTRA.POLAR>
0

>  <SCORE.INTRA.POLAR.0>
0

>  <SCORE.INTRA.REPUL>
0

>  <SCORE.INTRA.REPUL.0>
0

>  <SCORE.INTRA.SOLV>
1.22231

>  <SCORE.INTRA.SOLV.lig_0>
-16.5947

>  <SCORE.INTRA.VDW>
-1.10129

>  <SCORE.INTRA.VDW.0>
-0.691398

>  <SCORE.INTRA.norm>
-0.452425

>  <SCORE.RESTR>
0

>  <SCORE.RESTR.CAVITY>
0

>  <SCORE.RESTR.norm>
0

>  <SCORE.SYSTEM>
0

>  <SCORE.SYSTEM.CONST>
0

>  <SCORE.SYSTEM.DIHEDRAL>
0

>  <SCORE.SYSTEM.SOLV>
0

>  <SCORE.SYSTEM.norm>
0

>  <SCORE.heavy>
11

>  <SCORE.norm>
-2.18847

>  <RMSD>
4.951

$$$$
1akx_lig
 OpenBabel11021811383D
libRbt.so/2013.1/901 2013/11/27
 11 10  0  0  0  0  0  0  0  0999 V2000
   -2.2050   -2.5177   -3.7067 N   0  0  0  0  0  0  0  0  0  0  0  0
   -2.4894   -2.2632   -2.2636 C   0  0  2  0  0  0  0  0  0  0  0  0
   -1.1990   -2.4276   -1.4509 C   0  0  0  0  0  0  0  0  0  0  0  0
   -0.5639   -3.4620   -1.5045 O   0  0  0  0  0  0  0  0  0  0  0  0
   -3.5456   -3.2580   -1.7635 C   0  0  0  0  0  0  0  0  0  0  0  0
   -4.9295   -2.8422   -2.2729 C   0  0  0  0  0  0  0  0  0  0  0  0
   -6.0060   -3.6363   -1.5331 C   0  0  0  0  0  0  0  0  0  0  0  0
   -6.0663   -3.1849   -0.1136 N   0  0  0  0  0  0  0  0  0  0  0  0
   -5.6525   -3.9716    0.8467 C   0  0  0  0  0  0  0  0  0  0  0  0
   -6.4534   -4.8756    1.3495 N   0  0  0  0  0  0  0  0  0  0  0  0
   -4.4329   -3.8576    1.3002 N   0  0  0  0  0  0  0  0  0  0  0  0
  2  1  1  6  0  0  0
  2  3  1  0  0  0  0
  2  5  1  0  0  0  0
  3  4  1  0  0  0  0
  5  6  1  0  0  0  0
  6  7  1  0  0  0  0
  7  8  1  0  0  0  0
  8  9  1  0  0  0  0
  9 10  1  0  0  0  0
  9 11  1  0  0  0  0
M  END
>  <CHROM.1>
-146.76852476,-55.77239934,-75.87990541,-167.54081773,69.67526159,-109.91155065
-84.42970381,-27.87106991,-109.20985283,-3.93163837,-3.31433322,-1.00742149
0.66008258,-0.06334653,-1.23346748

>  <Name>
1akx_lig

>  <RI>
0

>  <Rbt.Current_Directory>
/home/itssahil/PROJECTS/Mol_Feturizer/New_Systems/rnas/1akx

>  <Rbt.Executable>
rbdock ($Id: //depot/dev/client3/rdock/2013.1/src/exe/rbdock.cxx#4 $)

>  <Rbt.Library>
libRbt.so (2013.1, Build901 2013/11/27)

>  <Rbt.Parameter_File>
/export/apps/rDock/src/rDock_2013.1_src/data/scripts/dock_solv.prm

>  <Rbt.Receptor>
prm/pocket_docking_6.prm

>  <SCORE>
-27.2597

>  <SCORE.INTER>
-21.0753

>  <SCORE.INTER.CONST>
1

>  <SCORE.INTER.POLAR>
-2.69815

>  <SCORE.INTER.ROT>
8

>  <SCORE.INTER.SOLV>
5.50061

>  <SCORE.INTER.VDW>
-15.8232

>  <SCORE.INTER.norm>
-1.91594

>  <SCORE.INTRA>
-6.18436

>  <SCORE.INTRA.DIHEDRAL>
-12.7441

>  <SCORE.INTRA.DIHEDRAL.0>
21.6454

>  <SCORE.INTRA.POLAR>
0

>  <SCORE.INTRA.POLAR.0>
0

>  <SCORE.INTRA.REPUL>
0

>  <SCORE.INTRA.REPUL.0>
0

>  <SCORE.INTRA.SOLV>
0.863931

>  <SCORE.INTRA.SOLV.lig_0>
-16.5947

>  <SCORE.INTRA.VDW>
-0.244284

>  <SCORE.INTRA.VDW.0>
-0.691398

>  <SCORE.INTRA.norm>
-0.562215

>  <SCORE.RESTR>
0

>  <SCORE.RESTR.CAVITY>
0

>  <SCORE.RESTR.norm>
0

>  <SCORE.SYSTEM>
0

>  <SCORE.SYSTEM.CONST>
0

>  <SCORE.SYSTEM.DIHEDRAL>
0

>  <SCORE.SYSTEM.SOLV>
0

>  <SCORE.SYSTEM.norm>
0

>  <SCORE.heavy>
11

>  <SCORE.norm>
-2.47815

>  <RMSD>
4.954

$$$$
1akx_lig
 OpenBabel11021811383D
libRbt.so/2013.1/901 2013/11/27
 11 10  0  0  0  0  0  0  0  0999 V2000
   -6.0131   -3.1457   -1.3655 N   0  0  0  0  0  0  0  0  0  0  0  0
   -5.1919   -4.1819   -2.0583 C   0  0  2  0  0  0  0  0  0  0  0  0
   -5.6293   -5.5767   -1.5936 C   0  0  0  0  0  0  0  0  0  0  0  0
   -5.1078   -6.5722   -2.0553 O   0  0  0  0  0  0  0  0  0  0  0  0
   -3.7083   -3.9687   -1.7284 C   0  0  0  0  0  0  0  0  0  0  0  0
   -3.2068   -2.6891   -2.4056 C   0  0  0  0  0  0  0  0  0  0  0  0
   -1.7857   -2.3838   -1.9320 C   0  0  0  0  0  0  0  0  0  0  0  0
   -1.8060   -2.0720   -0.4744 N   0  0  0  0  0  0  0  0  0  0  0  0
   -0.9827   -2.6795    0.3414 C   0  0  0  0  0  0  0  0  0  0  0  0
   -0.5044   -3.8587    0.0379 N   0  0  0  0  0  0  0  0  0  0  0  0
   -0.6328   -2.1030    1.4600 N   0  0  0  0  0  0  0  0  0  0  0  0
  2  1  1  1  0  0  0
  2  3  1  0  0  0  0
  2  5  1  0  0  0  0
  3  4  1  0  0  0  0
  5  6  1  0  0  0  0
  6  7  1  0  0  0  0
  7  8  1  0  0  0  0
  8  9  1  0  0  0  0
  9 10  1  0  0  0  0
  9 11  1  0  0  0  0
M  END
>  <CHROM.1>
-59.77750553,178.44740176,-69.69136807,172.78643371,-65.20101221,129.47159871
-25.34601162,106.95092402,168.05284931,-3.15239308,-3.56764871,-1.03296177
2.73686260,0.48747404,3.03712702

>  <Name>
1akx_lig

>  <RI>
0

>  <Rbt.Current_Directory>
/home/afrankz/demos/rdock_decoys_rna/rnas/1akx

>  <Rbt.Executable>
rbdock ($Id: //depot/dev/client3/rdock/2013.1/src/exe/rbdock.cxx#4 $)

>  <Rbt.Library>
libRbt.so (2013.1, Build901 2013/11/27)

>  <Rbt.Parameter_File>
/export/apps/rDock/src/rDock_2013.1_src/data/scripts/dock_solv.prm

>  <Rbt.Receptor>
prm/pocket_docking_7.prm

>  <SCORE>
-26.0574

>  <SCORE.INTER>
-18.3886

>  <SCORE.INTER.CONST>
1

>  <SCORE.INTER.POLAR>
-2.66718

>  <SCORE.INTER.ROT>
8

>  <SCORE.INTER.SOLV>
4.75583

>  <SCORE.INTER.VDW>
-13.8871

>  <SCORE.INTER.norm>
-1.67169

>  <SCORE.INTRA>
-7.66883

>  <SCORE.INTRA.DIHEDRAL>
-16.1453

>  <SCORE.INTRA.DIHEDRAL.0>
21.6454

>  <SCORE.INTRA.POLAR>
0

>  <SCORE.INTRA.POLAR.0>
0

>  <SCORE.INTRA.REPUL>
0

>  <SCORE.INTRA.REPUL.0>
0

>  <SCORE.INTRA.SOLV>
0.388522

>  <SCORE.INTRA.SOLV.lig_0>
-16.5947

>  <SCORE.INTRA.VDW>
0.209545

>  <SCORE.INTRA.VDW.0>
-0.691398

>  <SCORE.INTRA.norm>
-0.697166

>  <SCORE.RESTR>
0

>  <SCORE.RESTR.CAVITY>
0

>  <SCORE.RESTR.norm>
0

>  <SCORE.SYSTEM>
0

>  <SCORE.SYSTEM.CONST>
0

>  <SCORE.SYSTEM.DIHEDRAL>
0

>  <SCORE.SYSTEM.SOLV>
0

>  <SCORE.SYSTEM.norm>
0

>  <SCORE.heavy>
11

>  <SCORE.norm>
-2.36886

>  <RMSD>
4.964

>  <RMSD>
4.964

$$$$
1akx_lig
 OpenBabel11021811383D
libRbt.so/2013.1/901 2013/11/27
 11 10  0  0  0  0  0  0  0  0999 V2000
   -6.0131   -3.1457   -1.3655 N   0  0  0  0  0  0  0  0  0  0  0  0
   -5.1919   -4.1819   -2.0583 C   0  0  2  0  0  0  0  0  0  0  0  0
   -5.6293   -5.5767   -1.5936 C   0  0  0  0  0  0  0  0  0  0  0  0
   -5.1078   -6.5722   -2.0553 O   0  0  0  0  0  0  0  0  0  0  0  0
   -3.7083   -3.9687   -1.7284 C   0  0  0  0  0  0  0  0  0  0  0  0
   -3.2068   -2.6891   -2.4056 C   0  0  0  0  0  0  0  0  0  0  0  0
   -1.7857   -2.3838   -1.9320 C   0  0  0  0  0  0  0  0  0  0  0  0
   -1.8060   -2.0720   -0.4744 N   0  0  0  0  0  0  0  0  0  0  0  0
   -0.9827   -2.6795    0.3414 C   0  0  0  0  0  0  0  0  0  0  0  0
   -0.5044   -3.8587    0.0379 N   0  0  0  0  0  0  0  0  0  0  0  0
   -0.6328   -2.1030    1.4600 N   0  0  0  0  0  0  0  0  0  0  0  0
  2  1  1  1  0  0  0
  2  3  1  0  0  0  0
  2  5  1  0  0  0  0
  3  4  1  0  0  0  0
  5  6  1  0  0  0  0
  6  7  1  0  0  0  0
  7  8  1  0  0  0  0
  8  9  1  0  0  0  0
  9 10  1  0  0  0  0
  9 11  1  0  0  0  0
M  END
>  <CHROM.1>
-59.77750553,178.44740176,-69.69136807,172.78643371,-65.20101221,129.47159871
-25.34601162,106.95092402,168.05284931,-3.15239308,-3.56764871,-1.03296177
2.73686260,0.48747404,3.03712702

>  <Name>
1akx_lig

>  <RI>
0

>  <Rbt.Current_Directory>
/home/afrankz/demos/rdock_decoys_rna/rnas/1akx

>  <Rbt.Executable>
rbdock ($Id: //depot/dev/client3/rdock/2013.1/src/exe/rbdock.cxx#4 $)

>  <Rbt.Library>
libRbt.so (2013.1, Build901 2013/11/27)

>  <Rbt.Parameter_File>
/export/apps/rDock/src/rDock_2013.1_src/data/scripts/dock_solv.prm

>  <Rbt.Receptor>
prm/pocket_docking_7.prm

>  <SCORE>
-26.0574

>  <SCORE.INTER>
-18.3886

>  <SCORE.INTER.CONST>
1

>  <SCORE.INTER.POLAR>
-2.66718

>  <SCORE.INTER.ROT>
8

>  <SCORE.INTER.SOLV>
4.75583

>  <SCORE.INTER.VDW>
-13.8871

>  <SCORE.INTER.norm>
-1.67169

>  <SCORE.INTRA>
-7.66883

>  <SCORE.INTRA.DIHEDRAL>
-16.1453

>  <SCORE.INTRA.DIHEDRAL.0>
21.6454

>  <SCORE.INTRA.POLAR>
0

>  <SCORE.INTRA.POLAR.0>
0

>  <SCORE.INTRA.REPUL>
0

>  <SCORE.INTRA.REPUL.0>
0

>  <SCORE.INTRA.SOLV>
0.388522

>  <SCORE.INTRA.SOLV.lig_0>
-16.5947

>  <SCORE.INTRA.VDW>
0.209545

>  <SCORE.INTRA.VDW.0>
-0.691398

>  <SCORE.INTRA.norm>
-0.697166

>  <SCORE.RESTR>
0

>  <SCORE.RESTR.CAVITY>
0

>  <SCORE.RESTR.norm>
0

>  <SCORE.SYSTEM>
0

>  <SCORE.SYSTEM.CONST>
0

>  <SCORE.SYSTEM.DIHEDRAL>
0

>  <SCORE.SYSTEM.SOLV>
0

>  <SCORE.SYSTEM.norm>
0

>  <SCORE.heavy>
11

>  <SCORE.norm>
-2.36886

>  <RMSD>
4.964

>  <RMSD>
4.964

$$$$
1akx_lig
 OpenBabel11021811383D
libRbt.so/2013.1/901 2013/11/27
 11 10  0  0  0  0  0  0  0  0999 V2000
   -2.0865   -2.7293   -3.4304 N   0  0  0  0  0  0  0  0  0  0  0  0
   -2.3124   -2.4708   -1.9777 C   0  0  2  0  0  0  0  0  0  0  0  0
   -1.0387   -2.8100   -1.1932 C   0  0  0  0  0  0  0  0  0  0  0  0
   -0.0036   -2.2116   -1.4093 O   0  0  0  0  0  0  0  0  0  0  0  0
   -3.4752   -3.3373   -1.4750 C   0  0  0  0  0  0  0  0  0  0  0  0
   -4.7805   -2.8857   -2.1379 C   0  0  0  0  0  0  0  0  0  0  0  0
   -5.9561   -3.6419   -1.5190 C   0  0  0  0  0  0  0  0  0  0  0  0
   -6.1537   -3.1851   -0.1138 N   0  0  0  0  0  0  0  0  0  0  0  0
   -5.9092   -3.9960    0.8837 C   0  0  0  0  0  0  0  0  0  0  0  0
   -6.1144   -3.6062    2.1155 N   0  0  0  0  0  0  0  0  0  0  0  0
   -5.4646   -5.2013    0.6476 N   0  0  0  0  0  0  0  0  0  0  0  0
  2  1  1  6  0  0  0
  2  3  1  0  0  0  0
  2  5  1  0  0  0  0
  3  4  1  0  0  0  0
  5  6  1  0  0  0  0
  6  7  1  0  0  0  0
  7  8  1  0  0  0  0
  8  9  1  0  0  0  0
  9 10  1  0  0  0  0
  9 11  1  0  0  0  0
M  END
>  <CHROM.1>
179.31202876,61.61298598,-66.44615467,-173.62238797,69.20978944,-111.92632958
-178.29003212,7.89980961,100.11107395,-3.91060238,-3.28339811,-0.87182770
0.56468752,-0.18467827,-1.39238798

>  <Name>
1akx_lig

>  <RI>
0

>  <Rbt.Current_Directory>
/home/itssahil/PROJECTS/Mol_Feturizer/New_Systems/rnas/1akx

>  <Rbt.Executable>
rbdock ($Id: //depot/dev/client3/rdock/2013.1/src/exe/rbdock.cxx#4 $)

>  <Rbt.Library>
libRbt.so (2013.1, Build901 2013/11/27)

>  <Rbt.Parameter_File>
/export/apps/rDock/src/rDock_2013.1_src/data/scripts/dock_solv.prm

>  <Rbt.Receptor>
prm/pocket_docking_6.prm

>  <SCORE>
-29.0256

>  <SCORE.INTER>
-21.6319

>  <SCORE.INTER.CONST>
1

>  <SCORE.INTER.POLAR>
-2.7838

>  <SCORE.INTER.ROT>
8

>  <SCORE.INTER.SOLV>
6.59259

>  <SCORE.INTER.VDW>
-16.2728

>  <SCORE.INTER.norm>
-1.96654

>  <SCORE.INTRA>
-7.39365

>  <SCORE.INTRA.DIHEDRAL>
-16.1867

>  <SCORE.INTRA.DIHEDRAL.0>
21.6454

>  <SCORE.INTRA.POLAR>
0

>  <SCORE.INTRA.POLAR.0>
0

>  <SCORE.INTRA.REPUL>
0

>  <SCORE.INTRA.REPUL.0>
0

>  <SCORE.INTRA.SOLV>
0.681403

>  <SCORE.INTRA.SOLV.lig_0>
-16.5947

>  <SCORE.INTRA.VDW>
0.358985

>  <SCORE.INTRA.VDW.0>
-0.691398

>  <SCORE.INTRA.norm>
-0.67215

>  <SCORE.RESTR>
0

>  <SCORE.RESTR.CAVITY>
0

>  <SCORE.RESTR.norm>
0

>  <SCORE.SYSTEM>
0

>  <SCORE.SYSTEM.CONST>
0

>  <SCORE.SYSTEM.DIHEDRAL>
0

>  <SCORE.SYSTEM.SOLV>
0

>  <SCORE.SYSTEM.norm>
0

>  <SCORE.heavy>
11

>  <SCORE.norm>
-2.63869

>  <RMSD>
4.974

$$$$
1akx_lig
 OpenBabel11021811383D
libRbt.so/2013.1/901 2013/11/27
 11 10  0  0  0  0  0  0  0  0999 V2000
   -8.9794   -4.5494    0.2817 N   0  0  0  0  0  0  0  0  0  0  0  0
   -7.5085   -4.7850    0.3775 C   0  0  2  0  0  0  0  0  0  0  0  0
   -7.1138   -4.9657    1.8486 C   0  0  0  0  0  0  0  0  0  0  0  0
   -7.3852   -4.1120    2.6694 O   0  0  0  0  0  0  0  0  0  0  0  0
   -6.7552   -3.5869   -0.2164 C   0  0  0  0  0  0  0  0  0  0  0  0
   -5.3816   -4.0392   -0.7222 C   0  0  0  0  0  0  0  0  0  0  0  0
   -4.7104   -2.8899   -1.4743 C   0  0  0  0  0  0  0  0  0  0  0  0
   -3.4402   -3.3740   -2.0863 N   0  0  0  0  0  0  0  0  0  0  0  0
   -2.7328   -2.5819   -2.8510 C   0  0  0  0  0  0  0  0  0  0  0  0
   -3.2736   -2.0281   -3.9056 N   0  0  0  0  0  0  0  0  0  0  0  0
   -1.4839   -2.3387   -2.5559 N   0  0  0  0  0  0  0  0  0  0  0  0
  2  1  1  1  0  0  0
  2  3  1  0  0  0  0
  2  5  1  0  0  0  0
  3  4  1  0  0  0  0
  5  6  1  0  0  0  0
  6  7  1  0  0  0  0
  7  8  1  0  0  0  0
  8  9  1  0  0  0  0
  9 10  1  0  0  0  0
  9 11  1  0  0  0  0
M  END
>  <CHROM.1>
171.89655179,-55.75625805,-153.79678804,172.66501403,-174.13395189,175.78989556
-56.42435933,-145.93293854,140.03505927,-5.35379276,-3.55720932,-0.78864451
2.42819985,0.18608331,1.81265726

>  <Name>
1akx_lig

>  <RI>
0

>  <Rbt.Current_Directory>
/home/itssahil/PROJECTS/Mol_Feturizer/New_Systems/rnas/1akx

>  <Rbt.Executable>
rbdock ($Id: //depot/dev/client3/rdock/2013.1/src/exe/rbdock.cxx#4 $)

>  <Rbt.Library>
libRbt.so (2013.1, Build901 2013/11/27)

>  <Rbt.Parameter_File>
/export/apps/rDock/src/rDock_2013.1_src/data/scripts/dock_solv.prm

>  <Rbt.Receptor>
prm/pocket_docking_6.prm

>  <SCORE>
-32.7274

>  <SCORE.INTER>
-26.6169

>  <SCORE.INTER.CONST>
1

>  <SCORE.INTER.POLAR>
-3.63907

>  <SCORE.INTER.ROT>
8

>  <SCORE.INTER.SOLV>
7.47253

>  <SCORE.INTER.VDW>
-17.0385

>  <SCORE.INTER.norm>
-2.41972

>  <SCORE.INTRA>
-6.48993

>  <SCORE.INTRA.DIHEDRAL>
-13.9084

>  <SCORE.INTRA.DIHEDRAL.0>
21.6454

>  <SCORE.INTRA.POLAR>
0

>  <SCORE.INTRA.POLAR.0>
0

>  <SCORE.INTRA.REPUL>
0

>  <SCORE.INTRA.REPUL.0>
0

>  <SCORE.INTRA.SOLV>
0.221752

>  <SCORE.INTRA.SOLV.lig_0>
-16.5947

>  <SCORE.INTRA.VDW>
0.353386

>  <SCORE.INTRA.VDW.0>
-0.691398

>  <SCORE.INTRA.norm>
-0.589993

>  <SCORE.RESTR>
0.379404

>  <SCORE.RESTR.CAVITY>
0.379404

>  <SCORE.RESTR.norm>
0.0344912

>  <SCORE.SYSTEM>
0

>  <SCORE.SYSTEM.CONST>
0

>  <SCORE.SYSTEM.DIHEDRAL>
0

>  <SCORE.SYSTEM.SOLV>
0

>  <SCORE.SYSTEM.norm>
0

>  <SCORE.heavy>
11

>  <SCORE.norm>
-2.97522

>  <RMSD>
4.992

$$$$
1akx_lig
 OpenBabel11021811383D
libRbt.so/2013.1/901 2013/11/27
 11 10  0  0  0  0  0  0  0  0999 V2000
   -7.8097   -6.6333   -2.5310 N   0  0  0  0  0  0  0  0  0  0  0  0
   -6.4136   -6.1605   -2.2950 C   0  0  2  0  0  0  0  0  0  0  0  0
   -5.4927   -7.3688   -2.0839 C   0  0  0  0  0  0  0  0  0  0  0  0
   -5.2768   -8.1459   -2.9927 O   0  0  0  0  0  0  0  0  0  0  0  0
   -6.3778   -5.2599   -1.0528 C   0  0  0  0  0  0  0  0  0  0  0  0
   -5.8437   -3.8753   -1.4334 C   0  0  0  0  0  0  0  0  0  0  0  0
   -4.3918   -3.9972   -1.8960 C   0  0  0  0  0  0  0  0  0  0  0  0
   -3.9095   -2.6680   -2.3681 N   0  0  0  0  0  0  0  0  0  0  0  0
   -3.5602   -2.4990   -3.6178 C   0  0  0  0  0  0  0  0  0  0  0  0
   -2.3948   -2.9185   -4.0389 N   0  0  0  0  0  0  0  0  0  0  0  0
   -4.3812   -1.9149   -4.4489 N   0  0  0  0  0  0  0  0  0  0  0  0
  2  1  1  1  0  0  0
  2  3  1  0  0  0  0
  2  5  1  0  0  0  0
  3  4  1  0  0  0  0
  5  6  1  0  0  0  0
  6  7  1  0  0  0  0
  7  8  1  0  0  0  0
  8  9  1  0  0  0  0
  9 10  1  0  0  0  0
  9 11  1  0  0  0  0
M  END
>  <CHROM.1>
-59.23101747,66.49139723,-121.23056136,-64.47891602,175.51936399,-116.60966328
-78.42567579,15.89196253,94.77277601,-5.08698311,-4.68798345,-2.65489069
2.26043512,-0.60377712,-2.99144827

>  <Name>
1akx_lig

>  <RI>
0

>  <Rbt.Current_Directory>
/home/itssahil/PROJECTS/Mol_Feturizer/New_Systems/rnas/1akx

>  <Rbt.Executable>
rbdock ($Id: //depot/dev/client3/rdock/2013.1/src/exe/rbdock.cxx#4 $)

>  <Rbt.Library>
libRbt.so (2013.1, Build901 2013/11/27)

>  <Rbt.Parameter_File>
/export/apps/rDock/src/rDock_2013.1_src/data/scripts/dock_solv.prm

>  <Rbt.Receptor>
prm/pocket_docking_6.prm

>  <SCORE>
-30.7537

>  <SCORE.INTER>
-25.4055

>  <SCORE.INTER.CONST>
1

>  <SCORE.INTER.POLAR>
-3.47008

>  <SCORE.INTER.ROT>
8

>  <SCORE.INTER.SOLV>
8.19946

>  <SCORE.INTER.VDW>
-17.0366

>  <SCORE.INTER.norm>
-2.30959

>  <SCORE.INTRA>
-5.34821

>  <SCORE.INTRA.DIHEDRAL>
-10.6632

>  <SCORE.INTRA.DIHEDRAL.0>
21.6454

>  <SCORE.INTRA.POLAR>
0

>  <SCORE.INTRA.POLAR.0>
0

>  <SCORE.INTRA.REPUL>
0

>  <SCORE.INTRA.REPUL.0>
0

>  <SCORE.INTRA.SOLV>
0.269109

>  <SCORE.INTRA.SOLV.lig_0>
-16.5947

>  <SCORE.INTRA.VDW>
-0.15118

>  <SCORE.INTRA.VDW.0>
-0.691398

>  <SCORE.INTRA.norm>
-0.486201

>  <SCORE.RESTR>
0

>  <SCORE.RESTR.CAVITY>
0

>  <SCORE.RESTR.norm>
0

>  <SCORE.SYSTEM>
0

>  <SCORE.SYSTEM.CONST>
0

>  <SCORE.SYSTEM.DIHEDRAL>
0

>  <SCORE.SYSTEM.SOLV>
0

>  <SCORE.SYSTEM.norm>
0

>  <SCORE.heavy>
11

>  <SCORE.norm>
-2.79579

>  <RMSD>
5.030

$$$$
1akx_lig
 OpenBabel11021811383D
libRbt.so/2013.1/901 2013/11/27
 11 10  0  0  0  0  0  0  0  0999 V2000
   -6.3559   -7.1390   -0.6513 N   0  0  0  0  0  0  0  0  0  0  0  0
   -6.7902   -6.1724   -1.7025 C   0  0  2  0  0  0  0  0  0  0  0  0
   -7.1983   -6.9397   -2.9664 C   0  0  0  0  0  0  0  0  0  0  0  0
   -6.3950   -7.6416   -3.5480 O   0  0  0  0  0  0  0  0  0  0  0  0
   -5.6369   -5.2140   -2.0293 C   0  0  0  0  0  0  0  0  0  0  0  0
   -5.3553   -4.3135   -0.8222 C   0  0  0  0  0  0  0  0  0  0  0  0
   -4.1177   -3.4599   -1.0994 C   0  0  0  0  0  0  0  0  0  0  0  0
   -4.3994   -2.5331   -2.2325 N   0  0  0  0  0  0  0  0  0  0  0  0
   -3.5916   -2.4841   -3.2608 C   0  0  0  0  0  0  0  0  0  0  0  0
   -2.3049   -2.6541   -3.0969 N   0  0  0  0  0  0  0  0  0  0  0  0
   -4.0732   -2.2710   -4.4561 N   0  0  0  0  0  0  0  0  0  0  0  0
  2  1  1  1  0  0  0
  2  3  1  0  0  0  0
  2  5  1  0  0  0  0
  3  4  1  0  0  0  0
  5  6  1  0  0  0  0
  6  7  1  0  0  0  0
  7  8  1  0  0  0  0
  8  9  1  0  0  0  0
  9 10  1  0  0  0  0
  9 11  1  0  0  0  0
M  END
>  <CHROM.1>
-179.17362612,-60.59723504,-67.38806133,174.31771515,64.75784195,-127.48407490
-34.37324523,-126.36808279,-45.80745466,-5.09609109,-4.64182050,-2.36736684
-2.99342330,-0.96418996,-1.61487553

>  <Name>
1akx_lig

>  <RI>
0

>  <Rbt.Current_Directory>
/home/afrankz/demos/rdock_decoys_rna/rnas/1akx

>  <Rbt.Executable>
rbdock ($Id: //depot/dev/client3/rdock/2013.1/src/exe/rbdock.cxx#4 $)

>  <Rbt.Library>
libRbt.so (2013.1, Build901 2013/11/27)

>  <Rbt.Parameter_File>
/export/apps/rDock/src/rDock_2013.1_src/data/scripts/dock_solv.prm

>  <Rbt.Receptor>
prm/pocket_docking_7.prm

>  <SCORE>
-30.9025

>  <SCORE.INTER>
-23.4208

>  <SCORE.INTER.CONST>
1

>  <SCORE.INTER.POLAR>
-3.45533

>  <SCORE.INTER.ROT>
8

>  <SCORE.INTER.SOLV>
6.65761

>  <SCORE.INTER.VDW>
-15.2487

>  <SCORE.INTER.norm>
-2.12917

>  <SCORE.INTRA>
-7.48171

>  <SCORE.INTRA.DIHEDRAL>
-16.4069

>  <SCORE.INTRA.DIHEDRAL.0>
21.6454

>  <SCORE.INTRA.POLAR>
0

>  <SCORE.INTRA.POLAR.0>
0

>  <SCORE.INTRA.REPUL>
0

>  <SCORE.INTRA.REPUL.0>
0

>  <SCORE.INTRA.SOLV>
0.671408

>  <SCORE.INTRA.SOLV.lig_0>
-16.5947

>  <SCORE.INTRA.VDW>
0.386016

>  <SCORE.INTRA.VDW.0>
-0.691398

>  <SCORE.INTRA.norm>
-0.680155

>  <SCORE.RESTR>
0

>  <SCORE.RESTR.CAVITY>
0

>  <SCORE.RESTR.norm>
0

>  <SCORE.SYSTEM>
0

>  <SCORE.SYSTEM.CONST>
0

>  <SCORE.SYSTEM.DIHEDRAL>
0

>  <SCORE.SYSTEM.SOLV>
0

>  <SCORE.SYSTEM.norm>
0

>  <SCORE.heavy>
11

>  <SCORE.norm>
-2.80932

>  <RMSD>
5.037

>  <RMSD>
5.037

$$$$
1akx_lig
 OpenBabel11021811383D
libRbt.so/2013.1/901 2013/11/27
 11 10  0  0  0  0  0  0  0  0999 V2000
   -6.3559   -7.1390   -0.6513 N   0  0  0  0  0  0  0  0  0  0  0  0
   -6.7902   -6.1724   -1.7025 C   0  0  2  0  0  0  0  0  0  0  0  0
   -7.1983   -6.9397   -2.9664 C   0  0  0  0  0  0  0  0  0  0  0  0
   -6.3950   -7.6416   -3.5480 O   0  0  0  0  0  0  0  0  0  0  0  0
   -5.6369   -5.2140   -2.0293 C   0  0  0  0  0  0  0  0  0  0  0  0
   -5.3553   -4.3135   -0.8222 C   0  0  0  0  0  0  0  0  0  0  0  0
   -4.1177   -3.4599   -1.0994 C   0  0  0  0  0  0  0  0  0  0  0  0
   -4.3994   -2.5331   -2.2325 N   0  0  0  0  0  0  0  0  0  0  0  0
   -3.5916   -2.4841   -3.2608 C   0  0  0  0  0  0  0  0  0  0  0  0
   -2.3049   -2.6541   -3.0969 N   0  0  0  0  0  0  0  0  0  0  0  0
   -4.0732   -2.2710   -4.4561 N   0  0  0  0  0  0  0  0  0  0  0  0
  2  1  1  1  0  0  0
  2  3  1  0  0  0  0
  2  5  1  0  0  0  0
  3  4  1  0  0  0  0
  5  6  1  0  0  0  0
  6  7  1  0  0  0  0
  7  8  1  0  0  0  0
  8  9  1  0  0  0  0
  9 10  1  0  0  0  0
  9 11  1  0  0  0  0
M  END
>  <CHROM.1>
-179.17362612,-60.59723504,-67.38806133,174.31771515,64.75784195,-127.48407490
-34.37324523,-126.36808279,-45.80745466,-5.09609109,-4.64182050,-2.36736684
-2.99342330,-0.96418996,-1.61487553

>  <Name>
1akx_lig

>  <RI>
0

>  <Rbt.Current_Directory>
/home/afrankz/demos/rdock_decoys_rna/rnas/1akx

>  <Rbt.Executable>
rbdock ($Id: //depot/dev/client3/rdock/2013.1/src/exe/rbdock.cxx#4 $)

>  <Rbt.Library>
libRbt.so (2013.1, Build901 2013/11/27)

>  <Rbt.Parameter_File>
/export/apps/rDock/src/rDock_2013.1_src/data/scripts/dock_solv.prm

>  <Rbt.Receptor>
prm/pocket_docking_7.prm

>  <SCORE>
-30.9025

>  <SCORE.INTER>
-23.4208

>  <SCORE.INTER.CONST>
1

>  <SCORE.INTER.POLAR>
-3.45533

>  <SCORE.INTER.ROT>
8

>  <SCORE.INTER.SOLV>
6.65761

>  <SCORE.INTER.VDW>
-15.2487

>  <SCORE.INTER.norm>
-2.12917

>  <SCORE.INTRA>
-7.48171

>  <SCORE.INTRA.DIHEDRAL>
-16.4069

>  <SCORE.INTRA.DIHEDRAL.0>
21.6454

>  <SCORE.INTRA.POLAR>
0

>  <SCORE.INTRA.POLAR.0>
0

>  <SCORE.INTRA.REPUL>
0

>  <SCORE.INTRA.REPUL.0>
0

>  <SCORE.INTRA.SOLV>
0.671408

>  <SCORE.INTRA.SOLV.lig_0>
-16.5947

>  <SCORE.INTRA.VDW>
0.386016

>  <SCORE.INTRA.VDW.0>
-0.691398

>  <SCORE.INTRA.norm>
-0.680155

>  <SCORE.RESTR>
0

>  <SCORE.RESTR.CAVITY>
0

>  <SCORE.RESTR.norm>
0

>  <SCORE.SYSTEM>
0

>  <SCORE.SYSTEM.CONST>
0

>  <SCORE.SYSTEM.DIHEDRAL>
0

>  <SCORE.SYSTEM.SOLV>
0

>  <SCORE.SYSTEM.norm>
0

>  <SCORE.heavy>
11

>  <SCORE.norm>
-2.80932

>  <RMSD>
5.037

>  <RMSD>
5.037

$$$$
1akx_lig
 OpenBabel11021811383D
libRbt.so/2013.1/901 2013/11/27
 11 10  0  0  0  0  0  0  0  0999 V2000
   -6.6694   -5.4206   -1.7130 N   0  0  0  0  0  0  0  0  0  0  0  0
   -5.6550   -4.4479   -1.2100 C   0  0  2  0  0  0  0  0  0  0  0  0
   -6.3403   -3.4147   -0.3069 C   0  0  0  0  0  0  0  0  0  0  0  0
   -5.6818   -2.5974    0.3052 O   0  0  0  0  0  0  0  0  0  0  0  0
   -4.9901   -3.7372   -2.3966 C   0  0  0  0  0  0  0  0  0  0  0  0
   -3.6865   -3.0755   -1.9384 C   0  0  0  0  0  0  0  0  0  0  0  0
   -2.8426   -2.7095   -3.1594 C   0  0  0  0  0  0  0  0  0  0  0  0
   -1.4215   -2.5350   -2.7445 N   0  0  0  0  0  0  0  0  0  0  0  0
   -0.9101   -3.2925   -1.8080 C   0  0  0  0  0  0  0  0  0  0  0  0
   -0.8274   -4.5868   -1.9792 N   0  0  0  0  0  0  0  0  0  0  0  0
   -0.4749   -2.7529   -0.7011 N   0  0  0  0  0  0  0  0  0  0  0  0
  2  1  1  6  0  0  0
  2  3  1  0  0  0  0
  2  5  1  0  0  0  0
  3  4  1  0  0  0  0
  5  6  1  0  0  0  0
  6  7  1  0  0  0  0
  7  8  1  0  0  0  0
  8  9  1  0  0  0  0
  9 10  1  0  0  0  0
  9 11  1  0  0  0  0
M  END
>  <CHROM.1>
-57.37772500,173.51127063,-162.82737546,164.47066682,-159.73952674,35.68345280
62.37820667,-24.26548579,-130.51415386,-3.59007075,-3.52785867,-1.58555332
3.11127796,0.23672917,0.91748397

>  <Name>
1akx_lig

>  <RI>
0

>  <Rbt.Current_Directory>
/home/itssahil/PROJECTS/Mol_Feturizer/New_Systems/rnas/1akx

>  <Rbt.Executable>
rbdock ($Id: //depot/dev/client3/rdock/2013.1/src/exe/rbdock.cxx#4 $)

>  <Rbt.Library>
libRbt.so (2013.1, Build901 2013/11/27)

>  <Rbt.Parameter_File>
/export/apps/rDock/src/rDock_2013.1_src/data/scripts/dock_solv.prm

>  <Rbt.Receptor>
prm/pocket_docking_5.prm

>  <SCORE>
-25.789

>  <SCORE.INTER>
-21.3101

>  <SCORE.INTER.CONST>
1

>  <SCORE.INTER.POLAR>
-2.68739

>  <SCORE.INTER.ROT>
8

>  <SCORE.INTER.SOLV>
8.1944

>  <SCORE.INTER.VDW>
-16.9136

>  <SCORE.INTER.norm>
-1.93728

>  <SCORE.INTRA>
-4.47892

>  <SCORE.INTRA.DIHEDRAL>
-13.2013

>  <SCORE.INTRA.DIHEDRAL.0>
21.6454

>  <SCORE.INTRA.POLAR>
0

>  <SCORE.INTRA.POLAR.0>
0

>  <SCORE.INTRA.REPUL>
0

>  <SCORE.INTRA.REPUL.0>
0

>  <SCORE.INTRA.SOLV>
0.463174

>  <SCORE.INTRA.SOLV.lig_0>
-16.5947

>  <SCORE.INTRA.VDW>
1.89015

>  <SCORE.INTRA.VDW.0>
-0.691398

>  <SCORE.INTRA.norm>
-0.407174

>  <SCORE.RESTR>
0

>  <SCORE.RESTR.CAVITY>
0

>  <SCORE.RESTR.norm>
0

>  <SCORE.SYSTEM>
0

>  <SCORE.SYSTEM.CONST>
0

>  <SCORE.SYSTEM.DIHEDRAL>
0

>  <SCORE.SYSTEM.SOLV>
0

>  <SCORE.SYSTEM.norm>
0

>  <SCORE.heavy>
11

>  <SCORE.norm>
-2.34446

>  <RMSD>
5.041

$$$$
1akx_lig
 OpenBabel11021811383D
libRbt.so/2013.1/901 2013/11/27
 11 10  0  0  0  0  0  0  0  0999 V2000
   -9.0769   -4.5624    0.2584 N   0  0  0  0  0  0  0  0  0  0  0  0
   -7.6012   -4.6137    0.4768 C   0  0  2  0  0  0  0  0  0  0  0  0
   -7.2933   -4.3516    1.9564 C   0  0  0  0  0  0  0  0  0  0  0  0
   -7.6595   -5.1342    2.8105 O   0  0  0  0  0  0  0  0  0  0  0  0
   -6.9148   -3.5496   -0.3904 C   0  0  0  0  0  0  0  0  0  0  0  0
   -5.4343   -3.9024   -0.5664 C   0  0  0  0  0  0  0  0  0  0  0  0
   -4.8134   -2.9885   -1.6228 C   0  0  0  0  0  0  0  0  0  0  0  0
   -3.3415   -3.2192   -1.6735 N   0  0  0  0  0  0  0  0  0  0  0  0
   -2.6629   -2.9143   -2.7500 C   0  0  0  0  0  0  0  0  0  0  0  0
   -3.2073   -2.1810   -3.6867 N   0  0  0  0  0  0  0  0  0  0  0  0
   -1.4352   -3.3387   -2.8863 N   0  0  0  0  0  0  0  0  0  0  0  0
  2  1  1  1  0  0  0
  2  3  1  0  0  0  0
  2  5  1  0  0  0  0
  3  4  1  0  0  0  0
  5  6  1  0  0  0  0
  6  7  1  0  0  0  0
  7  8  1  0  0  0  0
  8  9  1  0  0  0  0
  9 10  1  0  0  0  0
  9 11  1  0  0  0  0
M  END
>  <CHROM.1>
-73.61293004,65.06734933,-159.98563855,170.05559970,173.15129607,157.20946059
12.92969197,-165.43074392,-137.82938178,-5.41435150,-3.71202772,-0.73725317
2.43498954,-0.00454690,1.96881033

>  <Name>
1akx_lig

>  <RI>
0

>  <Rbt.Current_Directory>
/home/itssahil/PROJECTS/Mol_Feturizer/New_Systems/rnas/1akx

>  <Rbt.Executable>
rbdock ($Id: //depot/dev/client3/rdock/2013.1/src/exe/rbdock.cxx#4 $)

>  <Rbt.Library>
libRbt.so (2013.1, Build901 2013/11/27)

>  <Rbt.Parameter_File>
/export/apps/rDock/src/rDock_2013.1_src/data/scripts/dock_solv.prm

>  <Rbt.Receptor>
prm/pocket_docking_8.prm

>  <SCORE>
-31.7377

>  <SCORE.INTER>
-26.4025

>  <SCORE.INTER.CONST>
1

>  <SCORE.INTER.POLAR>
-3.92531

>  <SCORE.INTER.ROT>
8

>  <SCORE.INTER.SOLV>
6.75269

>  <SCORE.INTER.VDW>
-15.7015

>  <SCORE.INTER.norm>
-2.40022

>  <SCORE.INTRA>
-5.33524

>  <SCORE.INTRA.DIHEDRAL>
-14.2659

>  <SCORE.INTRA.DIHEDRAL.0>
21.6454

>  <SCORE.INTRA.POLAR>
0

>  <SCORE.INTRA.POLAR.0>
0

>  <SCORE.INTRA.REPUL>
0

>  <SCORE.INTRA.REPUL.0>
0

>  <SCORE.INTRA.SOLV>
0.107831

>  <SCORE.INTRA.SOLV.lig_0>
-16.5947

>  <SCORE.INTRA.VDW>
1.7438

>  <SCORE.INTRA.VDW.0>
-0.691398

>  <SCORE.INTRA.norm>
-0.485022

>  <SCORE.RESTR>
0

>  <SCORE.RESTR.CAVITY>
0

>  <SCORE.RESTR.norm>
0

>  <SCORE.SYSTEM>
0

>  <SCORE.SYSTEM.CONST>
0

>  <SCORE.SYSTEM.DIHEDRAL>
0

>  <SCORE.SYSTEM.SOLV>
0

>  <SCORE.SYSTEM.norm>
0

>  <SCORE.heavy>
11

>  <SCORE.norm>
-2.88525

>  <RMSD>
5.080

$$$$
1akx_lig
 OpenBabel11021811383D
libRbt.so/2013.1/901 2013/11/27
 11 10  0  0  0  0  0  0  0  0999 V2000
   -6.1754   -4.6536   -3.1949 N   0  0  0  0  0  0  0  0  0  0  0  0
   -5.0720   -4.5352   -2.1966 C   0  0  2  0  0  0  0  0  0  0  0  0
   -5.6673   -4.3761   -0.7920 C   0  0  0  0  0  0  0  0  0  0  0  0
   -4.9428   -4.2210    0.1710 O   0  0  0  0  0  0  0  0  0  0  0  0
   -4.2034   -3.3149   -2.5311 C   0  0  0  0  0  0  0  0  0  0  0  0
   -2.9014   -3.3706   -1.7254 C   0  0  0  0  0  0  0  0  0  0  0  0
   -1.8762   -2.4209   -2.3451 C   0  0  0  0  0  0  0  0  0  0  0  0
   -0.6313   -2.4332   -1.5251 N   0  0  0  0  0  0  0  0  0  0  0  0
   -0.7024   -2.4467   -0.2185 C   0  0  0  0  0  0  0  0  0  0  0  0
   -1.4494   -1.5758    0.4100 N   0  0  0  0  0  0  0  0  0  0  0  0
   -0.0298   -3.3375    0.4598 N   0  0  0  0  0  0  0  0  0  0  0  0
  2  1  1  6  0  0  0
  2  3  1  0  0  0  0
  2  5  1  0  0  0  0
  3  4  1  0  0  0  0
  5  6  1  0  0  0  0
  6  7  1  0  0  0  0
  7  8  1  0  0  0  0
  8  9  1  0  0  0  0
  9 10  1  0  0  0  0
  9 11  1  0  0  0  0
M  END
>  <CHROM.1>
146.91541320,-177.70899136,-166.92016385,163.13730912,177.57931805,-41.00083308
-50.76680665,34.82637874,-135.74429438,-3.06981216,-3.34183925,-1.20768733
-2.85260398,0.39977122,1.66201520

>  <Name>
1akx_lig

>  <RI>
0

>  <Rbt.Current_Directory>
/home/itssahil/PROJECTS/Mol_Feturizer/New_Systems/rnas/1akx

>  <Rbt.Executable>
rbdock ($Id: //depot/dev/client3/rdock/2013.1/src/exe/rbdock.cxx#4 $)

>  <Rbt.Library>
libRbt.so (2013.1, Build901 2013/11/27)

>  <Rbt.Parameter_File>
/export/apps/rDock/src/rDock_2013.1_src/data/scripts/dock_solv.prm

>  <Rbt.Receptor>
prm/pocket_docking_3.prm

>  <SCORE>
-27.3101

>  <SCORE.INTER>
-24.2906

>  <SCORE.INTER.CONST>
1

>  <SCORE.INTER.POLAR>
-3.8922

>  <SCORE.INTER.ROT>
8

>  <SCORE.INTER.SOLV>
7.56715

>  <SCORE.INTER.VDW>
-14.6755

>  <SCORE.INTER.norm>
-2.20824

>  <SCORE.INTRA>
-3.26732

>  <SCORE.INTRA.DIHEDRAL>
-12.935

>  <SCORE.INTRA.DIHEDRAL.0>
21.6454

>  <SCORE.INTRA.POLAR>
0

>  <SCORE.INTRA.POLAR.0>
0

>  <SCORE.INTRA.REPUL>
0

>  <SCORE.INTRA.REPUL.0>
0

>  <SCORE.INTRA.SOLV>
0.490646

>  <SCORE.INTRA.SOLV.lig_0>
-16.5947

>  <SCORE.INTRA.VDW>
2.95484

>  <SCORE.INTRA.VDW.0>
-0.691398

>  <SCORE.INTRA.norm>
-0.297029

>  <SCORE.RESTR>
0.247839

>  <SCORE.RESTR.CAVITY>
0.247839

>  <SCORE.RESTR.norm>
0.0225308

>  <SCORE.SYSTEM>
0

>  <SCORE.SYSTEM.CONST>
0

>  <SCORE.SYSTEM.DIHEDRAL>
0

>  <SCORE.SYSTEM.SOLV>
0

>  <SCORE.SYSTEM.norm>
0

>  <SCORE.heavy>
11

>  <SCORE.norm>
-2.48273

>  <RMSD>
5.083

$$$$
1akx_lig
 OpenBabel11021811383D
libRbt.so/2013.1/901 2013/11/27
 11 10  0  0  0  0  0  0  0  0999 V2000
   -6.0208   -4.5237   -3.1443 N   0  0  0  0  0  0  0  0  0  0  0  0
   -4.8819   -4.2359   -2.2233 C   0  0  2  0  0  0  0  0  0  0  0  0
   -5.2779   -4.6059   -0.7884 C   0  0  0  0  0  0  0  0  0  0  0  0
   -6.2337   -4.0770   -0.2565 O   0  0  0  0  0  0  0  0  0  0  0  0
   -4.5271   -2.7444   -2.2933 C   0  0  0  0  0  0  0  0  0  0  0  0
   -3.9319   -2.4186   -3.6670 C   0  0  0  0  0  0  0  0  0  0  0  0
   -2.4544   -2.0584   -3.5112 C   0  0  0  0  0  0  0  0  0  0  0  0
   -1.6668   -3.2984   -3.2579 N   0  0  0  0  0  0  0  0  0  0  0  0
   -1.1473   -3.5200   -2.0774 C   0  0  0  0  0  0  0  0  0  0  0  0
   -0.2437   -2.7081   -1.5920 N   0  0  0  0  0  0  0  0  0  0  0  0
   -1.5375   -4.5526   -1.3791 N   0  0  0  0  0  0  0  0  0  0  0  0
  2  1  1  6  0  0  0
  2  3  1  0  0  0  0
  2  5  1  0  0  0  0
  3  4  1  0  0  0  0
  5  6  1  0  0  0  0
  6  7  1  0  0  0  0
  7  8  1  0  0  0  0
  8  9  1  0  0  0  0
  9 10  1  0  0  0  0
  9 11  1  0  0  0  0
M  END
>  <CHROM.1>
168.54253979,-59.22756658,-68.21737553,-112.18645968,74.67766654,-109.23634420
-62.70026756,101.63655768,-106.94189320,-3.46243574,-3.55063412,-2.18535835
2.91435823,0.13575129,2.07953457

>  <Name>
1akx_lig

>  <RI>
0

>  <Rbt.Current_Directory>
/home/itssahil/PROJECTS/Mol_Feturizer/New_Systems/rnas/1akx

>  <Rbt.Executable>
rbdock ($Id: //depot/dev/client3/rdock/2013.1/src/exe/rbdock.cxx#4 $)

>  <Rbt.Library>
libRbt.so (2013.1, Build901 2013/11/27)

>  <Rbt.Parameter_File>
/export/apps/rDock/src/rDock_2013.1_src/data/scripts/dock_solv.prm

>  <Rbt.Receptor>
prm/pocket_docking_5.prm

>  <SCORE>
-25.2802

>  <SCORE.INTER>
-20.3785

>  <SCORE.INTER.CONST>
1

>  <SCORE.INTER.POLAR>
-2.16128

>  <SCORE.INTER.ROT>
8

>  <SCORE.INTER.SOLV>
8.63544

>  <SCORE.INTER.VDW>
-18.1933

>  <SCORE.INTER.norm>
-1.85259

>  <SCORE.INTRA>
-4.98771

>  <SCORE.INTRA.DIHEDRAL>
-9.61332

>  <SCORE.INTRA.DIHEDRAL.0>
21.6454

>  <SCORE.INTRA.POLAR>
0

>  <SCORE.INTRA.POLAR.0>
0

>  <SCORE.INTRA.REPUL>
0

>  <SCORE.INTRA.REPUL.0>
0

>  <SCORE.INTRA.SOLV>
1.30525

>  <SCORE.INTRA.SOLV.lig_0>
-16.5947

>  <SCORE.INTRA.VDW>
-0.833668

>  <SCORE.INTRA.VDW.0>
-0.691398

>  <SCORE.INTRA.norm>
-0.453428

>  <SCORE.RESTR>
0.0860508

>  <SCORE.RESTR.CAVITY>
0.0860508

>  <SCORE.RESTR.norm>
0.0078228

>  <SCORE.SYSTEM>
0

>  <SCORE.SYSTEM.CONST>
0

>  <SCORE.SYSTEM.DIHEDRAL>
0

>  <SCORE.SYSTEM.SOLV>
0

>  <SCORE.SYSTEM.norm>
0

>  <SCORE.heavy>
11

>  <SCORE.norm>
-2.2982

>  <RMSD>
5.101

$$$$
1akx_lig
 OpenBabel11021811383D
libRbt.so/2013.1/901 2013/11/27
 11 10  0  0  0  0  0  0  0  0999 V2000
   -5.9091   -3.9167   -3.0591 N   0  0  0  0  0  0  0  0  0  0  0  0
   -5.2426   -5.0646   -2.3763 C   0  0  2  0  0  0  0  0  0  0  0  0
   -6.2761   -5.8373   -1.5473 C   0  0  0  0  0  0  0  0  0  0  0  0
   -7.2204   -6.3781   -2.0876 O   0  0  0  0  0  0  0  0  0  0  0  0
   -4.1295   -4.5419   -1.4579 C   0  0  0  0  0  0  0  0  0  0  0  0
   -3.2771   -5.7136   -0.9604 C   0  0  0  0  0  0  0  0  0  0  0  0
   -1.9786   -5.1800   -0.3553 C   0  0  0  0  0  0  0  0  0  0  0  0
   -1.1590   -4.5432   -1.4253 N   0  0  0  0  0  0  0  0  0  0  0  0
   -0.9614   -3.2496   -1.4229 C   0  0  0  0  0  0  0  0  0  0  0  0
   -1.6661   -2.4737   -2.2056 N   0  0  0  0  0  0  0  0  0  0  0  0
   -0.0613   -2.7312   -0.6310 N   0  0  0  0  0  0  0  0  0  0  0  0
  2  1  1  1  0  0  0
  2  3  1  0  0  0  0
  2  5  1  0  0  0  0
  3  4  1  0  0  0  0
  5  6  1  0  0  0  0
  6  7  1  0  0  0  0
  7  8  1  0  0  0  0
  8  9  1  0  0  0  0
  9 10  1  0  0  0  0
  9 11  1  0  0  0  0
M  END
>  <CHROM.1>
-107.71098978,62.29784241,-169.50241687,165.49994256,-65.77220247,112.12092585
-100.25113791,88.35814460,40.33910104,-3.46168056,-4.47337596,-1.62486015
2.91648225,0.34684713,2.58944984

>  <Name>
1akx_lig

>  <RI>
0

>  <Rbt.Current_Directory>
/home/itssahil/PROJECTS/Mol_Feturizer/New_Systems/rnas/1akx

>  <Rbt.Executable>
rbdock ($Id: //depot/dev/client3/rdock/2013.1/src/exe/rbdock.cxx#4 $)

>  <Rbt.Library>
libRbt.so (2013.1, Build901 2013/11/27)

>  <Rbt.Parameter_File>
/export/apps/rDock/src/rDock_2013.1_src/data/scripts/dock_solv.prm

>  <Rbt.Receptor>
prm/pocket_docking_7.prm

>  <SCORE>
-25.4191

>  <SCORE.INTER>
-20.6331

>  <SCORE.INTER.CONST>
1

>  <SCORE.INTER.POLAR>
-3.72228

>  <SCORE.INTER.ROT>
8

>  <SCORE.INTER.SOLV>
7.7153

>  <SCORE.INTER.VDW>
-12.8529

>  <SCORE.INTER.norm>
-1.87574

>  <SCORE.INTRA>
-4.78596

>  <SCORE.INTRA.DIHEDRAL>
-12.1852

>  <SCORE.INTRA.DIHEDRAL.0>
21.6454

>  <SCORE.INTRA.POLAR>
0

>  <SCORE.INTRA.POLAR.0>
0

>  <SCORE.INTRA.REPUL>
0

>  <SCORE.INTRA.REPUL.0>
0

>  <SCORE.INTRA.SOLV>
0.689

>  <SCORE.INTRA.SOLV.lig_0>
-16.5947

>  <SCORE.INTRA.VDW>
0.962142

>  <SCORE.INTRA.VDW.0>
-0.691398

>  <SCORE.INTRA.norm>
-0.435087

>  <SCORE.RESTR>
0

>  <SCORE.RESTR.CAVITY>
0

>  <SCORE.RESTR.norm>
0

>  <SCORE.SYSTEM>
0

>  <SCORE.SYSTEM.CONST>
0

>  <SCORE.SYSTEM.DIHEDRAL>
0

>  <SCORE.SYSTEM.SOLV>
0

>  <SCORE.SYSTEM.norm>
0

>  <SCORE.heavy>
11

>  <SCORE.norm>
-2.31083

>  <RMSD>
5.101

$$$$
1akx_lig
 OpenBabel11021811383D
libRbt.so/2013.1/901 2013/11/27
 11 10  0  0  0  0  0  0  0  0999 V2000
   -5.9466   -4.2877   -3.1387 N   0  0  0  0  0  0  0  0  0  0  0  0
   -4.8180   -3.9727   -2.2139 C   0  0  2  0  0  0  0  0  0  0  0  0
   -5.2506   -4.2434   -0.7675 C   0  0  0  0  0  0  0  0  0  0  0  0
   -6.0857   -3.5419   -0.2320 O   0  0  0  0  0  0  0  0  0  0  0  0
   -4.4222   -2.4979   -2.3678 C   0  0  0  0  0  0  0  0  0  0  0  0
   -3.6236   -2.3093   -3.6616 C   0  0  0  0  0  0  0  0  0  0  0  0
   -2.3276   -3.1164   -3.5843 C   0  0  0  0  0  0  0  0  0  0  0  0
   -1.4445   -2.5351   -2.5333 N   0  0  0  0  0  0  0  0  0  0  0  0
   -1.2842   -3.1529   -1.3909 C   0  0  0  0  0  0  0  0  0  0  0  0
   -0.4661   -2.6718   -0.4906 N   0  0  0  0  0  0  0  0  0  0  0  0
   -1.9487   -4.2505   -1.1468 N   0  0  0  0  0  0  0  0  0  0  0  0
  2  1  1  6  0  0  0
  2  3  1  0  0  0  0
  2  5  1  0  0  0  0
  3  4  1  0  0  0  0
  5  6  1  0  0  0  0
  6  7  1  0  0  0  0
  7  8  1  0  0  0  0
  8  9  1  0  0  0  0
  9 10  1  0  0  0  0
  9 11  1  0  0  0  0
M  END
>  <CHROM.1>
-73.93487321,-68.76365967,-75.88152860,-62.72517382,-66.85563952,106.39280068
177.14008653,-104.84290494,48.83940891,-3.43841005,-3.34048138,-1.93495181
-3.14083592,0.20739876,1.80675410

>  <Name>
1akx_lig

>  <RI>
0

>  <Rbt.Current_Directory>
/home/itssahil/PROJECTS/Mol_Feturizer/New_Systems/rnas/1akx

>  <Rbt.Executable>
rbdock ($Id: //depot/dev/client3/rdock/2013.1/src/exe/rbdock.cxx#4 $)

>  <Rbt.Library>
libRbt.so (2013.1, Build901 2013/11/27)

>  <Rbt.Parameter_File>
/export/apps/rDock/src/rDock_2013.1_src/data/scripts/dock_solv.prm

>  <Rbt.Receptor>
prm/pocket_docking_3.prm

>  <SCORE>
-30.9214

>  <SCORE.INTER>
-25.1331

>  <SCORE.INTER.CONST>
1

>  <SCORE.INTER.POLAR>
-2.90707

>  <SCORE.INTER.ROT>
8

>  <SCORE.INTER.SOLV>
7.52715

>  <SCORE.INTER.VDW>
-18.5076

>  <SCORE.INTER.norm>
-2.28483

>  <SCORE.INTRA>
-5.79419

>  <SCORE.INTRA.DIHEDRAL>
-14.9399

>  <SCORE.INTRA.DIHEDRAL.0>
21.6454

>  <SCORE.INTRA.POLAR>
0

>  <SCORE.INTRA.POLAR.0>
0

>  <SCORE.INTRA.REPUL>
0

>  <SCORE.INTRA.REPUL.0>
0

>  <SCORE.INTRA.SOLV>
1.57585

>  <SCORE.INTRA.SOLV.lig_0>
-16.5947

>  <SCORE.INTRA.VDW>
0.887865

>  <SCORE.INTRA.VDW.0>
-0.691398

>  <SCORE.INTRA.norm>
-0.526744

>  <SCORE.RESTR>
0.00587604

>  <SCORE.RESTR.CAVITY>
0.00587604

>  <SCORE.RESTR.norm>
0.000534185

>  <SCORE.SYSTEM>
0

>  <SCORE.SYSTEM.CONST>
0

>  <SCORE.SYSTEM.DIHEDRAL>
0

>  <SCORE.SYSTEM.SOLV>
0

>  <SCORE.SYSTEM.norm>
0

>  <SCORE.heavy>
11

>  <SCORE.norm>
-2.81104

>  <RMSD>
5.116

$$$$
1akx_lig
 OpenBabel11021811383D
libRbt.so/2013.1/901 2013/11/27
 11 10  0  0  0  0  0  0  0  0999 V2000
   -6.2557   -5.3055   -2.3474 N   0  0  0  0  0  0  0  0  0  0  0  0
   -6.2401   -5.0760   -0.8725 C   0  0  2  0  0  0  0  0  0  0  0  0
   -7.4028   -5.8374   -0.2236 C   0  0  0  0  0  0  0  0  0  0  0  0
   -8.5489   -5.6181   -0.5620 O   0  0  0  0  0  0  0  0  0  0  0  0
   -6.3795   -3.5752   -0.5832 C   0  0  0  0  0  0  0  0  0  0  0  0
   -5.0030   -2.9788   -0.2718 C   0  0  0  0  0  0  0  0  0  0  0  0
   -4.1457   -2.9844   -1.5375 C   0  0  0  0  0  0  0  0  0  0  0  0
   -2.8469   -2.3081   -1.2584 N   0  0  0  0  0  0  0  0  0  0  0  0
   -1.7906   -2.5856   -1.9793 C   0  0  0  0  0  0  0  0  0  0  0  0
   -0.6240   -2.7389   -1.4075 N   0  0  0  0  0  0  0  0  0  0  0  0
   -1.9034   -2.7161   -3.2740 N   0  0  0  0  0  0  0  0  0  0  0  0
  2  1  1  6  0  0  0
  2  3  1  0  0  0  0
  2  5  1  0  0  0  0
  3  4  1  0  0  0  0
  5  6  1  0  0  0  0
  6  7  1  0  0  0  0
  7  8  1  0  0  0  0
  8  9  1  0  0  0  0
  9 10  1  0  0  0  0
  9 11  1  0  0  0  0
M  END
>  <CHROM.1>
-174.43722847,-58.30043761,-100.18518877,68.62408664,175.64491317,155.65224196
-137.68656545,-53.30863849,136.01098507,-4.63458233,-3.80588394,-1.34102580
-3.07369694,0.47447574,1.00787066

>  <Name>
1akx_lig

>  <RI>
0

>  <Rbt.Current_Directory>
/home/itssahil/PROJECTS/Mol_Feturizer/New_Systems/rnas/1akx

>  <Rbt.Executable>
rbdock ($Id: //depot/dev/client3/rdock/2013.1/src/exe/rbdock.cxx#4 $)

>  <Rbt.Library>
libRbt.so (2013.1, Build901 2013/11/27)

>  <Rbt.Parameter_File>
/export/apps/rDock/src/rDock_2013.1_src/data/scripts/dock_solv.prm

>  <Rbt.Receptor>
prm/pocket_docking_6.prm

>  <SCORE>
-23.0173

>  <SCORE.INTER>
-18.1623

>  <SCORE.INTER.CONST>
1

>  <SCORE.INTER.POLAR>
-2.29868

>  <SCORE.INTER.ROT>
8

>  <SCORE.INTER.SOLV>
7.29881

>  <SCORE.INTER.VDW>
-15.8122

>  <SCORE.INTER.norm>
-1.65112

>  <SCORE.INTRA>
-4.85498

>  <SCORE.INTRA.DIHEDRAL>
-11.9426

>  <SCORE.INTRA.DIHEDRAL.0>
21.6454

>  <SCORE.INTRA.POLAR>
0

>  <SCORE.INTRA.POLAR.0>
0

>  <SCORE.INTRA.REPUL>
0

>  <SCORE.INTRA.REPUL.0>
0

>  <SCORE.INTRA.SOLV>
0.422086

>  <SCORE.INTRA.SOLV.lig_0>
-16.5947

>  <SCORE.INTRA.VDW>
0.905283

>  <SCORE.INTRA.VDW.0>
-0.691398

>  <SCORE.INTRA.norm>
-0.441362

>  <SCORE.RESTR>
0

>  <SCORE.RESTR.CAVITY>
0

>  <SCORE.RESTR.norm>
0

>  <SCORE.SYSTEM>
0

>  <SCORE.SYSTEM.CONST>
0

>  <SCORE.SYSTEM.DIHEDRAL>
0

>  <SCORE.SYSTEM.SOLV>
0

>  <SCORE.SYSTEM.norm>
0

>  <SCORE.heavy>
11

>  <SCORE.norm>
-2.09248

>  <RMSD>
5.119

$$$$
1akx_lig
 OpenBabel11021811383D
libRbt.so/2013.1/901 2013/11/27
 11 10  0  0  0  0  0  0  0  0999 V2000
   -6.0103   -4.3585   -3.1596 N   0  0  0  0  0  0  0  0  0  0  0  0
   -5.0008   -3.9887   -2.1240 C   0  0  2  0  0  0  0  0  0  0  0  0
   -5.6218   -4.1334   -0.7290 C   0  0  0  0  0  0  0  0  0  0  0  0
   -5.9828   -5.2207   -0.3245 O   0  0  0  0  0  0  0  0  0  0  0  0
   -4.5484   -2.5382   -2.3406 C   0  0  0  0  0  0  0  0  0  0  0  0
   -3.5156   -2.4821   -3.4709 C   0  0  0  0  0  0  0  0  0  0  0  0
   -2.2638   -3.2563   -3.0580 C   0  0  0  0  0  0  0  0  0  0  0  0
   -1.3784   -2.3707   -2.2493 N   0  0  0  0  0  0  0  0  0  0  0  0
   -1.1405   -2.6463   -0.9924 C   0  0  0  0  0  0  0  0  0  0  0  0
   -1.5490   -1.8351   -0.0509 N   0  0  0  0  0  0  0  0  0  0  0  0
   -0.4981   -3.7390   -0.6770 N   0  0  0  0  0  0  0  0  0  0  0  0
  2  1  1  6  0  0  0
  2  3  1  0  0  0  0
  2  5  1  0  0  0  0
  3  4  1  0  0  0  0
  5  6  1  0  0  0  0
  6  7  1  0  0  0  0
  7  8  1  0  0  0  0
  8  9  1  0  0  0  0
  9 10  1  0  0  0  0
  9 11  1  0  0  0  0
M  END
>  <CHROM.1>
159.01008269,63.60458449,-79.59750495,-64.06009173,-84.25008662,115.26089399
-115.35205629,-140.87689365,-73.83674906,-3.42326434,-3.34574920,-1.72481442
-3.13010177,0.37251026,1.89785037

>  <Name>
1akx_lig

>  <RI>
0

>  <Rbt.Current_Directory>
/home/afrankz/demos/rdock_decoys_rna/rnas/1akx

>  <Rbt.Executable>
rbdock ($Id: //depot/dev/client3/rdock/2013.1/src/exe/rbdock.cxx#4 $)

>  <Rbt.Library>
libRbt.so (2013.1, Build901 2013/11/27)

>  <Rbt.Parameter_File>
/export/apps/rDock/src/rDock_2013.1_src/data/scripts/dock_solv.prm

>  <Rbt.Receptor>
prm/pocket_docking_7.prm

>  <SCORE>
-36.5796

>  <SCORE.INTER>
-30.5799

>  <SCORE.INTER.CONST>
1

>  <SCORE.INTER.POLAR>
-4.09515

>  <SCORE.INTER.ROT>
8

>  <SCORE.INTER.SOLV>
7.86961

>  <SCORE.INTER.VDW>
-18.2926

>  <SCORE.INTER.norm>
-2.77999

>  <SCORE.INTRA>
-5.99974

>  <SCORE.INTRA.DIHEDRAL>
-12.3833

>  <SCORE.INTRA.DIHEDRAL.0>
21.6454

>  <SCORE.INTRA.POLAR>
0

>  <SCORE.INTRA.POLAR.0>
0

>  <SCORE.INTRA.REPUL>
0

>  <SCORE.INTRA.REPUL.0>
0

>  <SCORE.INTRA.SOLV>
0.687583

>  <SCORE.INTRA.SOLV.lig_0>
-16.5947

>  <SCORE.INTRA.VDW>
-0.151865

>  <SCORE.INTRA.VDW.0>
-0.691398

>  <SCORE.INTRA.norm>
-0.545431

>  <SCORE.RESTR>
0

>  <SCORE.RESTR.CAVITY>
0

>  <SCORE.RESTR.norm>
0

>  <SCORE.SYSTEM>
0

>  <SCORE.SYSTEM.CONST>
0

>  <SCORE.SYSTEM.DIHEDRAL>
0

>  <SCORE.SYSTEM.SOLV>
0

>  <SCORE.SYSTEM.norm>
0

>  <SCORE.heavy>
11

>  <SCORE.norm>
-3.32542

>  <RMSD>
5.123

>  <RMSD>
5.123

$$$$
1akx_lig
 OpenBabel11021811383D
libRbt.so/2013.1/901 2013/11/27
 11 10  0  0  0  0  0  0  0  0999 V2000
   -6.0103   -4.3585   -3.1596 N   0  0  0  0  0  0  0  0  0  0  0  0
   -5.0008   -3.9887   -2.1240 C   0  0  2  0  0  0  0  0  0  0  0  0
   -5.6218   -4.1334   -0.7290 C   0  0  0  0  0  0  0  0  0  0  0  0
   -5.9828   -5.2207   -0.3245 O   0  0  0  0  0  0  0  0  0  0  0  0
   -4.5484   -2.5382   -2.3406 C   0  0  0  0  0  0  0  0  0  0  0  0
   -3.5156   -2.4821   -3.4709 C   0  0  0  0  0  0  0  0  0  0  0  0
   -2.2638   -3.2563   -3.0580 C   0  0  0  0  0  0  0  0  0  0  0  0
   -1.3784   -2.3707   -2.2493 N   0  0  0  0  0  0  0  0  0  0  0  0
   -1.1405   -2.6463   -0.9924 C   0  0  0  0  0  0  0  0  0  0  0  0
   -1.5490   -1.8351   -0.0509 N   0  0  0  0  0  0  0  0  0  0  0  0
   -0.4981   -3.7390   -0.6770 N   0  0  0  0  0  0  0  0  0  0  0  0
  2  1  1  6  0  0  0
  2  3  1  0  0  0  0
  2  5  1  0  0  0  0
  3  4  1  0  0  0  0
  5  6  1  0  0  0  0
  6  7  1  0  0  0  0
  7  8  1  0  0  0  0
  8  9  1  0  0  0  0
  9 10  1  0  0  0  0
  9 11  1  0  0  0  0
M  END
>  <CHROM.1>
159.01008269,63.60458449,-79.59750495,-64.06009173,-84.25008662,115.26089399
-115.35205629,-140.87689365,-73.83674906,-3.42326434,-3.34574920,-1.72481442
-3.13010177,0.37251026,1.89785037

>  <Name>
1akx_lig

>  <RI>
0

>  <Rbt.Current_Directory>
/home/afrankz/demos/rdock_decoys_rna/rnas/1akx

>  <Rbt.Executable>
rbdock ($Id: //depot/dev/client3/rdock/2013.1/src/exe/rbdock.cxx#4 $)

>  <Rbt.Library>
libRbt.so (2013.1, Build901 2013/11/27)

>  <Rbt.Parameter_File>
/export/apps/rDock/src/rDock_2013.1_src/data/scripts/dock_solv.prm

>  <Rbt.Receptor>
prm/pocket_docking_7.prm

>  <SCORE>
-36.5796

>  <SCORE.INTER>
-30.5799

>  <SCORE.INTER.CONST>
1

>  <SCORE.INTER.POLAR>
-4.09515

>  <SCORE.INTER.ROT>
8

>  <SCORE.INTER.SOLV>
7.86961

>  <SCORE.INTER.VDW>
-18.2926

>  <SCORE.INTER.norm>
-2.77999

>  <SCORE.INTRA>
-5.99974

>  <SCORE.INTRA.DIHEDRAL>
-12.3833

>  <SCORE.INTRA.DIHEDRAL.0>
21.6454

>  <SCORE.INTRA.POLAR>
0

>  <SCORE.INTRA.POLAR.0>
0

>  <SCORE.INTRA.REPUL>
0

>  <SCORE.INTRA.REPUL.0>
0

>  <SCORE.INTRA.SOLV>
0.687583

>  <SCORE.INTRA.SOLV.lig_0>
-16.5947

>  <SCORE.INTRA.VDW>
-0.151865

>  <SCORE.INTRA.VDW.0>
-0.691398

>  <SCORE.INTRA.norm>
-0.545431

>  <SCORE.RESTR>
0

>  <SCORE.RESTR.CAVITY>
0

>  <SCORE.RESTR.norm>
0

>  <SCORE.SYSTEM>
0

>  <SCORE.SYSTEM.CONST>
0

>  <SCORE.SYSTEM.DIHEDRAL>
0

>  <SCORE.SYSTEM.SOLV>
0

>  <SCORE.SYSTEM.norm>
0

>  <SCORE.heavy>
11

>  <SCORE.norm>
-3.32542

>  <RMSD>
5.123

>  <RMSD>
5.123

$$$$
1akx_lig
 OpenBabel11021811383D
libRbt.so/2013.1/901 2013/11/27
 11 10  0  0  0  0  0  0  0  0999 V2000
   -6.0108   -4.4210   -3.1690 N   0  0  0  0  0  0  0  0  0  0  0  0
   -4.9428   -4.0989   -2.1772 C   0  0  2  0  0  0  0  0  0  0  0  0
   -5.4218   -4.4740   -0.7691 C   0  0  0  0  0  0  0  0  0  0  0  0
   -6.4252   -3.9704   -0.3046 O   0  0  0  0  0  0  0  0  0  0  0  0
   -4.6241   -2.5987   -2.2323 C   0  0  0  0  0  0  0  0  0  0  0  0
   -3.7593   -2.2987   -3.4609 C   0  0  0  0  0  0  0  0  0  0  0  0
   -2.4569   -3.0944   -3.3756 C   0  0  0  0  0  0  0  0  0  0  0  0
   -1.5178   -2.4082   -2.4431 N   0  0  0  0  0  0  0  0  0  0  0  0
   -1.4222   -2.7986   -1.1978 C   0  0  0  0  0  0  0  0  0  0  0  0
   -2.3134   -2.4203   -0.3181 N   0  0  0  0  0  0  0  0  0  0  0  0
   -0.4363   -3.5743   -0.8339 N   0  0  0  0  0  0  0  0  0  0  0  0
  2  1  1  6  0  0  0
  2  3  1  0  0  0  0
  2  5  1  0  0  0  0
  3  4  1  0  0  0  0
  5  6  1  0  0  0  0
  6  7  1  0  0  0  0
  7  8  1  0  0  0  0
  8  9  1  0  0  0  0
  9 10  1  0  0  0  0
  9 11  1  0  0  0  0
M  END
>  <CHROM.1>
165.50250929,-59.12252359,-76.96261169,-59.77441911,-79.17897070,97.29499157
-80.02152769,125.41602704,149.61139740,-3.59425795,-3.30056088,-1.82437242
-3.13766285,0.26807010,1.76043170

>  <Name>
1akx_lig

>  <RI>
0

>  <Rbt.Current_Directory>
/home/itssahil/PROJECTS/Mol_Feturizer/New_Systems/rnas/1akx

>  <Rbt.Executable>
rbdock ($Id: //depot/dev/client3/rdock/2013.1/src/exe/rbdock.cxx#4 $)

>  <Rbt.Library>
libRbt.so (2013.1, Build901 2013/11/27)

>  <Rbt.Parameter_File>
/export/apps/rDock/src/rDock_2013.1_src/data/scripts/dock_solv.prm

>  <Rbt.Receptor>
prm/pocket_docking_4.prm

>  <SCORE>
-33.4935

>  <SCORE.INTER>
-27.03

>  <SCORE.INTER.CONST>
1

>  <SCORE.INTER.POLAR>
-3.32161

>  <SCORE.INTER.ROT>
8

>  <SCORE.INTER.SOLV>
7.77204

>  <SCORE.INTER.VDW>
-18.472

>  <SCORE.INTER.norm>
-2.45727

>  <SCORE.INTRA>
-6.46349

>  <SCORE.INTRA.DIHEDRAL>
-13.9761

>  <SCORE.INTRA.DIHEDRAL.0>
21.6454

>  <SCORE.INTRA.POLAR>
0

>  <SCORE.INTRA.POLAR.0>
0

>  <SCORE.INTRA.REPUL>
0

>  <SCORE.INTRA.REPUL.0>
0

>  <SCORE.INTRA.SOLV>
1.37091

>  <SCORE.INTRA.SOLV.lig_0>
-16.5947

>  <SCORE.INTRA.VDW>
-0.16088

>  <SCORE.INTRA.VDW.0>
-0.691398

>  <SCORE.INTRA.norm>
-0.58759

>  <SCORE.RESTR>
0

>  <SCORE.RESTR.CAVITY>
0

>  <SCORE.RESTR.norm>
0

>  <SCORE.SYSTEM>
0

>  <SCORE.SYSTEM.CONST>
0

>  <SCORE.SYSTEM.DIHEDRAL>
0

>  <SCORE.SYSTEM.SOLV>
0

>  <SCORE.SYSTEM.norm>
0

>  <SCORE.heavy>
11

>  <SCORE.norm>
-3.04486

>  <RMSD>
5.128

$$$$
1akx_lig
 OpenBabel11021811383D
libRbt.so/2013.1/901 2013/11/27
 11 10  0  0  0  0  0  0  0  0999 V2000
   -7.8463   -5.7588   -0.8608 N   0  0  0  0  0  0  0  0  0  0  0  0
   -6.8433   -5.0032   -0.0538 C   0  0  2  0  0  0  0  0  0  0  0  0
   -7.5206   -4.4285    1.1967 C   0  0  0  0  0  0  0  0  0  0  0  0
   -7.9680   -5.1680    2.0506 O   0  0  0  0  0  0  0  0  0  0  0  0
   -6.2592   -3.8611   -0.8963 C   0  0  0  0  0  0  0  0  0  0  0  0
   -5.6562   -4.4265   -2.1863 C   0  0  0  0  0  0  0  0  0  0  0  0
   -5.0751   -3.2855   -3.0215 C   0  0  0  0  0  0  0  0  0  0  0  0
   -3.9226   -2.6787   -2.2964 N   0  0  0  0  0  0  0  0  0  0  0  0
   -2.6959   -2.9603   -2.6547 C   0  0  0  0  0  0  0  0  0  0  0  0
   -2.1732   -2.3984   -3.7141 N   0  0  0  0  0  0  0  0  0  0  0  0
   -1.9891   -3.8009   -1.9477 N   0  0  0  0  0  0  0  0  0  0  0  0
  2  1  1  6  0  0  0
  2  3  1  0  0  0  0
  2  5  1  0  0  0  0
  3  4  1  0  0  0  0
  5  6  1  0  0  0  0
  6  7  1  0  0  0  0
  7  8  1  0  0  0  0
  8  9  1  0  0  0  0
  9 10  1  0  0  0  0
  9 11  1  0  0  0  0
M  END
>  <CHROM.1>
76.95425300,64.86625149,-56.39349543,-179.96719738,65.66044601,102.61847151
77.29756455,-35.90855836,-142.38095774,-5.26780365,-3.99767801,-1.30196839
2.51552359,0.34200058,1.67344845

>  <Name>
1akx_lig

>  <RI>
0

>  <Rbt.Current_Directory>
/home/itssahil/PROJECTS/Mol_Feturizer/New_Systems/rnas/1akx

>  <Rbt.Executable>
rbdock ($Id: //depot/dev/client3/rdock/2013.1/src/exe/rbdock.cxx#4 $)

>  <Rbt.Library>
libRbt.so (2013.1, Build901 2013/11/27)

>  <Rbt.Parameter_File>
/export/apps/rDock/src/rDock_2013.1_src/data/scripts/dock_solv.prm

>  <Rbt.Receptor>
prm/pocket_docking_6.prm

>  <SCORE>
-27.7157

>  <SCORE.INTER>
-19.8771

>  <SCORE.INTER.CONST>
1

>  <SCORE.INTER.POLAR>
-2.71501

>  <SCORE.INTER.ROT>
8

>  <SCORE.INTER.SOLV>
5.96891

>  <SCORE.INTER.VDW>
-15.1243

>  <SCORE.INTER.norm>
-1.807

>  <SCORE.INTRA>
-7.83869

>  <SCORE.INTRA.DIHEDRAL>
-15.9306

>  <SCORE.INTRA.DIHEDRAL.0>
21.6454

>  <SCORE.INTRA.POLAR>
0

>  <SCORE.INTRA.POLAR.0>
0

>  <SCORE.INTRA.REPUL>
0

>  <SCORE.INTRA.REPUL.0>
0

>  <SCORE.INTRA.SOLV>
0.505201

>  <SCORE.INTRA.SOLV.lig_0>
-16.5947

>  <SCORE.INTRA.VDW>
-0.125996

>  <SCORE.INTRA.VDW.0>
-0.691398

>  <SCORE.INTRA.norm>
-0.712608

>  <SCORE.RESTR>
0

>  <SCORE.RESTR.CAVITY>
0

>  <SCORE.RESTR.norm>
0

>  <SCORE.SYSTEM>
0

>  <SCORE.SYSTEM.CONST>
0

>  <SCORE.SYSTEM.DIHEDRAL>
0

>  <SCORE.SYSTEM.SOLV>
0

>  <SCORE.SYSTEM.norm>
0

>  <SCORE.heavy>
11

>  <SCORE.norm>
-2.51961

>  <RMSD>
5.130

$$$$
1akx_lig
 OpenBabel11021811383D
libRbt.so/2013.1/901 2013/11/27
 11 10  0  0  0  0  0  0  0  0999 V2000
   -6.5954   -5.5953   -2.1616 N   0  0  0  0  0  0  0  0  0  0  0  0
   -5.5250   -4.7915   -1.5011 C   0  0  2  0  0  0  0  0  0  0  0  0
   -6.0646   -4.1957   -0.1947 C   0  0  0  0  0  0  0  0  0  0  0  0
   -7.0799   -3.5283   -0.1944 O   0  0  0  0  0  0  0  0  0  0  0  0
   -5.0767   -3.6618   -2.4381 C   0  0  0  0  0  0  0  0  0  0  0  0
   -3.8456   -2.9624   -1.8527 C   0  0  0  0  0  0  0  0  0  0  0  0
   -2.8234   -2.7141   -2.9619 C   0  0  0  0  0  0  0  0  0  0  0  0
   -1.5313   -2.2826   -2.3566 N   0  0  0  0  0  0  0  0  0  0  0  0
   -1.2325   -2.6217   -1.1285 C   0  0  0  0  0  0  0  0  0  0  0  0
   -0.5907   -3.7364   -0.8901 N   0  0  0  0  0  0  0  0  0  0  0  0
   -1.5713   -1.8407   -0.1380 N   0  0  0  0  0  0  0  0  0  0  0  0
  2  1  1  6  0  0  0
  2  3  1  0  0  0  0
  2  5  1  0  0  0  0
  3  4  1  0  0  0  0
  5  6  1  0  0  0  0
  6  7  1  0  0  0  0
  7  8  1  0  0  0  0
  8  9  1  0  0  0  0
  9 10  1  0  0  0  0
  9 11  1  0  0  0  0
M  END
>  <CHROM.1>
-61.61267086,-54.40504811,-171.86727154,136.64867284,-169.03370150,25.11792491
89.90556337,-61.67282183,-136.75062819,-3.82723971,-3.46409297,-1.42096324
-3.03905655,0.33935479,1.24166784

>  <Name>
1akx_lig

>  <RI>
0

>  <Rbt.Current_Directory>
/home/itssahil/PROJECTS/Mol_Feturizer/New_Systems/rnas/1akx

>  <Rbt.Executable>
rbdock ($Id: //depot/dev/client3/rdock/2013.1/src/exe/rbdock.cxx#4 $)

>  <Rbt.Library>
libRbt.so (2013.1, Build901 2013/11/27)

>  <Rbt.Parameter_File>
/export/apps/rDock/src/rDock_2013.1_src/data/scripts/dock_solv.prm

>  <Rbt.Receptor>
prm/pocket_docking_4.prm

>  <SCORE>
-27.9512

>  <SCORE.INTER>
-25.6773

>  <SCORE.INTER.CONST>
1

>  <SCORE.INTER.POLAR>
-3.4977

>  <SCORE.INTER.ROT>
8

>  <SCORE.INTER.SOLV>
7.39304

>  <SCORE.INTER.VDW>
-16.8569

>  <SCORE.INTER.norm>
-2.3343

>  <SCORE.INTRA>
-2.27388

>  <SCORE.INTRA.DIHEDRAL>
-10.9957

>  <SCORE.INTRA.DIHEDRAL.0>
21.6454

>  <SCORE.INTRA.POLAR>
0

>  <SCORE.INTRA.POLAR.0>
0

>  <SCORE.INTRA.REPUL>
0

>  <SCORE.INTRA.REPUL.0>
0

>  <SCORE.INTRA.SOLV>
0.657605

>  <SCORE.INTRA.SOLV.lig_0>
-16.5947

>  <SCORE.INTRA.VDW>
2.89519

>  <SCORE.INTRA.VDW.0>
-0.691398

>  <SCORE.INTRA.norm>
-0.206716

>  <SCORE.RESTR>
0

>  <SCORE.RESTR.CAVITY>
0

>  <SCORE.RESTR.norm>
0

>  <SCORE.SYSTEM>
0

>  <SCORE.SYSTEM.CONST>
0

>  <SCORE.SYSTEM.DIHEDRAL>
0

>  <SCORE.SYSTEM.SOLV>
0

>  <SCORE.SYSTEM.norm>
0

>  <SCORE.heavy>
11

>  <SCORE.norm>
-2.54102

>  <RMSD>
5.134

$$$$
1akx_lig
 OpenBabel11021811383D
libRbt.so/2013.1/901 2013/11/27
 11 10  0  0  0  0  0  0  0  0999 V2000
   -5.9929   -4.3388   -3.1480 N   0  0  0  0  0  0  0  0  0  0  0  0
   -4.8767   -3.9987   -2.2172 C   0  0  2  0  0  0  0  0  0  0  0  0
   -5.3187   -4.2581   -0.7715 C   0  0  0  0  0  0  0  0  0  0  0  0
   -6.0968   -3.5054   -0.2200 O   0  0  0  0  0  0  0  0  0  0  0  0
   -4.4983   -2.5208   -2.3847 C   0  0  0  0  0  0  0  0  0  0  0  0
   -3.5842   -2.3561   -3.6031 C   0  0  0  0  0  0  0  0  0  0  0  0
   -2.2943   -3.1470   -3.3846 C   0  0  0  0  0  0  0  0  0  0  0  0
   -1.4250   -2.4185   -2.4172 N   0  0  0  0  0  0  0  0  0  0  0  0
   -1.3397   -2.8206   -1.1749 C   0  0  0  0  0  0  0  0  0  0  0  0
   -2.1636   -2.3531   -0.2727 N   0  0  0  0  0  0  0  0  0  0  0  0
   -0.4323   -3.6970   -0.8363 N   0  0  0  0  0  0  0  0  0  0  0  0
  2  1  1  6  0  0  0
  2  3  1  0  0  0  0
  2  5  1  0  0  0  0
  3  4  1  0  0  0  0
  5  6  1  0  0  0  0
  6  7  1  0  0  0  0
  7  8  1  0  0  0  0
  8  9  1  0  0  0  0
  9 10  1  0  0  0  0
  9 11  1  0  0  0  0
M  END
>  <CHROM.1>
42.01206902,-73.98623905,-81.01249680,-61.85437898,-75.23496517,102.93676528
-90.08019554,-42.30882416,99.64515788,-3.47578993,-3.23019259,-1.83461815
-3.08518152,0.22037014,1.68577098

>  <Name>
1akx_lig

>  <RI>
0

>  <Rbt.Current_Directory>
/home/itssahil/PROJECTS/Mol_Feturizer/New_Systems/rnas/1akx

>  <Rbt.Executable>
rbdock ($Id: //depot/dev/client3/rdock/2013.1/src/exe/rbdock.cxx#4 $)

>  <Rbt.Library>
libRbt.so (2013.1, Build901 2013/11/27)

>  <Rbt.Parameter_File>
/export/apps/rDock/src/rDock_2013.1_src/data/scripts/dock_solv.prm

>  <Rbt.Receptor>
prm/pocket_docking_3.prm

>  <SCORE>
-35.0509

>  <SCORE.INTER>
-29.0644

>  <SCORE.INTER.CONST>
1

>  <SCORE.INTER.POLAR>
-3.62254

>  <SCORE.INTER.ROT>
8

>  <SCORE.INTER.SOLV>
8.03972

>  <SCORE.INTER.VDW>
-18.9144

>  <SCORE.INTER.norm>
-2.64222

>  <SCORE.INTRA>
-5.98651

>  <SCORE.INTRA.DIHEDRAL>
-12.9716

>  <SCORE.INTRA.DIHEDRAL.0>
21.6454

>  <SCORE.INTRA.POLAR>
0

>  <SCORE.INTRA.POLAR.0>
0

>  <SCORE.INTRA.REPUL>
0

>  <SCORE.INTRA.REPUL.0>
0

>  <SCORE.INTRA.SOLV>
1.35443

>  <SCORE.INTRA.SOLV.lig_0>
-16.5947

>  <SCORE.INTRA.VDW>
-0.177921

>  <SCORE.INTRA.VDW.0>
-0.691398

>  <SCORE.INTRA.norm>
-0.544228

>  <SCORE.RESTR>
0

>  <SCORE.RESTR.CAVITY>
0

>  <SCORE.RESTR.norm>
0

>  <SCORE.SYSTEM>
0

>  <SCORE.SYSTEM.CONST>
0

>  <SCORE.SYSTEM.DIHEDRAL>
0

>  <SCORE.SYSTEM.SOLV>
0

>  <SCORE.SYSTEM.norm>
0

>  <SCORE.heavy>
11

>  <SCORE.norm>
-3.18645

>  <RMSD>
5.145

$$$$
1akx_lig
 OpenBabel11021811383D
libRbt.so/2013.1/901 2013/11/27
 11 10  0  0  0  0  0  0  0  0999 V2000
   -6.4276   -3.6331   -1.3053 N   0  0  0  0  0  0  0  0  0  0  0  0
   -5.5816   -4.4373   -2.2358 C   0  0  2  0  0  0  0  0  0  0  0  0
   -5.8821   -5.9288   -2.0411 C   0  0  0  0  0  0  0  0  0  0  0  0
   -6.9863   -6.3725   -2.2863 O   0  0  0  0  0  0  0  0  0  0  0  0
   -4.0986   -4.1669   -1.9476 C   0  0  0  0  0  0  0  0  0  0  0  0
   -3.7344   -2.7489   -2.3993 C   0  0  0  0  0  0  0  0  0  0  0  0
   -2.4936   -2.2746   -1.6428 C   0  0  0  0  0  0  0  0  0  0  0  0
   -1.2891   -2.9657   -2.1849 N   0  0  0  0  0  0  0  0  0  0  0  0
   -0.7422   -3.9536   -1.5236 C   0  0  0  0  0  0  0  0  0  0  0  0
   -0.1457   -3.7313   -0.3807 N   0  0  0  0  0  0  0  0  0  0  0  0
   -0.7978   -5.1669   -2.0040 N   0  0  0  0  0  0  0  0  0  0  0  0
  2  1  1  1  0  0  0
  2  3  1  0  0  0  0
  2  5  1  0  0  0  0
  3  4  1  0  0  0  0
  5  6  1  0  0  0  0
  6  7  1  0  0  0  0
  7  8  1  0  0  0  0
  8  9  1  0  0  0  0
  9 10  1  0  0  0  0
  9 11  1  0  0  0  0
M  END
>  <CHROM.1>
175.91792841,63.53700352,-70.68236210,157.40686495,74.29148555,-103.33002326
-67.79245075,76.44417675,129.87033312,-3.48382296,-4.14314519,-1.79434820
2.87538399,0.08518761,-3.08826042

>  <Name>
1akx_lig

>  <RI>
0

>  <Rbt.Current_Directory>
/home/itssahil/PROJECTS/Mol_Feturizer/New_Systems/rnas/1akx

>  <Rbt.Executable>
rbdock ($Id: //depot/dev/client3/rdock/2013.1/src/exe/rbdock.cxx#4 $)

>  <Rbt.Library>
libRbt.so (2013.1, Build901 2013/11/27)

>  <Rbt.Parameter_File>
/export/apps/rDock/src/rDock_2013.1_src/data/scripts/dock_solv.prm

>  <Rbt.Receptor>
prm/pocket_docking_6.prm

>  <SCORE>
-26.8851

>  <SCORE.INTER>
-19.6608

>  <SCORE.INTER.CONST>
1

>  <SCORE.INTER.POLAR>
-3.02838

>  <SCORE.INTER.ROT>
8

>  <SCORE.INTER.SOLV>
7.21854

>  <SCORE.INTER.VDW>
-14.3521

>  <SCORE.INTER.norm>
-1.78734

>  <SCORE.INTRA>
-7.22431

>  <SCORE.INTRA.DIHEDRAL>
-13.6681

>  <SCORE.INTRA.DIHEDRAL.0>
21.6454

>  <SCORE.INTRA.POLAR>
0

>  <SCORE.INTRA.POLAR.0>
0

>  <SCORE.INTRA.REPUL>
0

>  <SCORE.INTRA.REPUL.0>
0

>  <SCORE.INTRA.SOLV>
0.672494

>  <SCORE.INTRA.SOLV.lig_0>
-16.5947

>  <SCORE.INTRA.VDW>
-0.726489

>  <SCORE.INTRA.VDW.0>
-0.691398

>  <SCORE.INTRA.norm>
-0.656755

>  <SCORE.RESTR>
0

>  <SCORE.RESTR.CAVITY>
0

>  <SCORE.RESTR.norm>
0

>  <SCORE.SYSTEM>
0

>  <SCORE.SYSTEM.CONST>
0

>  <SCORE.SYSTEM.DIHEDRAL>
0

>  <SCORE.SYSTEM.SOLV>
0

>  <SCORE.SYSTEM.norm>
0

>  <SCORE.heavy>
11

>  <SCORE.norm>
-2.4441

>  <RMSD>
5.145

$$$$
1akx_lig
 OpenBabel11021811383D
libRbt.so/2013.1/901 2013/11/27
 11 10  0  0  0  0  0  0  0  0999 V2000
   -5.9507   -4.3179   -3.1607 N   0  0  0  0  0  0  0  0  0  0  0  0
   -4.8677   -3.9809   -2.1903 C   0  0  2  0  0  0  0  0  0  0  0  0
   -5.3711   -4.2138   -0.7603 C   0  0  0  0  0  0  0  0  0  0  0  0
   -6.3498   -3.6242   -0.3472 O   0  0  0  0  0  0  0  0  0  0  0  0
   -4.4611   -2.5110   -2.3622 C   0  0  0  0  0  0  0  0  0  0  0  0
   -3.6180   -2.3530   -3.6317 C   0  0  0  0  0  0  0  0  0  0  0  0
   -2.3262   -3.1583   -3.4906 C   0  0  0  0  0  0  0  0  0  0  0  0
   -1.4465   -2.5090   -2.4774 N   0  0  0  0  0  0  0  0  0  0  0  0
   -1.3213   -3.0285   -1.2829 C   0  0  0  0  0  0  0  0  0  0  0  0
   -0.3801   -2.6090   -0.4770 N   0  0  0  0  0  0  0  0  0  0  0  0
   -2.1436   -3.9650   -0.8921 N   0  0  0  0  0  0  0  0  0  0  0  0
  2  1  1  6  0  0  0
  2  3  1  0  0  0  0
  2  5  1  0  0  0  0
  3  4  1  0  0  0  0
  5  6  1  0  0  0  0
  6  7  1  0  0  0  0
  7  8  1  0  0  0  0
  8  9  1  0  0  0  0
  9 10  1  0  0  0  0
  9 11  1  0  0  0  0
M  END
>  <CHROM.1>
-76.84627459,-58.58822177,-75.00870636,-62.93724993,-69.97495452,104.71190227
167.74954322,-99.61664051,59.73283518,-3.49577403,-3.31139381,-1.89494698
-3.12513510,0.23269572,1.77425330

>  <Name>
1akx_lig

>  <RI>
0

>  <Rbt.Current_Directory>
/home/itssahil/PROJECTS/Mol_Feturizer/New_Systems/rnas/1akx

>  <Rbt.Executable>
rbdock ($Id: //depot/dev/client3/rdock/2013.1/src/exe/rbdock.cxx#4 $)

>  <Rbt.Library>
libRbt.so (2013.1, Build901 2013/11/27)

>  <Rbt.Parameter_File>
/export/apps/rDock/src/rDock_2013.1_src/data/scripts/dock_solv.prm

>  <Rbt.Receptor>
prm/pocket_docking_4.prm

>  <SCORE>
-31.5377

>  <SCORE.INTER>
-25.7229

>  <SCORE.INTER.CONST>
1

>  <SCORE.INTER.POLAR>
-3.0611

>  <SCORE.INTER.ROT>
8

>  <SCORE.INTER.SOLV>
7.56919

>  <SCORE.INTER.VDW>
-18.4014

>  <SCORE.INTER.norm>
-2.33845

>  <SCORE.INTRA>
-5.81476

>  <SCORE.INTRA.DIHEDRAL>
-14.9108

>  <SCORE.INTRA.DIHEDRAL.0>
21.6454

>  <SCORE.INTRA.POLAR>
0

>  <SCORE.INTRA.POLAR.0>
0

>  <SCORE.INTRA.REPUL>
0

>  <SCORE.INTRA.REPUL.0>
0

>  <SCORE.INTRA.SOLV>
1.62118

>  <SCORE.INTRA.SOLV.lig_0>
-16.5947

>  <SCORE.INTRA.VDW>
0.830071

>  <SCORE.INTRA.VDW.0>
-0.691398

>  <SCORE.INTRA.norm>
-0.528615

>  <SCORE.RESTR>
0

>  <SCORE.RESTR.CAVITY>
0

>  <SCORE.RESTR.norm>
0

>  <SCORE.SYSTEM>
0

>  <SCORE.SYSTEM.CONST>
0

>  <SCORE.SYSTEM.DIHEDRAL>
0

>  <SCORE.SYSTEM.SOLV>
0

>  <SCORE.SYSTEM.norm>
0

>  <SCORE.heavy>
11

>  <SCORE.norm>
-2.86706

>  <RMSD>
5.149

$$$$
1akx_lig
 OpenBabel11021811383D
libRbt.so/2013.1/901 2013/11/27
 11 10  0  0  0  0  0  0  0  0999 V2000
   -6.0200   -4.5545   -3.0955 N   0  0  0  0  0  0  0  0  0  0  0  0
   -4.8716   -3.9195   -2.3842 C   0  0  2  0  0  0  0  0  0  0  0  0
   -5.2508   -3.6717   -0.9188 C   0  0  0  0  0  0  0  0  0  0  0  0
   -5.4597   -4.6051   -0.1696 O   0  0  0  0  0  0  0  0  0  0  0  0
   -4.5205   -2.5868   -3.0597 C   0  0  0  0  0  0  0  0  0  0  0  0
   -3.1002   -2.1669   -2.6677 C   0  0  0  0  0  0  0  0  0  0  0  0
   -2.0927   -3.1415   -3.2774 C   0  0  0  0  0  0  0  0  0  0  0  0
   -0.8688   -3.1843   -2.4274 N   0  0  0  0  0  0  0  0  0  0  0  0
   -0.8181   -3.9716   -1.3833 C   0  0  0  0  0  0  0  0  0  0  0  0
   -1.3821   -5.1514   -1.4195 N   0  0  0  0  0  0  0  0  0  0  0  0
   -0.1965   -3.5798   -0.3035 N   0  0  0  0  0  0  0  0  0  0  0  0
  2  1  1  6  0  0  0
  2  3  1  0  0  0  0
  2  5  1  0  0  0  0
  3  4  1  0  0  0  0
  5  6  1  0  0  0  0
  6  7  1  0  0  0  0
  7  8  1  0  0  0  0
  8  9  1  0  0  0  0
  9 10  1  0  0  0  0
  9 11  1  0  0  0  0
M  END
>  <CHROM.1>
33.46329754,65.66086745,-161.02175993,67.46236213,-152.44622218,84.61989431
36.75295485,55.90078777,106.21801857,-3.15698229,-3.72561199,-1.89632650
-3.07149025,0.11421085,2.11662590

>  <Name>
1akx_lig

>  <RI>
0

>  <Rbt.Current_Directory>
/home/itssahil/PROJECTS/Mol_Feturizer/New_Systems/rnas/1akx

>  <Rbt.Executable>
rbdock ($Id: //depot/dev/client3/rdock/2013.1/src/exe/rbdock.cxx#4 $)

>  <Rbt.Library>
libRbt.so (2013.1, Build901 2013/11/27)

>  <Rbt.Parameter_File>
/export/apps/rDock/src/rDock_2013.1_src/data/scripts/dock_solv.prm

>  <Rbt.Receptor>
prm/pocket_docking_3.prm

>  <SCORE>
-25.63

>  <SCORE.INTER>
-21.1288

>  <SCORE.INTER.CONST>
1

>  <SCORE.INTER.POLAR>
-2.88972

>  <SCORE.INTER.ROT>
8

>  <SCORE.INTER.SOLV>
7.34299

>  <SCORE.INTER.VDW>
-15.8345

>  <SCORE.INTER.norm>
-1.9208

>  <SCORE.INTRA>
-4.55315

>  <SCORE.INTRA.DIHEDRAL>
-11.2825

>  <SCORE.INTRA.DIHEDRAL.0>
21.6454

>  <SCORE.INTRA.POLAR>
0

>  <SCORE.INTRA.POLAR.0>
0

>  <SCORE.INTRA.REPUL>
0

>  <SCORE.INTRA.REPUL.0>
0

>  <SCORE.INTRA.SOLV>
0.767623

>  <SCORE.INTRA.SOLV.lig_0>
-16.5947

>  <SCORE.INTRA.VDW>
0.704309

>  <SCORE.INTRA.VDW.0>
-0.691398

>  <SCORE.INTRA.norm>
-0.413922

>  <SCORE.RESTR>
0.0519586

>  <SCORE.RESTR.CAVITY>
0.0519586

>  <SCORE.RESTR.norm>
0.00472351

>  <SCORE.SYSTEM>
0

>  <SCORE.SYSTEM.CONST>
0

>  <SCORE.SYSTEM.DIHEDRAL>
0

>  <SCORE.SYSTEM.SOLV>
0

>  <SCORE.SYSTEM.norm>
0

>  <SCORE.heavy>
11

>  <SCORE.norm>
-2.33

>  <RMSD>
5.150

$$$$
1akx_lig
 OpenBabel11021811383D
libRbt.so/2013.1/901 2013/11/27
 11 10  0  0  0  0  0  0  0  0999 V2000
   -6.2744   -5.1121   -2.1652 N   0  0  0  0  0  0  0  0  0  0  0  0
   -5.7451   -4.2604   -1.0595 C   0  0  2  0  0  0  0  0  0  0  0  0
   -6.9055   -3.7978   -0.1694 C   0  0  0  0  0  0  0  0  0  0  0  0
   -7.6005   -4.6094    0.4090 O   0  0  0  0  0  0  0  0  0  0  0  0
   -5.0269   -3.0388   -1.6488 C   0  0  0  0  0  0  0  0  0  0  0  0
   -3.7086   -3.4764   -2.2953 C   0  0  0  0  0  0  0  0  0  0  0  0
   -2.9586   -2.2471   -2.8085 C   0  0  0  0  0  0  0  0  0  0  0  0
   -1.5291   -2.3309   -2.3940 N   0  0  0  0  0  0  0  0  0  0  0  0
   -1.2168   -2.6410   -1.1616 C   0  0  0  0  0  0  0  0  0  0  0  0
   -0.5915   -3.7603   -0.9019 N   0  0  0  0  0  0  0  0  0  0  0  0
   -1.5254   -1.8264   -0.1884 N   0  0  0  0  0  0  0  0  0  0  0  0
  2  1  1  6  0  0  0
  2  3  1  0  0  0  0
  2  5  1  0  0  0  0
  3  4  1  0  0  0  0
  5  6  1  0  0  0  0
  6  7  1  0  0  0  0
  7  8  1  0  0  0  0
  8  9  1  0  0  0  0
  9 10  1  0  0  0  0
  9 11  1  0  0  0  0
M  END
>  <CHROM.1>
-68.11625080,60.43898069,-71.34127717,-176.72126715,133.58280389,-46.87947837
114.36069970,175.66195108,-134.45714074,-3.92198045,-3.40244292,-1.29593221
3.04008352,0.32476954,1.51197944

>  <Name>
1akx_lig

>  <RI>
0

>  <Rbt.Current_Directory>
/home/itssahil/PROJECTS/Mol_Feturizer/New_Systems/rnas/1akx

>  <Rbt.Executable>
rbdock ($Id: //depot/dev/client3/rdock/2013.1/src/exe/rbdock.cxx#4 $)

>  <Rbt.Library>
libRbt.so (2013.1, Build901 2013/11/27)

>  <Rbt.Parameter_File>
/export/apps/rDock/src/rDock_2013.1_src/data/scripts/dock_solv.prm

>  <Rbt.Receptor>
prm/pocket_docking_8.prm

>  <SCORE>
-27.4446

>  <SCORE.INTER>
-22.7377

>  <SCORE.INTER.CONST>
1

>  <SCORE.INTER.POLAR>
-2.93425

>  <SCORE.INTER.ROT>
8

>  <SCORE.INTER.SOLV>
7.28945

>  <SCORE.INTER.VDW>
-16.7408

>  <SCORE.INTER.norm>
-2.06706

>  <SCORE.INTRA>
-4.70694

>  <SCORE.INTRA.DIHEDRAL>
-11.2847

>  <SCORE.INTRA.DIHEDRAL.0>
21.6454

>  <SCORE.INTRA.POLAR>
0

>  <SCORE.INTRA.POLAR.0>
0

>  <SCORE.INTRA.REPUL>
0

>  <SCORE.INTRA.REPUL.0>
0

>  <SCORE.INTRA.SOLV>
0.622603

>  <SCORE.INTRA.SOLV.lig_0>
-16.5947

>  <SCORE.INTRA.VDW>
0.624088

>  <SCORE.INTRA.VDW.0>
-0.691398

>  <SCORE.INTRA.norm>
-0.427903

>  <SCORE.RESTR>
0

>  <SCORE.RESTR.CAVITY>
0

>  <SCORE.RESTR.norm>
0

>  <SCORE.SYSTEM>
0

>  <SCORE.SYSTEM.CONST>
0

>  <SCORE.SYSTEM.DIHEDRAL>
0

>  <SCORE.SYSTEM.SOLV>
0

>  <SCORE.SYSTEM.norm>
0

>  <SCORE.heavy>
11

>  <SCORE.norm>
-2.49497

>  <RMSD>
5.175

$$$$
1akx_lig
 OpenBabel11021811383D
libRbt.so/2013.1/901 2013/11/27
 11 10  0  0  0  0  0  0  0  0999 V2000
   -5.9656   -5.0833   -2.1995 N   0  0  0  0  0  0  0  0  0  0  0  0
   -4.9320   -4.0114   -2.0949 C   0  0  2  0  0  0  0  0  0  0  0  0
   -5.2333   -3.1266   -0.8788 C   0  0  0  0  0  0  0  0  0  0  0  0
   -6.3353   -2.6369   -0.7303 O   0  0  0  0  0  0  0  0  0  0  0  0
   -4.9439   -3.1583   -3.3706 C   0  0  0  0  0  0  0  0  0  0  0  0
   -3.7849   -2.1569   -3.3336 C   0  0  0  0  0  0  0  0  0  0  0  0
   -2.4570   -2.9090   -3.4235 C   0  0  0  0  0  0  0  0  0  0  0  0
   -2.1271   -3.4917   -2.0917 N   0  0  0  0  0  0  0  0  0  0  0  0
   -1.6371   -2.7345   -1.1436 C   0  0  0  0  0  0  0  0  0  0  0  0
   -2.3798   -2.3945   -0.1216 N   0  0  0  0  0  0  0  0  0  0  0  0
   -0.3999   -2.3221   -1.2153 N   0  0  0  0  0  0  0  0  0  0  0  0
  2  1  1  6  0  0  0
  2  3  1  0  0  0  0
  2  5  1  0  0  0  0
  3  4  1  0  0  0  0
  5  6  1  0  0  0  0
  6  7  1  0  0  0  0
  7  8  1  0  0  0  0
  8  9  1  0  0  0  0
  9 10  1  0  0  0  0
  9 11  1  0  0  0  0
M  END
>  <CHROM.1>
179.79366038,-52.05750545,-173.80151100,67.18371857,-78.48648594,-78.00144025
106.89205157,70.06753702,2.68788395,-3.67220717,-3.11236326,-1.83493484,-2.99305614
0.23761214,1.35789783

>  <Name>
1akx_lig

>  <RI>
0

>  <Rbt.Current_Directory>
/home/itssahil/PROJECTS/Mol_Feturizer/New_Systems/rnas/1akx

>  <Rbt.Executable>
rbdock ($Id: //depot/dev/client3/rdock/2013.1/src/exe/rbdock.cxx#4 $)

>  <Rbt.Library>
libRbt.so (2013.1, Build901 2013/11/27)

>  <Rbt.Parameter_File>
/export/apps/rDock/src/rDock_2013.1_src/data/scripts/dock_solv.prm

>  <Rbt.Receptor>
prm/pocket_docking_4.prm

>  <SCORE>
-25.3939

>  <SCORE.INTER>
-19.1982

>  <SCORE.INTER.CONST>
1

>  <SCORE.INTER.POLAR>
-1.70091

>  <SCORE.INTER.ROT>
8

>  <SCORE.INTER.SOLV>
7.65871

>  <SCORE.INTER.VDW>
-18.6154

>  <SCORE.INTER.norm>
-1.74529

>  <SCORE.INTRA>
-6.19577

>  <SCORE.INTRA.DIHEDRAL>
-15.0588

>  <SCORE.INTRA.DIHEDRAL.0>
21.6454

>  <SCORE.INTRA.POLAR>
0

>  <SCORE.INTRA.POLAR.0>
0

>  <SCORE.INTRA.REPUL>
0

>  <SCORE.INTRA.REPUL.0>
0

>  <SCORE.INTRA.SOLV>
1.8875

>  <SCORE.INTRA.SOLV.lig_0>
-16.5947

>  <SCORE.INTRA.VDW>
0.389856

>  <SCORE.INTRA.VDW.0>
-0.691398

>  <SCORE.INTRA.norm>
-0.563252

>  <SCORE.RESTR>
0.000102513

>  <SCORE.RESTR.CAVITY>
0.000102513

>  <SCORE.RESTR.norm>
9.31934e-06

>  <SCORE.SYSTEM>
0

>  <SCORE.SYSTEM.CONST>
0

>  <SCORE.SYSTEM.DIHEDRAL>
0

>  <SCORE.SYSTEM.SOLV>
0

>  <SCORE.SYSTEM.norm>
0

>  <SCORE.heavy>
11

>  <SCORE.norm>
-2.30854

>  <RMSD>
5.181

$$$$
1akx_lig
 OpenBabel11021811383D
libRbt.so/2013.1/901 2013/11/27
 11 10  0  0  0  0  0  0  0  0999 V2000
   -6.9634   -6.0190   -1.2038 N   0  0  0  0  0  0  0  0  0  0  0  0
   -7.0612   -5.0890   -0.0402 C   0  0  2  0  0  0  0  0  0  0  0  0
   -8.5371   -4.8025    0.2635 C   0  0  0  0  0  0  0  0  0  0  0  0
   -8.8536   -4.1940    1.2663 O   0  0  0  0  0  0  0  0  0  0  0  0
   -6.3365   -3.7764   -0.3676 C   0  0  0  0  0  0  0  0  0  0  0  0
   -4.8351   -3.9360   -0.1074 C   0  0  0  0  0  0  0  0  0  0  0  0
   -4.0593   -2.9323   -0.9603 C   0  0  0  0  0  0  0  0  0  0  0  0
   -3.7239   -3.5534   -2.2733 N   0  0  0  0  0  0  0  0  0  0  0  0
   -2.8511   -2.9871   -3.0670 C   0  0  0  0  0  0  0  0  0  0  0  0
   -3.2235   -2.0368   -3.8853 N   0  0  0  0  0  0  0  0  0  0  0  0
   -1.6022   -3.3683   -3.0371 N   0  0  0  0  0  0  0  0  0  0  0  0
  2  1  1  6  0  0  0
  2  3  1  0  0  0  0
  2  5  1  0  0  0  0
  3  4  1  0  0  0  0
  5  6  1  0  0  0  0
  6  7  1  0  0  0  0
  7  8  1  0  0  0  0
  8  9  1  0  0  0  0
  9 10  1  0  0  0  0
  9 11  1  0  0  0  0
M  END
>  <CHROM.1>
-60.60185564,171.40655682,-82.87382646,155.52232422,-90.21739386,-166.95911378
-84.63883368,-166.89787152,-150.18496936,-5.27387630,-3.89830810,-1.25666837
3.12512906,0.62888728,0.53877864

>  <Name>
1akx_lig

>  <RI>
0

>  <Rbt.Current_Directory>
/home/itssahil/PROJECTS/Mol_Feturizer/New_Systems/rnas/1akx

>  <Rbt.Executable>
rbdock ($Id: //depot/dev/client3/rdock/2013.1/src/exe/rbdock.cxx#4 $)

>  <Rbt.Library>
libRbt.so (2013.1, Build901 2013/11/27)

>  <Rbt.Parameter_File>
/export/apps/rDock/src/rDock_2013.1_src/data/scripts/dock_solv.prm

>  <Rbt.Receptor>
prm/pocket_docking_8.prm

>  <SCORE>
-26.6829

>  <SCORE.INTER>
-21.3658

>  <SCORE.INTER.CONST>
1

>  <SCORE.INTER.POLAR>
-3.27122

>  <SCORE.INTER.ROT>
8

>  <SCORE.INTER.SOLV>
6.56687

>  <SCORE.INTER.VDW>
-14.4621

>  <SCORE.INTER.norm>
-1.94234

>  <SCORE.INTRA>
-5.31712

>  <SCORE.INTRA.DIHEDRAL>
-9.73527

>  <SCORE.INTRA.DIHEDRAL.0>
21.6454

>  <SCORE.INTRA.POLAR>
0

>  <SCORE.INTRA.POLAR.0>
0

>  <SCORE.INTRA.REPUL>
0

>  <SCORE.INTRA.REPUL.0>
0

>  <SCORE.INTRA.SOLV>
0.216042

>  <SCORE.INTRA.SOLV.lig_0>
-16.5947

>  <SCORE.INTRA.VDW>
-0.557504

>  <SCORE.INTRA.VDW.0>
-0.691398

>  <SCORE.INTRA.norm>
-0.483374

>  <SCORE.RESTR>
0

>  <SCORE.RESTR.CAVITY>
0

>  <SCORE.RESTR.norm>
0

>  <SCORE.SYSTEM>
0

>  <SCORE.SYSTEM.CONST>
0

>  <SCORE.SYSTEM.DIHEDRAL>
0

>  <SCORE.SYSTEM.SOLV>
0

>  <SCORE.SYSTEM.norm>
0

>  <SCORE.heavy>
11

>  <SCORE.norm>
-2.42572

>  <RMSD>
5.186

$$$$
1akx_lig
 OpenBabel11021811383D
libRbt.so/2013.1/901 2013/11/27
 11 10  0  0  0  0  0  0  0  0999 V2000
   -5.9945   -4.3085   -3.1328 N   0  0  0  0  0  0  0  0  0  0  0  0
   -5.0451   -3.8013   -2.0985 C   0  0  2  0  0  0  0  0  0  0  0  0
   -5.7675   -3.6930   -0.7498 C   0  0  0  0  0  0  0  0  0  0  0  0
   -5.2068   -3.2082    0.2129 O   0  0  0  0  0  0  0  0  0  0  0  0
   -4.5185   -2.4213   -2.5152 C   0  0  0  0  0  0  0  0  0  0  0  0
   -3.4176   -2.5844   -3.5681 C   0  0  0  0  0  0  0  0  0  0  0  0
   -2.2490   -3.3664   -2.9684 C   0  0  0  0  0  0  0  0  0  0  0  0
   -1.3767   -2.4373   -2.1950 N   0  0  0  0  0  0  0  0  0  0  0  0
   -1.1294   -2.6643   -0.9302 C   0  0  0  0  0  0  0  0  0  0  0  0
   -1.5840   -1.8495   -0.0132 N   0  0  0  0  0  0  0  0  0  0  0  0
   -0.4313   -3.7119   -0.5823 N   0  0  0  0  0  0  0  0  0  0  0  0
  2  1  1  6  0  0  0
  2  3  1  0  0  0  0
  2  5  1  0  0  0  0
  3  4  1  0  0  0  0
  5  6  1  0  0  0  0
  6  7  1  0  0  0  0
  7  8  1  0  0  0  0
  8  9  1  0  0  0  0
  9 10  1  0  0  0  0
  9 11  1  0  0  0  0
M  END
>  <CHROM.1>
28.93149823,-174.65194856,-79.03850932,-61.96954748,-82.67106583,123.11092825
-113.25951407,36.83085687,-83.82042235,-3.34449565,-3.10395882,-1.66157903
-2.90922184,0.19322068,1.51740596

>  <Name>
1akx_lig

>  <RI>
0

>  <Rbt.Current_Directory>
/home/afrankz/demos/rdock_decoys_rna/rnas/1akx

>  <Rbt.Executable>
rbdock ($Id: //depot/dev/client3/rdock/2013.1/src/exe/rbdock.cxx#4 $)

>  <Rbt.Library>
libRbt.so (2013.1, Build901 2013/11/27)

>  <Rbt.Parameter_File>
/export/apps/rDock/src/rDock_2013.1_src/data/scripts/dock_solv.prm

>  <Rbt.Receptor>
prm/pocket_docking_3.prm

>  <SCORE>
-37.1016

>  <SCORE.INTER>
-32.0436

>  <SCORE.INTER.CONST>
1

>  <SCORE.INTER.POLAR>
-4.26922

>  <SCORE.INTER.ROT>
8

>  <SCORE.INTER.SOLV>
8.09778

>  <SCORE.INTER.VDW>
-18.7642

>  <SCORE.INTER.norm>
-2.91305

>  <SCORE.INTRA>
-5.05797

>  <SCORE.INTRA.DIHEDRAL>
-11.7462

>  <SCORE.INTRA.DIHEDRAL.0>
21.6454

>  <SCORE.INTRA.POLAR>
0

>  <SCORE.INTRA.POLAR.0>
0

>  <SCORE.INTRA.REPUL>
0

>  <SCORE.INTRA.REPUL.0>
0

>  <SCORE.INTRA.SOLV>
0.773203

>  <SCORE.INTRA.SOLV.lig_0>
-16.5947

>  <SCORE.INTRA.VDW>
0.428548

>  <SCORE.INTRA.VDW.0>
-0.691398

>  <SCORE.INTRA.norm>
-0.459816

>  <SCORE.RESTR>
0

>  <SCORE.RESTR.CAVITY>
0

>  <SCORE.RESTR.norm>
0

>  <SCORE.SYSTEM>
0

>  <SCORE.SYSTEM.CONST>
0

>  <SCORE.SYSTEM.DIHEDRAL>
0

>  <SCORE.SYSTEM.SOLV>
0

>  <SCORE.SYSTEM.norm>
0

>  <SCORE.heavy>
11

>  <SCORE.norm>
-3.37287

>  <RMSD>
5.190

>  <RMSD>
5.190

$$$$
1akx_lig
 OpenBabel11021811383D
libRbt.so/2013.1/901 2013/11/27
 11 10  0  0  0  0  0  0  0  0999 V2000
   -5.9945   -4.3085   -3.1328 N   0  0  0  0  0  0  0  0  0  0  0  0
   -5.0451   -3.8013   -2.0985 C   0  0  2  0  0  0  0  0  0  0  0  0
   -5.7675   -3.6930   -0.7498 C   0  0  0  0  0  0  0  0  0  0  0  0
   -5.2068   -3.2082    0.2129 O   0  0  0  0  0  0  0  0  0  0  0  0
   -4.5185   -2.4213   -2.5152 C   0  0  0  0  0  0  0  0  0  0  0  0
   -3.4176   -2.5844   -3.5681 C   0  0  0  0  0  0  0  0  0  0  0  0
   -2.2490   -3.3664   -2.9684 C   0  0  0  0  0  0  0  0  0  0  0  0
   -1.3767   -2.4373   -2.1950 N   0  0  0  0  0  0  0  0  0  0  0  0
   -1.1294   -2.6643   -0.9302 C   0  0  0  0  0  0  0  0  0  0  0  0
   -1.5840   -1.8495   -0.0132 N   0  0  0  0  0  0  0  0  0  0  0  0
   -0.4313   -3.7119   -0.5823 N   0  0  0  0  0  0  0  0  0  0  0  0
  2  1  1  6  0  0  0
  2  3  1  0  0  0  0
  2  5  1  0  0  0  0
  3  4  1  0  0  0  0
  5  6  1  0  0  0  0
  6  7  1  0  0  0  0
  7  8  1  0  0  0  0
  8  9  1  0  0  0  0
  9 10  1  0  0  0  0
  9 11  1  0  0  0  0
M  END
>  <CHROM.1>
28.93149823,-174.65194856,-79.03850932,-61.96954748,-82.67106583,123.11092825
-113.25951407,36.83085687,-83.82042235,-3.34449565,-3.10395882,-1.66157903
-2.90922184,0.19322068,1.51740596

>  <Name>
1akx_lig

>  <RI>
0

>  <Rbt.Current_Directory>
/home/afrankz/demos/rdock_decoys_rna/rnas/1akx

>  <Rbt.Executable>
rbdock ($Id: //depot/dev/client3/rdock/2013.1/src/exe/rbdock.cxx#4 $)

>  <Rbt.Library>
libRbt.so (2013.1, Build901 2013/11/27)

>  <Rbt.Parameter_File>
/export/apps/rDock/src/rDock_2013.1_src/data/scripts/dock_solv.prm

>  <Rbt.Receptor>
prm/pocket_docking_3.prm

>  <SCORE>
-37.1016

>  <SCORE.INTER>
-32.0436

>  <SCORE.INTER.CONST>
1

>  <SCORE.INTER.POLAR>
-4.26922

>  <SCORE.INTER.ROT>
8

>  <SCORE.INTER.SOLV>
8.09778

>  <SCORE.INTER.VDW>
-18.7642

>  <SCORE.INTER.norm>
-2.91305

>  <SCORE.INTRA>
-5.05797

>  <SCORE.INTRA.DIHEDRAL>
-11.7462

>  <SCORE.INTRA.DIHEDRAL.0>
21.6454

>  <SCORE.INTRA.POLAR>
0

>  <SCORE.INTRA.POLAR.0>
0

>  <SCORE.INTRA.REPUL>
0

>  <SCORE.INTRA.REPUL.0>
0

>  <SCORE.INTRA.SOLV>
0.773203

>  <SCORE.INTRA.SOLV.lig_0>
-16.5947

>  <SCORE.INTRA.VDW>
0.428548

>  <SCORE.INTRA.VDW.0>
-0.691398

>  <SCORE.INTRA.norm>
-0.459816

>  <SCORE.RESTR>
0

>  <SCORE.RESTR.CAVITY>
0

>  <SCORE.RESTR.norm>
0

>  <SCORE.SYSTEM>
0

>  <SCORE.SYSTEM.CONST>
0

>  <SCORE.SYSTEM.DIHEDRAL>
0

>  <SCORE.SYSTEM.SOLV>
0

>  <SCORE.SYSTEM.norm>
0

>  <SCORE.heavy>
11

>  <SCORE.norm>
-3.37287

>  <RMSD>
5.190

>  <RMSD>
5.190

$$$$
1akx_lig
 OpenBabel11021811383D
libRbt.so/2013.1/901 2013/11/27
 11 10  0  0  0  0  0  0  0  0999 V2000
   -6.0050   -4.3845   -3.1583 N   0  0  0  0  0  0  0  0  0  0  0  0
   -5.0308   -3.8946   -2.1389 C   0  0  2  0  0  0  0  0  0  0  0  0
   -5.7073   -3.8523   -0.7630 C   0  0  0  0  0  0  0  0  0  0  0  0
   -6.1207   -4.8719   -0.2475 O   0  0  0  0  0  0  0  0  0  0  0  0
   -4.5485   -2.4886   -2.5212 C   0  0  0  0  0  0  0  0  0  0  0  0
   -3.4118   -2.5922   -3.5432 C   0  0  0  0  0  0  0  0  0  0  0  0
   -2.2404   -3.3583   -2.9286 C   0  0  0  0  0  0  0  0  0  0  0  0
   -1.3696   -2.4107   -2.1762 N   0  0  0  0  0  0  0  0  0  0  0  0
   -1.1205   -2.6098   -0.9071 C   0  0  0  0  0  0  0  0  0  0  0  0
   -1.5689   -1.7720   -0.0080 N   0  0  0  0  0  0  0  0  0  0  0  0
   -0.4267   -3.6527   -0.5368 N   0  0  0  0  0  0  0  0  0  0  0  0
  2  1  1  6  0  0  0
  2  3  1  0  0  0  0
  2  5  1  0  0  0  0
  3  4  1  0  0  0  0
  5  6  1  0  0  0  0
  6  7  1  0  0  0  0
  7  8  1  0  0  0  0
  8  9  1  0  0  0  0
  9 10  1  0  0  0  0
  9 11  1  0  0  0  0
M  END
>  <CHROM.1>
-89.63714542,62.33032745,-83.08739163,-60.92060984,-86.31418116,123.08785314
-113.69262512,-140.60808099,93.91356704,-3.42751415,-3.28251486,-1.70031133
-3.05089155,0.33674596,1.77449758

>  <Name>
1akx_lig

>  <RI>
0

>  <Rbt.Current_Directory>
/home/itssahil/PROJECTS/Mol_Feturizer/New_Systems/rnas/1akx

>  <Rbt.Executable>
rbdock ($Id: //depot/dev/client3/rdock/2013.1/src/exe/rbdock.cxx#4 $)

>  <Rbt.Library>
libRbt.so (2013.1, Build901 2013/11/27)

>  <Rbt.Parameter_File>
/export/apps/rDock/src/rDock_2013.1_src/data/scripts/dock_solv.prm

>  <Rbt.Receptor>
prm/pocket_docking_4.prm

>  <SCORE>
-37.1722

>  <SCORE.INTER>
-32.2853

>  <SCORE.INTER.CONST>
1

>  <SCORE.INTER.POLAR>
-4.44257

>  <SCORE.INTER.ROT>
8

>  <SCORE.INTER.SOLV>
7.87455

>  <SCORE.INTER.VDW>
-18.2731

>  <SCORE.INTER.norm>
-2.93502

>  <SCORE.INTRA>
-4.88694

>  <SCORE.INTRA.DIHEDRAL>
-10.9264

>  <SCORE.INTRA.DIHEDRAL.0>
21.6454

>  <SCORE.INTRA.POLAR>
0

>  <SCORE.INTRA.POLAR.0>
0

>  <SCORE.INTRA.REPUL>
0

>  <SCORE.INTRA.REPUL.0>
0

>  <SCORE.INTRA.SOLV>
0.618482

>  <SCORE.INTRA.SOLV.lig_0>
-16.5947

>  <SCORE.INTRA.VDW>
0.267016

>  <SCORE.INTRA.VDW.0>
-0.691398

>  <SCORE.INTRA.norm>
-0.444268

>  <SCORE.RESTR>
0

>  <SCORE.RESTR.CAVITY>
0

>  <SCORE.RESTR.norm>
0

>  <SCORE.SYSTEM>
0

>  <SCORE.SYSTEM.CONST>
0

>  <SCORE.SYSTEM.DIHEDRAL>
0

>  <SCORE.SYSTEM.SOLV>
0

>  <SCORE.SYSTEM.norm>
0

>  <SCORE.heavy>
11

>  <SCORE.norm>
-3.37929

>  <RMSD>
5.195

$$$$
1akx_lig
 OpenBabel11021811383D
libRbt.so/2013.1/901 2013/11/27
 11 10  0  0  0  0  0  0  0  0999 V2000
   -5.9680   -4.4359   -3.1288 N   0  0  0  0  0  0  0  0  0  0  0  0
   -4.8349   -4.0415   -2.2408 C   0  0  2  0  0  0  0  0  0  0  0  0
   -5.2537   -4.2030   -0.7741 C   0  0  0  0  0  0  0  0  0  0  0  0
   -6.1254   -3.5013   -0.3008 O   0  0  0  0  0  0  0  0  0  0  0  0
   -4.4528   -2.5800   -2.5114 C   0  0  0  0  0  0  0  0  0  0  0  0
   -3.3585   -2.5215   -3.5821 C   0  0  0  0  0  0  0  0  0  0  0  0
   -2.1078   -3.2386   -3.0739 C   0  0  0  0  0  0  0  0  0  0  0  0
   -1.3207   -2.3107   -2.2126 N   0  0  0  0  0  0  0  0  0  0  0  0
   -1.1177   -2.5942   -0.9513 C   0  0  0  0  0  0  0  0  0  0  0  0
   -1.5477   -1.7862   -0.0167 N   0  0  0  0  0  0  0  0  0  0  0  0
   -0.4887   -3.6914   -0.6249 N   0  0  0  0  0  0  0  0  0  0  0  0
  2  1  1  6  0  0  0
  2  3  1  0  0  0  0
  2  5  1  0  0  0  0
  3  4  1  0  0  0  0
  5  6  1  0  0  0  0
  6  7  1  0  0  0  0
  7  8  1  0  0  0  0
  8  9  1  0  0  0  0
  9 10  1  0  0  0  0
  9 11  1  0  0  0  0
M  END
>  <CHROM.1>
-79.51817277,-66.04721206,-91.51014822,-62.14895800,-82.64557837,117.93714298
-119.71279638,42.94561321,98.29560091,-3.34514559,-3.18069630,-1.74212719
-2.96852473,0.27054103,1.57898332

>  <Name>
1akx_lig

>  <RI>
0

>  <Rbt.Current_Directory>
/home/afrankz/demos/rdock_decoys_rna/rnas/1akx

>  <Rbt.Executable>
rbdock ($Id: //depot/dev/client3/rdock/2013.1/src/exe/rbdock.cxx#4 $)

>  <Rbt.Library>
libRbt.so (2013.1, Build901 2013/11/27)

>  <Rbt.Parameter_File>
/export/apps/rDock/src/rDock_2013.1_src/data/scripts/dock_solv.prm

>  <Rbt.Receptor>
prm/pocket_docking_3.prm

>  <SCORE>
-36.4381

>  <SCORE.INTER>
-31.4293

>  <SCORE.INTER.CONST>
1

>  <SCORE.INTER.POLAR>
-4.12588

>  <SCORE.INTER.ROT>
8

>  <SCORE.INTER.SOLV>
8.33413

>  <SCORE.INTER.VDW>
-18.9113

>  <SCORE.INTER.norm>
-2.85721

>  <SCORE.INTRA>
-5.03458

>  <SCORE.INTRA.DIHEDRAL>
-10.9353

>  <SCORE.INTRA.DIHEDRAL.0>
21.6454

>  <SCORE.INTRA.POLAR>
0

>  <SCORE.INTRA.POLAR.0>
0

>  <SCORE.INTRA.REPUL>
0

>  <SCORE.INTRA.REPUL.0>
0

>  <SCORE.INTRA.SOLV>
0.816577

>  <SCORE.INTRA.SOLV.lig_0>
-16.5947

>  <SCORE.INTRA.VDW>
0.0247647

>  <SCORE.INTRA.VDW.0>
-0.691398

>  <SCORE.INTRA.norm>
-0.457689

>  <SCORE.RESTR>
0.0258208

>  <SCORE.RESTR.CAVITY>
0.0258208

>  <SCORE.RESTR.norm>
0.00234734

>  <SCORE.SYSTEM>
0

>  <SCORE.SYSTEM.CONST>
0

>  <SCORE.SYSTEM.DIHEDRAL>
0

>  <SCORE.SYSTEM.SOLV>
0

>  <SCORE.SYSTEM.norm>
0

>  <SCORE.heavy>
11

>  <SCORE.norm>
-3.31255

>  <RMSD>
5.198

>  <RMSD>
5.198

$$$$
1akx_lig
 OpenBabel11021811383D
libRbt.so/2013.1/901 2013/11/27
 11 10  0  0  0  0  0  0  0  0999 V2000
   -5.9680   -4.4359   -3.1288 N   0  0  0  0  0  0  0  0  0  0  0  0
   -4.8349   -4.0415   -2.2408 C   0  0  2  0  0  0  0  0  0  0  0  0
   -5.2537   -4.2030   -0.7741 C   0  0  0  0  0  0  0  0  0  0  0  0
   -6.1254   -3.5013   -0.3008 O   0  0  0  0  0  0  0  0  0  0  0  0
   -4.4528   -2.5800   -2.5114 C   0  0  0  0  0  0  0  0  0  0  0  0
   -3.3585   -2.5215   -3.5821 C   0  0  0  0  0  0  0  0  0  0  0  0
   -2.1078   -3.2386   -3.0739 C   0  0  0  0  0  0  0  0  0  0  0  0
   -1.3207   -2.3107   -2.2126 N   0  0  0  0  0  0  0  0  0  0  0  0
   -1.1177   -2.5942   -0.9513 C   0  0  0  0  0  0  0  0  0  0  0  0
   -1.5477   -1.7862   -0.0167 N   0  0  0  0  0  0  0  0  0  0  0  0
   -0.4887   -3.6914   -0.6249 N   0  0  0  0  0  0  0  0  0  0  0  0
  2  1  1  6  0  0  0
  2  3  1  0  0  0  0
  2  5  1  0  0  0  0
  3  4  1  0  0  0  0
  5  6  1  0  0  0  0
  6  7  1  0  0  0  0
  7  8  1  0  0  0  0
  8  9  1  0  0  0  0
  9 10  1  0  0  0  0
  9 11  1  0  0  0  0
M  END
>  <CHROM.1>
-79.51817277,-66.04721206,-91.51014822,-62.14895800,-82.64557837,117.93714298
-119.71279638,42.94561321,98.29560091,-3.34514559,-3.18069630,-1.74212719
-2.96852473,0.27054103,1.57898332

>  <Name>
1akx_lig

>  <RI>
0

>  <Rbt.Current_Directory>
/home/afrankz/demos/rdock_decoys_rna/rnas/1akx

>  <Rbt.Executable>
rbdock ($Id: //depot/dev/client3/rdock/2013.1/src/exe/rbdock.cxx#4 $)

>  <Rbt.Library>
libRbt.so (2013.1, Build901 2013/11/27)

>  <Rbt.Parameter_File>
/export/apps/rDock/src/rDock_2013.1_src/data/scripts/dock_solv.prm

>  <Rbt.Receptor>
prm/pocket_docking_3.prm

>  <SCORE>
-36.4381

>  <SCORE.INTER>
-31.4293

>  <SCORE.INTER.CONST>
1

>  <SCORE.INTER.POLAR>
-4.12588

>  <SCORE.INTER.ROT>
8

>  <SCORE.INTER.SOLV>
8.33413

>  <SCORE.INTER.VDW>
-18.9113

>  <SCORE.INTER.norm>
-2.85721

>  <SCORE.INTRA>
-5.03458

>  <SCORE.INTRA.DIHEDRAL>
-10.9353

>  <SCORE.INTRA.DIHEDRAL.0>
21.6454

>  <SCORE.INTRA.POLAR>
0

>  <SCORE.INTRA.POLAR.0>
0

>  <SCORE.INTRA.REPUL>
0

>  <SCORE.INTRA.REPUL.0>
0

>  <SCORE.INTRA.SOLV>
0.816577

>  <SCORE.INTRA.SOLV.lig_0>
-16.5947

>  <SCORE.INTRA.VDW>
0.0247647

>  <SCORE.INTRA.VDW.0>
-0.691398

>  <SCORE.INTRA.norm>
-0.457689

>  <SCORE.RESTR>
0.0258208

>  <SCORE.RESTR.CAVITY>
0.0258208

>  <SCORE.RESTR.norm>
0.00234734

>  <SCORE.SYSTEM>
0

>  <SCORE.SYSTEM.CONST>
0

>  <SCORE.SYSTEM.DIHEDRAL>
0

>  <SCORE.SYSTEM.SOLV>
0

>  <SCORE.SYSTEM.norm>
0

>  <SCORE.heavy>
11

>  <SCORE.norm>
-3.31255

>  <RMSD>
5.198

>  <RMSD>
5.198

$$$$
1akx_lig
 OpenBabel11021811383D
libRbt.so/2013.1/901 2013/11/27
 11 10  0  0  0  0  0  0  0  0999 V2000
   -5.5403   -3.7135   -2.4635 N   0  0  0  0  0  0  0  0  0  0  0  0
   -4.9633   -3.6353   -1.0890 C   0  0  2  0  0  0  0  0  0  0  0  0
   -5.9904   -3.0085   -0.1376 C   0  0  0  0  0  0  0  0  0  0  0  0
   -7.0397   -3.5744    0.0967 O   0  0  0  0  0  0  0  0  0  0  0  0
   -3.6903   -2.7785   -1.1127 C   0  0  0  0  0  0  0  0  0  0  0  0
   -2.5177   -3.6094   -1.6435 C   0  0  0  0  0  0  0  0  0  0  0  0
   -1.2480   -2.7580   -1.6460 C   0  0  0  0  0  0  0  0  0  0  0  0
   -0.5401   -2.9212   -0.3443 N   0  0  0  0  0  0  0  0  0  0  0  0
   -1.0991   -2.5126    0.7661 C   0  0  0  0  0  0  0  0  0  0  0  0
   -1.9234   -3.2938    1.4154 N   0  0  0  0  0  0  0  0  0  0  0  0
   -0.8276   -1.3225    1.2307 N   0  0  0  0  0  0  0  0  0  0  0  0
  2  1  1  6  0  0  0
  2  3  1  0  0  0  0
  2  5  1  0  0  0  0
  3  4  1  0  0  0  0
  5  6  1  0  0  0  0
  6  7  1  0  0  0  0
  7  8  1  0  0  0  0
  8  9  1  0  0  0  0
  9 10  1  0  0  0  0
  9 11  1  0  0  0  0
M  END
>  <CHROM.1>
-153.88216032,64.46971010,-79.28431333,-179.18135547,90.60280646,-64.59311293
85.82307473,-122.18356893,142.33824654,-3.24619091,-3.01380393,-0.43850167
-2.85183955,0.14020765,1.32977010

>  <Name>
1akx_lig

>  <RI>
0

>  <Rbt.Current_Directory>
/home/itssahil/PROJECTS/Mol_Feturizer/New_Systems/rnas/1akx

>  <Rbt.Executable>
rbdock ($Id: //depot/dev/client3/rdock/2013.1/src/exe/rbdock.cxx#4 $)

>  <Rbt.Library>
libRbt.so (2013.1, Build901 2013/11/27)

>  <Rbt.Parameter_File>
/export/apps/rDock/src/rDock_2013.1_src/data/scripts/dock_solv.prm

>  <Rbt.Receptor>
prm/pocket_docking_8.prm

>  <SCORE>
-21.1116

>  <SCORE.INTER>
-15.9433

>  <SCORE.INTER.CONST>
1

>  <SCORE.INTER.POLAR>
-2.33939

>  <SCORE.INTER.ROT>
8

>  <SCORE.INTER.SOLV>
5.35206

>  <SCORE.INTER.VDW>
-13.5483

>  <SCORE.INTER.norm>
-1.44939

>  <SCORE.INTRA>
-5.16824

>  <SCORE.INTRA.DIHEDRAL>
-11.1088

>  <SCORE.INTRA.DIHEDRAL.0>
21.6454

>  <SCORE.INTRA.POLAR>
0

>  <SCORE.INTRA.POLAR.0>
0

>  <SCORE.INTRA.REPUL>
0

>  <SCORE.INTRA.REPUL.0>
0

>  <SCORE.INTRA.SOLV>
0.991421

>  <SCORE.INTRA.SOLV.lig_0>
-16.5947

>  <SCORE.INTRA.VDW>
-0.109567

>  <SCORE.INTRA.VDW.0>
-0.691398

>  <SCORE.INTRA.norm>
-0.46984

>  <SCORE.RESTR>
0

>  <SCORE.RESTR.CAVITY>
0

>  <SCORE.RESTR.norm>
0

>  <SCORE.SYSTEM>
0

>  <SCORE.SYSTEM.CONST>
0

>  <SCORE.SYSTEM.DIHEDRAL>
0

>  <SCORE.SYSTEM.SOLV>
0

>  <SCORE.SYSTEM.norm>
0

>  <SCORE.heavy>
11

>  <SCORE.norm>
-1.91923

>  <RMSD>
5.209

$$$$
1akx_lig
 OpenBabel11021811383D
libRbt.so/2013.1/901 2013/11/27
 11 10  0  0  0  0  0  0  0  0999 V2000
   -5.9144   -4.4862   -2.7244 N   0  0  0  0  0  0  0  0  0  0  0  0
   -5.1211   -4.3682   -1.4654 C   0  0  2  0  0  0  0  0  0  0  0  0
   -6.0726   -4.1900   -0.2756 C   0  0  0  0  0  0  0  0  0  0  0  0
   -6.8304   -3.2416   -0.2287 O   0  0  0  0  0  0  0  0  0  0  0  0
   -4.1805   -3.1593   -1.5607 C   0  0  0  0  0  0  0  0  0  0  0  0
   -2.8585   -3.5827   -2.2091 C   0  0  0  0  0  0  0  0  0  0  0  0
   -1.8536   -2.4344   -2.1173 C   0  0  0  0  0  0  0  0  0  0  0  0
   -1.7293   -1.9979   -0.6974 N   0  0  0  0  0  0  0  0  0  0  0  0
   -0.7083   -2.3841    0.0242 C   0  0  0  0  0  0  0  0  0  0  0  0
   -0.3134   -3.6309   -0.0065 N   0  0  0  0  0  0  0  0  0  0  0  0
   -0.0775   -1.5195    0.7730 N   0  0  0  0  0  0  0  0  0  0  0  0
  2  1  1  6  0  0  0
  2  3  1  0  0  0  0
  2  5  1  0  0  0  0
  3  4  1  0  0  0  0
  5  6  1  0  0  0  0
  6  7  1  0  0  0  0
  7  8  1  0  0  0  0
  8  9  1  0  0  0  0
  9 10  1  0  0  0  0
  9 11  1  0  0  0  0
M  END
>  <CHROM.1>
26.74045330,-59.95995960,-87.83569281,-171.78455502,53.96320469,101.10955715
-44.71298098,123.09814862,78.56583764,-3.25760118,-3.18043638,-0.94544883
-2.83248011,0.20476692,1.22013042

>  <Name>
1akx_lig

>  <RI>
0

>  <Rbt.Current_Directory>
/home/afrankz/demos/rdock_decoys_rna/rnas/1akx

>  <Rbt.Executable>
rbdock ($Id: //depot/dev/client3/rdock/2013.1/src/exe/rbdock.cxx#4 $)

>  <Rbt.Library>
libRbt.so (2013.1, Build901 2013/11/27)

>  <Rbt.Parameter_File>
/export/apps/rDock/src/rDock_2013.1_src/data/scripts/dock_solv.prm

>  <Rbt.Receptor>
prm/pocket_docking_8.prm

>  <SCORE>
-23.9162

>  <SCORE.INTER>
-19.0434

>  <SCORE.INTER.CONST>
1

>  <SCORE.INTER.POLAR>
-2.61919

>  <SCORE.INTER.ROT>
8

>  <SCORE.INTER.SOLV>
7.02903

>  <SCORE.INTER.VDW>
-15.2413

>  <SCORE.INTER.norm>
-1.73122

>  <SCORE.INTRA>
-4.87274

>  <SCORE.INTRA.DIHEDRAL>
-11.7142

>  <SCORE.INTRA.DIHEDRAL.0>
21.6454

>  <SCORE.INTRA.POLAR>
0

>  <SCORE.INTRA.POLAR.0>
0

>  <SCORE.INTRA.REPUL>
0

>  <SCORE.INTRA.REPUL.0>
0

>  <SCORE.INTRA.SOLV>
0.671397

>  <SCORE.INTRA.SOLV.lig_0>
-16.5947

>  <SCORE.INTRA.VDW>
0.648649

>  <SCORE.INTRA.VDW.0>
-0.691398

>  <SCORE.INTRA.norm>
-0.442976

>  <SCORE.RESTR>
0

>  <SCORE.RESTR.CAVITY>
0

>  <SCORE.RESTR.norm>
0

>  <SCORE.SYSTEM>
0

>  <SCORE.SYSTEM.CONST>
0

>  <SCORE.SYSTEM.DIHEDRAL>
0

>  <SCORE.SYSTEM.SOLV>
0

>  <SCORE.SYSTEM.norm>
0

>  <SCORE.heavy>
11

>  <SCORE.norm>
-2.1742

>  <RMSD>
5.219

>  <RMSD>
5.219

$$$$
1akx_lig
 OpenBabel11021811383D
libRbt.so/2013.1/901 2013/11/27
 11 10  0  0  0  0  0  0  0  0999 V2000
   -5.9144   -4.4862   -2.7244 N   0  0  0  0  0  0  0  0  0  0  0  0
   -5.1211   -4.3682   -1.4654 C   0  0  2  0  0  0  0  0  0  0  0  0
   -6.0726   -4.1900   -0.2756 C   0  0  0  0  0  0  0  0  0  0  0  0
   -6.8304   -3.2416   -0.2287 O   0  0  0  0  0  0  0  0  0  0  0  0
   -4.1805   -3.1593   -1.5607 C   0  0  0  0  0  0  0  0  0  0  0  0
   -2.8585   -3.5827   -2.2091 C   0  0  0  0  0  0  0  0  0  0  0  0
   -1.8536   -2.4344   -2.1173 C   0  0  0  0  0  0  0  0  0  0  0  0
   -1.7293   -1.9979   -0.6974 N   0  0  0  0  0  0  0  0  0  0  0  0
   -0.7083   -2.3841    0.0242 C   0  0  0  0  0  0  0  0  0  0  0  0
   -0.3134   -3.6309   -0.0065 N   0  0  0  0  0  0  0  0  0  0  0  0
   -0.0775   -1.5195    0.7730 N   0  0  0  0  0  0  0  0  0  0  0  0
  2  1  1  6  0  0  0
  2  3  1  0  0  0  0
  2  5  1  0  0  0  0
  3  4  1  0  0  0  0
  5  6  1  0  0  0  0
  6  7  1  0  0  0  0
  7  8  1  0  0  0  0
  8  9  1  0  0  0  0
  9 10  1  0  0  0  0
  9 11  1  0  0  0  0
M  END
>  <CHROM.1>
26.74045330,-59.95995960,-87.83569281,-171.78455502,53.96320469,101.10955715
-44.71298098,123.09814862,78.56583764,-3.25760118,-3.18043638,-0.94544883
-2.83248011,0.20476692,1.22013042

>  <Name>
1akx_lig

>  <RI>
0

>  <Rbt.Current_Directory>
/home/afrankz/demos/rdock_decoys_rna/rnas/1akx

>  <Rbt.Executable>
rbdock ($Id: //depot/dev/client3/rdock/2013.1/src/exe/rbdock.cxx#4 $)

>  <Rbt.Library>
libRbt.so (2013.1, Build901 2013/11/27)

>  <Rbt.Parameter_File>
/export/apps/rDock/src/rDock_2013.1_src/data/scripts/dock_solv.prm

>  <Rbt.Receptor>
prm/pocket_docking_8.prm

>  <SCORE>
-23.9162

>  <SCORE.INTER>
-19.0434

>  <SCORE.INTER.CONST>
1

>  <SCORE.INTER.POLAR>
-2.61919

>  <SCORE.INTER.ROT>
8

>  <SCORE.INTER.SOLV>
7.02903

>  <SCORE.INTER.VDW>
-15.2413

>  <SCORE.INTER.norm>
-1.73122

>  <SCORE.INTRA>
-4.87274

>  <SCORE.INTRA.DIHEDRAL>
-11.7142

>  <SCORE.INTRA.DIHEDRAL.0>
21.6454

>  <SCORE.INTRA.POLAR>
0

>  <SCORE.INTRA.POLAR.0>
0

>  <SCORE.INTRA.REPUL>
0

>  <SCORE.INTRA.REPUL.0>
0

>  <SCORE.INTRA.SOLV>
0.671397

>  <SCORE.INTRA.SOLV.lig_0>
-16.5947

>  <SCORE.INTRA.VDW>
0.648649

>  <SCORE.INTRA.VDW.0>
-0.691398

>  <SCORE.INTRA.norm>
-0.442976

>  <SCORE.RESTR>
0

>  <SCORE.RESTR.CAVITY>
0

>  <SCORE.RESTR.norm>
0

>  <SCORE.SYSTEM>
0

>  <SCORE.SYSTEM.CONST>
0

>  <SCORE.SYSTEM.DIHEDRAL>
0

>  <SCORE.SYSTEM.SOLV>
0

>  <SCORE.SYSTEM.norm>
0

>  <SCORE.heavy>
11

>  <SCORE.norm>
-2.1742

>  <RMSD>
5.219

>  <RMSD>
5.219

$$$$
1akx_lig
 OpenBabel11021811383D
libRbt.so/2013.1/901 2013/11/27
 11 10  0  0  0  0  0  0  0  0999 V2000
   -5.7128   -6.9608   -0.9783 N   0  0  0  0  0  0  0  0  0  0  0  0
   -6.5238   -6.3452   -2.0698 C   0  0  2  0  0  0  0  0  0  0  0  0
   -6.6677   -7.3431   -3.2257 C   0  0  0  0  0  0  0  0  0  0  0  0
   -7.2582   -8.3927   -3.0645 O   0  0  0  0  0  0  0  0  0  0  0  0
   -5.8307   -5.0707   -2.5705 C   0  0  0  0  0  0  0  0  0  0  0  0
   -5.8670   -3.9987   -1.4765 C   0  0  0  0  0  0  0  0  0  0  0  0
   -4.9293   -2.8518   -1.8537 C   0  0  0  0  0  0  0  0  0  0  0  0
   -3.5358   -3.3690   -1.9679 N   0  0  0  0  0  0  0  0  0  0  0  0
   -2.7288   -2.8935   -2.8816 C   0  0  0  0  0  0  0  0  0  0  0  0
   -3.1833   -2.0910   -3.8094 N   0  0  0  0  0  0  0  0  0  0  0  0
   -1.4634   -3.2168   -2.8630 N   0  0  0  0  0  0  0  0  0  0  0  0
  2  1  1  1  0  0  0
  2  3  1  0  0  0  0
  2  5  1  0  0  0  0
  3  4  1  0  0  0  0
  5  6  1  0  0  0  0
  6  7  1  0  0  0  0
  7  8  1  0  0  0  0
  8  9  1  0  0  0  0
  9 10  1  0  0  0  0
  9 11  1  0  0  0  0
M  END
>  <CHROM.1>
-177.17804160,63.79056850,-67.87456973,167.98265061,-61.03857943,143.61406438
-8.86583288,-155.75263968,30.95274252,-4.84887712,-4.80617625,-2.42823037
2.41325674,-0.53504699,-2.71780988

>  <Name>
1akx_lig

>  <RI>
0

>  <Rbt.Current_Directory>
/home/itssahil/PROJECTS/Mol_Feturizer/New_Systems/rnas/1akx

>  <Rbt.Executable>
rbdock ($Id: //depot/dev/client3/rdock/2013.1/src/exe/rbdock.cxx#4 $)

>  <Rbt.Library>
libRbt.so (2013.1, Build901 2013/11/27)

>  <Rbt.Parameter_File>
/export/apps/rDock/src/rDock_2013.1_src/data/scripts/dock_solv.prm

>  <Rbt.Receptor>
prm/pocket_docking_7.prm

>  <SCORE>
-25.8456

>  <SCORE.INTER>
-19.5485

>  <SCORE.INTER.CONST>
1

>  <SCORE.INTER.POLAR>
-2.63063

>  <SCORE.INTER.ROT>
8

>  <SCORE.INTER.SOLV>
5.76778

>  <SCORE.INTER.VDW>
-15.1195

>  <SCORE.INTER.norm>
-1.77713

>  <SCORE.INTRA>
-6.29718

>  <SCORE.INTRA.DIHEDRAL>
-15.934

>  <SCORE.INTRA.DIHEDRAL.0>
21.6454

>  <SCORE.INTRA.POLAR>
0

>  <SCORE.INTRA.POLAR.0>
0

>  <SCORE.INTRA.REPUL>
0

>  <SCORE.INTRA.REPUL.0>
0

>  <SCORE.INTRA.SOLV>
0.520311

>  <SCORE.INTRA.SOLV.lig_0>
-16.5947

>  <SCORE.INTRA.VDW>
1.40968

>  <SCORE.INTRA.VDW.0>
-0.691398

>  <SCORE.INTRA.norm>
-0.572471

>  <SCORE.RESTR>
0

>  <SCORE.RESTR.CAVITY>
0

>  <SCORE.RESTR.norm>
0

>  <SCORE.SYSTEM>
0

>  <SCORE.SYSTEM.CONST>
0

>  <SCORE.SYSTEM.DIHEDRAL>
0

>  <SCORE.SYSTEM.SOLV>
0

>  <SCORE.SYSTEM.norm>
0

>  <SCORE.heavy>
11

>  <SCORE.norm>
-2.3496

>  <RMSD>
5.223

$$$$
1akx_lig
 OpenBabel11021811383D
libRbt.so/2013.1/901 2013/11/27
 11 10  0  0  0  0  0  0  0  0999 V2000
   -5.9440   -4.3041   -3.1554 N   0  0  0  0  0  0  0  0  0  0  0  0
   -4.8831   -3.9254   -2.1760 C   0  0  2  0  0  0  0  0  0  0  0  0
   -5.4375   -4.0416   -0.7505 C   0  0  0  0  0  0  0  0  0  0  0  0
   -6.4297   -3.4220   -0.4223 O   0  0  0  0  0  0  0  0  0  0  0  0
   -4.4307   -2.4826   -2.4387 C   0  0  0  0  0  0  0  0  0  0  0  0
   -3.4456   -2.4552   -3.6118 C   0  0  0  0  0  0  0  0  0  0  0  0
   -2.1846   -3.2343   -3.2382 C   0  0  0  0  0  0  0  0  0  0  0  0
   -1.3709   -2.4301   -2.2824 N   0  0  0  0  0  0  0  0  0  0  0  0
   -1.2544   -2.8082   -1.0350 C   0  0  0  0  0  0  0  0  0  0  0  0
   -1.9720   -2.2357   -0.1030 N   0  0  0  0  0  0  0  0  0  0  0  0
   -0.4227   -3.7651   -0.7210 N   0  0  0  0  0  0  0  0  0  0  0  0
  2  1  1  6  0  0  0
  2  3  1  0  0  0  0
  2  5  1  0  0  0  0
  3  4  1  0  0  0  0
  5  6  1  0  0  0  0
  6  7  1  0  0  0  0
  7  8  1  0  0  0  0
  8  9  1  0  0  0  0
  9 10  1  0  0  0  0
  9 11  1  0  0  0  0
M  END
>  <CHROM.1>
158.64810057,-56.93501212,-79.98650116,-63.88380786,-74.25224966,110.57943241
-100.77841393,152.17522782,-87.30365718,-3.45520655,-3.20160792,-1.79141287
-3.03594027,0.19059955,1.62061214

>  <Name>
1akx_lig

>  <RI>
0

>  <Rbt.Current_Directory>
/home/itssahil/PROJECTS/Mol_Feturizer/New_Systems/rnas/1akx

>  <Rbt.Executable>
rbdock ($Id: //depot/dev/client3/rdock/2013.1/src/exe/rbdock.cxx#4 $)

>  <Rbt.Library>
libRbt.so (2013.1, Build901 2013/11/27)

>  <Rbt.Parameter_File>
/export/apps/rDock/src/rDock_2013.1_src/data/scripts/dock_solv.prm

>  <Rbt.Receptor>
prm/pocket_docking_5.prm

>  <SCORE>
-36.0109

>  <SCORE.INTER>
-29.58

>  <SCORE.INTER.CONST>
1

>  <SCORE.INTER.POLAR>
-3.7375

>  <SCORE.INTER.ROT>
8

>  <SCORE.INTER.SOLV>
8.16182

>  <SCORE.INTER.VDW>
-18.9156

>  <SCORE.INTER.norm>
-2.68909

>  <SCORE.INTRA>
-6.4309

>  <SCORE.INTRA.DIHEDRAL>
-13.5248

>  <SCORE.INTRA.DIHEDRAL.0>
21.6454

>  <SCORE.INTRA.POLAR>
0

>  <SCORE.INTRA.POLAR.0>
0

>  <SCORE.INTRA.REPUL>
0

>  <SCORE.INTRA.REPUL.0>
0

>  <SCORE.INTRA.SOLV>
1.16127

>  <SCORE.INTRA.SOLV.lig_0>
-16.5947

>  <SCORE.INTRA.VDW>
-0.249115

>  <SCORE.INTRA.VDW.0>
-0.691398

>  <SCORE.INTRA.norm>
-0.584627

>  <SCORE.RESTR>
0

>  <SCORE.RESTR.CAVITY>
0

>  <SCORE.RESTR.norm>
0

>  <SCORE.SYSTEM>
0

>  <SCORE.SYSTEM.CONST>
0

>  <SCORE.SYSTEM.DIHEDRAL>
0

>  <SCORE.SYSTEM.SOLV>
0

>  <SCORE.SYSTEM.norm>
0

>  <SCORE.heavy>
11

>  <SCORE.norm>
-3.27372

>  <RMSD>
5.231

$$$$
1akx_lig
 OpenBabel11021811383D
libRbt.so/2013.1/901 2013/11/27
 11 10  0  0  0  0  0  0  0  0999 V2000
   -7.0623   -6.3317   -2.5136 N   0  0  0  0  0  0  0  0  0  0  0  0
   -6.7829   -6.0928   -1.0669 C   0  0  2  0  0  0  0  0  0  0  0  0
   -8.0113   -6.4854   -0.2366 C   0  0  0  0  0  0  0  0  0  0  0  0
   -8.4206   -7.6294   -0.2437 O   0  0  0  0  0  0  0  0  0  0  0  0
   -6.4600   -4.6093   -0.8428 C   0  0  0  0  0  0  0  0  0  0  0  0
   -5.0973   -4.2778   -1.4596 C   0  0  0  0  0  0  0  0  0  0  0  0
   -4.9214   -2.7607   -1.5247 C   0  0  0  0  0  0  0  0  0  0  0  0
   -3.5175   -2.4414   -1.9112 N   0  0  0  0  0  0  0  0  0  0  0  0
   -3.1538   -2.4827   -3.1675 C   0  0  0  0  0  0  0  0  0  0  0  0
   -4.0007   -2.1574   -4.1100 N   0  0  0  0  0  0  0  0  0  0  0  0
   -1.9383   -2.8441   -3.4806 N   0  0  0  0  0  0  0  0  0  0  0  0
  2  1  1  6  0  0  0
  2  3  1  0  0  0  0
  2  5  1  0  0  0  0
  3  4  1  0  0  0  0
  5  6  1  0  0  0  0
  6  7  1  0  0  0  0
  7  8  1  0  0  0  0
  8  9  1  0  0  0  0
  9 10  1  0  0  0  0
  9 11  1  0  0  0  0
M  END
>  <CHROM.1>
-173.00976477,61.39554631,-70.06511700,167.02513236,170.71589250,81.11814573
33.30383447,137.29775771,87.33148145,-5.39409756,-4.39267356,-1.91359660
3.07601404,0.80800422,1.15101881

>  <Name>
1akx_lig

>  <RI>
0

>  <Rbt.Current_Directory>
/home/itssahil/PROJECTS/Mol_Feturizer/New_Systems/rnas/1akx

>  <Rbt.Executable>
rbdock ($Id: //depot/dev/client3/rdock/2013.1/src/exe/rbdock.cxx#4 $)

>  <Rbt.Library>
libRbt.so (2013.1, Build901 2013/11/27)

>  <Rbt.Parameter_File>
/export/apps/rDock/src/rDock_2013.1_src/data/scripts/dock_solv.prm

>  <Rbt.Receptor>
prm/pocket_docking_7.prm

>  <SCORE>
-30.7911

>  <SCORE.INTER>
-23.7055

>  <SCORE.INTER.CONST>
1

>  <SCORE.INTER.POLAR>
-3.13721

>  <SCORE.INTER.ROT>
8

>  <SCORE.INTER.SOLV>
6.87188

>  <SCORE.INTER.VDW>
-16.5703

>  <SCORE.INTER.norm>
-2.15505

>  <SCORE.INTRA>
-7.08562

>  <SCORE.INTRA.DIHEDRAL>
-15.3232

>  <SCORE.INTRA.DIHEDRAL.0>
21.6454

>  <SCORE.INTRA.POLAR>
0

>  <SCORE.INTRA.POLAR.0>
0

>  <SCORE.INTRA.REPUL>
0

>  <SCORE.INTRA.REPUL.0>
0

>  <SCORE.INTRA.SOLV>
0.354338

>  <SCORE.INTRA.SOLV.lig_0>
-16.5947

>  <SCORE.INTRA.VDW>
0.398828

>  <SCORE.INTRA.VDW.0>
-0.691398

>  <SCORE.INTRA.norm>
-0.644147

>  <SCORE.RESTR>
0

>  <SCORE.RESTR.CAVITY>
0

>  <SCORE.RESTR.norm>
0

>  <SCORE.SYSTEM>
0

>  <SCORE.SYSTEM.CONST>
0

>  <SCORE.SYSTEM.DIHEDRAL>
0

>  <SCORE.SYSTEM.SOLV>
0

>  <SCORE.SYSTEM.norm>
0

>  <SCORE.heavy>
11

>  <SCORE.norm>
-2.79919

>  <RMSD>
5.241

$$$$
1akx_lig
 OpenBabel11021811383D
libRbt.so/2013.1/901 2013/11/27
 11 10  0  0  0  0  0  0  0  0999 V2000
   -5.9125   -4.1872   -3.0900 N   0  0  0  0  0  0  0  0  0  0  0  0
   -4.8312   -3.5629   -2.2719 C   0  0  2  0  0  0  0  0  0  0  0  0
   -5.3966   -3.1470   -0.9081 C   0  0  0  0  0  0  0  0  0  0  0  0
   -4.7159   -2.5145   -0.1252 O   0  0  0  0  0  0  0  0  0  0  0  0
   -4.2803   -2.3299   -3.0010 C   0  0  0  0  0  0  0  0  0  0  0  0
   -3.0873   -2.7350   -3.8728 C   0  0  0  0  0  0  0  0  0  0  0  0
   -2.0348   -3.4286   -3.0080 C   0  0  0  0  0  0  0  0  0  0  0  0
   -1.3176   -2.4101   -2.1892 N   0  0  0  0  0  0  0  0  0  0  0  0
   -1.1772   -2.5807   -0.8994 C   0  0  0  0  0  0  0  0  0  0  0  0
   -0.3977   -3.5258   -0.4406 N   0  0  0  0  0  0  0  0  0  0  0  0
   -1.8130   -1.7999   -0.0675 N   0  0  0  0  0  0  0  0  0  0  0  0
  2  1  1  6  0  0  0
  2  3  1  0  0  0  0
  2  5  1  0  0  0  0
  3  4  1  0  0  0  0
  5  6  1  0  0  0  0
  6  7  1  0  0  0  0
  7  8  1  0  0  0  0
  8  9  1  0  0  0  0
  9 10  1  0  0  0  0
  9 11  1  0  0  0  0
M  END
>  <CHROM.1>
-99.47638006,-173.67234663,-91.83107843,-55.78597382,-75.03829131,129.96614695
68.93006073,78.88901337,-135.04226139,-3.18943212,-2.93444516,-1.77697754
-2.77921592,0.10579748,1.38819631

>  <Name>
1akx_lig

>  <RI>
0

>  <Rbt.Current_Directory>
/home/itssahil/PROJECTS/Mol_Feturizer/New_Systems/rnas/1akx

>  <Rbt.Executable>
rbdock ($Id: //depot/dev/client3/rdock/2013.1/src/exe/rbdock.cxx#4 $)

>  <Rbt.Library>
libRbt.so (2013.1, Build901 2013/11/27)

>  <Rbt.Parameter_File>
/export/apps/rDock/src/rDock_2013.1_src/data/scripts/dock_solv.prm

>  <Rbt.Receptor>
prm/pocket_docking_3.prm

>  <SCORE>
-36.0282

>  <SCORE.INTER>
-29.7834

>  <SCORE.INTER.CONST>
1

>  <SCORE.INTER.POLAR>
-3.83291

>  <SCORE.INTER.ROT>
8

>  <SCORE.INTER.SOLV>
8.40819

>  <SCORE.INTER.VDW>
-18.8153

>  <SCORE.INTER.norm>
-2.70758

>  <SCORE.INTRA>
-6.24487

>  <SCORE.INTRA.DIHEDRAL>
-9.93635

>  <SCORE.INTRA.DIHEDRAL.0>
21.6454

>  <SCORE.INTRA.POLAR>
-0.78633

>  <SCORE.INTRA.POLAR.0>
0

>  <SCORE.INTRA.REPUL>
0

>  <SCORE.INTRA.REPUL.0>
0

>  <SCORE.INTRA.SOLV>
1.59157

>  <SCORE.INTRA.SOLV.lig_0>
-16.5947

>  <SCORE.INTRA.VDW>
0.601038

>  <SCORE.INTRA.VDW.0>
-0.691398

>  <SCORE.INTRA.norm>
-0.567716

>  <SCORE.RESTR>
0

>  <SCORE.RESTR.CAVITY>
0

>  <SCORE.RESTR.norm>
0

>  <SCORE.SYSTEM>
0

>  <SCORE.SYSTEM.CONST>
0

>  <SCORE.SYSTEM.DIHEDRAL>
0

>  <SCORE.SYSTEM.SOLV>
0

>  <SCORE.SYSTEM.norm>
0

>  <SCORE.heavy>
11

>  <SCORE.norm>
-3.2753

>  <RMSD>
5.242

$$$$
1akx_lig
 OpenBabel11021811383D
libRbt.so/2013.1/901 2013/11/27
 11 10  0  0  0  0  0  0  0  0999 V2000
   -6.2747   -5.2871   -2.2949 N   0  0  0  0  0  0  0  0  0  0  0  0
   -5.3770   -4.1700   -1.8773 C   0  0  2  0  0  0  0  0  0  0  0  0
   -6.0821   -3.3160   -0.8161 C   0  0  0  0  0  0  0  0  0  0  0  0
   -6.3855   -3.7945    0.2587 O   0  0  0  0  0  0  0  0  0  0  0  0
   -5.0343   -3.3017   -3.0955 C   0  0  0  0  0  0  0  0  0  0  0  0
   -3.8208   -2.4219   -2.7783 C   0  0  0  0  0  0  0  0  0  0  0  0
   -2.5764   -3.2988   -2.6391 C   0  0  0  0  0  0  0  0  0  0  0  0
   -1.4495   -2.4786   -2.1104 N   0  0  0  0  0  0  0  0  0  0  0  0
   -1.0738   -2.6004   -0.8628 C   0  0  0  0  0  0  0  0  0  0  0  0
   -1.4920   -1.7485    0.0376 N   0  0  0  0  0  0  0  0  0  0  0  0
   -0.2835   -3.5803   -0.5148 N   0  0  0  0  0  0  0  0  0  0  0  0
  2  1  1  6  0  0  0
  2  3  1  0  0  0  0
  2  5  1  0  0  0  0
  3  4  1  0  0  0  0
  5  6  1  0  0  0  0
  6  7  1  0  0  0  0
  7  8  1  0  0  0  0
  8  9  1  0  0  0  0
  9 10  1  0  0  0  0
  9 11  1  0  0  0  0
M  END
>  <CHROM.1>
-175.72511933,63.14974559,-163.62197364,68.31478925,-170.64041570,104.68756452
-98.24021521,-145.43278387,-83.66503833,-3.62904127,-3.29649316,-1.48384644
-2.99830140,0.27890224,1.45899164

>  <Name>
1akx_lig

>  <RI>
0

>  <Rbt.Current_Directory>
/home/itssahil/PROJECTS/Mol_Feturizer/New_Systems/rnas/1akx

>  <Rbt.Executable>
rbdock ($Id: //depot/dev/client3/rdock/2013.1/src/exe/rbdock.cxx#4 $)

>  <Rbt.Library>
libRbt.so (2013.1, Build901 2013/11/27)

>  <Rbt.Parameter_File>
/export/apps/rDock/src/rDock_2013.1_src/data/scripts/dock_solv.prm

>  <Rbt.Receptor>
prm/pocket_docking_8.prm

>  <SCORE>
-36.7988

>  <SCORE.INTER>
-29.4614

>  <SCORE.INTER.CONST>
1

>  <SCORE.INTER.POLAR>
-4.03827

>  <SCORE.INTER.ROT>
8

>  <SCORE.INTER.SOLV>
7.57106

>  <SCORE.INTER.VDW>
-17.6371

>  <SCORE.INTER.norm>
-2.67831

>  <SCORE.INTRA>
-7.33734

>  <SCORE.INTRA.DIHEDRAL>
-15.1376

>  <SCORE.INTRA.DIHEDRAL.0>
21.6454

>  <SCORE.INTRA.POLAR>
0

>  <SCORE.INTRA.POLAR.0>
0

>  <SCORE.INTRA.REPUL>
0

>  <SCORE.INTRA.REPUL.0>
0

>  <SCORE.INTRA.SOLV>
0.324646

>  <SCORE.INTRA.SOLV.lig_0>
-16.5947

>  <SCORE.INTRA.VDW>
0.0691309

>  <SCORE.INTRA.VDW.0>
-0.691398

>  <SCORE.INTRA.norm>
-0.667031

>  <SCORE.RESTR>
0

>  <SCORE.RESTR.CAVITY>
0

>  <SCORE.RESTR.norm>
0

>  <SCORE.SYSTEM>
0

>  <SCORE.SYSTEM.CONST>
0

>  <SCORE.SYSTEM.DIHEDRAL>
0

>  <SCORE.SYSTEM.SOLV>
0

>  <SCORE.SYSTEM.norm>
0

>  <SCORE.heavy>
11

>  <SCORE.norm>
-3.34534

>  <RMSD>
5.251

$$$$
1akx_lig
 OpenBabel11021811383D
libRbt.so/2013.1/901 2013/11/27
 11 10  0  0  0  0  0  0  0  0999 V2000
   -8.9710   -4.4803    0.2254 N   0  0  0  0  0  0  0  0  0  0  0  0
   -7.6694   -4.6369    0.9392 C   0  0  2  0  0  0  0  0  0  0  0  0
   -7.8946   -4.4997    2.4502 C   0  0  0  0  0  0  0  0  0  0  0  0
   -8.5514   -5.3249    3.0533 O   0  0  0  0  0  0  0  0  0  0  0  0
   -6.6875   -3.5579    0.4628 C   0  0  0  0  0  0  0  0  0  0  0  0
   -6.1300   -3.9374   -0.9129 C   0  0  0  0  0  0  0  0  0  0  0  0
   -5.0712   -2.9183   -1.3339 C   0  0  0  0  0  0  0  0  0  0  0  0
   -4.3202   -3.4421   -2.5102 N   0  0  0  0  0  0  0  0  0  0  0  0
   -3.6051   -2.6332   -3.2496 C   0  0  0  0  0  0  0  0  0  0  0  0
   -2.4491   -2.1963   -2.8202 N   0  0  0  0  0  0  0  0  0  0  0  0
   -4.0448   -2.2659   -4.4233 N   0  0  0  0  0  0  0  0  0  0  0  0
  2  1  1  6  0  0  0
  2  3  1  0  0  0  0
  2  5  1  0  0  0  0
  3  4  1  0  0  0  0
  5  6  1  0  0  0  0
  6  7  1  0  0  0  0
  7  8  1  0  0  0  0
  8  9  1  0  0  0  0
  9 10  1  0  0  0  0
  9 11  1  0  0  0  0
M  END
>  <CHROM.1>
-68.31108536,65.85700934,-77.00788265,-175.55529178,167.49702432,162.93852885
75.63795246,154.53680031,173.60594781,-5.96271617,-3.62895046,-0.75874164
2.30218828,0.26410516,1.74968397

>  <Name>
1akx_lig

>  <RI>
0

>  <Rbt.Current_Directory>
/home/itssahil/PROJECTS/Mol_Feturizer/New_Systems/rnas/1akx

>  <Rbt.Executable>
rbdock ($Id: //depot/dev/client3/rdock/2013.1/src/exe/rbdock.cxx#4 $)

>  <Rbt.Library>
libRbt.so (2013.1, Build901 2013/11/27)

>  <Rbt.Parameter_File>
/export/apps/rDock/src/rDock_2013.1_src/data/scripts/dock_solv.prm

>  <Rbt.Receptor>
prm/pocket_docking_7.prm

>  <SCORE>
-40.0077

>  <SCORE.INTER>
-32.4101

>  <SCORE.INTER.CONST>
1

>  <SCORE.INTER.POLAR>
-4.60739

>  <SCORE.INTER.ROT>
8

>  <SCORE.INTER.SOLV>
7.54669

>  <SCORE.INTER.VDW>
-17.6977

>  <SCORE.INTER.norm>
-2.94637

>  <SCORE.INTRA>
-7.59755

>  <SCORE.INTRA.DIHEDRAL>
-14.8054

>  <SCORE.INTRA.DIHEDRAL.0>
21.6454

>  <SCORE.INTRA.POLAR>
0

>  <SCORE.INTRA.POLAR.0>
0

>  <SCORE.INTRA.REPUL>
0

>  <SCORE.INTRA.REPUL.0>
0

>  <SCORE.INTRA.SOLV>
0.105894

>  <SCORE.INTRA.SOLV.lig_0>
-16.5947

>  <SCORE.INTRA.VDW>
-0.247771

>  <SCORE.INTRA.VDW.0>
-0.691398

>  <SCORE.INTRA.norm>
-0.690686

>  <SCORE.RESTR>
0

>  <SCORE.RESTR.CAVITY>
0

>  <SCORE.RESTR.norm>
0

>  <SCORE.SYSTEM>
0

>  <SCORE.SYSTEM.CONST>
0

>  <SCORE.SYSTEM.DIHEDRAL>
0

>  <SCORE.SYSTEM.SOLV>
0

>  <SCORE.SYSTEM.norm>
0

>  <SCORE.heavy>
11

>  <SCORE.norm>
-3.63706

>  <RMSD>
5.259

$$$$
1akx_lig
 OpenBabel11021811383D
libRbt.so/2013.1/901 2013/11/27
 11 10  0  0  0  0  0  0  0  0999 V2000
   -5.9132   -4.2522   -3.1265 N   0  0  0  0  0  0  0  0  0  0  0  0
   -4.9835   -3.6328   -2.1363 C   0  0  2  0  0  0  0  0  0  0  0  0
   -5.7513   -3.3027   -0.8502 C   0  0  0  0  0  0  0  0  0  0  0  0
   -5.1685   -2.8599    0.1196 O   0  0  0  0  0  0  0  0  0  0  0  0
   -4.3850   -2.3481   -2.7253 C   0  0  0  0  0  0  0  0  0  0  0  0
   -3.2513   -2.7024   -3.6930 C   0  0  0  0  0  0  0  0  0  0  0  0
   -2.1324   -3.4126   -2.9311 C   0  0  0  0  0  0  0  0  0  0  0  0
   -1.3298   -2.4065   -2.1790 N   0  0  0  0  0  0  0  0  0  0  0  0
   -1.0509   -2.5969   -0.9147 C   0  0  0  0  0  0  0  0  0  0  0  0
   -1.4985   -1.7661   -0.0087 N   0  0  0  0  0  0  0  0  0  0  0  0
   -0.3283   -3.6241   -0.5561 N   0  0  0  0  0  0  0  0  0  0  0  0
  2  1  1  6  0  0  0
  2  3  1  0  0  0  0
  2  5  1  0  0  0  0
  3  4  1  0  0  0  0
  5  6  1  0  0  0  0
  6  7  1  0  0  0  0
  7  8  1  0  0  0  0
  8  9  1  0  0  0  0
  9 10  1  0  0  0  0
  9 11  1  0  0  0  0
M  END
>  <CHROM.1>
-101.01919408,175.77748867,-79.12210685,-62.66102398,-77.83994764,131.30672936
-117.10603113,37.02513647,-84.44873413,-3.26078718,-2.99928906,-1.70168770
-2.87072981,0.13484023,1.41376692

>  <Name>
1akx_lig

>  <RI>
0

>  <Rbt.Current_Directory>
/home/itssahil/PROJECTS/Mol_Feturizer/New_Systems/rnas/1akx

>  <Rbt.Executable>
rbdock ($Id: //depot/dev/client3/rdock/2013.1/src/exe/rbdock.cxx#4 $)

>  <Rbt.Library>
libRbt.so (2013.1, Build901 2013/11/27)

>  <Rbt.Parameter_File>
/export/apps/rDock/src/rDock_2013.1_src/data/scripts/dock_solv.prm

>  <Rbt.Receptor>
prm/pocket_docking_3.prm

>  <SCORE>
-37.3494

>  <SCORE.INTER>
-32.6691

>  <SCORE.INTER.CONST>
1

>  <SCORE.INTER.POLAR>
-4.33983

>  <SCORE.INTER.ROT>
8

>  <SCORE.INTER.SOLV>
8.65245

>  <SCORE.INTER.VDW>
-19.1307

>  <SCORE.INTER.norm>
-2.96991

>  <SCORE.INTRA>
-4.68032

>  <SCORE.INTRA.DIHEDRAL>
-11.4866

>  <SCORE.INTRA.DIHEDRAL.0>
21.6454

>  <SCORE.INTRA.POLAR>
0

>  <SCORE.INTRA.POLAR.0>
0

>  <SCORE.INTRA.REPUL>
0

>  <SCORE.INTRA.REPUL.0>
0

>  <SCORE.INTRA.SOLV>
0.775175

>  <SCORE.INTRA.SOLV.lig_0>
-16.5947

>  <SCORE.INTRA.VDW>
0.67537

>  <SCORE.INTRA.VDW.0>
-0.691398

>  <SCORE.INTRA.norm>
-0.425483

>  <SCORE.RESTR>
0

>  <SCORE.RESTR.CAVITY>
0

>  <SCORE.RESTR.norm>
0

>  <SCORE.SYSTEM>
0

>  <SCORE.SYSTEM.CONST>
0

>  <SCORE.SYSTEM.DIHEDRAL>
0

>  <SCORE.SYSTEM.SOLV>
0

>  <SCORE.SYSTEM.norm>
0

>  <SCORE.heavy>
11

>  <SCORE.norm>
-3.3954

>  <RMSD>
5.263

$$$$
1akx_lig
 OpenBabel11021811383D
libRbt.so/2013.1/901 2013/11/27
 11 10  0  0  0  0  0  0  0  0999 V2000
   -2.4275   -2.1338   -3.6913 N   0  0  0  0  0  0  0  0  0  0  0  0
   -2.7864   -3.1459   -2.6544 C   0  0  2  0  0  0  0  0  0  0  0  0
   -4.3085   -3.3336   -2.6276 C   0  0  0  0  0  0  0  0  0  0  0  0
   -4.8077   -4.2326   -1.9804 O   0  0  0  0  0  0  0  0  0  0  0  0
   -2.3001   -2.6692   -1.2791 C   0  0  0  0  0  0  0  0  0  0  0  0
   -0.7976   -2.9355   -1.1413 C   0  0  0  0  0  0  0  0  0  0  0  0
   -0.5777   -4.3281   -0.5503 C   0  0  0  0  0  0  0  0  0  0  0  0
   -1.1402   -5.3528   -1.4755 N   0  0  0  0  0  0  0  0  0  0  0  0
   -1.6833   -6.4440   -0.9993 C   0  0  0  0  0  0  0  0  0  0  0  0
   -0.9287   -7.4281   -0.5827 N   0  0  0  0  0  0  0  0  0  0  0  0
   -2.9836   -6.5478   -0.9342 N   0  0  0  0  0  0  0  0  0  0  0  0
  2  1  1  6  0  0  0
  2  3  1  0  0  0  0
  2  5  1  0  0  0  0
  3  4  1  0  0  0  0
  5  6  1  0  0  0  0
  6  7  1  0  0  0  0
  7  8  1  0  0  0  0
  8  9  1  0  0  0  0
  9 10  1  0  0  0  0
  9 11  1  0  0  0  0
M  END
>  <CHROM.1>
-64.22294574,170.50157571,-79.03390056,-89.76065218,62.00608002,-145.73363595
-78.23697239,97.53910234,1.79338218,-2.27067656,-4.43352321,-1.65464727,-1.97024407
0.28843245,2.79082486

>  <Name>
1akx_lig

>  <RI>
0

>  <Rbt.Current_Directory>
/home/itssahil/PROJECTS/Mol_Feturizer/New_Systems/rnas/1akx

>  <Rbt.Executable>
rbdock ($Id: //depot/dev/client3/rdock/2013.1/src/exe/rbdock.cxx#4 $)

>  <Rbt.Library>
libRbt.so (2013.1, Build901 2013/11/27)

>  <Rbt.Parameter_File>
/export/apps/rDock/src/rDock_2013.1_src/data/scripts/dock_solv.prm

>  <Rbt.Receptor>
prm/pocket_docking_8.prm

>  <SCORE>
-28.7748

>  <SCORE.INTER>
-19.1765

>  <SCORE.INTER.CONST>
1

>  <SCORE.INTER.POLAR>
-2.52458

>  <SCORE.INTER.ROT>
8

>  <SCORE.INTER.SOLV>
5.5733

>  <SCORE.INTER.VDW>
-15.1601

>  <SCORE.INTER.norm>
-1.74331

>  <SCORE.INTRA>
-9.59837

>  <SCORE.INTRA.DIHEDRAL>
-12.0983

>  <SCORE.INTRA.DIHEDRAL.0>
21.6454

>  <SCORE.INTRA.POLAR>
-0.980979

>  <SCORE.INTRA.POLAR.0>
0

>  <SCORE.INTRA.REPUL>
0

>  <SCORE.INTRA.REPUL.0>
0

>  <SCORE.INTRA.SOLV>
1.73882

>  <SCORE.INTRA.SOLV.lig_0>
-16.5947

>  <SCORE.INTRA.VDW>
-1.08331

>  <SCORE.INTRA.VDW.0>
-0.691398

>  <SCORE.INTRA.norm>
-0.872579

>  <SCORE.RESTR>
0

>  <SCORE.RESTR.CAVITY>
0

>  <SCORE.RESTR.norm>
0

>  <SCORE.SYSTEM>
0

>  <SCORE.SYSTEM.CONST>
0

>  <SCORE.SYSTEM.DIHEDRAL>
0

>  <SCORE.SYSTEM.SOLV>
0

>  <SCORE.SYSTEM.norm>
0

>  <SCORE.heavy>
11

>  <SCORE.norm>
-2.61589

>  <RMSD>
5.265

$$$$
1akx_lig
 OpenBabel11021811383D
libRbt.so/2013.1/901 2013/11/27
 11 10  0  0  0  0  0  0  0  0999 V2000
   -7.5062   -6.5390   -1.9286 N   0  0  0  0  0  0  0  0  0  0  0  0
   -6.2982   -6.3373   -2.7819 C   0  0  2  0  0  0  0  0  0  0  0  0
   -5.6094   -7.6868   -3.0213 C   0  0  0  0  0  0  0  0  0  0  0  0
   -6.1783   -8.5699   -3.6318 O   0  0  0  0  0  0  0  0  0  0  0  0
   -5.3266   -5.3781   -2.0809 C   0  0  0  0  0  0  0  0  0  0  0  0
   -6.0336   -4.0517   -1.7843 C   0  0  0  0  0  0  0  0  0  0  0  0
   -4.9971   -2.9939   -1.4052 C   0  0  0  0  0  0  0  0  0  0  0  0
   -4.2240   -2.6015   -2.6179 N   0  0  0  0  0  0  0  0  0  0  0  0
   -2.9550   -2.2972   -2.5210 C   0  0  0  0  0  0  0  0  0  0  0  0
   -2.2586   -2.0254   -3.5946 N   0  0  0  0  0  0  0  0  0  0  0  0
   -2.3836   -2.2588   -1.3471 N   0  0  0  0  0  0  0  0  0  0  0  0
  2  1  1  1  0  0  0
  2  3  1  0  0  0  0
  2  5  1  0  0  0  0
  3  4  1  0  0  0  0
  5  6  1  0  0  0  0
  6  7  1  0  0  0  0
  7  8  1  0  0  0  0
  8  9  1  0  0  0  0
  9 10  1  0  0  0  0
  9 11  1  0  0  0  0
M  END
>  <CHROM.1>
-171.53160995,63.74394232,-57.19847289,-166.35858881,71.65308284,-145.25523623
176.18207568,-166.72379943,-61.13652753,-4.89044369,-4.62639146,-2.43463313
2.27398637,-0.51637478,-2.66304945

>  <Name>
1akx_lig

>  <RI>
0

>  <Rbt.Current_Directory>
/home/itssahil/PROJECTS/Mol_Feturizer/New_Systems/rnas/1akx

>  <Rbt.Executable>
rbdock ($Id: //depot/dev/client3/rdock/2013.1/src/exe/rbdock.cxx#4 $)

>  <Rbt.Library>
libRbt.so (2013.1, Build901 2013/11/27)

>  <Rbt.Parameter_File>
/export/apps/rDock/src/rDock_2013.1_src/data/scripts/dock_solv.prm

>  <Rbt.Receptor>
prm/pocket_docking_7.prm

>  <SCORE>
-28.4346

>  <SCORE.INTER>
-21.9006

>  <SCORE.INTER.CONST>
1

>  <SCORE.INTER.POLAR>
-3.15938

>  <SCORE.INTER.ROT>
8

>  <SCORE.INTER.SOLV>
6.86394

>  <SCORE.INTER.VDW>
-15.2904

>  <SCORE.INTER.norm>
-1.99096

>  <SCORE.INTRA>
-6.53398

>  <SCORE.INTRA.DIHEDRAL>
-15.3449

>  <SCORE.INTRA.DIHEDRAL.0>
21.6454

>  <SCORE.INTRA.POLAR>
0

>  <SCORE.INTRA.POLAR.0>
0

>  <SCORE.INTRA.REPUL>
0

>  <SCORE.INTRA.REPUL.0>
0

>  <SCORE.INTRA.SOLV>
0.432646

>  <SCORE.INTRA.SOLV.lig_0>
-16.5947

>  <SCORE.INTRA.VDW>
0.922134

>  <SCORE.INTRA.VDW.0>
-0.691398

>  <SCORE.INTRA.norm>
-0.593999

>  <SCORE.RESTR>
0

>  <SCORE.RESTR.CAVITY>
0

>  <SCORE.RESTR.norm>
0

>  <SCORE.SYSTEM>
0

>  <SCORE.SYSTEM.CONST>
0

>  <SCORE.SYSTEM.DIHEDRAL>
0

>  <SCORE.SYSTEM.SOLV>
0

>  <SCORE.SYSTEM.norm>
0

>  <SCORE.heavy>
11

>  <SCORE.norm>
-2.58496

>  <RMSD>
5.285

$$$$
1akx_lig
 OpenBabel11021811383D
libRbt.so/2013.1/901 2013/11/27
 11 10  0  0  0  0  0  0  0  0999 V2000
   -7.5847   -3.9052    1.3021 N   0  0  0  0  0  0  0  0  0  0  0  0
   -7.6738   -4.5596   -0.0366 C   0  0  2  0  0  0  0  0  0  0  0  0
   -8.7994   -5.6015   -0.0231 C   0  0  0  0  0  0  0  0  0  0  0  0
   -9.0748   -6.2249   -1.0289 O   0  0  0  0  0  0  0  0  0  0  0  0
   -6.3399   -5.2439   -0.3653 C   0  0  0  0  0  0  0  0  0  0  0  0
   -5.2521   -4.1845   -0.5696 C   0  0  0  0  0  0  0  0  0  0  0  0
   -5.3531   -3.6149   -1.9847 C   0  0  0  0  0  0  0  0  0  0  0  0
   -4.2624   -2.6213   -2.1972 N   0  0  0  0  0  0  0  0  0  0  0  0
   -3.5495   -2.6491   -3.2942 C   0  0  0  0  0  0  0  0  0  0  0  0
   -4.1012   -2.3662   -4.4462 N   0  0  0  0  0  0  0  0  0  0  0  0
   -2.2809   -2.9545   -3.2372 N   0  0  0  0  0  0  0  0  0  0  0  0
  2  1  1  1  0  0  0
  2  3  1  0  0  0  0
  2  5  1  0  0  0  0
  3  4  1  0  0  0  0
  5  6  1  0  0  0  0
  6  7  1  0  0  0  0
  7  8  1  0  0  0  0
  8  9  1  0  0  0  0
  9 10  1  0  0  0  0
  9 11  1  0  0  0  0
M  END
>  <CHROM.1>
-45.71921816,177.61172908,-67.51351974,-81.04715995,-177.92624553,133.87706817
66.89689572,126.75081439,58.74715612,-5.83748882,-3.97550689,-1.44382558
-2.63672139,-0.54840519,-1.68819131

>  <Name>
1akx_lig

>  <RI>
0

>  <Rbt.Current_Directory>
/home/itssahil/PROJECTS/Mol_Feturizer/New_Systems/rnas/1akx

>  <Rbt.Executable>
rbdock ($Id: //depot/dev/client3/rdock/2013.1/src/exe/rbdock.cxx#4 $)

>  <Rbt.Library>
libRbt.so (2013.1, Build901 2013/11/27)

>  <Rbt.Parameter_File>
/export/apps/rDock/src/rDock_2013.1_src/data/scripts/dock_solv.prm

>  <Rbt.Receptor>
prm/pocket_docking_7.prm

>  <SCORE>
-35.7288

>  <SCORE.INTER>
-28.6144

>  <SCORE.INTER.CONST>
1

>  <SCORE.INTER.POLAR>
-4.07567

>  <SCORE.INTER.ROT>
8

>  <SCORE.INTER.SOLV>
7.58441

>  <SCORE.INTER.VDW>
-16.9522

>  <SCORE.INTER.norm>
-2.60131

>  <SCORE.INTRA>
-7.11438

>  <SCORE.INTRA.DIHEDRAL>
-14.4258

>  <SCORE.INTRA.DIHEDRAL.0>
21.6454

>  <SCORE.INTRA.POLAR>
0

>  <SCORE.INTRA.POLAR.0>
0

>  <SCORE.INTRA.REPUL>
0

>  <SCORE.INTRA.REPUL.0>
0

>  <SCORE.INTRA.SOLV>
0.0605155

>  <SCORE.INTRA.SOLV.lig_0>
-16.5947

>  <SCORE.INTRA.VDW>
0.0682525

>  <SCORE.INTRA.VDW.0>
-0.691398

>  <SCORE.INTRA.norm>
-0.646762

>  <SCORE.RESTR>
0

>  <SCORE.RESTR.CAVITY>
0

>  <SCORE.RESTR.norm>
0

>  <SCORE.SYSTEM>
0

>  <SCORE.SYSTEM.CONST>
0

>  <SCORE.SYSTEM.DIHEDRAL>
0

>  <SCORE.SYSTEM.SOLV>
0

>  <SCORE.SYSTEM.norm>
0

>  <SCORE.heavy>
11

>  <SCORE.norm>
-3.24808

>  <RMSD>
5.299

$$$$
1akx_lig
 OpenBabel11021811383D
libRbt.so/2013.1/901 2013/11/27
 11 10  0  0  0  0  0  0  0  0999 V2000
   -5.8330   -4.1302   -3.1094 N   0  0  0  0  0  0  0  0  0  0  0  0
   -4.8837   -3.4166   -2.2050 C   0  0  2  0  0  0  0  0  0  0  0  0
   -5.6418   -2.8900   -0.9799 C   0  0  0  0  0  0  0  0  0  0  0  0
   -5.9485   -3.6405   -0.0750 O   0  0  0  0  0  0  0  0  0  0  0  0
   -4.2386   -2.2444   -2.9568 C   0  0  0  0  0  0  0  0  0  0  0  0
   -3.0756   -2.7567   -3.8127 C   0  0  0  0  0  0  0  0  0  0  0  0
   -2.0522   -3.4560   -2.9180 C   0  0  0  0  0  0  0  0  0  0  0  0
   -1.2809   -2.4333   -2.1554 N   0  0  0  0  0  0  0  0  0  0  0  0
   -1.0221   -2.6143   -0.8855 C   0  0  0  0  0  0  0  0  0  0  0  0
   -0.3105   -3.6412   -0.4977 N   0  0  0  0  0  0  0  0  0  0  0  0
   -1.4710   -1.7625   -0.0029 N   0  0  0  0  0  0  0  0  0  0  0  0
  2  1  1  6  0  0  0
  2  3  1  0  0  0  0
  2  5  1  0  0  0  0
  3  4  1  0  0  0  0
  5  6  1  0  0  0  0
  6  7  1  0  0  0  0
  7  8  1  0  0  0  0
  8  9  1  0  0  0  0
  9 10  1  0  0  0  0
  9 11  1  0  0  0  0
M  END
>  <CHROM.1>
13.43304125,77.62726919,-81.64516505,-58.21303381,-74.77921950,137.04849147
61.21093443,-88.12996431,37.46515220,-3.26590675,-3.01541038,-1.75372840
-2.93551057,0.15044455,1.52110908

>  <Name>
1akx_lig

>  <RI>
0

>  <Rbt.Current_Directory>
/home/itssahil/PROJECTS/Mol_Feturizer/New_Systems/rnas/1akx

>  <Rbt.Executable>
rbdock ($Id: //depot/dev/client3/rdock/2013.1/src/exe/rbdock.cxx#4 $)

>  <Rbt.Library>
libRbt.so (2013.1, Build901 2013/11/27)

>  <Rbt.Parameter_File>
/export/apps/rDock/src/rDock_2013.1_src/data/scripts/dock_solv.prm

>  <Rbt.Receptor>
prm/pocket_docking_3.prm

>  <SCORE>
-35.6614

>  <SCORE.INTER>
-31.9261

>  <SCORE.INTER.CONST>
1

>  <SCORE.INTER.POLAR>
-4.32232

>  <SCORE.INTER.ROT>
8

>  <SCORE.INTER.SOLV>
8.70077

>  <SCORE.INTER.VDW>
-18.7099

>  <SCORE.INTER.norm>
-2.90238

>  <SCORE.INTRA>
-3.74239

>  <SCORE.INTRA.DIHEDRAL>
-10.1251

>  <SCORE.INTRA.DIHEDRAL.0>
21.6454

>  <SCORE.INTRA.POLAR>
0

>  <SCORE.INTRA.POLAR.0>
0

>  <SCORE.INTRA.REPUL>
0

>  <SCORE.INTRA.REPUL.0>
0

>  <SCORE.INTRA.SOLV>
0.690057

>  <SCORE.INTRA.SOLV.lig_0>
-16.5947

>  <SCORE.INTRA.VDW>
0.975123

>  <SCORE.INTRA.VDW.0>
-0.691398

>  <SCORE.INTRA.norm>
-0.340217

>  <SCORE.RESTR>
0.0071241

>  <SCORE.RESTR.CAVITY>
0.0071241

>  <SCORE.RESTR.norm>
0.000647646

>  <SCORE.SYSTEM>
0

>  <SCORE.SYSTEM.CONST>
0

>  <SCORE.SYSTEM.DIHEDRAL>
0

>  <SCORE.SYSTEM.SOLV>
0

>  <SCORE.SYSTEM.norm>
0

>  <SCORE.heavy>
11

>  <SCORE.norm>
-3.24194

>  <RMSD>
5.339

$$$$
1akx_lig
 OpenBabel11021811383D
libRbt.so/2013.1/901 2013/11/27
 11 10  0  0  0  0  0  0  0  0999 V2000
   -7.6773   -3.9093    1.2838 N   0  0  0  0  0  0  0  0  0  0  0  0
   -7.7460   -4.5408   -0.0670 C   0  0  2  0  0  0  0  0  0  0  0  0
   -8.8770   -5.5767   -0.0909 C   0  0  0  0  0  0  0  0  0  0  0  0
   -9.1072   -6.2153   -1.0985 O   0  0  0  0  0  0  0  0  0  0  0  0
   -6.4101   -5.2267   -0.3836 C   0  0  0  0  0  0  0  0  0  0  0  0
   -5.3175   -4.1690   -0.5704 C   0  0  0  0  0  0  0  0  0  0  0  0
   -5.4092   -3.5830   -1.9793 C   0  0  0  0  0  0  0  0  0  0  0  0
   -4.2824   -2.6308   -2.1937 N   0  0  0  0  0  0  0  0  0  0  0  0
   -3.5685   -2.6898   -3.2888 C   0  0  0  0  0  0  0  0  0  0  0  0
   -4.1083   -2.3970   -4.4439 N   0  0  0  0  0  0  0  0  0  0  0  0
   -2.3107   -3.0361   -3.2268 N   0  0  0  0  0  0  0  0  0  0  0  0
  2  1  1  1  0  0  0
  2  3  1  0  0  0  0
  2  5  1  0  0  0  0
  3  4  1  0  0  0  0
  5  6  1  0  0  0  0
  6  7  1  0  0  0  0
  7  8  1  0  0  0  0
  8  9  1  0  0  0  0
  9 10  1  0  0  0  0
  9 11  1  0  0  0  0
M  END
>  <CHROM.1>
73.57506803,-179.79976763,-68.30280394,-80.51440769,-175.71655227,132.83969050
66.63679230,123.78181923,59.52693775,-5.88643955,-3.98125362,-1.46005424
-2.65209172,-0.54321772,-1.70765134

>  <Name>
1akx_lig

>  <RI>
0

>  <Rbt.Current_Directory>
/home/afrankz/demos/rdock_decoys_rna/rnas/1akx

>  <Rbt.Executable>
rbdock ($Id: //depot/dev/client3/rdock/2013.1/src/exe/rbdock.cxx#4 $)

>  <Rbt.Library>
libRbt.so (2013.1, Build901 2013/11/27)

>  <Rbt.Parameter_File>
/export/apps/rDock/src/rDock_2013.1_src/data/scripts/dock_solv.prm

>  <Rbt.Receptor>
prm/pocket_docking_8.prm

>  <SCORE>
-35.7293

>  <SCORE.INTER>
-28.5908

>  <SCORE.INTER.CONST>
1

>  <SCORE.INTER.POLAR>
-4.10123

>  <SCORE.INTER.ROT>
8

>  <SCORE.INTER.SOLV>
7.65157

>  <SCORE.INTER.VDW>
-16.8737

>  <SCORE.INTER.norm>
-2.59917

>  <SCORE.INTRA>
-7.13847

>  <SCORE.INTRA.DIHEDRAL>
-14.4648

>  <SCORE.INTRA.DIHEDRAL.0>
21.6454

>  <SCORE.INTRA.POLAR>
0

>  <SCORE.INTRA.POLAR.0>
0

>  <SCORE.INTRA.REPUL>
0

>  <SCORE.INTRA.REPUL.0>
0

>  <SCORE.INTRA.SOLV>
0.063259

>  <SCORE.INTRA.SOLV.lig_0>
-16.5947

>  <SCORE.INTRA.VDW>
0.062317

>  <SCORE.INTRA.VDW.0>
-0.691398

>  <SCORE.INTRA.norm>
-0.648952

>  <SCORE.RESTR>
0

>  <SCORE.RESTR.CAVITY>
0

>  <SCORE.RESTR.norm>
0

>  <SCORE.SYSTEM>
0

>  <SCORE.SYSTEM.CONST>
0

>  <SCORE.SYSTEM.DIHEDRAL>
0

>  <SCORE.SYSTEM.SOLV>
0

>  <SCORE.SYSTEM.norm>
0

>  <SCORE.heavy>
11

>  <SCORE.norm>
-3.24812

>  <RMSD>
5.353

>  <RMSD>
5.353

$$$$
1akx_lig
 OpenBabel11021811383D
libRbt.so/2013.1/901 2013/11/27
 11 10  0  0  0  0  0  0  0  0999 V2000
   -7.6773   -3.9093    1.2838 N   0  0  0  0  0  0  0  0  0  0  0  0
   -7.7460   -4.5408   -0.0670 C   0  0  2  0  0  0  0  0  0  0  0  0
   -8.8770   -5.5767   -0.0909 C   0  0  0  0  0  0  0  0  0  0  0  0
   -9.1072   -6.2153   -1.0985 O   0  0  0  0  0  0  0  0  0  0  0  0
   -6.4101   -5.2267   -0.3836 C   0  0  0  0  0  0  0  0  0  0  0  0
   -5.3175   -4.1690   -0.5704 C   0  0  0  0  0  0  0  0  0  0  0  0
   -5.4092   -3.5830   -1.9793 C   0  0  0  0  0  0  0  0  0  0  0  0
   -4.2824   -2.6308   -2.1937 N   0  0  0  0  0  0  0  0  0  0  0  0
   -3.5685   -2.6898   -3.2888 C   0  0  0  0  0  0  0  0  0  0  0  0
   -4.1083   -2.3970   -4.4439 N   0  0  0  0  0  0  0  0  0  0  0  0
   -2.3107   -3.0361   -3.2268 N   0  0  0  0  0  0  0  0  0  0  0  0
  2  1  1  1  0  0  0
  2  3  1  0  0  0  0
  2  5  1  0  0  0  0
  3  4  1  0  0  0  0
  5  6  1  0  0  0  0
  6  7  1  0  0  0  0
  7  8  1  0  0  0  0
  8  9  1  0  0  0  0
  9 10  1  0  0  0  0
  9 11  1  0  0  0  0
M  END
>  <CHROM.1>
73.57506803,-179.79976763,-68.30280394,-80.51440769,-175.71655227,132.83969050
66.63679230,123.78181923,59.52693775,-5.88643955,-3.98125362,-1.46005424
-2.65209172,-0.54321772,-1.70765134

>  <Name>
1akx_lig

>  <RI>
0

>  <Rbt.Current_Directory>
/home/afrankz/demos/rdock_decoys_rna/rnas/1akx

>  <Rbt.Executable>
rbdock ($Id: //depot/dev/client3/rdock/2013.1/src/exe/rbdock.cxx#4 $)

>  <Rbt.Library>
libRbt.so (2013.1, Build901 2013/11/27)

>  <Rbt.Parameter_File>
/export/apps/rDock/src/rDock_2013.1_src/data/scripts/dock_solv.prm

>  <Rbt.Receptor>
prm/pocket_docking_8.prm

>  <SCORE>
-35.7293

>  <SCORE.INTER>
-28.5908

>  <SCORE.INTER.CONST>
1

>  <SCORE.INTER.POLAR>
-4.10123

>  <SCORE.INTER.ROT>
8

>  <SCORE.INTER.SOLV>
7.65157

>  <SCORE.INTER.VDW>
-16.8737

>  <SCORE.INTER.norm>
-2.59917

>  <SCORE.INTRA>
-7.13847

>  <SCORE.INTRA.DIHEDRAL>
-14.4648

>  <SCORE.INTRA.DIHEDRAL.0>
21.6454

>  <SCORE.INTRA.POLAR>
0

>  <SCORE.INTRA.POLAR.0>
0

>  <SCORE.INTRA.REPUL>
0

>  <SCORE.INTRA.REPUL.0>
0

>  <SCORE.INTRA.SOLV>
0.063259

>  <SCORE.INTRA.SOLV.lig_0>
-16.5947

>  <SCORE.INTRA.VDW>
0.062317

>  <SCORE.INTRA.VDW.0>
-0.691398

>  <SCORE.INTRA.norm>
-0.648952

>  <SCORE.RESTR>
0

>  <SCORE.RESTR.CAVITY>
0

>  <SCORE.RESTR.norm>
0

>  <SCORE.SYSTEM>
0

>  <SCORE.SYSTEM.CONST>
0

>  <SCORE.SYSTEM.DIHEDRAL>
0

>  <SCORE.SYSTEM.SOLV>
0

>  <SCORE.SYSTEM.norm>
0

>  <SCORE.heavy>
11

>  <SCORE.norm>
-3.24812

>  <RMSD>
5.353

>  <RMSD>
5.353

$$$$
1akx_lig
 OpenBabel11021811383D
libRbt.so/2013.1/901 2013/11/27
 11 10  0  0  0  0  0  0  0  0999 V2000
   -6.5169   -5.5697   -2.3077 N   0  0  0  0  0  0  0  0  0  0  0  0
   -5.7048   -4.5308   -1.6081 C   0  0  2  0  0  0  0  0  0  0  0  0
   -6.5940   -3.7656   -0.6199 C   0  0  0  0  0  0  0  0  0  0  0  0
   -7.1864   -4.3560    0.2614 O   0  0  0  0  0  0  0  0  0  0  0  0
   -5.1183   -3.5556   -2.6378 C   0  0  0  0  0  0  0  0  0  0  0  0
   -4.2152   -2.5393   -1.9314 C   0  0  0  0  0  0  0  0  0  0  0  0
   -3.0677   -3.2720   -1.2363 C   0  0  0  0  0  0  0  0  0  0  0  0
   -2.3829   -2.3398   -0.2959 N   0  0  0  0  0  0  0  0  0  0  0  0
   -1.1938   -2.6273    0.1685 C   0  0  0  0  0  0  0  0  0  0  0  0
   -0.1462   -2.5547   -0.6117 N   0  0  0  0  0  0  0  0  0  0  0  0
   -1.0521   -2.9818    1.4176 N   0  0  0  0  0  0  0  0  0  0  0  0
  2  1  1  6  0  0  0
  2  3  1  0  0  0  0
  2  5  1  0  0  0  0
  3  4  1  0  0  0  0
  5  6  1  0  0  0  0
  6  7  1  0  0  0  0
  7  8  1  0  0  0  0
  8  9  1  0  0  0  0
  9 10  1  0  0  0  0
  9 11  1  0  0  0  0
M  END
>  <CHROM.1>
-64.98510036,57.79660580,-176.57178462,60.60162338,-166.77356384,-163.58236591
72.23907783,28.55186978,111.35078188,-3.92822699,-3.48811330,-0.83442693
-2.88542105,0.33018400,1.55655917

>  <Name>
1akx_lig

>  <RI>
0

>  <Rbt.Current_Directory>
/home/itssahil/PROJECTS/Mol_Feturizer/New_Systems/rnas/1akx

>  <Rbt.Executable>
rbdock ($Id: //depot/dev/client3/rdock/2013.1/src/exe/rbdock.cxx#4 $)

>  <Rbt.Library>
libRbt.so (2013.1, Build901 2013/11/27)

>  <Rbt.Parameter_File>
/export/apps/rDock/src/rDock_2013.1_src/data/scripts/dock_solv.prm

>  <Rbt.Receptor>
prm/pocket_docking_6.prm

>  <SCORE>
-22.9432

>  <SCORE.INTER>
-16.5658

>  <SCORE.INTER.CONST>
1

>  <SCORE.INTER.POLAR>
-2.46777

>  <SCORE.INTER.ROT>
8

>  <SCORE.INTER.SOLV>
5.69857

>  <SCORE.INTER.VDW>
-13.6509

>  <SCORE.INTER.norm>
-1.50599

>  <SCORE.INTRA>
-6.37737

>  <SCORE.INTRA.DIHEDRAL>
-16.0817

>  <SCORE.INTRA.DIHEDRAL.0>
21.6454

>  <SCORE.INTRA.POLAR>
0

>  <SCORE.INTRA.POLAR.0>
0

>  <SCORE.INTRA.REPUL>
0

>  <SCORE.INTRA.REPUL.0>
0

>  <SCORE.INTRA.SOLV>
0.294406

>  <SCORE.INTRA.SOLV.lig_0>
-16.5947

>  <SCORE.INTRA.VDW>
1.51626

>  <SCORE.INTRA.VDW.0>
-0.691398

>  <SCORE.INTRA.norm>
-0.579761

>  <SCORE.RESTR>
0

>  <SCORE.RESTR.CAVITY>
0

>  <SCORE.RESTR.norm>
0

>  <SCORE.SYSTEM>
0

>  <SCORE.SYSTEM.CONST>
0

>  <SCORE.SYSTEM.DIHEDRAL>
0

>  <SCORE.SYSTEM.SOLV>
0

>  <SCORE.SYSTEM.norm>
0

>  <SCORE.heavy>
11

>  <SCORE.norm>
-2.08575

>  <RMSD>
5.358

$$$$
1akx_lig
 OpenBabel11021811383D
libRbt.so/2013.1/901 2013/11/27
 11 10  0  0  0  0  0  0  0  0999 V2000
   -5.9102   -4.3129   -3.1414 N   0  0  0  0  0  0  0  0  0  0  0  0
   -4.7722   -3.8464   -2.2955 C   0  0  2  0  0  0  0  0  0  0  0  0
   -5.2733   -3.5645   -0.8735 C   0  0  0  0  0  0  0  0  0  0  0  0
   -5.6989   -4.4664   -0.1794 O   0  0  0  0  0  0  0  0  0  0  0  0
   -4.1745   -2.5668   -2.8961 C   0  0  0  0  0  0  0  0  0  0  0  0
   -2.6575   -2.5551   -2.6824 C   0  0  0  0  0  0  0  0  0  0  0  0
   -2.3529   -2.5035   -1.1852 C   0  0  0  0  0  0  0  0  0  0  0  0
   -0.8774   -2.4407   -0.9822 N   0  0  0  0  0  0  0  0  0  0  0  0
   -0.3769   -2.4547    0.2268 C   0  0  0  0  0  0  0  0  0  0  0  0
   -0.5057   -1.4116    1.0057 N   0  0  0  0  0  0  0  0  0  0  0  0
    0.2481   -3.5171    0.6591 N   0  0  0  0  0  0  0  0  0  0  0  0
  2  1  1  6  0  0  0
  2  3  1  0  0  0  0
  2  5  1  0  0  0  0
  3  4  1  0  0  0  0
  5  6  1  0  0  0  0
  6  7  1  0  0  0  0
  7  8  1  0  0  0  0
  8  9  1  0  0  0  0
  9 10  1  0  0  0  0
  9 11  1  0  0  0  0
M  END
>  <CHROM.1>
-98.88297534,64.88505682,-144.63191025,-63.89867261,-177.89782505,-176.67605804
-71.50573445,-105.03126578,-118.97401368,-2.95123781,-3.08080026,-1.10301677
-2.80015242,0.38871972,1.83715171

>  <Name>
1akx_lig

>  <RI>
0

>  <Rbt.Current_Directory>
/home/itssahil/PROJECTS/Mol_Feturizer/New_Systems/rnas/1akx

>  <Rbt.Executable>
rbdock ($Id: //depot/dev/client3/rdock/2013.1/src/exe/rbdock.cxx#4 $)

>  <Rbt.Library>
libRbt.so (2013.1, Build901 2013/11/27)

>  <Rbt.Parameter_File>
/export/apps/rDock/src/rDock_2013.1_src/data/scripts/dock_solv.prm

>  <Rbt.Receptor>
prm/pocket_docking_6.prm

>  <SCORE>
-28.089

>  <SCORE.INTER>
-24.825

>  <SCORE.INTER.CONST>
1

>  <SCORE.INTER.POLAR>
-3.0473

>  <SCORE.INTER.ROT>
8

>  <SCORE.INTER.SOLV>
6.95796

>  <SCORE.INTER.VDW>
-17.645

>  <SCORE.INTER.norm>
-2.25682

>  <SCORE.INTRA>
-3.26401

>  <SCORE.INTRA.DIHEDRAL>
-10.3157

>  <SCORE.INTRA.DIHEDRAL.0>
21.6454

>  <SCORE.INTRA.POLAR>
0

>  <SCORE.INTRA.POLAR.0>
0

>  <SCORE.INTRA.REPUL>
0

>  <SCORE.INTRA.REPUL.0>
0

>  <SCORE.INTRA.SOLV>
0.246436

>  <SCORE.INTRA.SOLV.lig_0>
-16.5947

>  <SCORE.INTRA.VDW>
1.77063

>  <SCORE.INTRA.VDW.0>
-0.691398

>  <SCORE.INTRA.norm>
-0.296728

>  <SCORE.RESTR>
0

>  <SCORE.RESTR.CAVITY>
0

>  <SCORE.RESTR.norm>
0

>  <SCORE.SYSTEM>
0

>  <SCORE.SYSTEM.CONST>
0

>  <SCORE.SYSTEM.DIHEDRAL>
0

>  <SCORE.SYSTEM.SOLV>
0

>  <SCORE.SYSTEM.norm>
0

>  <SCORE.heavy>
11

>  <SCORE.norm>
-2.55354

>  <RMSD>
5.364

$$$$
1akx_lig
 OpenBabel11021811383D
libRbt.so/2013.1/901 2013/11/27
 11 10  0  0  0  0  0  0  0  0999 V2000
   -5.9778   -4.4813   -3.1646 N   0  0  0  0  0  0  0  0  0  0  0  0
   -5.0701   -3.9689   -2.0961 C   0  0  2  0  0  0  0  0  0  0  0  0
   -5.8574   -3.0515   -1.1520 C   0  0  0  0  0  0  0  0  0  0  0  0
   -5.3393   -2.6123   -0.1446 O   0  0  0  0  0  0  0  0  0  0  0  0
   -3.9147   -3.1854   -2.7337 C   0  0  0  0  0  0  0  0  0  0  0  0
   -2.6478   -3.3533   -1.8885 C   0  0  0  0  0  0  0  0  0  0  0  0
   -1.5905   -2.3494   -2.3480 C   0  0  0  0  0  0  0  0  0  0  0  0
   -0.3444   -2.5446   -1.5533 N   0  0  0  0  0  0  0  0  0  0  0  0
   -0.3198   -2.2416   -0.2805 C   0  0  0  0  0  0  0  0  0  0  0  0
   -1.3157   -2.5808    0.4971 N   0  0  0  0  0  0  0  0  0  0  0  0
    0.7062   -1.6038    0.2161 N   0  0  0  0  0  0  0  0  0  0  0  0
  2  1  1  6  0  0  0
  2  3  1  0  0  0  0
  2  5  1  0  0  0  0
  3  4  1  0  0  0  0
  5  6  1  0  0  0  0
  6  7  1  0  0  0  0
  7  8  1  0  0  0  0
  8  9  1  0  0  0  0
  9 10  1  0  0  0  0
  9 11  1  0  0  0  0
M  END
>  <CHROM.1>
101.67839769,173.84365385,-147.37209169,-168.07239204,-178.20433444,-68.80125070
43.70180935,91.21187415,129.40677845,-2.88879300,-2.91053354,-1.31397318
-2.76812971,0.16903740,1.23994168

>  <Name>
1akx_lig

>  <RI>
0

>  <Rbt.Current_Directory>
/home/itssahil/PROJECTS/Mol_Feturizer/New_Systems/rnas/1akx

>  <Rbt.Executable>
rbdock ($Id: //depot/dev/client3/rdock/2013.1/src/exe/rbdock.cxx#4 $)

>  <Rbt.Library>
libRbt.so (2013.1, Build901 2013/11/27)

>  <Rbt.Parameter_File>
/export/apps/rDock/src/rDock_2013.1_src/data/scripts/dock_solv.prm

>  <Rbt.Receptor>
prm/pocket_docking_7.prm

>  <SCORE>
-22.4306

>  <SCORE.INTER>
-19.2939

>  <SCORE.INTER.CONST>
1

>  <SCORE.INTER.POLAR>
-2.0955

>  <SCORE.INTER.ROT>
8

>  <SCORE.INTER.SOLV>
9.5883

>  <SCORE.INTER.VDW>
-18.0071

>  <SCORE.INTER.norm>
-1.75399

>  <SCORE.INTRA>
-3.13672

>  <SCORE.INTRA.DIHEDRAL>
-9.94629

>  <SCORE.INTRA.DIHEDRAL.0>
21.6454

>  <SCORE.INTRA.POLAR>
0

>  <SCORE.INTRA.POLAR.0>
0

>  <SCORE.INTRA.REPUL>
0.0208656

>  <SCORE.INTRA.REPUL.0>
0

>  <SCORE.INTRA.SOLV>
0.49592

>  <SCORE.INTRA.SOLV.lig_0>
-16.5947

>  <SCORE.INTRA.VDW>
1.48414

>  <SCORE.INTRA.VDW.0>
-0.691398

>  <SCORE.INTRA.norm>
-0.285157

>  <SCORE.RESTR>
0

>  <SCORE.RESTR.CAVITY>
0

>  <SCORE.RESTR.norm>
0

>  <SCORE.SYSTEM>
0

>  <SCORE.SYSTEM.CONST>
0

>  <SCORE.SYSTEM.DIHEDRAL>
0

>  <SCORE.SYSTEM.SOLV>
0

>  <SCORE.SYSTEM.norm>
0

>  <SCORE.heavy>
11

>  <SCORE.norm>
-2.03915

>  <RMSD>
5.370

$$$$
1akx_lig
 OpenBabel11021811383D
libRbt.so/2013.1/901 2013/11/27
 11 10  0  0  0  0  0  0  0  0999 V2000
   -4.0459   -2.1614   -4.4318 N   0  0  0  0  0  0  0  0  0  0  0  0
   -3.5197   -2.4513   -3.0653 C   0  0  2  0  0  0  0  0  0  0  0  0
   -2.0062   -2.6894   -3.1394 C   0  0  0  0  0  0  0  0  0  0  0  0
   -1.5566   -3.5946   -3.8138 O   0  0  0  0  0  0  0  0  0  0  0  0
   -4.2122   -3.6990   -2.5006 C   0  0  0  0  0  0  0  0  0  0  0  0
   -5.6732   -3.3751   -2.1719 C   0  0  0  0  0  0  0  0  0  0  0  0
   -5.9942   -3.8461   -0.7535 C   0  0  0  0  0  0  0  0  0  0  0  0
   -5.6379   -2.7721    0.2171 N   0  0  0  0  0  0  0  0  0  0  0  0
   -4.5253   -2.8450    0.9021 C   0  0  0  0  0  0  0  0  0  0  0  0
   -4.5442   -3.2358    2.1504 N   0  0  0  0  0  0  0  0  0  0  0  0
   -3.3911   -2.5322    0.3348 N   0  0  0  0  0  0  0  0  0  0  0  0
  2  1  1  6  0  0  0
  2  3  1  0  0  0  0
  2  5  1  0  0  0  0
  3  4  1  0  0  0  0
  5  6  1  0  0  0  0
  6  7  1  0  0  0  0
  7  8  1  0  0  0  0
  8  9  1  0  0  0  0
  9 10  1  0  0  0  0
  9 11  1  0  0  0  0
M  END
>  <CHROM.1>
-121.43089203,-60.30283640,-70.63391076,-130.30254295,86.97404762,-101.11441275
-101.49235949,-31.57841055,-110.00373405,-4.07642609,-3.00368375,-1.49194474
1.16636632,-0.06700723,-1.55700984

>  <Name>
1akx_lig

>  <RI>
0

>  <Rbt.Current_Directory>
/home/itssahil/PROJECTS/Mol_Feturizer/New_Systems/rnas/1akx

>  <Rbt.Executable>
rbdock ($Id: //depot/dev/client3/rdock/2013.1/src/exe/rbdock.cxx#4 $)

>  <Rbt.Library>
libRbt.so (2013.1, Build901 2013/11/27)

>  <Rbt.Parameter_File>
/export/apps/rDock/src/rDock_2013.1_src/data/scripts/dock_solv.prm

>  <Rbt.Receptor>
prm/pocket_docking_5.prm

>  <SCORE>
-34.8212

>  <SCORE.INTER>
-33.0682

>  <SCORE.INTER.CONST>
1

>  <SCORE.INTER.POLAR>
-4.96125

>  <SCORE.INTER.ROT>
8

>  <SCORE.INTER.SOLV>
6.9405

>  <SCORE.INTER.VDW>
-16.7548

>  <SCORE.INTER.norm>
-3.0062

>  <SCORE.INTRA>
-1.75293

>  <SCORE.INTRA.DIHEDRAL>
-4.79414

>  <SCORE.INTRA.DIHEDRAL.0>
21.6454

>  <SCORE.INTRA.POLAR>
0

>  <SCORE.INTRA.POLAR.0>
0

>  <SCORE.INTRA.REPUL>
0

>  <SCORE.INTRA.REPUL.0>
0

>  <SCORE.INTRA.SOLV>
1.22748

>  <SCORE.INTRA.SOLV.lig_0>
-16.5947

>  <SCORE.INTRA.VDW>
0.0303984

>  <SCORE.INTRA.VDW.0>
-0.691398

>  <SCORE.INTRA.norm>
-0.159358

>  <SCORE.RESTR>
0

>  <SCORE.RESTR.CAVITY>
0

>  <SCORE.RESTR.norm>
0

>  <SCORE.SYSTEM>
0

>  <SCORE.SYSTEM.CONST>
0

>  <SCORE.SYSTEM.DIHEDRAL>
0

>  <SCORE.SYSTEM.SOLV>
0

>  <SCORE.SYSTEM.norm>
0

>  <SCORE.heavy>
11

>  <SCORE.norm>
-3.16556

>  <RMSD>
5.441

$$$$
1akx_lig
 OpenBabel11021811383D
libRbt.so/2013.1/901 2013/11/27
 11 10  0  0  0  0  0  0  0  0999 V2000
   -7.7718   -6.1002   -1.2757 N   0  0  0  0  0  0  0  0  0  0  0  0
   -7.3932   -5.3177   -0.0622 C   0  0  2  0  0  0  0  0  0  0  0  0
   -8.6583   -4.7625    0.6041 C   0  0  0  0  0  0  0  0  0  0  0  0
   -9.4533   -4.1028   -0.0354 O   0  0  0  0  0  0  0  0  0  0  0  0
   -6.4695   -4.1596   -0.4635 C   0  0  0  0  0  0  0  0  0  0  0  0
   -5.1369   -4.7152   -0.9763 C   0  0  0  0  0  0  0  0  0  0  0  0
   -4.1152   -3.5823   -1.0747 C   0  0  0  0  0  0  0  0  0  0  0  0
   -4.5130   -2.6506   -2.1682 N   0  0  0  0  0  0  0  0  0  0  0  0
   -3.6653   -2.3485   -3.1182 C   0  0  0  0  0  0  0  0  0  0  0  0
   -2.4137   -2.0996   -2.8301 N   0  0  0  0  0  0  0  0  0  0  0  0
   -4.0695   -2.3017   -4.3593 N   0  0  0  0  0  0  0  0  0  0  0  0
  2  1  1  6  0  0  0
  2  3  1  0  0  0  0
  2  5  1  0  0  0  0
  3  4  1  0  0  0  0
  5  6  1  0  0  0  0
  6  7  1  0  0  0  0
  7  8  1  0  0  0  0
  8  9  1  0  0  0  0
  9 10  1  0  0  0  0
  9 11  1  0  0  0  0
M  END
>  <CHROM.1>
57.78406302,-53.89474971,-66.41537613,-167.29414520,-68.61468922,-126.40015145
-42.29678457,-15.28258170,149.29211337,-5.80456442,-3.82858654,-1.47836890
2.47561510,0.10478313,2.15853546

>  <Name>
1akx_lig

>  <RI>
0

>  <Rbt.Current_Directory>
/home/itssahil/PROJECTS/Mol_Feturizer/New_Systems/rnas/1akx

>  <Rbt.Executable>
rbdock ($Id: //depot/dev/client3/rdock/2013.1/src/exe/rbdock.cxx#4 $)

>  <Rbt.Library>
libRbt.so (2013.1, Build901 2013/11/27)

>  <Rbt.Parameter_File>
/export/apps/rDock/src/rDock_2013.1_src/data/scripts/dock_solv.prm

>  <Rbt.Receptor>
prm/pocket_docking_8.prm

>  <SCORE>
-35.6283

>  <SCORE.INTER>
-28.4506

>  <SCORE.INTER.CONST>
1

>  <SCORE.INTER.POLAR>
-4.17644

>  <SCORE.INTER.ROT>
8

>  <SCORE.INTER.SOLV>
8.24603

>  <SCORE.INTER.VDW>
-16.7276

>  <SCORE.INTER.norm>
-2.58642

>  <SCORE.INTRA>
-7.17767

>  <SCORE.INTRA.DIHEDRAL>
-15.6025

>  <SCORE.INTRA.DIHEDRAL.0>
21.6454

>  <SCORE.INTRA.POLAR>
0

>  <SCORE.INTRA.POLAR.0>
0

>  <SCORE.INTRA.REPUL>
0

>  <SCORE.INTRA.REPUL.0>
0

>  <SCORE.INTRA.SOLV>
0.516779

>  <SCORE.INTRA.SOLV.lig_0>
-16.5947

>  <SCORE.INTRA.VDW>
0.365205

>  <SCORE.INTRA.VDW.0>
-0.691398

>  <SCORE.INTRA.norm>
-0.652516

>  <SCORE.RESTR>
0

>  <SCORE.RESTR.CAVITY>
0

>  <SCORE.RESTR.norm>
0

>  <SCORE.SYSTEM>
0

>  <SCORE.SYSTEM.CONST>
0

>  <SCORE.SYSTEM.DIHEDRAL>
0

>  <SCORE.SYSTEM.SOLV>
0

>  <SCORE.SYSTEM.norm>
0

>  <SCORE.heavy>
11

>  <SCORE.norm>
-3.23893

>  <RMSD>
5.441

$$$$
1akx_lig
 OpenBabel11021811383D
libRbt.so/2013.1/901 2013/11/27
 11 10  0  0  0  0  0  0  0  0999 V2000
   -5.9652   -4.3637   -3.0894 N   0  0  0  0  0  0  0  0  0  0  0  0
   -4.8948   -3.5924   -2.3911 C   0  0  2  0  0  0  0  0  0  0  0  0
   -5.4982   -2.8496   -1.1925 C   0  0  0  0  0  0  0  0  0  0  0  0
   -6.0303   -3.4648   -0.2899 O   0  0  0  0  0  0  0  0  0  0  0  0
   -4.2695   -2.5830   -3.3634 C   0  0  0  0  0  0  0  0  0  0  0  0
   -2.8716   -2.1914   -2.8738 C   0  0  0  0  0  0  0  0  0  0  0  0
   -1.9767   -3.4304   -2.8394 C   0  0  0  0  0  0  0  0  0  0  0  0
   -0.6899   -3.0930   -2.1667 N   0  0  0  0  0  0  0  0  0  0  0  0
   -0.4118   -3.5897   -0.9884 C   0  0  0  0  0  0  0  0  0  0  0  0
   -0.2829   -2.7995    0.0462 N   0  0  0  0  0  0  0  0  0  0  0  0
   -0.2686   -4.8799   -0.8443 N   0  0  0  0  0  0  0  0  0  0  0  0
  2  1  1  6  0  0  0
  2  3  1  0  0  0  0
  2  5  1  0  0  0  0
  3  4  1  0  0  0  0
  5  6  1  0  0  0  0
  6  7  1  0  0  0  0
  7  8  1  0  0  0  0
  8  9  1  0  0  0  0
  9 10  1  0  0  0  0
  9 11  1  0  0  0  0
M  END
>  <CHROM.1>
-116.81101321,60.69495206,-158.06760176,61.62940576,-171.26532888,110.47495626
-115.80385372,170.76292822,12.72996921,-3.02810855,-3.37859363,-1.79149039
-2.94443582,0.01832467,1.72868693

>  <Name>
1akx_lig

>  <RI>
0

>  <Rbt.Current_Directory>
/home/afrankz/demos/rdock_decoys_rna/rnas/1akx

>  <Rbt.Executable>
rbdock ($Id: //depot/dev/client3/rdock/2013.1/src/exe/rbdock.cxx#4 $)

>  <Rbt.Library>
libRbt.so (2013.1, Build901 2013/11/27)

>  <Rbt.Parameter_File>
/export/apps/rDock/src/rDock_2013.1_src/data/scripts/dock_solv.prm

>  <Rbt.Receptor>
prm/pocket_docking_8.prm

>  <SCORE>
-23.5562

>  <SCORE.INTER>
-19.7573

>  <SCORE.INTER.CONST>
1

>  <SCORE.INTER.POLAR>
-1.80784

>  <SCORE.INTER.ROT>
8

>  <SCORE.INTER.SOLV>
9.08491

>  <SCORE.INTER.VDW>
-19.107

>  <SCORE.INTER.norm>
-1.79611

>  <SCORE.INTRA>
-3.79894

>  <SCORE.INTRA.DIHEDRAL>
-11.2381

>  <SCORE.INTRA.DIHEDRAL.0>
21.6454

>  <SCORE.INTRA.POLAR>
0

>  <SCORE.INTRA.POLAR.0>
0

>  <SCORE.INTRA.REPUL>
0

>  <SCORE.INTRA.REPUL.0>
0

>  <SCORE.INTRA.SOLV>
0.339351

>  <SCORE.INTRA.SOLV.lig_0>
-16.5947

>  <SCORE.INTRA.VDW>
1.65042

>  <SCORE.INTRA.VDW.0>
-0.691398

>  <SCORE.INTRA.norm>
-0.345358

>  <SCORE.RESTR>
0

>  <SCORE.RESTR.CAVITY>
0

>  <SCORE.RESTR.norm>
0

>  <SCORE.SYSTEM>
0

>  <SCORE.SYSTEM.CONST>
0

>  <SCORE.SYSTEM.DIHEDRAL>
0

>  <SCORE.SYSTEM.SOLV>
0

>  <SCORE.SYSTEM.norm>
0

>  <SCORE.heavy>
11

>  <SCORE.norm>
-2.14147

>  <RMSD>
5.475

>  <RMSD>
5.475

$$$$
1akx_lig
 OpenBabel11021811383D
libRbt.so/2013.1/901 2013/11/27
 11 10  0  0  0  0  0  0  0  0999 V2000
   -5.9652   -4.3637   -3.0894 N   0  0  0  0  0  0  0  0  0  0  0  0
   -4.8948   -3.5924   -2.3911 C   0  0  2  0  0  0  0  0  0  0  0  0
   -5.4982   -2.8496   -1.1925 C   0  0  0  0  0  0  0  0  0  0  0  0
   -6.0303   -3.4648   -0.2899 O   0  0  0  0  0  0  0  0  0  0  0  0
   -4.2695   -2.5830   -3.3634 C   0  0  0  0  0  0  0  0  0  0  0  0
   -2.8716   -2.1914   -2.8738 C   0  0  0  0  0  0  0  0  0  0  0  0
   -1.9767   -3.4304   -2.8394 C   0  0  0  0  0  0  0  0  0  0  0  0
   -0.6899   -3.0930   -2.1667 N   0  0  0  0  0  0  0  0  0  0  0  0
   -0.4118   -3.5897   -0.9884 C   0  0  0  0  0  0  0  0  0  0  0  0
   -0.2829   -2.7995    0.0462 N   0  0  0  0  0  0  0  0  0  0  0  0
   -0.2686   -4.8799   -0.8443 N   0  0  0  0  0  0  0  0  0  0  0  0
  2  1  1  6  0  0  0
  2  3  1  0  0  0  0
  2  5  1  0  0  0  0
  3  4  1  0  0  0  0
  5  6  1  0  0  0  0
  6  7  1  0  0  0  0
  7  8  1  0  0  0  0
  8  9  1  0  0  0  0
  9 10  1  0  0  0  0
  9 11  1  0  0  0  0
M  END
>  <CHROM.1>
-116.81101321,60.69495206,-158.06760176,61.62940576,-171.26532888,110.47495626
-115.80385372,170.76292822,12.72996921,-3.02810855,-3.37859363,-1.79149039
-2.94443582,0.01832467,1.72868693

>  <Name>
1akx_lig

>  <RI>
0

>  <Rbt.Current_Directory>
/home/afrankz/demos/rdock_decoys_rna/rnas/1akx

>  <Rbt.Executable>
rbdock ($Id: //depot/dev/client3/rdock/2013.1/src/exe/rbdock.cxx#4 $)

>  <Rbt.Library>
libRbt.so (2013.1, Build901 2013/11/27)

>  <Rbt.Parameter_File>
/export/apps/rDock/src/rDock_2013.1_src/data/scripts/dock_solv.prm

>  <Rbt.Receptor>
prm/pocket_docking_8.prm

>  <SCORE>
-23.5562

>  <SCORE.INTER>
-19.7573

>  <SCORE.INTER.CONST>
1

>  <SCORE.INTER.POLAR>
-1.80784

>  <SCORE.INTER.ROT>
8

>  <SCORE.INTER.SOLV>
9.08491

>  <SCORE.INTER.VDW>
-19.107

>  <SCORE.INTER.norm>
-1.79611

>  <SCORE.INTRA>
-3.79894

>  <SCORE.INTRA.DIHEDRAL>
-11.2381

>  <SCORE.INTRA.DIHEDRAL.0>
21.6454

>  <SCORE.INTRA.POLAR>
0

>  <SCORE.INTRA.POLAR.0>
0

>  <SCORE.INTRA.REPUL>
0

>  <SCORE.INTRA.REPUL.0>
0

>  <SCORE.INTRA.SOLV>
0.339351

>  <SCORE.INTRA.SOLV.lig_0>
-16.5947

>  <SCORE.INTRA.VDW>
1.65042

>  <SCORE.INTRA.VDW.0>
-0.691398

>  <SCORE.INTRA.norm>
-0.345358

>  <SCORE.RESTR>
0

>  <SCORE.RESTR.CAVITY>
0

>  <SCORE.RESTR.norm>
0

>  <SCORE.SYSTEM>
0

>  <SCORE.SYSTEM.CONST>
0

>  <SCORE.SYSTEM.DIHEDRAL>
0

>  <SCORE.SYSTEM.SOLV>
0

>  <SCORE.SYSTEM.norm>
0

>  <SCORE.heavy>
11

>  <SCORE.norm>
-2.14147

>  <RMSD>
5.475

>  <RMSD>
5.475

$$$$
1akx_lig
 OpenBabel11021811383D
libRbt.so/2013.1/901 2013/11/27
 11 10  0  0  0  0  0  0  0  0999 V2000
   -3.6896   -2.1039   -4.0946 N   0  0  0  0  0  0  0  0  0  0  0  0
   -3.2419   -2.2225   -2.6756 C   0  0  2  0  0  0  0  0  0  0  0  0
   -1.8418   -2.8474   -2.6311 C   0  0  0  0  0  0  0  0  0  0  0  0
   -1.5965   -3.8564   -3.2619 O   0  0  0  0  0  0  0  0  0  0  0  0
   -4.2269   -3.1049   -1.8968 C   0  0  0  0  0  0  0  0  0  0  0  0
   -4.0175   -2.9093   -0.3917 C   0  0  0  0  0  0  0  0  0  0  0  0
   -4.8507   -3.9344    0.3775 C   0  0  0  0  0  0  0  0  0  0  0  0
   -6.2338   -3.4098    0.5620 N   0  0  0  0  0  0  0  0  0  0  0  0
   -7.2538   -4.2295    0.5753 C   0  0  0  0  0  0  0  0  0  0  0  0
   -8.0234   -4.3070    1.6303 N   0  0  0  0  0  0  0  0  0  0  0  0
   -7.5075   -4.9683   -0.4715 N   0  0  0  0  0  0  0  0  0  0  0  0
  2  1  1  6  0  0  0
  2  3  1  0  0  0  0
  2  5  1  0  0  0  0
  3  4  1  0  0  0  0
  5  6  1  0  0  0  0
  6  7  1  0  0  0  0
  7  8  1  0  0  0  0
  8  9  1  0  0  0  0
  9 10  1  0  0  0  0
  9 11  1  0  0  0  0
M  END
>  <CHROM.1>
-169.46234701,-48.66615997,-163.78134013,-171.71690170,-85.40387379,146.92795127
119.80776353,94.05920979,125.05288861,-4.79696323,-3.45427988,-1.15174725
0.71665105,-0.11230492,-1.34753971

>  <Name>
1akx_lig

>  <RI>
0

>  <Rbt.Current_Directory>
/home/itssahil/PROJECTS/Mol_Feturizer/New_Systems/rnas/1akx

>  <Rbt.Executable>
rbdock ($Id: //depot/dev/client3/rdock/2013.1/src/exe/rbdock.cxx#4 $)

>  <Rbt.Library>
libRbt.so (2013.1, Build901 2013/11/27)

>  <Rbt.Parameter_File>
/export/apps/rDock/src/rDock_2013.1_src/data/scripts/dock_solv.prm

>  <Rbt.Receptor>
prm/pocket_docking_7.prm

>  <SCORE>
-34.1798

>  <SCORE.INTER>
-28.1894

>  <SCORE.INTER.CONST>
1

>  <SCORE.INTER.POLAR>
-4.23385

>  <SCORE.INTER.ROT>
8

>  <SCORE.INTER.SOLV>
6.9794

>  <SCORE.INTER.VDW>
-15.9399

>  <SCORE.INTER.norm>
-2.56267

>  <SCORE.INTRA>
-5.99037

>  <SCORE.INTRA.DIHEDRAL>
-12.7475

>  <SCORE.INTRA.DIHEDRAL.0>
21.6454

>  <SCORE.INTRA.POLAR>
0

>  <SCORE.INTRA.POLAR.0>
0

>  <SCORE.INTRA.REPUL>
0

>  <SCORE.INTRA.REPUL.0>
0

>  <SCORE.INTRA.SOLV>
0.485554

>  <SCORE.INTRA.SOLV.lig_0>
-16.5947

>  <SCORE.INTRA.VDW>
0.140608

>  <SCORE.INTRA.VDW.0>
-0.691398

>  <SCORE.INTRA.norm>
-0.544579

>  <SCORE.RESTR>
0

>  <SCORE.RESTR.CAVITY>
0

>  <SCORE.RESTR.norm>
0

>  <SCORE.SYSTEM>
0

>  <SCORE.SYSTEM.CONST>
0

>  <SCORE.SYSTEM.DIHEDRAL>
0

>  <SCORE.SYSTEM.SOLV>
0

>  <SCORE.SYSTEM.norm>
0

>  <SCORE.heavy>
11

>  <SCORE.norm>
-3.10725

>  <RMSD>
5.479

$$$$
1akx_lig
 OpenBabel11021811383D
libRbt.so/2013.1/901 2013/11/27
 11 10  0  0  0  0  0  0  0  0999 V2000
   -6.0380   -7.5609   -3.6139 N   0  0  0  0  0  0  0  0  0  0  0  0
   -6.2687   -6.7774   -2.3645 C   0  0  2  0  0  0  0  0  0  0  0  0
   -7.7685   -6.7551   -2.0438 C   0  0  0  0  0  0  0  0  0  0  0  0
   -8.1759   -6.2102   -1.0372 O   0  0  0  0  0  0  0  0  0  0  0  0
   -5.7594   -5.3422   -2.5550 C   0  0  0  0  0  0  0  0  0  0  0  0
   -5.5553   -4.6805   -1.1883 C   0  0  0  0  0  0  0  0  0  0  0  0
   -4.3233   -3.7767   -1.2372 C   0  0  0  0  0  0  0  0  0  0  0  0
   -4.5620   -2.6665   -2.2030 N   0  0  0  0  0  0  0  0  0  0  0  0
   -3.6754   -2.3933   -3.1259 C   0  0  0  0  0  0  0  0  0  0  0  0
   -4.0171   -2.3933   -4.3887 N   0  0  0  0  0  0  0  0  0  0  0  0
   -2.4464   -2.1134   -2.7838 N   0  0  0  0  0  0  0  0  0  0  0  0
  2  1  1  6  0  0  0
  2  3  1  0  0  0  0
  2  5  1  0  0  0  0
  3  4  1  0  0  0  0
  5  6  1  0  0  0  0
  6  7  1  0  0  0  0
  7  8  1  0  0  0  0
  8  9  1  0  0  0  0
  9 10  1  0  0  0  0
  9 11  1  0  0  0  0
M  END
>  <CHROM.1>
-55.04266786,177.30987026,-161.21203990,143.31514053,64.08592540,-130.09249972
123.63849871,157.36890496,-179.08788510,-5.32231168,-4.60981244,-2.45126107
-2.77124073,0.82169077,0.88607704

>  <Name>
1akx_lig

>  <RI>
0

>  <Rbt.Current_Directory>
/home/itssahil/PROJECTS/Mol_Feturizer/New_Systems/rnas/1akx

>  <Rbt.Executable>
rbdock ($Id: //depot/dev/client3/rdock/2013.1/src/exe/rbdock.cxx#4 $)

>  <Rbt.Library>
libRbt.so (2013.1, Build901 2013/11/27)

>  <Rbt.Parameter_File>
/export/apps/rDock/src/rDock_2013.1_src/data/scripts/dock_solv.prm

>  <Rbt.Receptor>
prm/pocket_docking_8.prm

>  <SCORE>
-30.0258

>  <SCORE.INTER>
-24.8353

>  <SCORE.INTER.CONST>
1

>  <SCORE.INTER.POLAR>
-3.45043

>  <SCORE.INTER.ROT>
8

>  <SCORE.INTER.SOLV>
7.18916

>  <SCORE.INTER.VDW>
-16.3851

>  <SCORE.INTER.norm>
-2.25775

>  <SCORE.INTRA>
-5.1905

>  <SCORE.INTRA.DIHEDRAL>
-11.2762

>  <SCORE.INTRA.DIHEDRAL.0>
21.6454

>  <SCORE.INTRA.POLAR>
0

>  <SCORE.INTRA.POLAR.0>
0

>  <SCORE.INTRA.REPUL>
0

>  <SCORE.INTRA.REPUL.0>
0

>  <SCORE.INTRA.SOLV>
0.417549

>  <SCORE.INTRA.SOLV.lig_0>
-16.5947

>  <SCORE.INTRA.VDW>
0.238808

>  <SCORE.INTRA.VDW.0>
-0.691398

>  <SCORE.INTRA.norm>
-0.471864

>  <SCORE.RESTR>
0

>  <SCORE.RESTR.CAVITY>
0

>  <SCORE.RESTR.norm>
0

>  <SCORE.SYSTEM>
0

>  <SCORE.SYSTEM.CONST>
0

>  <SCORE.SYSTEM.DIHEDRAL>
0

>  <SCORE.SYSTEM.SOLV>
0

>  <SCORE.SYSTEM.norm>
0

>  <SCORE.heavy>
11

>  <SCORE.norm>
-2.72962

>  <RMSD>
5.482

$$$$
1akx_lig
 OpenBabel11021811383D
libRbt.so/2013.1/901 2013/11/27
 11 10  0  0  0  0  0  0  0  0999 V2000
   -2.3631   -2.1392   -3.6810 N   0  0  0  0  0  0  0  0  0  0  0  0
   -3.0040   -3.2319   -2.8913 C   0  0  2  0  0  0  0  0  0  0  0  0
   -4.5212   -3.0105   -2.8486 C   0  0  0  0  0  0  0  0  0  0  0  0
   -5.2475   -3.8200   -2.3071 O   0  0  0  0  0  0  0  0  0  0  0  0
   -2.4414   -3.2337   -1.4634 C   0  0  0  0  0  0  0  0  0  0  0  0
   -0.9740   -3.6736   -1.4866 C   0  0  0  0  0  0  0  0  0  0  0  0
   -0.4799   -3.8799   -0.0547 C   0  0  0  0  0  0  0  0  0  0  0  0
   -0.3100   -2.5545    0.6061 N   0  0  0  0  0  0  0  0  0  0  0  0
   -1.1744   -2.1479    1.5004 C   0  0  0  0  0  0  0  0  0  0  0  0
   -1.7253   -0.9660    1.3951 N   0  0  0  0  0  0  0  0  0  0  0  0
   -1.4926   -2.9281    2.4985 N   0  0  0  0  0  0  0  0  0  0  0  0
  2  1  1  6  0  0  0
  2  3  1  0  0  0  0
  2  5  1  0  0  0  0
  3  4  1  0  0  0  0
  5  6  1  0  0  0  0
  6  7  1  0  0  0  0
  7  8  1  0  0  0  0
  8  9  1  0  0  0  0
  9 10  1  0  0  0  0
  9 11  1  0  0  0  0
M  END
>  <CHROM.1>
-60.55476126,176.59739200,-68.69053922,-171.43150241,-72.74047151,105.47967569
-128.61797436,-97.48449349,40.77423389,-2.17166028,-2.83672178,-0.79162712
-2.12355109,-0.00476560,1.40685834

>  <Name>
1akx_lig

>  <RI>
0

>  <Rbt.Current_Directory>
/home/itssahil/PROJECTS/Mol_Feturizer/New_Systems/rnas/1akx

>  <Rbt.Executable>
rbdock ($Id: //depot/dev/client3/rdock/2013.1/src/exe/rbdock.cxx#4 $)

>  <Rbt.Library>
libRbt.so (2013.1, Build901 2013/11/27)

>  <Rbt.Parameter_File>
/export/apps/rDock/src/rDock_2013.1_src/data/scripts/dock_solv.prm

>  <Rbt.Receptor>
prm/pocket_docking_7.prm

>  <SCORE>
-31.1124

>  <SCORE.INTER>
-23.2905

>  <SCORE.INTER.CONST>
1

>  <SCORE.INTER.POLAR>
-3.55541

>  <SCORE.INTER.ROT>
8

>  <SCORE.INTER.SOLV>
5.5878

>  <SCORE.INTER.VDW>
-14.4716

>  <SCORE.INTER.norm>
-2.11732

>  <SCORE.INTRA>
-7.82191

>  <SCORE.INTRA.DIHEDRAL>
-15.6029

>  <SCORE.INTRA.DIHEDRAL.0>
21.6454

>  <SCORE.INTRA.POLAR>
0

>  <SCORE.INTRA.POLAR.0>
0

>  <SCORE.INTRA.REPUL>
0

>  <SCORE.INTRA.REPUL.0>
0

>  <SCORE.INTRA.SOLV>
0.452577

>  <SCORE.INTRA.SOLV.lig_0>
-16.5947

>  <SCORE.INTRA.VDW>
-0.246766

>  <SCORE.INTRA.VDW.0>
-0.691398

>  <SCORE.INTRA.norm>
-0.711083

>  <SCORE.RESTR>
0

>  <SCORE.RESTR.CAVITY>
0

>  <SCORE.RESTR.norm>
0

>  <SCORE.SYSTEM>
0

>  <SCORE.SYSTEM.CONST>
0

>  <SCORE.SYSTEM.DIHEDRAL>
0

>  <SCORE.SYSTEM.SOLV>
0

>  <SCORE.SYSTEM.norm>
0

>  <SCORE.heavy>
11

>  <SCORE.norm>
-2.8284

>  <RMSD>
5.503

$$$$
1akx_lig
 OpenBabel11021811383D
libRbt.so/2013.1/901 2013/11/27
 11 10  0  0  0  0  0  0  0  0999 V2000
   -3.6007   -2.3806   -3.6802 N   0  0  0  0  0  0  0  0  0  0  0  0
   -2.8409   -2.5279   -2.4038 C   0  0  2  0  0  0  0  0  0  0  0  0
   -2.1113   -3.8770   -2.3951 C   0  0  0  0  0  0  0  0  0  0  0  0
   -1.2055   -4.0933   -3.1754 O   0  0  0  0  0  0  0  0  0  0  0  0
   -3.8104   -2.4568   -1.2161 C   0  0  0  0  0  0  0  0  0  0  0  0
   -4.9920   -3.4020   -1.4561 C   0  0  0  0  0  0  0  0  0  0  0  0
   -6.0045   -3.2527   -0.3206 C   0  0  0  0  0  0  0  0  0  0  0  0
   -7.1434   -4.1875   -0.5469 N   0  0  0  0  0  0  0  0  0  0  0  0
   -7.5519   -4.9744    0.4156 C   0  0  0  0  0  0  0  0  0  0  0  0
   -7.3639   -6.2665    0.3352 N   0  0  0  0  0  0  0  0  0  0  0  0
   -8.1440   -4.4664    1.4632 N   0  0  0  0  0  0  0  0  0  0  0  0
  2  1  1  6  0  0  0
  2  3  1  0  0  0  0
  2  5  1  0  0  0  0
  3  4  1  0  0  0  0
  5  6  1  0  0  0  0
  6  7  1  0  0  0  0
  7  8  1  0  0  0  0
  8  9  1  0  0  0  0
  9 10  1  0  0  0  0
  9 11  1  0  0  0  0
M  END
>  <CHROM.1>
-72.69160847,66.67503486,49.24609170,-175.90141448,-179.19737921,130.30450022
-110.80359238,15.37341349,49.01393866,-4.99431479,-3.82942578,-1.20425471
0.40665845,0.50918586,-0.26378268

>  <Name>
1akx_lig

>  <RI>
0

>  <Rbt.Current_Directory>
/home/itssahil/PROJECTS/Mol_Feturizer/New_Systems/rnas/1akx

>  <Rbt.Executable>
rbdock ($Id: //depot/dev/client3/rdock/2013.1/src/exe/rbdock.cxx#4 $)

>  <Rbt.Library>
libRbt.so (2013.1, Build901 2013/11/27)

>  <Rbt.Parameter_File>
/export/apps/rDock/src/rDock_2013.1_src/data/scripts/dock_solv.prm

>  <Rbt.Receptor>
prm/pocket_docking_8.prm

>  <SCORE>
-28.1913

>  <SCORE.INTER>
-21.4291

>  <SCORE.INTER.CONST>
1

>  <SCORE.INTER.POLAR>
-3.44527

>  <SCORE.INTER.ROT>
8

>  <SCORE.INTER.SOLV>
6.21202

>  <SCORE.INTER.VDW>
-13.8058

>  <SCORE.INTER.norm>
-1.9481

>  <SCORE.INTRA>
-6.76551

>  <SCORE.INTRA.DIHEDRAL>
-15.7707

>  <SCORE.INTRA.DIHEDRAL.0>
21.6454

>  <SCORE.INTRA.POLAR>
0

>  <SCORE.INTRA.POLAR.0>
0

>  <SCORE.INTRA.REPUL>
0

>  <SCORE.INTRA.REPUL.0>
0

>  <SCORE.INTRA.SOLV>
0.273932

>  <SCORE.INTRA.SOLV.lig_0>
-16.5947

>  <SCORE.INTRA.VDW>
0.982851

>  <SCORE.INTRA.VDW.0>
-0.691398

>  <SCORE.INTRA.norm>
-0.615047

>  <SCORE.RESTR>
0.00334237

>  <SCORE.RESTR.CAVITY>
0.00334237

>  <SCORE.RESTR.norm>
0.000303852

>  <SCORE.SYSTEM>
0

>  <SCORE.SYSTEM.CONST>
0

>  <SCORE.SYSTEM.DIHEDRAL>
0

>  <SCORE.SYSTEM.SOLV>
0

>  <SCORE.SYSTEM.norm>
0

>  <SCORE.heavy>
11

>  <SCORE.norm>
-2.56284

>  <RMSD>
5.505

$$$$
1akx_lig
 OpenBabel11021811383D
libRbt.so/2013.1/901 2013/11/27
 11 10  0  0  0  0  0  0  0  0999 V2000
   -4.1446   -2.0579   -4.4924 N   0  0  0  0  0  0  0  0  0  0  0  0
   -3.8435   -2.9473   -3.3320 C   0  0  2  0  0  0  0  0  0  0  0  0
   -4.8978   -2.7361   -2.2381 C   0  0  0  0  0  0  0  0  0  0  0  0
   -4.9199   -3.4517   -1.2565 O   0  0  0  0  0  0  0  0  0  0  0  0
   -2.4507   -2.6177   -2.7782 C   0  0  0  0  0  0  0  0  0  0  0  0
   -1.9384   -3.7907   -1.9361 C   0  0  0  0  0  0  0  0  0  0  0  0
   -0.5398   -3.4691   -1.4095 C   0  0  0  0  0  0  0  0  0  0  0  0
   -0.6373   -2.4212   -0.3538 N   0  0  0  0  0  0  0  0  0  0  0  0
   -1.3677   -2.6254    0.7126 C   0  0  0  0  0  0  0  0  0  0  0  0
   -2.4301   -1.8948    0.9337 N   0  0  0  0  0  0  0  0  0  0  0  0
   -1.0377   -3.5667    1.5559 N   0  0  0  0  0  0  0  0  0  0  0  0
  2  1  1  6  0  0  0
  2  3  1  0  0  0  0
  2  5  1  0  0  0  0
  3  4  1  0  0  0  0
  5  6  1  0  0  0  0
  6  7  1  0  0  0  0
  7  8  1  0  0  0  0
  8  9  1  0  0  0  0
  9 10  1  0  0  0  0
  9 11  1  0  0  0  0
M  END
>  <CHROM.1>
46.78055926,172.87809526,-160.83298634,178.89498119,71.51923697,58.14213815
-114.68067097,-164.72570571,-147.00101360,-2.59130046,-2.84956334,-1.31619262
-2.21894014,-0.05833799,1.59455676

>  <Name>
1akx_lig

>  <RI>
0

>  <Rbt.Current_Directory>
/home/itssahil/PROJECTS/Mol_Feturizer/New_Systems/rnas/1akx

>  <Rbt.Executable>
rbdock ($Id: //depot/dev/client3/rdock/2013.1/src/exe/rbdock.cxx#4 $)

>  <Rbt.Library>
libRbt.so (2013.1, Build901 2013/11/27)

>  <Rbt.Parameter_File>
/export/apps/rDock/src/rDock_2013.1_src/data/scripts/dock_solv.prm

>  <Rbt.Receptor>
prm/pocket_docking_3.prm

>  <SCORE>
-31.9396

>  <SCORE.INTER>
-25.4558

>  <SCORE.INTER.CONST>
1

>  <SCORE.INTER.POLAR>
-3.57596

>  <SCORE.INTER.ROT>
8

>  <SCORE.INTER.SOLV>
6.36079

>  <SCORE.INTER.VDW>
-16.1042

>  <SCORE.INTER.norm>
-2.31416

>  <SCORE.INTRA>
-6.48386

>  <SCORE.INTRA.DIHEDRAL>
-14.4007

>  <SCORE.INTRA.DIHEDRAL.0>
21.6454

>  <SCORE.INTRA.POLAR>
0

>  <SCORE.INTRA.POLAR.0>
0

>  <SCORE.INTRA.REPUL>
0

>  <SCORE.INTRA.REPUL.0>
0

>  <SCORE.INTRA.SOLV>
1.0269

>  <SCORE.INTRA.SOLV.lig_0>
-16.5947

>  <SCORE.INTRA.VDW>
0.20303

>  <SCORE.INTRA.VDW.0>
-0.691398

>  <SCORE.INTRA.norm>
-0.589442

>  <SCORE.RESTR>
0

>  <SCORE.RESTR.CAVITY>
0

>  <SCORE.RESTR.norm>
0

>  <SCORE.SYSTEM>
0

>  <SCORE.SYSTEM.CONST>
0

>  <SCORE.SYSTEM.DIHEDRAL>
0

>  <SCORE.SYSTEM.SOLV>
0

>  <SCORE.SYSTEM.norm>
0

>  <SCORE.heavy>
11

>  <SCORE.norm>
-2.9036

>  <RMSD>
5.535

$$$$
1akx_lig
 OpenBabel11021811383D
libRbt.so/2013.1/901 2013/11/27
 11 10  0  0  0  0  0  0  0  0999 V2000
   -6.0142   -4.3942   -3.1831 N   0  0  0  0  0  0  0  0  0  0  0  0
   -4.9504   -3.7151   -2.3860 C   0  0  2  0  0  0  0  0  0  0  0  0
   -5.5966   -2.9055   -1.2548 C   0  0  0  0  0  0  0  0  0  0  0  0
   -6.2619   -3.4594   -0.4022 O   0  0  0  0  0  0  0  0  0  0  0  0
   -4.1433   -2.7790   -3.2958 C   0  0  0  0  0  0  0  0  0  0  0  0
   -2.6740   -2.7766   -2.8619 C   0  0  0  0  0  0  0  0  0  0  0  0
   -2.5810   -2.4336   -1.3751 C   0  0  0  0  0  0  0  0  0  0  0  0
   -1.1510   -2.4408   -0.9540 N   0  0  0  0  0  0  0  0  0  0  0  0
   -0.8305   -2.2240    0.2961 C   0  0  0  0  0  0  0  0  0  0  0  0
   -1.4327   -1.2834    0.9773 N   0  0  0  0  0  0  0  0  0  0  0  0
    0.0898   -2.9540    0.8671 N   0  0  0  0  0  0  0  0  0  0  0  0
  2  1  1  6  0  0  0
  2  3  1  0  0  0  0
  2  5  1  0  0  0  0
  3  4  1  0  0  0  0
  5  6  1  0  0  0  0
  6  7  1  0  0  0  0
  7  8  1  0  0  0  0
  8  9  1  0  0  0  0
  9 10  1  0  0  0  0
  9 11  1  0  0  0  0
M  END
>  <CHROM.1>
-9.29555325,61.11913110,-144.52969103,-54.08005493,179.63316763,-177.36538328
-42.29527979,-163.00422462,-146.43620135,-3.24713032,-2.86840183,-1.20907695
-2.61370600,0.18334968,1.39324380

>  <Name>
1akx_lig

>  <RI>
0

>  <Rbt.Current_Directory>
/home/itssahil/PROJECTS/Mol_Feturizer/New_Systems/rnas/1akx

>  <Rbt.Executable>
rbdock ($Id: //depot/dev/client3/rdock/2013.1/src/exe/rbdock.cxx#4 $)

>  <Rbt.Library>
libRbt.so (2013.1, Build901 2013/11/27)

>  <Rbt.Parameter_File>
/export/apps/rDock/src/rDock_2013.1_src/data/scripts/dock_solv.prm

>  <Rbt.Receptor>
prm/pocket_docking_4.prm

>  <SCORE>
-30.5303

>  <SCORE.INTER>
-29.4804

>  <SCORE.INTER.CONST>
1

>  <SCORE.INTER.POLAR>
-4.07456

>  <SCORE.INTER.ROT>
8

>  <SCORE.INTER.SOLV>
7.80335

>  <SCORE.INTER.VDW>
-17.6062

>  <SCORE.INTER.norm>
-2.68003

>  <SCORE.INTRA>
-1.16654

>  <SCORE.INTRA.DIHEDRAL>
-9.54107

>  <SCORE.INTRA.DIHEDRAL.0>
21.6454

>  <SCORE.INTRA.POLAR>
0

>  <SCORE.INTRA.POLAR.0>
0

>  <SCORE.INTRA.REPUL>
0

>  <SCORE.INTRA.REPUL.0>
0

>  <SCORE.INTRA.SOLV>
0.323873

>  <SCORE.INTRA.SOLV.lig_0>
-16.5947

>  <SCORE.INTRA.VDW>
3.44206

>  <SCORE.INTRA.VDW.0>
-0.691398

>  <SCORE.INTRA.norm>
-0.106049

>  <SCORE.RESTR>
0.116623

>  <SCORE.RESTR.CAVITY>
0.116623

>  <SCORE.RESTR.norm>
0.0106021

>  <SCORE.SYSTEM>
0

>  <SCORE.SYSTEM.CONST>
0

>  <SCORE.SYSTEM.DIHEDRAL>
0

>  <SCORE.SYSTEM.SOLV>
0

>  <SCORE.SYSTEM.norm>
0

>  <SCORE.heavy>
11

>  <SCORE.norm>
-2.77548

>  <RMSD>
5.543

$$$$
1akx_lig
 OpenBabel11021811383D
libRbt.so/2013.1/901 2013/11/27
 11 10  0  0  0  0  0  0  0  0999 V2000
   -4.1264   -2.0998   -4.4521 N   0  0  0  0  0  0  0  0  0  0  0  0
   -3.6581   -2.9040   -3.2850 C   0  0  2  0  0  0  0  0  0  0  0  0
   -4.7373   -2.9007   -2.1950 C   0  0  0  0  0  0  0  0  0  0  0  0
   -5.7691   -3.5239   -2.3468 O   0  0  0  0  0  0  0  0  0  0  0  0
   -2.3611   -2.2995   -2.7302 C   0  0  0  0  0  0  0  0  0  0  0  0
   -1.4765   -3.4114   -2.1569 C   0  0  0  0  0  0  0  0  0  0  0  0
   -2.0719   -3.9101   -0.8402 C   0  0  0  0  0  0  0  0  0  0  0  0
   -1.3555   -3.2712    0.3003 N   0  0  0  0  0  0  0  0  0  0  0  0
   -1.8640   -2.2214    0.8936 C   0  0  0  0  0  0  0  0  0  0  0  0
   -3.1494   -2.1544    1.1272 N   0  0  0  0  0  0  0  0  0  0  0  0
   -1.0836   -1.2399    1.2593 N   0  0  0  0  0  0  0  0  0  0  0  0
  2  1  1  6  0  0  0
  2  3  1  0  0  0  0
  2  5  1  0  0  0  0
  3  4  1  0  0  0  0
  5  6  1  0  0  0  0
  6  7  1  0  0  0  0
  7  8  1  0  0  0  0
  8  9  1  0  0  0  0
  9 10  1  0  0  0  0
  9 11  1  0  0  0  0
M  END
>  <CHROM.1>
57.61663694,71.53761114,-147.92700558,-73.02801036,-99.17386836,97.95753943
40.47839837,-120.60020949,-177.97367636,-2.90836829,-2.69368036,-1.31248070
-2.14756256,0.05115468,1.47499412

>  <Name>
1akx_lig

>  <RI>
0

>  <Rbt.Current_Directory>
/home/itssahil/PROJECTS/Mol_Feturizer/New_Systems/rnas/1akx

>  <Rbt.Executable>
rbdock ($Id: //depot/dev/client3/rdock/2013.1/src/exe/rbdock.cxx#4 $)

>  <Rbt.Library>
libRbt.so (2013.1, Build901 2013/11/27)

>  <Rbt.Parameter_File>
/export/apps/rDock/src/rDock_2013.1_src/data/scripts/dock_solv.prm

>  <Rbt.Receptor>
prm/pocket_docking_7.prm

>  <SCORE>
-32.4401

>  <SCORE.INTER>
-28.6687

>  <SCORE.INTER.CONST>
1

>  <SCORE.INTER.POLAR>
-4.17558

>  <SCORE.INTER.ROT>
8

>  <SCORE.INTER.SOLV>
6.36444

>  <SCORE.INTER.VDW>
-16.2487

>  <SCORE.INTER.norm>
-2.60625

>  <SCORE.INTRA>
-3.77135

>  <SCORE.INTRA.DIHEDRAL>
-8.38861

>  <SCORE.INTRA.DIHEDRAL.0>
21.6454

>  <SCORE.INTRA.POLAR>
0

>  <SCORE.INTRA.POLAR.0>
0

>  <SCORE.INTRA.REPUL>
0

>  <SCORE.INTRA.REPUL.0>
0

>  <SCORE.INTRA.SOLV>
0.902748

>  <SCORE.INTRA.SOLV.lig_0>
-16.5947

>  <SCORE.INTRA.VDW>
-0.0284255

>  <SCORE.INTRA.VDW.0>
-0.691398

>  <SCORE.INTRA.norm>
-0.34285

>  <SCORE.RESTR>
0

>  <SCORE.RESTR.CAVITY>
0

>  <SCORE.RESTR.norm>
0

>  <SCORE.SYSTEM>
0

>  <SCORE.SYSTEM.CONST>
0

>  <SCORE.SYSTEM.DIHEDRAL>
0

>  <SCORE.SYSTEM.SOLV>
0

>  <SCORE.SYSTEM.norm>
0

>  <SCORE.heavy>
11

>  <SCORE.norm>
-2.9491

>  <RMSD>
5.551

$$$$
1akx_lig
 OpenBabel11021811383D
libRbt.so/2013.1/901 2013/11/27
 11 10  0  0  0  0  0  0  0  0999 V2000
   -3.2151   -2.5109   -3.8757 N   0  0  0  0  0  0  0  0  0  0  0  0
   -3.0214   -2.6263   -2.4001 C   0  0  2  0  0  0  0  0  0  0  0  0
   -1.5249   -2.7540   -2.0888 C   0  0  0  0  0  0  0  0  0  0  0  0
   -0.7819   -1.8035   -2.2322 O   0  0  0  0  0  0  0  0  0  0  0  0
   -3.7654   -3.8630   -1.8781 C   0  0  0  0  0  0  0  0  0  0  0  0
   -5.2534   -3.5386   -1.7105 C   0  0  0  0  0  0  0  0  0  0  0  0
   -5.9678   -4.7312   -1.0748 C   0  0  0  0  0  0  0  0  0  0  0  0
   -7.2981   -4.2955   -0.5623 N   0  0  0  0  0  0  0  0  0  0  0  0
   -7.4785   -4.0967    0.7185 C   0  0  0  0  0  0  0  0  0  0  0  0
   -8.5746   -4.5092    1.3016 N   0  0  0  0  0  0  0  0  0  0  0  0
   -6.5576   -3.4896    1.4180 N   0  0  0  0  0  0  0  0  0  0  0  0
  2  1  1  6  0  0  0
  2  3  1  0  0  0  0
  2  5  1  0  0  0  0
  3  4  1  0  0  0  0
  5  6  1  0  0  0  0
  6  7  1  0  0  0  0
  7  8  1  0  0  0  0
  8  9  1  0  0  0  0
  9 10  1  0  0  0  0
  9 11  1  0  0  0  0
M  END
>  <CHROM.1>
-67.49553509,70.79111203,-80.42394243,-175.02576657,164.14721661,-103.16876751
-138.04042853,70.22249916,-84.64849482,-4.86096062,-3.45328509,-1.13338097
0.47647435,-0.37556143,-1.69841115

>  <Name>
1akx_lig

>  <RI>
0

>  <Rbt.Current_Directory>
/home/itssahil/PROJECTS/Mol_Feturizer/New_Systems/rnas/1akx

>  <Rbt.Executable>
rbdock ($Id: //depot/dev/client3/rdock/2013.1/src/exe/rbdock.cxx#4 $)

>  <Rbt.Library>
libRbt.so (2013.1, Build901 2013/11/27)

>  <Rbt.Parameter_File>
/export/apps/rDock/src/rDock_2013.1_src/data/scripts/dock_solv.prm

>  <Rbt.Receptor>
prm/pocket_docking_6.prm

>  <SCORE>
-30.6248

>  <SCORE.INTER>
-23.6019

>  <SCORE.INTER.CONST>
1

>  <SCORE.INTER.POLAR>
-3.32356

>  <SCORE.INTER.ROT>
8

>  <SCORE.INTER.SOLV>
7.948

>  <SCORE.INTER.VDW>
-16.2387

>  <SCORE.INTER.norm>
-2.14562

>  <SCORE.INTRA>
-7.02299

>  <SCORE.INTRA.DIHEDRAL>
-13.7652

>  <SCORE.INTRA.DIHEDRAL.0>
21.6454

>  <SCORE.INTRA.POLAR>
0

>  <SCORE.INTRA.POLAR.0>
0

>  <SCORE.INTRA.REPUL>
0

>  <SCORE.INTRA.REPUL.0>
0

>  <SCORE.INTRA.SOLV>
0.271439

>  <SCORE.INTRA.SOLV.lig_0>
-16.5947

>  <SCORE.INTRA.VDW>
-0.276133

>  <SCORE.INTRA.VDW.0>
-0.691398

>  <SCORE.INTRA.norm>
-0.638454

>  <SCORE.RESTR>
0

>  <SCORE.RESTR.CAVITY>
0

>  <SCORE.RESTR.norm>
0

>  <SCORE.SYSTEM>
0

>  <SCORE.SYSTEM.CONST>
0

>  <SCORE.SYSTEM.DIHEDRAL>
0

>  <SCORE.SYSTEM.SOLV>
0

>  <SCORE.SYSTEM.norm>
0

>  <SCORE.heavy>
11

>  <SCORE.norm>
-2.78408

>  <RMSD>
5.558

$$$$
1akx_lig
 OpenBabel11021811383D
libRbt.so/2013.1/901 2013/11/27
 11 10  0  0  0  0  0  0  0  0999 V2000
   -4.2510   -2.3152   -4.1245 N   0  0  0  0  0  0  0  0  0  0  0  0
   -4.0520   -3.2895   -3.0112 C   0  0  2  0  0  0  0  0  0  0  0  0
   -5.4122   -3.6628   -2.4084 C   0  0  0  0  0  0  0  0  0  0  0  0
   -5.4832   -4.4547   -1.4898 O   0  0  0  0  0  0  0  0  0  0  0  0
   -3.1622   -2.6615   -1.9299 C   0  0  0  0  0  0  0  0  0  0  0  0
   -1.7771   -2.3598   -2.5112 C   0  0  0  0  0  0  0  0  0  0  0  0
   -0.7069   -3.0509   -1.6663 C   0  0  0  0  0  0  0  0  0  0  0  0
   -0.8605   -2.6412   -0.2412 N   0  0  0  0  0  0  0  0  0  0  0  0
   -0.7883   -3.5338    0.7130 C   0  0  0  0  0  0  0  0  0  0  0  0
   -1.8681   -3.9045    1.3518 N   0  0  0  0  0  0  0  0  0  0  0  0
    0.3656   -4.0609    1.0240 N   0  0  0  0  0  0  0  0  0  0  0  0
  2  1  1  6  0  0  0
  2  3  1  0  0  0  0
  2  5  1  0  0  0  0
  3  4  1  0  0  0  0
  5  6  1  0  0  0  0
  6  7  1  0  0  0  0
  7  8  1  0  0  0  0
  8  9  1  0  0  0  0
  9 10  1  0  0  0  0
  9 11  1  0  0  0  0
M  END
>  <CHROM.1>
-166.38058770,179.47744876,-62.87783267,-124.11383277,-54.78431108,135.65730129
-107.15515039,70.79336755,-30.08536560,-2.56102471,-3.26981171,-1.28720450
-2.48036970,0.28810419,2.02793472

>  <Name>
1akx_lig

>  <RI>
0

>  <Rbt.Current_Directory>
/home/afrankz/demos/rdock_decoys_rna/rnas/1akx

>  <Rbt.Executable>
rbdock ($Id: //depot/dev/client3/rdock/2013.1/src/exe/rbdock.cxx#4 $)

>  <Rbt.Library>
libRbt.so (2013.1, Build901 2013/11/27)

>  <Rbt.Parameter_File>
/export/apps/rDock/src/rDock_2013.1_src/data/scripts/dock_solv.prm

>  <Rbt.Receptor>
prm/pocket_docking_3.prm

>  <SCORE>
-27.8026

>  <SCORE.INTER>
-22.9107

>  <SCORE.INTER.CONST>
1

>  <SCORE.INTER.POLAR>
-3.06784

>  <SCORE.INTER.ROT>
8

>  <SCORE.INTER.SOLV>
5.87333

>  <SCORE.INTER.VDW>
-15.9388

>  <SCORE.INTER.norm>
-2.08279

>  <SCORE.INTRA>
-4.89191

>  <SCORE.INTRA.DIHEDRAL>
-10.2261

>  <SCORE.INTRA.DIHEDRAL.0>
21.6454

>  <SCORE.INTRA.POLAR>
0

>  <SCORE.INTRA.POLAR.0>
0

>  <SCORE.INTRA.REPUL>
0

>  <SCORE.INTRA.REPUL.0>
0

>  <SCORE.INTRA.SOLV>
0.377363

>  <SCORE.INTRA.SOLV.lig_0>
-16.5947

>  <SCORE.INTRA.VDW>
0.0324645

>  <SCORE.INTRA.VDW.0>
-0.691398

>  <SCORE.INTRA.norm>
-0.444719

>  <SCORE.RESTR>
0

>  <SCORE.RESTR.CAVITY>
0

>  <SCORE.RESTR.norm>
0

>  <SCORE.SYSTEM>
0

>  <SCORE.SYSTEM.CONST>
0

>  <SCORE.SYSTEM.DIHEDRAL>
0

>  <SCORE.SYSTEM.SOLV>
0

>  <SCORE.SYSTEM.norm>
0

>  <SCORE.heavy>
11

>  <SCORE.norm>
-2.52751

>  <RMSD>
5.567

>  <RMSD>
5.567

$$$$
1akx_lig
 OpenBabel11021811383D
libRbt.so/2013.1/901 2013/11/27
 11 10  0  0  0  0  0  0  0  0999 V2000
   -4.2510   -2.3152   -4.1245 N   0  0  0  0  0  0  0  0  0  0  0  0
   -4.0520   -3.2895   -3.0112 C   0  0  2  0  0  0  0  0  0  0  0  0
   -5.4122   -3.6628   -2.4084 C   0  0  0  0  0  0  0  0  0  0  0  0
   -5.4832   -4.4547   -1.4898 O   0  0  0  0  0  0  0  0  0  0  0  0
   -3.1622   -2.6615   -1.9299 C   0  0  0  0  0  0  0  0  0  0  0  0
   -1.7771   -2.3598   -2.5112 C   0  0  0  0  0  0  0  0  0  0  0  0
   -0.7069   -3.0509   -1.6663 C   0  0  0  0  0  0  0  0  0  0  0  0
   -0.8605   -2.6412   -0.2412 N   0  0  0  0  0  0  0  0  0  0  0  0
   -0.7883   -3.5338    0.7130 C   0  0  0  0  0  0  0  0  0  0  0  0
   -1.8681   -3.9045    1.3518 N   0  0  0  0  0  0  0  0  0  0  0  0
    0.3656   -4.0609    1.0240 N   0  0  0  0  0  0  0  0  0  0  0  0
  2  1  1  6  0  0  0
  2  3  1  0  0  0  0
  2  5  1  0  0  0  0
  3  4  1  0  0  0  0
  5  6  1  0  0  0  0
  6  7  1  0  0  0  0
  7  8  1  0  0  0  0
  8  9  1  0  0  0  0
  9 10  1  0  0  0  0
  9 11  1  0  0  0  0
M  END
>  <CHROM.1>
-166.38058770,179.47744876,-62.87783267,-124.11383277,-54.78431108,135.65730129
-107.15515039,70.79336755,-30.08536560,-2.56102471,-3.26981171,-1.28720450
-2.48036970,0.28810419,2.02793472

>  <Name>
1akx_lig

>  <RI>
0

>  <Rbt.Current_Directory>
/home/afrankz/demos/rdock_decoys_rna/rnas/1akx

>  <Rbt.Executable>
rbdock ($Id: //depot/dev/client3/rdock/2013.1/src/exe/rbdock.cxx#4 $)

>  <Rbt.Library>
libRbt.so (2013.1, Build901 2013/11/27)

>  <Rbt.Parameter_File>
/export/apps/rDock/src/rDock_2013.1_src/data/scripts/dock_solv.prm

>  <Rbt.Receptor>
prm/pocket_docking_3.prm

>  <SCORE>
-27.8026

>  <SCORE.INTER>
-22.9107

>  <SCORE.INTER.CONST>
1

>  <SCORE.INTER.POLAR>
-3.06784

>  <SCORE.INTER.ROT>
8

>  <SCORE.INTER.SOLV>
5.87333

>  <SCORE.INTER.VDW>
-15.9388

>  <SCORE.INTER.norm>
-2.08279

>  <SCORE.INTRA>
-4.89191

>  <SCORE.INTRA.DIHEDRAL>
-10.2261

>  <SCORE.INTRA.DIHEDRAL.0>
21.6454

>  <SCORE.INTRA.POLAR>
0

>  <SCORE.INTRA.POLAR.0>
0

>  <SCORE.INTRA.REPUL>
0

>  <SCORE.INTRA.REPUL.0>
0

>  <SCORE.INTRA.SOLV>
0.377363

>  <SCORE.INTRA.SOLV.lig_0>
-16.5947

>  <SCORE.INTRA.VDW>
0.0324645

>  <SCORE.INTRA.VDW.0>
-0.691398

>  <SCORE.INTRA.norm>
-0.444719

>  <SCORE.RESTR>
0

>  <SCORE.RESTR.CAVITY>
0

>  <SCORE.RESTR.norm>
0

>  <SCORE.SYSTEM>
0

>  <SCORE.SYSTEM.CONST>
0

>  <SCORE.SYSTEM.DIHEDRAL>
0

>  <SCORE.SYSTEM.SOLV>
0

>  <SCORE.SYSTEM.norm>
0

>  <SCORE.heavy>
11

>  <SCORE.norm>
-2.52751

>  <RMSD>
5.567

>  <RMSD>
5.567

$$$$
1akx_lig
 OpenBabel11021811383D
libRbt.so/2013.1/901 2013/11/27
 11 10  0  0  0  0  0  0  0  0999 V2000
   -4.1311   -2.1789   -4.3389 N   0  0  0  0  0  0  0  0  0  0  0  0
   -3.9656   -3.1198   -3.1919 C   0  0  2  0  0  0  0  0  0  0  0  0
   -5.3313   -3.3844   -2.5457 C   0  0  0  0  0  0  0  0  0  0  0  0
   -5.4397   -4.1860   -1.6391 O   0  0  0  0  0  0  0  0  0  0  0  0
   -3.0136   -2.5067   -2.1559 C   0  0  0  0  0  0  0  0  0  0  0  0
   -1.5637   -2.8287   -2.5320 C   0  0  0  0  0  0  0  0  0  0  0  0
   -0.6336   -2.3935   -1.3995 C   0  0  0  0  0  0  0  0  0  0  0  0
   -0.8966   -3.2301   -0.1940 N   0  0  0  0  0  0  0  0  0  0  0  0
   -1.4579   -2.7035    0.8643 C   0  0  0  0  0  0  0  0  0  0  0  0
   -1.9099   -3.4719    1.8218 N   0  0  0  0  0  0  0  0  0  0  0  0
   -1.5613   -1.4056    0.9673 N   0  0  0  0  0  0  0  0  0  0  0  0
  2  1  1  6  0  0  0
  2  3  1  0  0  0  0
  2  5  1  0  0  0  0
  3  4  1  0  0  0  0
  5  6  1  0  0  0  0
  6  7  1  0  0  0  0
  7  8  1  0  0  0  0
  8  9  1  0  0  0  0
  9 10  1  0  0  0  0
  9 11  1  0  0  0  0
M  END
>  <CHROM.1>
-169.32318190,175.68535139,-85.83295781,-171.91310279,66.22348514,-110.49940387
167.53494836,131.52237176,85.02166370,-2.74447222,-2.84963137,-1.29272982
-2.30737148,0.35954541,1.78326727

>  <Name>
1akx_lig

>  <RI>
0

>  <Rbt.Current_Directory>
/home/itssahil/PROJECTS/Mol_Feturizer/New_Systems/rnas/1akx

>  <Rbt.Executable>
rbdock ($Id: //depot/dev/client3/rdock/2013.1/src/exe/rbdock.cxx#4 $)

>  <Rbt.Library>
libRbt.so (2013.1, Build901 2013/11/27)

>  <Rbt.Parameter_File>
/export/apps/rDock/src/rDock_2013.1_src/data/scripts/dock_solv.prm

>  <Rbt.Receptor>
prm/pocket_docking_4.prm

>  <SCORE>
-32.7495

>  <SCORE.INTER>
-26.2802

>  <SCORE.INTER.CONST>
1

>  <SCORE.INTER.POLAR>
-3.77506

>  <SCORE.INTER.ROT>
8

>  <SCORE.INTER.SOLV>
6.00799

>  <SCORE.INTER.VDW>
-15.8726

>  <SCORE.INTER.norm>
-2.38911

>  <SCORE.INTRA>
-6.46924

>  <SCORE.INTRA.DIHEDRAL>
-13.7865

>  <SCORE.INTRA.DIHEDRAL.0>
21.6454

>  <SCORE.INTRA.POLAR>
0

>  <SCORE.INTRA.POLAR.0>
0

>  <SCORE.INTRA.REPUL>
0

>  <SCORE.INTRA.REPUL.0>
0

>  <SCORE.INTRA.SOLV>
0.482885

>  <SCORE.INTRA.SOLV.lig_0>
-16.5947

>  <SCORE.INTRA.VDW>
0.182577

>  <SCORE.INTRA.VDW.0>
-0.691398

>  <SCORE.INTRA.norm>
-0.588112

>  <SCORE.RESTR>
0

>  <SCORE.RESTR.CAVITY>
0

>  <SCORE.RESTR.norm>
0

>  <SCORE.SYSTEM>
0

>  <SCORE.SYSTEM.CONST>
0

>  <SCORE.SYSTEM.DIHEDRAL>
0

>  <SCORE.SYSTEM.SOLV>
0

>  <SCORE.SYSTEM.norm>
0

>  <SCORE.heavy>
11

>  <SCORE.norm>
-2.97722

>  <RMSD>
5.569

$$$$
1akx_lig
 OpenBabel11021811383D
libRbt.so/2013.1/901 2013/11/27
 11 10  0  0  0  0  0  0  0  0999 V2000
   -4.1644   -2.1323   -4.3887 N   0  0  0  0  0  0  0  0  0  0  0  0
   -3.9971   -3.0899   -3.2558 C   0  0  2  0  0  0  0  0  0  0  0  0
   -5.3668   -3.3937   -2.6359 C   0  0  0  0  0  0  0  0  0  0  0  0
   -5.4744   -4.2229   -1.7544 O   0  0  0  0  0  0  0  0  0  0  0  0
   -3.0739   -2.4761   -2.1945 C   0  0  0  0  0  0  0  0  0  0  0  0
   -1.6136   -2.7899   -2.5357 C   0  0  0  0  0  0  0  0  0  0  0  0
   -0.7197   -2.4064   -1.3564 C   0  0  0  0  0  0  0  0  0  0  0  0
   -1.1872   -3.1140   -0.1304 N   0  0  0  0  0  0  0  0  0  0  0  0
   -0.9866   -4.3999    0.0057 C   0  0  0  0  0  0  0  0  0  0  0  0
    0.0242   -4.9763   -0.5922 N   0  0  0  0  0  0  0  0  0  0  0  0
   -1.7955   -5.1090    0.7466 N   0  0  0  0  0  0  0  0  0  0  0  0
  2  1  1  6  0  0  0
  2  3  1  0  0  0  0
  2  5  1  0  0  0  0
  3  4  1  0  0  0  0
  5  6  1  0  0  0  0
  6  7  1  0  0  0  0
  7  8  1  0  0  0  0
  8  9  1  0  0  0  0
  9 10  1  0  0  0  0
  9 11  1  0  0  0  0
M  END
>  <CHROM.1>
-167.24842663,174.95973321,-87.15599814,-169.65026483,56.11388663,72.57161819
27.31446282,-129.66920264,16.98829647,-2.59596198,-3.48120394,-1.64536460
-2.45394361,0.23212940,2.25955694

>  <Name>
1akx_lig

>  <RI>
0

>  <Rbt.Current_Directory>
/home/itssahil/PROJECTS/Mol_Feturizer/New_Systems/rnas/1akx

>  <Rbt.Executable>
rbdock ($Id: //depot/dev/client3/rdock/2013.1/src/exe/rbdock.cxx#4 $)

>  <Rbt.Library>
libRbt.so (2013.1, Build901 2013/11/27)

>  <Rbt.Parameter_File>
/export/apps/rDock/src/rDock_2013.1_src/data/scripts/dock_solv.prm

>  <Rbt.Receptor>
prm/pocket_docking_6.prm

>  <SCORE>
-29.9755

>  <SCORE.INTER>
-23.9885

>  <SCORE.INTER.CONST>
1

>  <SCORE.INTER.POLAR>
-3.20092

>  <SCORE.INTER.ROT>
8

>  <SCORE.INTER.SOLV>
6.82611

>  <SCORE.INTER.VDW>
-16.5313

>  <SCORE.INTER.norm>
-2.18077

>  <SCORE.INTRA>
-5.98697

>  <SCORE.INTRA.DIHEDRAL>
-13.3643

>  <SCORE.INTRA.DIHEDRAL.0>
21.6454

>  <SCORE.INTRA.POLAR>
0

>  <SCORE.INTRA.POLAR.0>
0

>  <SCORE.INTRA.REPUL>
0

>  <SCORE.INTRA.REPUL.0>
0

>  <SCORE.INTRA.SOLV>
0.566899

>  <SCORE.INTRA.SOLV.lig_0>
-16.5947

>  <SCORE.INTRA.VDW>
0.411757

>  <SCORE.INTRA.VDW.0>
-0.691398

>  <SCORE.INTRA.norm>
-0.54427

>  <SCORE.RESTR>
0

>  <SCORE.RESTR.CAVITY>
0

>  <SCORE.RESTR.norm>
0

>  <SCORE.SYSTEM>
0

>  <SCORE.SYSTEM.CONST>
0

>  <SCORE.SYSTEM.DIHEDRAL>
0

>  <SCORE.SYSTEM.SOLV>
0

>  <SCORE.SYSTEM.norm>
0

>  <SCORE.heavy>
11

>  <SCORE.norm>
-2.72504

>  <RMSD>
5.579

$$$$
1akx_lig
 OpenBabel11021811383D
libRbt.so/2013.1/901 2013/11/27
 11 10  0  0  0  0  0  0  0  0999 V2000
   -1.9885   -3.0008   -4.5322 N   0  0  0  0  0  0  0  0  0  0  0  0
   -2.2062   -3.4002   -3.1105 C   0  0  2  0  0  0  0  0  0  0  0  0
   -3.6413   -3.0529   -2.6952 C   0  0  0  0  0  0  0  0  0  0  0  0
   -4.1589   -2.0196   -3.0701 O   0  0  0  0  0  0  0  0  0  0  0  0
   -1.2125   -2.6558   -2.2084 C   0  0  0  0  0  0  0  0  0  0  0  0
   -0.6378   -3.6205   -1.1660 C   0  0  0  0  0  0  0  0  0  0  0  0
   -1.7239   -3.9857   -0.1542 C   0  0  0  0  0  0  0  0  0  0  0  0
   -2.4496   -5.2002   -0.6239 N   0  0  0  0  0  0  0  0  0  0  0  0
   -2.1355   -6.3797   -0.1522 C   0  0  0  0  0  0  0  0  0  0  0  0
   -2.2042   -6.6154    1.1328 N   0  0  0  0  0  0  0  0  0  0  0  0
   -1.7582   -7.3268   -0.9687 N   0  0  0  0  0  0  0  0  0  0  0  0
  2  1  1  6  0  0  0
  2  3  1  0  0  0  0
  2  5  1  0  0  0  0
  3  4  1  0  0  0  0
  5  6  1  0  0  0  0
  6  7  1  0  0  0  0
  7  8  1  0  0  0  0
  8  9  1  0  0  0  0
  9 10  1  0  0  0  0
  9 11  1  0  0  0  0
M  END
>  <CHROM.1>
70.55899782,-39.27319245,-136.99622882,-70.26567786,90.32789455,98.19068493
58.38959708,-175.81288604,-100.22942639,-2.21123363,-4.31179688,-1.62812442
-1.71848940,0.16513778,2.42153331

>  <Name>
1akx_lig

>  <RI>
0

>  <Rbt.Current_Directory>
/home/itssahil/PROJECTS/Mol_Feturizer/New_Systems/rnas/1akx

>  <Rbt.Executable>
rbdock ($Id: //depot/dev/client3/rdock/2013.1/src/exe/rbdock.cxx#4 $)

>  <Rbt.Library>
libRbt.so (2013.1, Build901 2013/11/27)

>  <Rbt.Parameter_File>
/export/apps/rDock/src/rDock_2013.1_src/data/scripts/dock_solv.prm

>  <Rbt.Receptor>
prm/pocket_docking_8.prm

>  <SCORE>
-13.1998

>  <SCORE.INTER>
-10.3945

>  <SCORE.INTER.CONST>
1

>  <SCORE.INTER.POLAR>
-1.63656

>  <SCORE.INTER.ROT>
8

>  <SCORE.INTER.SOLV>
5.77845

>  <SCORE.INTER.VDW>
-12.334

>  <SCORE.INTER.norm>
-0.944959

>  <SCORE.INTRA>
-2.80526

>  <SCORE.INTRA.DIHEDRAL>
-7.14157

>  <SCORE.INTRA.DIHEDRAL.0>
21.6454

>  <SCORE.INTRA.POLAR>
0

>  <SCORE.INTRA.POLAR.0>
0

>  <SCORE.INTRA.REPUL>
0

>  <SCORE.INTRA.REPUL.0>
0

>  <SCORE.INTRA.SOLV>
1.15702

>  <SCORE.INTRA.SOLV.lig_0>
-16.5947

>  <SCORE.INTRA.VDW>
0.187021

>  <SCORE.INTRA.VDW.0>
-0.691398

>  <SCORE.INTRA.norm>
-0.255023

>  <SCORE.RESTR>
0

>  <SCORE.RESTR.CAVITY>
0

>  <SCORE.RESTR.norm>
0

>  <SCORE.SYSTEM>
0

>  <SCORE.SYSTEM.CONST>
0

>  <SCORE.SYSTEM.DIHEDRAL>
0

>  <SCORE.SYSTEM.SOLV>
0

>  <SCORE.SYSTEM.norm>
0

>  <SCORE.heavy>
11

>  <SCORE.norm>
-1.19998

>  <RMSD>
5.590

$$$$
1akx_lig
 OpenBabel11021811383D
libRbt.so/2013.1/901 2013/11/27
 11 10  0  0  0  0  0  0  0  0999 V2000
   -4.2207   -2.3392   -4.0825 N   0  0  0  0  0  0  0  0  0  0  0  0
   -3.8963   -3.2564   -2.9504 C   0  0  2  0  0  0  0  0  0  0  0  0
   -5.1832   -3.6137   -2.1962 C   0  0  0  0  0  0  0  0  0  0  0  0
   -5.7865   -2.7654   -1.5695 O   0  0  0  0  0  0  0  0  0  0  0  0
   -2.9117   -2.5678   -1.9955 C   0  0  0  0  0  0  0  0  0  0  0  0
   -1.4748   -2.8234   -2.4620 C   0  0  0  0  0  0  0  0  0  0  0  0
   -0.6583   -3.4032   -1.3071 C   0  0  0  0  0  0  0  0  0  0  0  0
   -0.4756   -2.3603   -0.2576 N   0  0  0  0  0  0  0  0  0  0  0  0
   -1.1352   -2.4368    0.8699 C   0  0  0  0  0  0  0  0  0  0  0  0
   -0.5771   -2.9722    1.9250 N   0  0  0  0  0  0  0  0  0  0  0  0
   -2.3533   -1.9709    0.9432 N   0  0  0  0  0  0  0  0  0  0  0  0
  2  1  1  6  0  0  0
  2  3  1  0  0  0  0
  2  5  1  0  0  0  0
  3  4  1  0  0  0  0
  5  6  1  0  0  0  0
  6  7  1  0  0  0  0
  7  8  1  0  0  0  0
  8  9  1  0  0  0  0
  9 10  1  0  0  0  0
  9 11  1  0  0  0  0
M  END
>  <CHROM.1>
-173.16615964,-67.17041902,-87.55250941,-126.67084288,-68.41467964,106.88309402
96.14199109,-145.13370267,132.63869900,-2.63596328,-2.74627561,-1.17965120
-2.37450130,0.01324366,1.51807692

>  <Name>
1akx_lig

>  <RI>
0

>  <Rbt.Current_Directory>
/home/itssahil/PROJECTS/Mol_Feturizer/New_Systems/rnas/1akx

>  <Rbt.Executable>
rbdock ($Id: //depot/dev/client3/rdock/2013.1/src/exe/rbdock.cxx#4 $)

>  <Rbt.Library>
libRbt.so (2013.1, Build901 2013/11/27)

>  <Rbt.Parameter_File>
/export/apps/rDock/src/rDock_2013.1_src/data/scripts/dock_solv.prm

>  <Rbt.Receptor>
prm/pocket_docking_7.prm

>  <SCORE>
-28.5325

>  <SCORE.INTER>
-24.3657

>  <SCORE.INTER.CONST>
1

>  <SCORE.INTER.POLAR>
-3.18213

>  <SCORE.INTER.ROT>
8

>  <SCORE.INTER.SOLV>
7.08885

>  <SCORE.INTER.VDW>
-16.9329

>  <SCORE.INTER.norm>
-2.21506

>  <SCORE.INTRA>
-4.16687

>  <SCORE.INTRA.DIHEDRAL>
-7.78055

>  <SCORE.INTRA.DIHEDRAL.0>
21.6454

>  <SCORE.INTRA.POLAR>
0

>  <SCORE.INTRA.POLAR.0>
0

>  <SCORE.INTRA.REPUL>
0

>  <SCORE.INTRA.REPUL.0>
0

>  <SCORE.INTRA.SOLV>
0.839859

>  <SCORE.INTRA.SOLV.lig_0>
-16.5947

>  <SCORE.INTRA.VDW>
-0.696528

>  <SCORE.INTRA.VDW.0>
-0.691398

>  <SCORE.INTRA.norm>
-0.378807

>  <SCORE.RESTR>
0

>  <SCORE.RESTR.CAVITY>
0

>  <SCORE.RESTR.norm>
0

>  <SCORE.SYSTEM>
0

>  <SCORE.SYSTEM.CONST>
0

>  <SCORE.SYSTEM.DIHEDRAL>
0

>  <SCORE.SYSTEM.SOLV>
0

>  <SCORE.SYSTEM.norm>
0

>  <SCORE.heavy>
11

>  <SCORE.norm>
-2.59387

>  <RMSD>
5.601

$$$$
1akx_lig
 OpenBabel11021811383D
libRbt.so/2013.1/901 2013/11/27
 11 10  0  0  0  0  0  0  0  0999 V2000
   -4.1818   -2.3910   -4.0847 N   0  0  0  0  0  0  0  0  0  0  0  0
   -3.7899   -3.2178   -2.9053 C   0  0  2  0  0  0  0  0  0  0  0  0
   -5.0339   -3.5337   -2.0655 C   0  0  0  0  0  0  0  0  0  0  0  0
   -5.6615   -2.6402   -1.5327 O   0  0  0  0  0  0  0  0  0  0  0  0
   -2.7720   -2.4487   -2.0524 C   0  0  0  0  0  0  0  0  0  0  0  0
   -1.3549   -2.9321   -2.3774 C   0  0  0  0  0  0  0  0  0  0  0  0
   -1.0731   -4.2319   -1.6236 C   0  0  0  0  0  0  0  0  0  0  0  0
   -0.4038   -3.9181   -0.3291 N   0  0  0  0  0  0  0  0  0  0  0  0
   -1.0990   -3.8723    0.7786 C   0  0  0  0  0  0  0  0  0  0  0  0
   -1.2317   -4.9431    1.5183 N   0  0  0  0  0  0  0  0  0  0  0  0
   -1.6570   -2.7512    1.1498 N   0  0  0  0  0  0  0  0  0  0  0  0
  2  1  1  6  0  0  0
  2  3  1  0  0  0  0
  2  5  1  0  0  0  0
  3  4  1  0  0  0  0
  5  6  1  0  0  0  0
  6  7  1  0  0  0  0
  7  8  1  0  0  0  0
  8  9  1  0  0  0  0
  9 10  1  0  0  0  0
  9 11  1  0  0  0  0
M  END
>  <CHROM.1>
64.97898167,-63.22364170,-98.87186139,-80.75585489,-93.46029544,98.64010719
91.47815109,-148.94561293,-94.45979108,-2.59610075,-3.33454715,-1.21924884
-2.33431457,-0.15049086,1.77189851

>  <Name>
1akx_lig

>  <RI>
0

>  <Rbt.Current_Directory>
/home/afrankz/demos/rdock_decoys_rna/rnas/1akx

>  <Rbt.Executable>
rbdock ($Id: //depot/dev/client3/rdock/2013.1/src/exe/rbdock.cxx#4 $)

>  <Rbt.Library>
libRbt.so (2013.1, Build901 2013/11/27)

>  <Rbt.Parameter_File>
/export/apps/rDock/src/rDock_2013.1_src/data/scripts/dock_solv.prm

>  <Rbt.Receptor>
prm/pocket_docking_3.prm

>  <SCORE>
-26.3913

>  <SCORE.INTER>
-22.1176

>  <SCORE.INTER.CONST>
1

>  <SCORE.INTER.POLAR>
-3.18395

>  <SCORE.INTER.ROT>
8

>  <SCORE.INTER.SOLV>
5.5854

>  <SCORE.INTER.VDW>
-14.927

>  <SCORE.INTER.norm>
-2.01069

>  <SCORE.INTRA>
-4.27366

>  <SCORE.INTRA.DIHEDRAL>
-7.59178

>  <SCORE.INTRA.DIHEDRAL.0>
21.6454

>  <SCORE.INTRA.POLAR>
0

>  <SCORE.INTRA.POLAR.0>
0

>  <SCORE.INTRA.REPUL>
0

>  <SCORE.INTRA.REPUL.0>
0

>  <SCORE.INTRA.SOLV>
0.762697

>  <SCORE.INTRA.SOLV.lig_0>
-16.5947

>  <SCORE.INTRA.VDW>
-0.859121

>  <SCORE.INTRA.VDW.0>
-0.691398

>  <SCORE.INTRA.norm>
-0.388515

>  <SCORE.RESTR>
0

>  <SCORE.RESTR.CAVITY>
0

>  <SCORE.RESTR.norm>
0

>  <SCORE.SYSTEM>
0

>  <SCORE.SYSTEM.CONST>
0

>  <SCORE.SYSTEM.DIHEDRAL>
0

>  <SCORE.SYSTEM.SOLV>
0

>  <SCORE.SYSTEM.norm>
0

>  <SCORE.heavy>
11

>  <SCORE.norm>
-2.39921

>  <RMSD>
5.616

>  <RMSD>
5.616

$$$$
1akx_lig
 OpenBabel11021811383D
libRbt.so/2013.1/901 2013/11/27
 11 10  0  0  0  0  0  0  0  0999 V2000
   -4.1818   -2.3910   -4.0847 N   0  0  0  0  0  0  0  0  0  0  0  0
   -3.7899   -3.2178   -2.9053 C   0  0  2  0  0  0  0  0  0  0  0  0
   -5.0339   -3.5337   -2.0655 C   0  0  0  0  0  0  0  0  0  0  0  0
   -5.6615   -2.6402   -1.5327 O   0  0  0  0  0  0  0  0  0  0  0  0
   -2.7720   -2.4487   -2.0524 C   0  0  0  0  0  0  0  0  0  0  0  0
   -1.3549   -2.9321   -2.3774 C   0  0  0  0  0  0  0  0  0  0  0  0
   -1.0731   -4.2319   -1.6236 C   0  0  0  0  0  0  0  0  0  0  0  0
   -0.4038   -3.9181   -0.3291 N   0  0  0  0  0  0  0  0  0  0  0  0
   -1.0990   -3.8723    0.7786 C   0  0  0  0  0  0  0  0  0  0  0  0
   -1.2317   -4.9431    1.5183 N   0  0  0  0  0  0  0  0  0  0  0  0
   -1.6570   -2.7512    1.1498 N   0  0  0  0  0  0  0  0  0  0  0  0
  2  1  1  6  0  0  0
  2  3  1  0  0  0  0
  2  5  1  0  0  0  0
  3  4  1  0  0  0  0
  5  6  1  0  0  0  0
  6  7  1  0  0  0  0
  7  8  1  0  0  0  0
  8  9  1  0  0  0  0
  9 10  1  0  0  0  0
  9 11  1  0  0  0  0
M  END
>  <CHROM.1>
64.97898167,-63.22364170,-98.87186139,-80.75585489,-93.46029544,98.64010719
91.47815109,-148.94561293,-94.45979108,-2.59610075,-3.33454715,-1.21924884
-2.33431457,-0.15049086,1.77189851

>  <Name>
1akx_lig

>  <RI>
0

>  <Rbt.Current_Directory>
/home/afrankz/demos/rdock_decoys_rna/rnas/1akx

>  <Rbt.Executable>
rbdock ($Id: //depot/dev/client3/rdock/2013.1/src/exe/rbdock.cxx#4 $)

>  <Rbt.Library>
libRbt.so (2013.1, Build901 2013/11/27)

>  <Rbt.Parameter_File>
/export/apps/rDock/src/rDock_2013.1_src/data/scripts/dock_solv.prm

>  <Rbt.Receptor>
prm/pocket_docking_3.prm

>  <SCORE>
-26.3913

>  <SCORE.INTER>
-22.1176

>  <SCORE.INTER.CONST>
1

>  <SCORE.INTER.POLAR>
-3.18395

>  <SCORE.INTER.ROT>
8

>  <SCORE.INTER.SOLV>
5.5854

>  <SCORE.INTER.VDW>
-14.927

>  <SCORE.INTER.norm>
-2.01069

>  <SCORE.INTRA>
-4.27366

>  <SCORE.INTRA.DIHEDRAL>
-7.59178

>  <SCORE.INTRA.DIHEDRAL.0>
21.6454

>  <SCORE.INTRA.POLAR>
0

>  <SCORE.INTRA.POLAR.0>
0

>  <SCORE.INTRA.REPUL>
0

>  <SCORE.INTRA.REPUL.0>
0

>  <SCORE.INTRA.SOLV>
0.762697

>  <SCORE.INTRA.SOLV.lig_0>
-16.5947

>  <SCORE.INTRA.VDW>
-0.859121

>  <SCORE.INTRA.VDW.0>
-0.691398

>  <SCORE.INTRA.norm>
-0.388515

>  <SCORE.RESTR>
0

>  <SCORE.RESTR.CAVITY>
0

>  <SCORE.RESTR.norm>
0

>  <SCORE.SYSTEM>
0

>  <SCORE.SYSTEM.CONST>
0

>  <SCORE.SYSTEM.DIHEDRAL>
0

>  <SCORE.SYSTEM.SOLV>
0

>  <SCORE.SYSTEM.norm>
0

>  <SCORE.heavy>
11

>  <SCORE.norm>
-2.39921

>  <RMSD>
5.616

>  <RMSD>
5.616

$$$$
1akx_lig
 OpenBabel11021811383D
libRbt.so/2013.1/901 2013/11/27
 11 10  0  0  0  0  0  0  0  0999 V2000
   -4.1594   -2.2185   -4.2582 N   0  0  0  0  0  0  0  0  0  0  0  0
   -3.9927   -3.1702   -3.1204 C   0  0  2  0  0  0  0  0  0  0  0  0
   -5.3718   -3.6346   -2.6353 C   0  0  0  0  0  0  0  0  0  0  0  0
   -5.4680   -4.4585   -1.7476 O   0  0  0  0  0  0  0  0  0  0  0  0
   -3.2479   -2.4753   -1.9724 C   0  0  0  0  0  0  0  0  0  0  0  0
   -1.8018   -2.1914   -2.3915 C   0  0  0  0  0  0  0  0  0  0  0  0
   -0.8525   -3.0739   -1.5811 C   0  0  0  0  0  0  0  0  0  0  0  0
   -0.9806   -4.4874   -2.0367 N   0  0  0  0  0  0  0  0  0  0  0  0
   -0.4883   -5.4606   -1.3135 C   0  0  0  0  0  0  0  0  0  0  0  0
   -0.6263   -6.7031   -1.6989 N   0  0  0  0  0  0  0  0  0  0  0  0
    0.1487   -5.1892   -0.2060 N   0  0  0  0  0  0  0  0  0  0  0  0
  2  1  1  6  0  0  0
  2  3  1  0  0  0  0
  2  5  1  0  0  0  0
  3  4  1  0  0  0  0
  5  6  1  0  0  0  0
  6  7  1  0  0  0  0
  7  8  1  0  0  0  0
  8  9  1  0  0  0  0
  9 10  1  0  0  0  0
  9 11  1  0  0  0  0
M  END
>  <CHROM.1>
-41.16810126,176.97147185,-67.83570011,-111.40576552,71.35847534,-165.45143298
178.50344426,-137.14893734,-52.18198076,-2.44933121,-3.94018844,-2.10038456
-2.55908569,0.20041623,2.76632855

>  <Name>
1akx_lig

>  <RI>
0

>  <Rbt.Current_Directory>
/home/itssahil/PROJECTS/Mol_Feturizer/New_Systems/rnas/1akx

>  <Rbt.Executable>
rbdock ($Id: //depot/dev/client3/rdock/2013.1/src/exe/rbdock.cxx#4 $)

>  <Rbt.Library>
libRbt.so (2013.1, Build901 2013/11/27)

>  <Rbt.Parameter_File>
/export/apps/rDock/src/rDock_2013.1_src/data/scripts/dock_solv.prm

>  <Rbt.Receptor>
prm/pocket_docking_7.prm

>  <SCORE>
-34.5635

>  <SCORE.INTER>
-30.8815

>  <SCORE.INTER.CONST>
1

>  <SCORE.INTER.POLAR>
-4.39003

>  <SCORE.INTER.ROT>
8

>  <SCORE.INTER.SOLV>
9.60329

>  <SCORE.INTER.VDW>
-18.0886

>  <SCORE.INTER.norm>
-2.80741

>  <SCORE.INTRA>
-3.682

>  <SCORE.INTRA.DIHEDRAL>
-9.47537

>  <SCORE.INTRA.DIHEDRAL.0>
21.6454

>  <SCORE.INTRA.POLAR>
0

>  <SCORE.INTRA.POLAR.0>
0

>  <SCORE.INTRA.REPUL>
0

>  <SCORE.INTRA.REPUL.0>
0

>  <SCORE.INTRA.SOLV>
0.378645

>  <SCORE.INTRA.SOLV.lig_0>
-16.5947

>  <SCORE.INTRA.VDW>
0.866364

>  <SCORE.INTRA.VDW.0>
-0.691398

>  <SCORE.INTRA.norm>
-0.334727

>  <SCORE.RESTR>
0

>  <SCORE.RESTR.CAVITY>
0

>  <SCORE.RESTR.norm>
0

>  <SCORE.SYSTEM>
0

>  <SCORE.SYSTEM.CONST>
0

>  <SCORE.SYSTEM.DIHEDRAL>
0

>  <SCORE.SYSTEM.SOLV>
0

>  <SCORE.SYSTEM.norm>
0

>  <SCORE.heavy>
11

>  <SCORE.norm>
-3.14213

>  <RMSD>
5.623

$$$$
1akx_lig
 OpenBabel11021811383D
libRbt.so/2013.1/901 2013/11/27
 11 10  0  0  0  0  0  0  0  0999 V2000
   -2.2710   -2.1627   -3.5915 N   0  0  0  0  0  0  0  0  0  0  0  0
   -2.9765   -3.2758   -2.8904 C   0  0  2  0  0  0  0  0  0  0  0  0
   -4.4850   -2.9982   -2.8779 C   0  0  0  0  0  0  0  0  0  0  0  0
   -5.1095   -2.9371   -3.9183 O   0  0  0  0  0  0  0  0  0  0  0  0
   -2.4594   -3.3870   -1.4497 C   0  0  0  0  0  0  0  0  0  0  0  0
   -1.3738   -4.4653   -1.3720 C   0  0  0  0  0  0  0  0  0  0  0  0
   -0.8872   -4.5972    0.0712 C   0  0  0  0  0  0  0  0  0  0  0  0
   -0.1144   -3.3788    0.4462 N   0  0  0  0  0  0  0  0  0  0  0  0
   -0.6464   -2.4756    1.2294 C   0  0  0  0  0  0  0  0  0  0  0  0
   -1.5724   -2.8124    2.0900 N   0  0  0  0  0  0  0  0  0  0  0  0
   -0.2464   -1.2344    1.1556 N   0  0  0  0  0  0  0  0  0  0  0  0
  2  1  1  1  0  0  0
  2  3  1  0  0  0  0
  2  5  1  0  0  0  0
  3  4  1  0  0  0  0
  5  6  1  0  0  0  0
  6  7  1  0  0  0  0
  7  8  1  0  0  0  0
  8  9  1  0  0  0  0
  9 10  1  0  0  0  0
  9 11  1  0  0  0  0
M  END
>  <CHROM.1>
61.50354595,63.20753837,-96.50311895,-178.56825217,-69.86468317,104.84856123
26.83365590,-69.26079553,178.79852025,-2.01285790,-3.01629907,-1.02294336
2.79683913,0.90139078,-2.75734709

>  <Name>
1akx_lig

>  <RI>
0

>  <Rbt.Current_Directory>
/home/itssahil/PROJECTS/Mol_Feturizer/New_Systems/rnas/1akx

>  <Rbt.Executable>
rbdock ($Id: //depot/dev/client3/rdock/2013.1/src/exe/rbdock.cxx#4 $)

>  <Rbt.Library>
libRbt.so (2013.1, Build901 2013/11/27)

>  <Rbt.Parameter_File>
/export/apps/rDock/src/rDock_2013.1_src/data/scripts/dock_solv.prm

>  <Rbt.Receptor>
prm/pocket_docking_8.prm

>  <SCORE>
-26.0962

>  <SCORE.INTER>
-19.9582

>  <SCORE.INTER.CONST>
1

>  <SCORE.INTER.POLAR>
-3.24354

>  <SCORE.INTER.ROT>
8

>  <SCORE.INTER.SOLV>
6.32287

>  <SCORE.INTER.VDW>
-13.5346

>  <SCORE.INTER.norm>
-1.81438

>  <SCORE.INTRA>
-6.13799

>  <SCORE.INTRA.DIHEDRAL>
-12.5093

>  <SCORE.INTRA.DIHEDRAL.0>
21.6454

>  <SCORE.INTRA.POLAR>
0

>  <SCORE.INTRA.POLAR.0>
0

>  <SCORE.INTRA.REPUL>
0

>  <SCORE.INTRA.REPUL.0>
0

>  <SCORE.INTRA.SOLV>
0.649899

>  <SCORE.INTRA.SOLV.lig_0>
-16.5947

>  <SCORE.INTRA.VDW>
-0.208277

>  <SCORE.INTRA.VDW.0>
-0.691398

>  <SCORE.INTRA.norm>
-0.557999

>  <SCORE.RESTR>
0

>  <SCORE.RESTR.CAVITY>
0

>  <SCORE.RESTR.norm>
0

>  <SCORE.SYSTEM>
0

>  <SCORE.SYSTEM.CONST>
0

>  <SCORE.SYSTEM.DIHEDRAL>
0

>  <SCORE.SYSTEM.SOLV>
0

>  <SCORE.SYSTEM.norm>
0

>  <SCORE.heavy>
11

>  <SCORE.norm>
-2.37238

>  <RMSD>
5.626

$$$$
1akx_lig
 OpenBabel11021811383D
libRbt.so/2013.1/901 2013/11/27
 11 10  0  0  0  0  0  0  0  0999 V2000
   -4.1590   -2.1276   -4.3911 N   0  0  0  0  0  0  0  0  0  0  0  0
   -3.9920   -3.0750   -3.2497 C   0  0  2  0  0  0  0  0  0  0  0  0
   -5.3485   -3.3030   -2.5710 C   0  0  0  0  0  0  0  0  0  0  0  0
   -5.4432   -4.0502   -1.6176 O   0  0  0  0  0  0  0  0  0  0  0  0
   -2.9986   -2.4907   -2.2363 C   0  0  0  0  0  0  0  0  0  0  0  0
   -1.5669   -2.8392   -2.6559 C   0  0  0  0  0  0  0  0  0  0  0  0
   -0.6193   -2.6099   -1.4784 C   0  0  0  0  0  0  0  0  0  0  0  0
   -1.0608   -3.4370   -0.3195 N   0  0  0  0  0  0  0  0  0  0  0  0
   -0.6440   -4.6710   -0.1932 C   0  0  0  0  0  0  0  0  0  0  0  0
    0.4644   -4.9296    0.4519 N   0  0  0  0  0  0  0  0  0  0  0  0
   -1.3410   -5.6483   -0.7079 N   0  0  0  0  0  0  0  0  0  0  0  0
  2  1  1  6  0  0  0
  2  3  1  0  0  0  0
  2  5  1  0  0  0  0
  3  4  1  0  0  0  0
  5  6  1  0  0  0  0
  6  7  1  0  0  0  0
  7  8  1  0  0  0  0
  8  9  1  0  0  0  0
  9 10  1  0  0  0  0
  9 11  1  0  0  0  0
M  END
>  <CHROM.1>
68.92416509,179.59281494,-85.23272598,-164.31905954,57.75314033,87.39730420
89.09533082,123.90404433,-73.80560969,-2.44341735,-3.57859049,-1.72491156
-2.50191531,0.22347299,2.36859289

>  <Name>
1akx_lig

>  <RI>
0

>  <Rbt.Current_Directory>
/home/itssahil/PROJECTS/Mol_Feturizer/New_Systems/rnas/1akx

>  <Rbt.Executable>
rbdock ($Id: //depot/dev/client3/rdock/2013.1/src/exe/rbdock.cxx#4 $)

>  <Rbt.Library>
libRbt.so (2013.1, Build901 2013/11/27)

>  <Rbt.Parameter_File>
/export/apps/rDock/src/rDock_2013.1_src/data/scripts/dock_solv.prm

>  <Rbt.Receptor>
prm/pocket_docking_7.prm

>  <SCORE>
-32.4757

>  <SCORE.INTER>
-25.4735

>  <SCORE.INTER.CONST>
1

>  <SCORE.INTER.POLAR>
-3.29344

>  <SCORE.INTER.ROT>
8

>  <SCORE.INTER.SOLV>
7.11694

>  <SCORE.INTER.VDW>
-17.3098

>  <SCORE.INTER.norm>
-2.31577

>  <SCORE.INTRA>
-7.00219

>  <SCORE.INTRA.DIHEDRAL>
-13.4399

>  <SCORE.INTRA.DIHEDRAL.0>
21.6454

>  <SCORE.INTRA.POLAR>
0

>  <SCORE.INTRA.POLAR.0>
0

>  <SCORE.INTRA.REPUL>
0

>  <SCORE.INTRA.REPUL.0>
0

>  <SCORE.INTRA.SOLV>
0.472292

>  <SCORE.INTRA.SOLV.lig_0>
-16.5947

>  <SCORE.INTRA.VDW>
-0.518388

>  <SCORE.INTRA.VDW.0>
-0.691398

>  <SCORE.INTRA.norm>
-0.636563

>  <SCORE.RESTR>
0

>  <SCORE.RESTR.CAVITY>
0

>  <SCORE.RESTR.norm>
0

>  <SCORE.SYSTEM>
0

>  <SCORE.SYSTEM.CONST>
0

>  <SCORE.SYSTEM.DIHEDRAL>
0

>  <SCORE.SYSTEM.SOLV>
0

>  <SCORE.SYSTEM.norm>
0

>  <SCORE.heavy>
11

>  <SCORE.norm>
-2.95233

>  <RMSD>
5.641

$$$$
1akx_lig
 OpenBabel11021811383D
libRbt.so/2013.1/901 2013/11/27
 11 10  0  0  0  0  0  0  0  0999 V2000
   -4.1314   -2.0958   -4.4397 N   0  0  0  0  0  0  0  0  0  0  0  0
   -3.6684   -2.8552   -3.2409 C   0  0  2  0  0  0  0  0  0  0  0  0
   -4.7496   -2.8048   -2.1540 C   0  0  0  0  0  0  0  0  0  0  0  0
   -4.6464   -3.4807   -1.1497 O   0  0  0  0  0  0  0  0  0  0  0  0
   -2.3700   -2.2344   -2.7077 C   0  0  0  0  0  0  0  0  0  0  0  0
   -1.3604   -3.3418   -2.3891 C   0  0  0  0  0  0  0  0  0  0  0  0
   -1.6671   -3.9323   -1.0128 C   0  0  0  0  0  0  0  0  0  0  0  0
   -0.6193   -3.5006   -0.0444 N   0  0  0  0  0  0  0  0  0  0  0  0
   -0.9565   -3.0797    1.1479 C   0  0  0  0  0  0  0  0  0  0  0  0
   -1.4723   -1.8877    1.3046 N   0  0  0  0  0  0  0  0  0  0  0  0
   -0.7830   -3.8556    2.1842 N   0  0  0  0  0  0  0  0  0  0  0  0
  2  1  1  6  0  0  0
  2  3  1  0  0  0  0
  2  5  1  0  0  0  0
  3  4  1  0  0  0  0
  5  6  1  0  0  0  0
  6  7  1  0  0  0  0
  7  8  1  0  0  0  0
  8  9  1  0  0  0  0
  9 10  1  0  0  0  0
  9 11  1  0  0  0  0
M  END
>  <CHROM.1>
55.74824223,171.75915857,-134.89327597,-81.83774647,-108.22330386,135.42952026
-75.29864682,46.75316330,-168.84442936,-2.41821372,-2.99029428,-1.12254705
-2.15157299,-0.06594542,1.67006062

>  <Name>
1akx_lig

>  <RI>
0

>  <Rbt.Current_Directory>
/home/itssahil/PROJECTS/Mol_Feturizer/New_Systems/rnas/1akx

>  <Rbt.Executable>
rbdock ($Id: //depot/dev/client3/rdock/2013.1/src/exe/rbdock.cxx#4 $)

>  <Rbt.Library>
libRbt.so (2013.1, Build901 2013/11/27)

>  <Rbt.Parameter_File>
/export/apps/rDock/src/rDock_2013.1_src/data/scripts/dock_solv.prm

>  <Rbt.Receptor>
prm/pocket_docking_3.prm

>  <SCORE>
-26.6449

>  <SCORE.INTER>
-23.9664

>  <SCORE.INTER.CONST>
1

>  <SCORE.INTER.POLAR>
-3.55312

>  <SCORE.INTER.ROT>
8

>  <SCORE.INTER.SOLV>
4.93147

>  <SCORE.INTER.VDW>
-14.7111

>  <SCORE.INTER.norm>
-2.17877

>  <SCORE.INTRA>
-2.69075

>  <SCORE.INTRA.DIHEDRAL>
-4.72645

>  <SCORE.INTRA.DIHEDRAL.0>
21.6454

>  <SCORE.INTRA.POLAR>
0

>  <SCORE.INTRA.POLAR.0>
0

>  <SCORE.INTRA.REPUL>
0

>  <SCORE.INTRA.REPUL.0>
0

>  <SCORE.INTRA.SOLV>
0.530621

>  <SCORE.INTRA.SOLV.lig_0>
-16.5947

>  <SCORE.INTRA.VDW>
-0.592832

>  <SCORE.INTRA.VDW.0>
-0.691398

>  <SCORE.INTRA.norm>
-0.244613

>  <SCORE.RESTR>
0.0122768

>  <SCORE.RESTR.CAVITY>
0.0122768

>  <SCORE.RESTR.norm>
0.00111607

>  <SCORE.SYSTEM>
0

>  <SCORE.SYSTEM.CONST>
0

>  <SCORE.SYSTEM.DIHEDRAL>
0

>  <SCORE.SYSTEM.SOLV>
0

>  <SCORE.SYSTEM.norm>
0

>  <SCORE.heavy>
11

>  <SCORE.norm>
-2.42226

>  <RMSD>
5.662

$$$$
1akx_lig
 OpenBabel11021811383D
libRbt.so/2013.1/901 2013/11/27
 11 10  0  0  0  0  0  0  0  0999 V2000
   -4.1991   -2.0856   -4.5540 N   0  0  0  0  0  0  0  0  0  0  0  0
   -4.0654   -2.9915   -3.3751 C   0  0  2  0  0  0  0  0  0  0  0  0
   -5.4476   -3.5285   -2.9828 C   0  0  0  0  0  0  0  0  0  0  0  0
   -5.5520   -4.4362   -2.1819 O   0  0  0  0  0  0  0  0  0  0  0  0
   -3.4581   -2.2177   -2.1971 C   0  0  0  0  0  0  0  0  0  0  0  0
   -3.3078   -3.1487   -0.9896 C   0  0  0  0  0  0  0  0  0  0  0  0
   -1.8272   -3.2956   -0.6389 C   0  0  0  0  0  0  0  0  0  0  0  0
   -1.1999   -4.2956   -1.5493 N   0  0  0  0  0  0  0  0  0  0  0  0
   -0.5155   -5.2969   -1.0577 C   0  0  0  0  0  0  0  0  0  0  0  0
    0.2596   -5.1186   -0.0191 N   0  0  0  0  0  0  0  0  0  0  0  0
   -0.6121   -6.4799   -1.6028 N   0  0  0  0  0  0  0  0  0  0  0  0
  2  1  1  6  0  0  0
  2  3  1  0  0  0  0
  2  5  1  0  0  0  0
  3  4  1  0  0  0  0
  5  6  1  0  0  0  0
  6  7  1  0  0  0  0
  7  8  1  0  0  0  0
  8  9  1  0  0  0  0
  9 10  1  0  0  0  0
  9 11  1  0  0  0  0
M  END
>  <CHROM.1>
86.90739627,168.84176932,-179.48476570,116.66312203,-80.72284907,-127.76166112
-38.87911144,-64.52423081,58.97743501,-2.71370478,-3.91886386,-1.94998358
-2.59656323,0.40698429,2.91164791

>  <Name>
1akx_lig

>  <RI>
0

>  <Rbt.Current_Directory>
/home/itssahil/PROJECTS/Mol_Feturizer/New_Systems/rnas/1akx

>  <Rbt.Executable>
rbdock ($Id: //depot/dev/client3/rdock/2013.1/src/exe/rbdock.cxx#4 $)

>  <Rbt.Library>
libRbt.so (2013.1, Build901 2013/11/27)

>  <Rbt.Parameter_File>
/export/apps/rDock/src/rDock_2013.1_src/data/scripts/dock_solv.prm

>  <Rbt.Receptor>
prm/pocket_docking_4.prm

>  <SCORE>
-28.1113

>  <SCORE.INTER>
-26.4992

>  <SCORE.INTER.CONST>
1

>  <SCORE.INTER.POLAR>
-4.27843

>  <SCORE.INTER.ROT>
8

>  <SCORE.INTER.SOLV>
9.01536

>  <SCORE.INTER.VDW>
-15.3431

>  <SCORE.INTER.norm>
-2.40902

>  <SCORE.INTRA>
-1.6121

>  <SCORE.INTRA.DIHEDRAL>
-7.35251

>  <SCORE.INTRA.DIHEDRAL.0>
21.6454

>  <SCORE.INTRA.POLAR>
0

>  <SCORE.INTRA.POLAR.0>
0

>  <SCORE.INTRA.REPUL>
0

>  <SCORE.INTRA.REPUL.0>
0

>  <SCORE.INTRA.SOLV>
0.496505

>  <SCORE.INTRA.SOLV.lig_0>
-16.5947

>  <SCORE.INTRA.VDW>
1.81591

>  <SCORE.INTRA.VDW.0>
-0.691398

>  <SCORE.INTRA.norm>
-0.146554

>  <SCORE.RESTR>
0

>  <SCORE.RESTR.CAVITY>
0

>  <SCORE.RESTR.norm>
0

>  <SCORE.SYSTEM>
0

>  <SCORE.SYSTEM.CONST>
0

>  <SCORE.SYSTEM.DIHEDRAL>
0

>  <SCORE.SYSTEM.SOLV>
0

>  <SCORE.SYSTEM.norm>
0

>  <SCORE.heavy>
11

>  <SCORE.norm>
-2.55557

>  <RMSD>
5.678

$$$$
1akx_lig
 OpenBabel11021811383D
libRbt.so/2013.1/901 2013/11/27
 11 10  0  0  0  0  0  0  0  0999 V2000
   -4.1340   -2.1596   -4.3396 N   0  0  0  0  0  0  0  0  0  0  0  0
   -3.9489   -3.0380   -3.1470 C   0  0  2  0  0  0  0  0  0  0  0  0
   -5.2967   -3.2340   -2.4416 C   0  0  0  0  0  0  0  0  0  0  0  0
   -5.3820   -3.9473   -1.4617 O   0  0  0  0  0  0  0  0  0  0  0  0
   -2.9488   -2.3899   -2.1801 C   0  0  0  0  0  0  0  0  0  0  0  0
   -1.5213   -2.7873   -2.5697 C   0  0  0  0  0  0  0  0  0  0  0  0
   -0.9223   -3.6748   -1.4787 C   0  0  0  0  0  0  0  0  0  0  0  0
   -1.6628   -4.9677   -1.4303 N   0  0  0  0  0  0  0  0  0  0  0  0
   -1.0427   -6.0708   -1.0972 C   0  0  0  0  0  0  0  0  0  0  0  0
   -1.0031   -7.0811   -1.9273 N   0  0  0  0  0  0  0  0  0  0  0  0
   -0.4559   -6.1605    0.0662 N   0  0  0  0  0  0  0  0  0  0  0  0
  2  1  1  6  0  0  0
  2  3  1  0  0  0  0
  2  5  1  0  0  0  0
  3  4  1  0  0  0  0
  5  6  1  0  0  0  0
  6  7  1  0  0  0  0
  7  8  1  0  0  0  0
  8  9  1  0  0  0  0
  9 10  1  0  0  0  0
  9 11  1  0  0  0  0
M  END
>  <CHROM.1>
69.36975714,178.04815376,-86.87927548,-113.03230514,66.32048352,147.80602159
-120.63967856,-117.47715807,-52.03604585,-2.59124441,-4.16095066,-2.01102266
-2.31206723,0.01793043,2.60538505

>  <Name>
1akx_lig

>  <RI>
0

>  <Rbt.Current_Directory>
/home/afrankz/demos/rdock_decoys_rna/rnas/1akx

>  <Rbt.Executable>
rbdock ($Id: //depot/dev/client3/rdock/2013.1/src/exe/rbdock.cxx#4 $)

>  <Rbt.Library>
libRbt.so (2013.1, Build901 2013/11/27)

>  <Rbt.Parameter_File>
/export/apps/rDock/src/rDock_2013.1_src/data/scripts/dock_solv.prm

>  <Rbt.Receptor>
prm/pocket_docking_5.prm

>  <SCORE>
-29.5834

>  <SCORE.INTER>
-25.5548

>  <SCORE.INTER.CONST>
1

>  <SCORE.INTER.POLAR>
-3.40861

>  <SCORE.INTER.ROT>
8

>  <SCORE.INTER.SOLV>
7.61058

>  <SCORE.INTER.VDW>
-17.1447

>  <SCORE.INTER.norm>
-2.32317

>  <SCORE.INTRA>
-4.02855

>  <SCORE.INTRA.DIHEDRAL>
-8.08895

>  <SCORE.INTRA.DIHEDRAL.0>
21.6454

>  <SCORE.INTRA.POLAR>
0

>  <SCORE.INTRA.POLAR.0>
0

>  <SCORE.INTRA.REPUL>
0

>  <SCORE.INTRA.REPUL.0>
0

>  <SCORE.INTRA.SOLV>
0.64679

>  <SCORE.INTRA.SOLV.lig_0>
-16.5947

>  <SCORE.INTRA.VDW>
-0.307474

>  <SCORE.INTRA.VDW.0>
-0.691398

>  <SCORE.INTRA.norm>
-0.366232

>  <SCORE.RESTR>
0

>  <SCORE.RESTR.CAVITY>
0

>  <SCORE.RESTR.norm>
0

>  <SCORE.SYSTEM>
0

>  <SCORE.SYSTEM.CONST>
0

>  <SCORE.SYSTEM.DIHEDRAL>
0

>  <SCORE.SYSTEM.SOLV>
0

>  <SCORE.SYSTEM.norm>
0

>  <SCORE.heavy>
11

>  <SCORE.norm>
-2.6894

>  <RMSD>
5.680

>  <RMSD>
5.680

$$$$
1akx_lig
 OpenBabel11021811383D
libRbt.so/2013.1/901 2013/11/27
 11 10  0  0  0  0  0  0  0  0999 V2000
   -4.1340   -2.1596   -4.3396 N   0  0  0  0  0  0  0  0  0  0  0  0
   -3.9489   -3.0380   -3.1470 C   0  0  2  0  0  0  0  0  0  0  0  0
   -5.2967   -3.2340   -2.4416 C   0  0  0  0  0  0  0  0  0  0  0  0
   -5.3820   -3.9473   -1.4617 O   0  0  0  0  0  0  0  0  0  0  0  0
   -2.9488   -2.3899   -2.1801 C   0  0  0  0  0  0  0  0  0  0  0  0
   -1.5213   -2.7873   -2.5697 C   0  0  0  0  0  0  0  0  0  0  0  0
   -0.9223   -3.6748   -1.4787 C   0  0  0  0  0  0  0  0  0  0  0  0
   -1.6628   -4.9677   -1.4303 N   0  0  0  0  0  0  0  0  0  0  0  0
   -1.0427   -6.0708   -1.0972 C   0  0  0  0  0  0  0  0  0  0  0  0
   -1.0031   -7.0811   -1.9273 N   0  0  0  0  0  0  0  0  0  0  0  0
   -0.4559   -6.1605    0.0662 N   0  0  0  0  0  0  0  0  0  0  0  0
  2  1  1  6  0  0  0
  2  3  1  0  0  0  0
  2  5  1  0  0  0  0
  3  4  1  0  0  0  0
  5  6  1  0  0  0  0
  6  7  1  0  0  0  0
  7  8  1  0  0  0  0
  8  9  1  0  0  0  0
  9 10  1  0  0  0  0
  9 11  1  0  0  0  0
M  END
>  <CHROM.1>
69.36975714,178.04815376,-86.87927548,-113.03230514,66.32048352,147.80602159
-120.63967856,-117.47715807,-52.03604585,-2.59124441,-4.16095066,-2.01102266
-2.31206723,0.01793043,2.60538505

>  <Name>
1akx_lig

>  <RI>
0

>  <Rbt.Current_Directory>
/home/afrankz/demos/rdock_decoys_rna/rnas/1akx

>  <Rbt.Executable>
rbdock ($Id: //depot/dev/client3/rdock/2013.1/src/exe/rbdock.cxx#4 $)

>  <Rbt.Library>
libRbt.so (2013.1, Build901 2013/11/27)

>  <Rbt.Parameter_File>
/export/apps/rDock/src/rDock_2013.1_src/data/scripts/dock_solv.prm

>  <Rbt.Receptor>
prm/pocket_docking_5.prm

>  <SCORE>
-29.5834

>  <SCORE.INTER>
-25.5548

>  <SCORE.INTER.CONST>
1

>  <SCORE.INTER.POLAR>
-3.40861

>  <SCORE.INTER.ROT>
8

>  <SCORE.INTER.SOLV>
7.61058

>  <SCORE.INTER.VDW>
-17.1447

>  <SCORE.INTER.norm>
-2.32317

>  <SCORE.INTRA>
-4.02855

>  <SCORE.INTRA.DIHEDRAL>
-8.08895

>  <SCORE.INTRA.DIHEDRAL.0>
21.6454

>  <SCORE.INTRA.POLAR>
0

>  <SCORE.INTRA.POLAR.0>
0

>  <SCORE.INTRA.REPUL>
0

>  <SCORE.INTRA.REPUL.0>
0

>  <SCORE.INTRA.SOLV>
0.64679

>  <SCORE.INTRA.SOLV.lig_0>
-16.5947

>  <SCORE.INTRA.VDW>
-0.307474

>  <SCORE.INTRA.VDW.0>
-0.691398

>  <SCORE.INTRA.norm>
-0.366232

>  <SCORE.RESTR>
0

>  <SCORE.RESTR.CAVITY>
0

>  <SCORE.RESTR.norm>
0

>  <SCORE.SYSTEM>
0

>  <SCORE.SYSTEM.CONST>
0

>  <SCORE.SYSTEM.DIHEDRAL>
0

>  <SCORE.SYSTEM.SOLV>
0

>  <SCORE.SYSTEM.norm>
0

>  <SCORE.heavy>
11

>  <SCORE.norm>
-2.6894

>  <RMSD>
5.680

>  <RMSD>
5.680

$$$$
1akx_lig
 OpenBabel11021811383D
libRbt.so/2013.1/901 2013/11/27
 11 10  0  0  0  0  0  0  0  0999 V2000
   -4.2522   -2.3284   -4.0978 N   0  0  0  0  0  0  0  0  0  0  0  0
   -4.0067   -3.3432   -3.0310 C   0  0  2  0  0  0  0  0  0  0  0  0
   -5.3183   -3.6362   -2.2916 C   0  0  0  0  0  0  0  0  0  0  0  0
   -5.8556   -2.7749   -1.6240 O   0  0  0  0  0  0  0  0  0  0  0  0
   -2.9636   -2.8077   -2.0408 C   0  0  0  0  0  0  0  0  0  0  0  0
   -1.5816   -2.7955   -2.7021 C   0  0  0  0  0  0  0  0  0  0  0  0
   -0.4996   -2.7452   -1.6234 C   0  0  0  0  0  0  0  0  0  0  0  0
   -0.4223   -4.0666   -0.9378 N   0  0  0  0  0  0  0  0  0  0  0  0
   -0.7756   -4.1802    0.3170 C   0  0  0  0  0  0  0  0  0  0  0  0
   -0.6942   -3.1510    1.1204 N   0  0  0  0  0  0  0  0  0  0  0  0
   -1.2171   -5.3242    0.7669 N   0  0  0  0  0  0  0  0  0  0  0  0
  2  1  1  6  0  0  0
  2  3  1  0  0  0  0
  2  5  1  0  0  0  0
  3  4  1  0  0  0  0
  5  6  1  0  0  0  0
  6  7  1  0  0  0  0
  7  8  1  0  0  0  0
  8  9  1  0  0  0  0
  9 10  1  0  0  0  0
  9 11  1  0  0  0  0
M  END
>  <CHROM.1>
65.57428006,-65.92294999,-71.67555563,-160.25694892,72.33698440,-112.77562912
-26.84616288,-96.44619077,-91.61670469,-2.53224070,-3.37243022,-1.45884831
-2.46404298,0.05934316,2.00640727

>  <Name>
1akx_lig

>  <RI>
0

>  <Rbt.Current_Directory>
/home/itssahil/PROJECTS/Mol_Feturizer/New_Systems/rnas/1akx

>  <Rbt.Executable>
rbdock ($Id: //depot/dev/client3/rdock/2013.1/src/exe/rbdock.cxx#4 $)

>  <Rbt.Library>
libRbt.so (2013.1, Build901 2013/11/27)

>  <Rbt.Parameter_File>
/export/apps/rDock/src/rDock_2013.1_src/data/scripts/dock_solv.prm

>  <Rbt.Receptor>
prm/pocket_docking_3.prm

>  <SCORE>
-24.6454

>  <SCORE.INTER>
-18.0848

>  <SCORE.INTER.CONST>
1

>  <SCORE.INTER.POLAR>
-2.16069

>  <SCORE.INTER.ROT>
8

>  <SCORE.INTER.SOLV>
6.6237

>  <SCORE.INTER.VDW>
-15.9955

>  <SCORE.INTER.norm>
-1.64407

>  <SCORE.INTRA>
-6.56062

>  <SCORE.INTRA.DIHEDRAL>
-14.0538

>  <SCORE.INTRA.DIHEDRAL.0>
21.6454

>  <SCORE.INTRA.POLAR>
0

>  <SCORE.INTRA.POLAR.0>
0

>  <SCORE.INTRA.REPUL>
0

>  <SCORE.INTRA.REPUL.0>
0

>  <SCORE.INTRA.SOLV>
0.739673

>  <SCORE.INTRA.SOLV.lig_0>
-16.5947

>  <SCORE.INTRA.VDW>
0.0964532

>  <SCORE.INTRA.VDW.0>
-0.691398

>  <SCORE.INTRA.norm>
-0.59642

>  <SCORE.RESTR>
0

>  <SCORE.RESTR.CAVITY>
0

>  <SCORE.RESTR.norm>
0

>  <SCORE.SYSTEM>
0

>  <SCORE.SYSTEM.CONST>
0

>  <SCORE.SYSTEM.DIHEDRAL>
0

>  <SCORE.SYSTEM.SOLV>
0

>  <SCORE.SYSTEM.norm>
0

>  <SCORE.heavy>
11

>  <SCORE.norm>
-2.24049

>  <RMSD>
5.682

$$$$
1akx_lig
 OpenBabel11021811383D
libRbt.so/2013.1/901 2013/11/27
 11 10  0  0  0  0  0  0  0  0999 V2000
   -2.3987   -2.0934   -3.7991 N   0  0  0  0  0  0  0  0  0  0  0  0
   -3.1239   -3.1416   -3.0222 C   0  0  2  0  0  0  0  0  0  0  0  0
   -4.6351   -2.9755   -3.2253 C   0  0  0  0  0  0  0  0  0  0  0  0
   -5.4122   -3.7886   -2.7656 O   0  0  0  0  0  0  0  0  0  0  0  0
   -2.7845   -3.0052   -1.5317 C   0  0  0  0  0  0  0  0  0  0  0  0
   -1.2636   -2.9915   -1.3470 C   0  0  0  0  0  0  0  0  0  0  0  0
   -0.9306   -2.8366    0.1369 C   0  0  0  0  0  0  0  0  0  0  0  0
   -1.3580   -4.0619    0.8705 N   0  0  0  0  0  0  0  0  0  0  0  0
   -0.6406   -5.1543    0.8041 C   0  0  0  0  0  0  0  0  0  0  0  0
    0.6596   -5.0980    0.9370 N   0  0  0  0  0  0  0  0  0  0  0  0
   -1.2262   -6.3056    0.6106 N   0  0  0  0  0  0  0  0  0  0  0  0
  2  1  1  6  0  0  0
  2  3  1  0  0  0  0
  2  5  1  0  0  0  0
  3  4  1  0  0  0  0
  5  6  1  0  0  0  0
  6  7  1  0  0  0  0
  7  8  1  0  0  0  0
  8  9  1  0  0  0  0
  9 10  1  0  0  0  0
  9 11  1  0  0  0  0
M  END
>  <CHROM.1>
-48.97794081,174.26783834,-52.56045446,179.24329212,67.26283100,77.11166969
45.36084660,118.55321210,-51.33120226,-2.09907250,-3.78282214,-1.13243037
-2.31812475,0.42189814,2.41608911

>  <Name>
1akx_lig

>  <RI>
0

>  <Rbt.Current_Directory>
/home/afrankz/demos/rdock_decoys_rna/rnas/1akx

>  <Rbt.Executable>
rbdock ($Id: //depot/dev/client3/rdock/2013.1/src/exe/rbdock.cxx#4 $)

>  <Rbt.Library>
libRbt.so (2013.1, Build901 2013/11/27)

>  <Rbt.Parameter_File>
/export/apps/rDock/src/rDock_2013.1_src/data/scripts/dock_solv.prm

>  <Rbt.Receptor>
prm/pocket_docking_2.prm

>  <SCORE>
-26.8115

>  <SCORE.INTER>
-19.749

>  <SCORE.INTER.CONST>
1

>  <SCORE.INTER.POLAR>
-2.66184

>  <SCORE.INTER.ROT>
8

>  <SCORE.INTER.SOLV>
6.36279

>  <SCORE.INTER.VDW>
-15.3474

>  <SCORE.INTER.norm>
-1.79536

>  <SCORE.INTRA>
-7.08451

>  <SCORE.INTRA.DIHEDRAL>
-16.0189

>  <SCORE.INTRA.DIHEDRAL.0>
21.6454

>  <SCORE.INTRA.POLAR>
0

>  <SCORE.INTRA.POLAR.0>
0

>  <SCORE.INTRA.REPUL>
0

>  <SCORE.INTRA.REPUL.0>
0

>  <SCORE.INTRA.SOLV>
0.433103

>  <SCORE.INTRA.SOLV.lig_0>
-16.5947

>  <SCORE.INTRA.VDW>
0.70838

>  <SCORE.INTRA.VDW.0>
-0.691398

>  <SCORE.INTRA.norm>
-0.644047

>  <SCORE.RESTR>
0.0219964

>  <SCORE.RESTR.CAVITY>
0.0219964

>  <SCORE.RESTR.norm>
0.00199967

>  <SCORE.SYSTEM>
0

>  <SCORE.SYSTEM.CONST>
0

>  <SCORE.SYSTEM.DIHEDRAL>
0

>  <SCORE.SYSTEM.SOLV>
0

>  <SCORE.SYSTEM.norm>
0

>  <SCORE.heavy>
11

>  <SCORE.norm>
-2.43741

>  <RMSD>
5.689

>  <RMSD>
5.689

$$$$
1akx_lig
 OpenBabel11021811383D
libRbt.so/2013.1/901 2013/11/27
 11 10  0  0  0  0  0  0  0  0999 V2000
   -2.3987   -2.0934   -3.7991 N   0  0  0  0  0  0  0  0  0  0  0  0
   -3.1239   -3.1416   -3.0222 C   0  0  2  0  0  0  0  0  0  0  0  0
   -4.6351   -2.9755   -3.2253 C   0  0  0  0  0  0  0  0  0  0  0  0
   -5.4122   -3.7886   -2.7656 O   0  0  0  0  0  0  0  0  0  0  0  0
   -2.7845   -3.0052   -1.5317 C   0  0  0  0  0  0  0  0  0  0  0  0
   -1.2636   -2.9915   -1.3470 C   0  0  0  0  0  0  0  0  0  0  0  0
   -0.9306   -2.8366    0.1369 C   0  0  0  0  0  0  0  0  0  0  0  0
   -1.3580   -4.0619    0.8705 N   0  0  0  0  0  0  0  0  0  0  0  0
   -0.6406   -5.1543    0.8041 C   0  0  0  0  0  0  0  0  0  0  0  0
    0.6596   -5.0980    0.9370 N   0  0  0  0  0  0  0  0  0  0  0  0
   -1.2262   -6.3056    0.6106 N   0  0  0  0  0  0  0  0  0  0  0  0
  2  1  1  6  0  0  0
  2  3  1  0  0  0  0
  2  5  1  0  0  0  0
  3  4  1  0  0  0  0
  5  6  1  0  0  0  0
  6  7  1  0  0  0  0
  7  8  1  0  0  0  0
  8  9  1  0  0  0  0
  9 10  1  0  0  0  0
  9 11  1  0  0  0  0
M  END
>  <CHROM.1>
-48.97794081,174.26783834,-52.56045446,179.24329212,67.26283100,77.11166969
45.36084660,118.55321210,-51.33120226,-2.09907250,-3.78282214,-1.13243037
-2.31812475,0.42189814,2.41608911

>  <Name>
1akx_lig

>  <RI>
0

>  <Rbt.Current_Directory>
/home/afrankz/demos/rdock_decoys_rna/rnas/1akx

>  <Rbt.Executable>
rbdock ($Id: //depot/dev/client3/rdock/2013.1/src/exe/rbdock.cxx#4 $)

>  <Rbt.Library>
libRbt.so (2013.1, Build901 2013/11/27)

>  <Rbt.Parameter_File>
/export/apps/rDock/src/rDock_2013.1_src/data/scripts/dock_solv.prm

>  <Rbt.Receptor>
prm/pocket_docking_2.prm

>  <SCORE>
-26.8115

>  <SCORE.INTER>
-19.749

>  <SCORE.INTER.CONST>
1

>  <SCORE.INTER.POLAR>
-2.66184

>  <SCORE.INTER.ROT>
8

>  <SCORE.INTER.SOLV>
6.36279

>  <SCORE.INTER.VDW>
-15.3474

>  <SCORE.INTER.norm>
-1.79536

>  <SCORE.INTRA>
-7.08451

>  <SCORE.INTRA.DIHEDRAL>
-16.0189

>  <SCORE.INTRA.DIHEDRAL.0>
21.6454

>  <SCORE.INTRA.POLAR>
0

>  <SCORE.INTRA.POLAR.0>
0

>  <SCORE.INTRA.REPUL>
0

>  <SCORE.INTRA.REPUL.0>
0

>  <SCORE.INTRA.SOLV>
0.433103

>  <SCORE.INTRA.SOLV.lig_0>
-16.5947

>  <SCORE.INTRA.VDW>
0.70838

>  <SCORE.INTRA.VDW.0>
-0.691398

>  <SCORE.INTRA.norm>
-0.644047

>  <SCORE.RESTR>
0.0219964

>  <SCORE.RESTR.CAVITY>
0.0219964

>  <SCORE.RESTR.norm>
0.00199967

>  <SCORE.SYSTEM>
0

>  <SCORE.SYSTEM.CONST>
0

>  <SCORE.SYSTEM.DIHEDRAL>
0

>  <SCORE.SYSTEM.SOLV>
0

>  <SCORE.SYSTEM.norm>
0

>  <SCORE.heavy>
11

>  <SCORE.norm>
-2.43741

>  <RMSD>
5.689

>  <RMSD>
5.689

$$$$
1akx_lig
 OpenBabel11021811383D
libRbt.so/2013.1/901 2013/11/27
 11 10  0  0  0  0  0  0  0  0999 V2000
   -4.1280   -2.0700   -4.4838 N   0  0  0  0  0  0  0  0  0  0  0  0
   -3.5981   -2.7836   -3.2846 C   0  0  2  0  0  0  0  0  0  0  0  0
   -4.6378   -2.7332   -2.1579 C   0  0  0  0  0  0  0  0  0  0  0  0
   -4.4880   -3.3955   -1.1504 O   0  0  0  0  0  0  0  0  0  0  0  0
   -2.2983   -2.1135   -2.8189 C   0  0  0  0  0  0  0  0  0  0  0  0
   -1.3077   -3.1813   -2.3437 C   0  0  0  0  0  0  0  0  0  0  0  0
   -1.5539   -3.4850   -0.8659 C   0  0  0  0  0  0  0  0  0  0  0  0
   -0.5153   -4.4357   -0.3763 N   0  0  0  0  0  0  0  0  0  0  0  0
   -0.8468   -5.6532   -0.0294 C   0  0  0  0  0  0  0  0  0  0  0  0
   -0.5638   -6.0975    1.1680 N   0  0  0  0  0  0  0  0  0  0  0  0
   -1.4681   -6.4250   -0.8804 N   0  0  0  0  0  0  0  0  0  0  0  0
  2  1  1  6  0  0  0
  2  3  1  0  0  0  0
  2  5  1  0  0  0  0
  3  4  1  0  0  0  0
  5  6  1  0  0  0  0
  6  7  1  0  0  0  0
  7  8  1  0  0  0  0
  8  9  1  0  0  0  0
  9 10  1  0  0  0  0
  9 11  1  0  0  0  0
M  END
>  <CHROM.1>
-63.46809797,170.54666752,-141.98863565,-87.24790669,-175.16116805,-112.71287192
-123.70356026,126.39878323,51.81302575,-2.32617435,-3.87278249,-1.56746248
-2.14748482,-0.02224241,2.31572113

>  <Name>
1akx_lig

>  <RI>
0

>  <Rbt.Current_Directory>
/home/itssahil/PROJECTS/Mol_Feturizer/New_Systems/rnas/1akx

>  <Rbt.Executable>
rbdock ($Id: //depot/dev/client3/rdock/2013.1/src/exe/rbdock.cxx#4 $)

>  <Rbt.Library>
libRbt.so (2013.1, Build901 2013/11/27)

>  <Rbt.Parameter_File>
/export/apps/rDock/src/rDock_2013.1_src/data/scripts/dock_solv.prm

>  <Rbt.Receptor>
prm/pocket_docking_4.prm

>  <SCORE>
-30.0564

>  <SCORE.INTER>
-25.1565

>  <SCORE.INTER.CONST>
1

>  <SCORE.INTER.POLAR>
-3.60865

>  <SCORE.INTER.ROT>
8

>  <SCORE.INTER.SOLV>
6.39187

>  <SCORE.INTER.VDW>
-15.8061

>  <SCORE.INTER.norm>
-2.28695

>  <SCORE.INTRA>
-4.89993

>  <SCORE.INTRA.DIHEDRAL>
-9.65127

>  <SCORE.INTRA.DIHEDRAL.0>
21.6454

>  <SCORE.INTRA.POLAR>
0

>  <SCORE.INTRA.POLAR.0>
0

>  <SCORE.INTRA.REPUL>
0

>  <SCORE.INTRA.REPUL.0>
0

>  <SCORE.INTRA.SOLV>
0.407266

>  <SCORE.INTRA.SOLV.lig_0>
-16.5947

>  <SCORE.INTRA.VDW>
-0.277931

>  <SCORE.INTRA.VDW.0>
-0.691398

>  <SCORE.INTRA.norm>
-0.445448

>  <SCORE.RESTR>
0

>  <SCORE.RESTR.CAVITY>
0

>  <SCORE.RESTR.norm>
0

>  <SCORE.SYSTEM>
0

>  <SCORE.SYSTEM.CONST>
0

>  <SCORE.SYSTEM.DIHEDRAL>
0

>  <SCORE.SYSTEM.SOLV>
0

>  <SCORE.SYSTEM.norm>
0

>  <SCORE.heavy>
11

>  <SCORE.norm>
-2.7324

>  <RMSD>
5.702

$$$$
1akx_lig
 OpenBabel11021811383D
libRbt.so/2013.1/901 2013/11/27
 11 10  0  0  0  0  0  0  0  0999 V2000
   -3.9026   -2.0921   -4.3900 N   0  0  0  0  0  0  0  0  0  0  0  0
   -3.4275   -2.3350   -2.9960 C   0  0  2  0  0  0  0  0  0  0  0  0
   -2.3686   -3.4447   -3.0020 C   0  0  0  0  0  0  0  0  0  0  0  0
   -1.5170   -3.4798   -3.8679 O   0  0  0  0  0  0  0  0  0  0  0  0
   -4.6113   -2.7548   -2.1141 C   0  0  0  0  0  0  0  0  0  0  0  0
   -5.2479   -4.0300   -2.6762 C   0  0  0  0  0  0  0  0  0  0  0  0
   -5.6625   -4.9448   -1.5238 C   0  0  0  0  0  0  0  0  0  0  0  0
   -6.7690   -4.3046   -0.7570 N   0  0  0  0  0  0  0  0  0  0  0  0
   -6.6718   -4.1536    0.5392 C   0  0  0  0  0  0  0  0  0  0  0  0
   -6.0505   -3.1156    1.0370 N   0  0  0  0  0  0  0  0  0  0  0  0
   -7.2030   -5.0397    1.3383 N   0  0  0  0  0  0  0  0  0  0  0  0
  2  1  1  6  0  0  0
  2  3  1  0  0  0  0
  2  5  1  0  0  0  0
  3  4  1  0  0  0  0
  5  6  1  0  0  0  0
  6  7  1  0  0  0  0
  7  8  1  0  0  0  0
  8  9  1  0  0  0  0
  9 10  1  0  0  0  0
  9 11  1  0  0  0  0
M  END
>  <CHROM.1>
73.37518375,41.61986301,59.29600641,141.39174844,66.90902249,-126.99044737
84.62325466,108.59506167,-95.01457864,-4.85854109,-3.59557285,-1.68319370
0.85153488,0.09462417,-1.16520645

>  <Name>
1akx_lig

>  <RI>
0

>  <Rbt.Current_Directory>
/home/itssahil/PROJECTS/Mol_Feturizer/New_Systems/rnas/1akx

>  <Rbt.Executable>
rbdock ($Id: //depot/dev/client3/rdock/2013.1/src/exe/rbdock.cxx#4 $)

>  <Rbt.Library>
libRbt.so (2013.1, Build901 2013/11/27)

>  <Rbt.Parameter_File>
/export/apps/rDock/src/rDock_2013.1_src/data/scripts/dock_solv.prm

>  <Rbt.Receptor>
prm/pocket_docking_8.prm

>  <SCORE>
-32.1099

>  <SCORE.INTER>
-28.508

>  <SCORE.INTER.CONST>
1

>  <SCORE.INTER.POLAR>
-4.27688

>  <SCORE.INTER.ROT>
8

>  <SCORE.INTER.SOLV>
6.97724

>  <SCORE.INTER.VDW>
-16.0081

>  <SCORE.INTER.norm>
-2.59164

>  <SCORE.INTRA>
-3.60188

>  <SCORE.INTRA.DIHEDRAL>
-10.7136

>  <SCORE.INTRA.DIHEDRAL.0>
21.6454

>  <SCORE.INTRA.POLAR>
0

>  <SCORE.INTRA.POLAR.0>
0

>  <SCORE.INTRA.REPUL>
0

>  <SCORE.INTRA.REPUL.0>
0

>  <SCORE.INTRA.SOLV>
0.721508

>  <SCORE.INTRA.SOLV.lig_0>
-16.5947

>  <SCORE.INTRA.VDW>
1.39414

>  <SCORE.INTRA.VDW.0>
-0.691398

>  <SCORE.INTRA.norm>
-0.327444

>  <SCORE.RESTR>
0

>  <SCORE.RESTR.CAVITY>
0

>  <SCORE.RESTR.norm>
0

>  <SCORE.SYSTEM>
0

>  <SCORE.SYSTEM.CONST>
0

>  <SCORE.SYSTEM.DIHEDRAL>
0

>  <SCORE.SYSTEM.SOLV>
0

>  <SCORE.SYSTEM.norm>
0

>  <SCORE.heavy>
11

>  <SCORE.norm>
-2.91908

>  <RMSD>
5.704

$$$$
1akx_lig
 OpenBabel11021811383D
libRbt.so/2013.1/901 2013/11/27
 11 10  0  0  0  0  0  0  0  0999 V2000
   -2.8853    2.4128    4.1731 N   0  0  0  0  0  0  0  0  0  0  0  0
   -2.2638    1.0582    4.0894 C   0  0  2  0  0  0  0  0  0  0  0  0
   -1.5902    0.7206    5.4254 C   0  0  0  0  0  0  0  0  0  0  0  0
   -1.1789   -0.4019    5.6424 O   0  0  0  0  0  0  0  0  0  0  0  0
   -1.2196    1.0392    2.9647 C   0  0  0  0  0  0  0  0  0  0  0  0
   -0.5674   -0.3451    2.8884 C   0  0  0  0  0  0  0  0  0  0  0  0
   -1.6108   -1.3788    2.4645 C   0  0  0  0  0  0  0  0  0  0  0  0
   -1.8424   -1.2745    0.9956 N   0  0  0  0  0  0  0  0  0  0  0  0
   -1.1719   -2.0333    0.1667 C   0  0  0  0  0  0  0  0  0  0  0  0
    0.1333   -2.0911    0.2349 N   0  0  0  0  0  0  0  0  0  0  0  0
   -1.8092   -2.7404   -0.7276 N   0  0  0  0  0  0  0  0  0  0  0  0
  2  1  1  1  0  0  0
  2  3  1  0  0  0  0
  2  5  1  0  0  0  0
  3  4  1  0  0  0  0
  5  6  1  0  0  0  0
  6  7  1  0  0  0  0
  7  8  1  0  0  0  0
  8  9  1  0  0  0  0
  9 10  1  0  0  0  0
  9 11  1  0  0  0  0
M  END
>  <CHROM.1>
-59.71120778,170.01511116,179.28225170,65.67219784,77.58278394,93.56606123
-51.60954325,-20.61054295,90.26145488,-1.46572175,-0.45039156,2.56202862
1.80152533,-0.91331916,1.13967580

>  <Name>
1akx_lig

>  <RI>
0

>  <Rbt.Current_Directory>
/home/itssahil/PROJECTS/Mol_Feturizer/New_Systems/rnas/1akx

>  <Rbt.Executable>
rbdock ($Id: //depot/dev/client3/rdock/2013.1/src/exe/rbdock.cxx#4 $)

>  <Rbt.Library>
libRbt.so (2013.1, Build901 2013/11/27)

>  <Rbt.Parameter_File>
/export/apps/rDock/src/rDock_2013.1_src/data/scripts/dock_solv.prm

>  <Rbt.Receptor>
prm/pocket_docking_8.prm

>  <SCORE>
-16.6309

>  <SCORE.INTER>
-11.4517

>  <SCORE.INTER.CONST>
1

>  <SCORE.INTER.POLAR>
-3.38727

>  <SCORE.INTER.ROT>
8

>  <SCORE.INTER.SOLV>
4.11602

>  <SCORE.INTER.VDW>
-6.64888

>  <SCORE.INTER.norm>
-1.04106

>  <SCORE.INTRA>
-5.17927

>  <SCORE.INTRA.DIHEDRAL>
-15.2701

>  <SCORE.INTRA.DIHEDRAL.0>
21.6454

>  <SCORE.INTRA.POLAR>
0

>  <SCORE.INTRA.POLAR.0>
0

>  <SCORE.INTRA.REPUL>
0

>  <SCORE.INTRA.REPUL.0>
0

>  <SCORE.INTRA.SOLV>
0.759777

>  <SCORE.INTRA.SOLV.lig_0>
-16.5947

>  <SCORE.INTRA.VDW>
2.07588

>  <SCORE.INTRA.VDW.0>
-0.691398

>  <SCORE.INTRA.norm>
-0.470843

>  <SCORE.RESTR>
0

>  <SCORE.RESTR.CAVITY>
0

>  <SCORE.RESTR.norm>
0

>  <SCORE.SYSTEM>
0

>  <SCORE.SYSTEM.CONST>
0

>  <SCORE.SYSTEM.DIHEDRAL>
0

>  <SCORE.SYSTEM.SOLV>
0

>  <SCORE.SYSTEM.norm>
0

>  <SCORE.heavy>
11

>  <SCORE.norm>
-1.5119

>  <RMSD>
5.711

$$$$
1akx_lig
 OpenBabel11021811383D
libRbt.so/2013.1/901 2013/11/27
 11 10  0  0  0  0  0  0  0  0999 V2000
   -2.4086   -2.0695   -3.8067 N   0  0  0  0  0  0  0  0  0  0  0  0
   -3.1388   -3.1360   -3.0600 C   0  0  2  0  0  0  0  0  0  0  0  0
   -4.6496   -2.9510   -3.2498 C   0  0  0  0  0  0  0  0  0  0  0  0
   -5.4337   -3.7399   -2.7610 O   0  0  0  0  0  0  0  0  0  0  0  0
   -2.7909   -3.0505   -1.5677 C   0  0  0  0  0  0  0  0  0  0  0  0
   -1.2702   -3.0999   -1.3878 C   0  0  0  0  0  0  0  0  0  0  0  0
   -0.9213   -2.8548    0.0802 C   0  0  0  0  0  0  0  0  0  0  0  0
   -1.3633   -4.0219    0.8956 N   0  0  0  0  0  0  0  0  0  0  0  0
   -0.6517   -5.1199    0.9153 C   0  0  0  0  0  0  0  0  0  0  0  0
    0.6505   -5.0595    1.0247 N   0  0  0  0  0  0  0  0  0  0  0  0
   -1.2450   -6.2805    0.8319 N   0  0  0  0  0  0  0  0  0  0  0  0
  2  1  1  6  0  0  0
  2  3  1  0  0  0  0
  2  5  1  0  0  0  0
  3  4  1  0  0  0  0
  5  6  1  0  0  0  0
  6  7  1  0  0  0  0
  7  8  1  0  0  0  0
  8  9  1  0  0  0  0
  9 10  1  0  0  0  0
  9 11  1  0  0  0  0
M  END
>  <CHROM.1>
-53.56487243,177.58222823,-54.33722450,173.59523999,69.19600933,78.44617085
43.68911637,-58.74282703,-177.39628163,-2.10915726,-3.77475340,-1.10713438
-2.29237255,0.39491584,2.37179133

>  <Name>
1akx_lig

>  <RI>
0

>  <Rbt.Current_Directory>
/home/itssahil/PROJECTS/Mol_Feturizer/New_Systems/rnas/1akx

>  <Rbt.Executable>
rbdock ($Id: //depot/dev/client3/rdock/2013.1/src/exe/rbdock.cxx#4 $)

>  <Rbt.Library>
libRbt.so (2013.1, Build901 2013/11/27)

>  <Rbt.Parameter_File>
/export/apps/rDock/src/rDock_2013.1_src/data/scripts/dock_solv.prm

>  <Rbt.Receptor>
prm/pocket_docking_2.prm

>  <SCORE>
-26.6855

>  <SCORE.INTER>
-19.5531

>  <SCORE.INTER.CONST>
1

>  <SCORE.INTER.POLAR>
-2.73181

>  <SCORE.INTER.ROT>
8

>  <SCORE.INTER.SOLV>
6.27408

>  <SCORE.INTER.VDW>
-14.9541

>  <SCORE.INTER.norm>
-1.77756

>  <SCORE.INTRA>
-7.13241

>  <SCORE.INTRA.DIHEDRAL>
-16.1117

>  <SCORE.INTRA.DIHEDRAL.0>
21.6454

>  <SCORE.INTRA.POLAR>
0

>  <SCORE.INTRA.POLAR.0>
0

>  <SCORE.INTRA.REPUL>
0

>  <SCORE.INTRA.REPUL.0>
0

>  <SCORE.INTRA.SOLV>
0.427026

>  <SCORE.INTRA.SOLV.lig_0>
-16.5947

>  <SCORE.INTRA.VDW>
0.709927

>  <SCORE.INTRA.VDW.0>
-0.691398

>  <SCORE.INTRA.norm>
-0.648401

>  <SCORE.RESTR>
0

>  <SCORE.RESTR.CAVITY>
0

>  <SCORE.RESTR.norm>
0

>  <SCORE.SYSTEM>
0

>  <SCORE.SYSTEM.CONST>
0

>  <SCORE.SYSTEM.DIHEDRAL>
0

>  <SCORE.SYSTEM.SOLV>
0

>  <SCORE.SYSTEM.norm>
0

>  <SCORE.heavy>
11

>  <SCORE.norm>
-2.42596

>  <RMSD>
5.723

$$$$
1akx_lig
 OpenBabel11021811383D
libRbt.so/2013.1/901 2013/11/27
 11 10  0  0  0  0  0  0  0  0999 V2000
   -4.1268   -2.1913   -4.3073 N   0  0  0  0  0  0  0  0  0  0  0  0
   -3.8748   -3.0909   -3.1431 C   0  0  2  0  0  0  0  0  0  0  0  0
   -5.1914   -3.3455   -2.3985 C   0  0  0  0  0  0  0  0  0  0  0  0
   -6.0727   -4.0055   -2.9122 O   0  0  0  0  0  0  0  0  0  0  0  0
   -2.8629   -2.4342   -2.1942 C   0  0  0  0  0  0  0  0  0  0  0  0
   -1.4409   -2.8435   -2.5913 C   0  0  0  0  0  0  0  0  0  0  0  0
   -0.7405   -3.4846   -1.3933 C   0  0  0  0  0  0  0  0  0  0  0  0
   -0.5374   -2.4584   -0.3313 N   0  0  0  0  0  0  0  0  0  0  0  0
   -1.1776   -2.5510    0.8063 C   0  0  0  0  0  0  0  0  0  0  0  0
   -2.1793   -1.7508    1.0660 N   0  0  0  0  0  0  0  0  0  0  0  0
   -0.8184   -3.4504    1.6827 N   0  0  0  0  0  0  0  0  0  0  0  0
  2  1  1  6  0  0  0
  2  3  1  0  0  0  0
  2  5  1  0  0  0  0
  3  4  1  0  0  0  0
  5  6  1  0  0  0  0
  6  7  1  0  0  0  0
  7  8  1  0  0  0  0
  8  9  1  0  0  0  0
  9 10  1  0  0  0  0
  9 11  1  0  0  0  0
M  END
>  <CHROM.1>
68.47412985,68.75859172,-90.14889516,-123.86349977,-66.60306463,113.09173937
-105.89363692,17.03483963,-142.09469721,-2.66863157,-2.85780424,-1.42831080
-2.34488006,0.16863152,1.64025358

>  <Name>
1akx_lig

>  <RI>
0

>  <Rbt.Current_Directory>
/home/itssahil/PROJECTS/Mol_Feturizer/New_Systems/rnas/1akx

>  <Rbt.Executable>
rbdock ($Id: //depot/dev/client3/rdock/2013.1/src/exe/rbdock.cxx#4 $)

>  <Rbt.Library>
libRbt.so (2013.1, Build901 2013/11/27)

>  <Rbt.Parameter_File>
/export/apps/rDock/src/rDock_2013.1_src/data/scripts/dock_solv.prm

>  <Rbt.Receptor>
prm/pocket_docking_3.prm

>  <SCORE>
-29.0409

>  <SCORE.INTER>
-24.8258

>  <SCORE.INTER.CONST>
1

>  <SCORE.INTER.POLAR>
-3.23293

>  <SCORE.INTER.ROT>
8

>  <SCORE.INTER.SOLV>
7.83541

>  <SCORE.INTER.VDW>
-17.3192

>  <SCORE.INTER.norm>
-2.25689

>  <SCORE.INTRA>
-4.22564

>  <SCORE.INTRA.DIHEDRAL>
-7.21638

>  <SCORE.INTRA.DIHEDRAL.0>
21.6454

>  <SCORE.INTRA.POLAR>
0

>  <SCORE.INTRA.POLAR.0>
0

>  <SCORE.INTRA.REPUL>
0

>  <SCORE.INTRA.REPUL.0>
0

>  <SCORE.INTRA.SOLV>
0.590503

>  <SCORE.INTRA.SOLV.lig_0>
-16.5947

>  <SCORE.INTRA.VDW>
-0.9127

>  <SCORE.INTRA.VDW.0>
-0.691398

>  <SCORE.INTRA.norm>
-0.384149

>  <SCORE.RESTR>
0.0104681

>  <SCORE.RESTR.CAVITY>
0.0104681

>  <SCORE.RESTR.norm>
0.000951648

>  <SCORE.SYSTEM>
0

>  <SCORE.SYSTEM.CONST>
0

>  <SCORE.SYSTEM.DIHEDRAL>
0

>  <SCORE.SYSTEM.SOLV>
0

>  <SCORE.SYSTEM.norm>
0

>  <SCORE.heavy>
11

>  <SCORE.norm>
-2.64008

>  <RMSD>
5.725

$$$$
1akx_lig
 OpenBabel11021811383D
libRbt.so/2013.1/901 2013/11/27
 11 10  0  0  0  0  0  0  0  0999 V2000
   -4.1485   -2.0775   -4.4909 N   0  0  0  0  0  0  0  0  0  0  0  0
   -3.7042   -2.9128   -3.3362 C   0  0  2  0  0  0  0  0  0  0  0  0
   -4.6982   -2.7560   -2.1786 C   0  0  0  0  0  0  0  0  0  0  0  0
   -5.7891   -3.2890   -2.2259 O   0  0  0  0  0  0  0  0  0  0  0  0
   -2.3081   -2.4644   -2.8831 C   0  0  0  0  0  0  0  0  0  0  0  0
   -1.5577   -3.6512   -2.2700 C   0  0  0  0  0  0  0  0  0  0  0  0
   -1.6541   -3.5842   -0.7458 C   0  0  0  0  0  0  0  0  0  0  0  0
   -0.3918   -3.0142   -0.1946 N   0  0  0  0  0  0  0  0  0  0  0  0
   -0.4039   -1.8611    0.4239 C   0  0  0  0  0  0  0  0  0  0  0  0
   -1.5263   -1.3720    0.8846 N   0  0  0  0  0  0  0  0  0  0  0  0
    0.7104   -1.1995    0.5873 N   0  0  0  0  0  0  0  0  0  0  0  0
  2  1  1  6  0  0  0
  2  3  1  0  0  0  0
  2  5  1  0  0  0  0
  3  4  1  0  0  0  0
  5  6  1  0  0  0  0
  6  7  1  0  0  0  0
  7  8  1  0  0  0  0
  8  9  1  0  0  0  0
  9 10  1  0  0  0  0
  9 11  1  0  0  0  0
M  END
>  <CHROM.1>
49.35315994,74.18857100,-150.98556657,-98.88473848,-100.07679247,114.91032538
18.56044420,-63.40804254,-12.98823090,-2.33309382,-2.52934891,-1.49840213
-2.42914121,0.05151388,1.39534167

>  <Name>
1akx_lig

>  <RI>
0

>  <Rbt.Current_Directory>
/home/afrankz/demos/rdock_decoys_rna/rnas/1akx

>  <Rbt.Executable>
rbdock ($Id: //depot/dev/client3/rdock/2013.1/src/exe/rbdock.cxx#4 $)

>  <Rbt.Library>
libRbt.so (2013.1, Build901 2013/11/27)

>  <Rbt.Parameter_File>
/export/apps/rDock/src/rDock_2013.1_src/data/scripts/dock_solv.prm

>  <Rbt.Receptor>
prm/pocket_docking_7.prm

>  <SCORE>
-36.5704

>  <SCORE.INTER>
-34.6365

>  <SCORE.INTER.CONST>
1

>  <SCORE.INTER.POLAR>
-5.30902

>  <SCORE.INTER.ROT>
8

>  <SCORE.INTER.SOLV>
8.9503

>  <SCORE.INTER.VDW>
-17.311

>  <SCORE.INTER.norm>
-3.14877

>  <SCORE.INTRA>
-1.93389

>  <SCORE.INTRA.DIHEDRAL>
-4.51059

>  <SCORE.INTRA.DIHEDRAL.0>
21.6454

>  <SCORE.INTRA.POLAR>
0

>  <SCORE.INTRA.POLAR.0>
0

>  <SCORE.INTRA.REPUL>
0

>  <SCORE.INTRA.REPUL.0>
0

>  <SCORE.INTRA.SOLV>
0.434404

>  <SCORE.INTRA.SOLV.lig_0>
-16.5947

>  <SCORE.INTRA.VDW>
0.104204

>  <SCORE.INTRA.VDW.0>
-0.691398

>  <SCORE.INTRA.norm>
-0.175808

>  <SCORE.RESTR>
0

>  <SCORE.RESTR.CAVITY>
0

>  <SCORE.RESTR.norm>
0

>  <SCORE.SYSTEM>
0

>  <SCORE.SYSTEM.CONST>
0

>  <SCORE.SYSTEM.DIHEDRAL>
0

>  <SCORE.SYSTEM.SOLV>
0

>  <SCORE.SYSTEM.norm>
0

>  <SCORE.heavy>
11

>  <SCORE.norm>
-3.32458

>  <RMSD>
5.738

>  <RMSD>
5.738

$$$$
1akx_lig
 OpenBabel11021811383D
libRbt.so/2013.1/901 2013/11/27
 11 10  0  0  0  0  0  0  0  0999 V2000
   -4.1485   -2.0775   -4.4909 N   0  0  0  0  0  0  0  0  0  0  0  0
   -3.7042   -2.9128   -3.3362 C   0  0  2  0  0  0  0  0  0  0  0  0
   -4.6982   -2.7560   -2.1786 C   0  0  0  0  0  0  0  0  0  0  0  0
   -5.7891   -3.2890   -2.2259 O   0  0  0  0  0  0  0  0  0  0  0  0
   -2.3081   -2.4644   -2.8831 C   0  0  0  0  0  0  0  0  0  0  0  0
   -1.5577   -3.6512   -2.2700 C   0  0  0  0  0  0  0  0  0  0  0  0
   -1.6541   -3.5842   -0.7458 C   0  0  0  0  0  0  0  0  0  0  0  0
   -0.3918   -3.0142   -0.1946 N   0  0  0  0  0  0  0  0  0  0  0  0
   -0.4039   -1.8611    0.4239 C   0  0  0  0  0  0  0  0  0  0  0  0
   -1.5263   -1.3720    0.8846 N   0  0  0  0  0  0  0  0  0  0  0  0
    0.7104   -1.1995    0.5873 N   0  0  0  0  0  0  0  0  0  0  0  0
  2  1  1  6  0  0  0
  2  3  1  0  0  0  0
  2  5  1  0  0  0  0
  3  4  1  0  0  0  0
  5  6  1  0  0  0  0
  6  7  1  0  0  0  0
  7  8  1  0  0  0  0
  8  9  1  0  0  0  0
  9 10  1  0  0  0  0
  9 11  1  0  0  0  0
M  END
>  <CHROM.1>
49.35315994,74.18857100,-150.98556657,-98.88473848,-100.07679247,114.91032538
18.56044420,-63.40804254,-12.98823090,-2.33309382,-2.52934891,-1.49840213
-2.42914121,0.05151388,1.39534167

>  <Name>
1akx_lig

>  <RI>
0

>  <Rbt.Current_Directory>
/home/afrankz/demos/rdock_decoys_rna/rnas/1akx

>  <Rbt.Executable>
rbdock ($Id: //depot/dev/client3/rdock/2013.1/src/exe/rbdock.cxx#4 $)

>  <Rbt.Library>
libRbt.so (2013.1, Build901 2013/11/27)

>  <Rbt.Parameter_File>
/export/apps/rDock/src/rDock_2013.1_src/data/scripts/dock_solv.prm

>  <Rbt.Receptor>
prm/pocket_docking_7.prm

>  <SCORE>
-36.5704

>  <SCORE.INTER>
-34.6365

>  <SCORE.INTER.CONST>
1

>  <SCORE.INTER.POLAR>
-5.30902

>  <SCORE.INTER.ROT>
8

>  <SCORE.INTER.SOLV>
8.9503

>  <SCORE.INTER.VDW>
-17.311

>  <SCORE.INTER.norm>
-3.14877

>  <SCORE.INTRA>
-1.93389

>  <SCORE.INTRA.DIHEDRAL>
-4.51059

>  <SCORE.INTRA.DIHEDRAL.0>
21.6454

>  <SCORE.INTRA.POLAR>
0

>  <SCORE.INTRA.POLAR.0>
0

>  <SCORE.INTRA.REPUL>
0

>  <SCORE.INTRA.REPUL.0>
0

>  <SCORE.INTRA.SOLV>
0.434404

>  <SCORE.INTRA.SOLV.lig_0>
-16.5947

>  <SCORE.INTRA.VDW>
0.104204

>  <SCORE.INTRA.VDW.0>
-0.691398

>  <SCORE.INTRA.norm>
-0.175808

>  <SCORE.RESTR>
0

>  <SCORE.RESTR.CAVITY>
0

>  <SCORE.RESTR.norm>
0

>  <SCORE.SYSTEM>
0

>  <SCORE.SYSTEM.CONST>
0

>  <SCORE.SYSTEM.DIHEDRAL>
0

>  <SCORE.SYSTEM.SOLV>
0

>  <SCORE.SYSTEM.norm>
0

>  <SCORE.heavy>
11

>  <SCORE.norm>
-3.32458

>  <RMSD>
5.738

>  <RMSD>
5.738

$$$$
1akx_lig
 OpenBabel11021811383D
libRbt.so/2013.1/901 2013/11/27
 11 10  0  0  0  0  0  0  0  0999 V2000
   -4.1370   -2.0259   -4.5303 N   0  0  0  0  0  0  0  0  0  0  0  0
   -3.8366   -2.9060   -3.3627 C   0  0  2  0  0  0  0  0  0  0  0  0
   -5.0209   -2.8856   -2.3882 C   0  0  0  0  0  0  0  0  0  0  0  0
   -5.0523   -3.6443   -1.4397 O   0  0  0  0  0  0  0  0  0  0  0  0
   -2.5728   -2.4042   -2.6510 C   0  0  0  0  0  0  0  0  0  0  0  0
   -1.9496   -3.5443   -1.8391 C   0  0  0  0  0  0  0  0  0  0  0  0
   -0.8553   -2.9851   -0.9299 C   0  0  0  0  0  0  0  0  0  0  0  0
   -0.1069   -4.1128   -0.3050 N   0  0  0  0  0  0  0  0  0  0  0  0
   -0.7513   -5.0715    0.3099 C   0  0  0  0  0  0  0  0  0  0  0  0
   -0.6899   -6.2993   -0.1374 N   0  0  0  0  0  0  0  0  0  0  0  0
   -1.4532   -4.8018    1.3779 N   0  0  0  0  0  0  0  0  0  0  0  0
  2  1  1  6  0  0  0
  2  3  1  0  0  0  0
  2  5  1  0  0  0  0
  3  4  1  0  0  0  0
  5  6  1  0  0  0  0
  6  7  1  0  0  0  0
  7  8  1  0  0  0  0
  8  9  1  0  0  0  0
  9 10  1  0  0  0  0
  9 11  1  0  0  0  0
M  END
>  <CHROM.1>
56.87998143,171.95599536,-157.94373800,-169.40435693,-171.08805050,-51.39958478
116.79497829,-28.93656314,165.28100974,-2.41955092,-3.71203565,-1.44574190
-2.25537928,0.04792807,2.20636206

>  <Name>
1akx_lig

>  <RI>
0

>  <Rbt.Current_Directory>
/home/afrankz/demos/rdock_decoys_rna/rnas/1akx

>  <Rbt.Executable>
rbdock ($Id: //depot/dev/client3/rdock/2013.1/src/exe/rbdock.cxx#4 $)

>  <Rbt.Library>
libRbt.so (2013.1, Build901 2013/11/27)

>  <Rbt.Parameter_File>
/export/apps/rDock/src/rDock_2013.1_src/data/scripts/dock_solv.prm

>  <Rbt.Receptor>
prm/pocket_docking_5.prm

>  <SCORE>
-34.0561

>  <SCORE.INTER>
-27.9342

>  <SCORE.INTER.CONST>
1

>  <SCORE.INTER.POLAR>
-4.30553

>  <SCORE.INTER.ROT>
8

>  <SCORE.INTER.SOLV>
6.39436

>  <SCORE.INTER.VDW>
-15.3358

>  <SCORE.INTER.norm>
-2.53947

>  <SCORE.INTRA>
-6.12194

>  <SCORE.INTRA.DIHEDRAL>
-14.0833

>  <SCORE.INTRA.DIHEDRAL.0>
21.6454

>  <SCORE.INTRA.POLAR>
0

>  <SCORE.INTRA.POLAR.0>
0

>  <SCORE.INTRA.REPUL>
0

>  <SCORE.INTRA.REPUL.0>
0

>  <SCORE.INTRA.SOLV>
0.364426

>  <SCORE.INTRA.SOLV.lig_0>
-16.5947

>  <SCORE.INTRA.VDW>
0.737507

>  <SCORE.INTRA.VDW.0>
-0.691398

>  <SCORE.INTRA.norm>
-0.55654

>  <SCORE.RESTR>
0

>  <SCORE.RESTR.CAVITY>
0

>  <SCORE.RESTR.norm>
0

>  <SCORE.SYSTEM>
0

>  <SCORE.SYSTEM.CONST>
0

>  <SCORE.SYSTEM.DIHEDRAL>
0

>  <SCORE.SYSTEM.SOLV>
0

>  <SCORE.SYSTEM.norm>
0

>  <SCORE.heavy>
11

>  <SCORE.norm>
-3.09601

>  <RMSD>
5.759

>  <RMSD>
5.759

$$$$
1akx_lig
 OpenBabel11021811383D
libRbt.so/2013.1/901 2013/11/27
 11 10  0  0  0  0  0  0  0  0999 V2000
   -4.1370   -2.0259   -4.5303 N   0  0  0  0  0  0  0  0  0  0  0  0
   -3.8366   -2.9060   -3.3627 C   0  0  2  0  0  0  0  0  0  0  0  0
   -5.0209   -2.8856   -2.3882 C   0  0  0  0  0  0  0  0  0  0  0  0
   -5.0523   -3.6443   -1.4397 O   0  0  0  0  0  0  0  0  0  0  0  0
   -2.5728   -2.4042   -2.6510 C   0  0  0  0  0  0  0  0  0  0  0  0
   -1.9496   -3.5443   -1.8391 C   0  0  0  0  0  0  0  0  0  0  0  0
   -0.8553   -2.9851   -0.9299 C   0  0  0  0  0  0  0  0  0  0  0  0
   -0.1069   -4.1128   -0.3050 N   0  0  0  0  0  0  0  0  0  0  0  0
   -0.7513   -5.0715    0.3099 C   0  0  0  0  0  0  0  0  0  0  0  0
   -0.6899   -6.2993   -0.1374 N   0  0  0  0  0  0  0  0  0  0  0  0
   -1.4532   -4.8018    1.3779 N   0  0  0  0  0  0  0  0  0  0  0  0
  2  1  1  6  0  0  0
  2  3  1  0  0  0  0
  2  5  1  0  0  0  0
  3  4  1  0  0  0  0
  5  6  1  0  0  0  0
  6  7  1  0  0  0  0
  7  8  1  0  0  0  0
  8  9  1  0  0  0  0
  9 10  1  0  0  0  0
  9 11  1  0  0  0  0
M  END
>  <CHROM.1>
56.87998143,171.95599536,-157.94373800,-169.40435693,-171.08805050,-51.39958478
116.79497829,-28.93656314,165.28100974,-2.41955092,-3.71203565,-1.44574190
-2.25537928,0.04792807,2.20636206

>  <Name>
1akx_lig

>  <RI>
0

>  <Rbt.Current_Directory>
/home/afrankz/demos/rdock_decoys_rna/rnas/1akx

>  <Rbt.Executable>
rbdock ($Id: //depot/dev/client3/rdock/2013.1/src/exe/rbdock.cxx#4 $)

>  <Rbt.Library>
libRbt.so (2013.1, Build901 2013/11/27)

>  <Rbt.Parameter_File>
/export/apps/rDock/src/rDock_2013.1_src/data/scripts/dock_solv.prm

>  <Rbt.Receptor>
prm/pocket_docking_5.prm

>  <SCORE>
-34.0561

>  <SCORE.INTER>
-27.9342

>  <SCORE.INTER.CONST>
1

>  <SCORE.INTER.POLAR>
-4.30553

>  <SCORE.INTER.ROT>
8

>  <SCORE.INTER.SOLV>
6.39436

>  <SCORE.INTER.VDW>
-15.3358

>  <SCORE.INTER.norm>
-2.53947

>  <SCORE.INTRA>
-6.12194

>  <SCORE.INTRA.DIHEDRAL>
-14.0833

>  <SCORE.INTRA.DIHEDRAL.0>
21.6454

>  <SCORE.INTRA.POLAR>
0

>  <SCORE.INTRA.POLAR.0>
0

>  <SCORE.INTRA.REPUL>
0

>  <SCORE.INTRA.REPUL.0>
0

>  <SCORE.INTRA.SOLV>
0.364426

>  <SCORE.INTRA.SOLV.lig_0>
-16.5947

>  <SCORE.INTRA.VDW>
0.737507

>  <SCORE.INTRA.VDW.0>
-0.691398

>  <SCORE.INTRA.norm>
-0.55654

>  <SCORE.RESTR>
0

>  <SCORE.RESTR.CAVITY>
0

>  <SCORE.RESTR.norm>
0

>  <SCORE.SYSTEM>
0

>  <SCORE.SYSTEM.CONST>
0

>  <SCORE.SYSTEM.DIHEDRAL>
0

>  <SCORE.SYSTEM.SOLV>
0

>  <SCORE.SYSTEM.norm>
0

>  <SCORE.heavy>
11

>  <SCORE.norm>
-3.09601

>  <RMSD>
5.759

>  <RMSD>
5.759

$$$$
1akx_lig
 OpenBabel11021811383D
libRbt.so/2013.1/901 2013/11/27
 11 10  0  0  0  0  0  0  0  0999 V2000
   -4.1026   -2.1237   -4.4580 N   0  0  0  0  0  0  0  0  0  0  0  0
   -3.5109   -2.8256   -3.2810 C   0  0  2  0  0  0  0  0  0  0  0  0
   -4.4673   -2.7176   -2.0867 C   0  0  0  0  0  0  0  0  0  0  0  0
   -5.5611   -3.2454   -2.1227 O   0  0  0  0  0  0  0  0  0  0  0  0
   -2.1629   -2.1852   -2.9234 C   0  0  0  0  0  0  0  0  0  0  0  0
   -1.4287   -3.0613   -1.9032 C   0  0  0  0  0  0  0  0  0  0  0  0
   -1.8048   -2.6221   -0.4881 C   0  0  0  0  0  0  0  0  0  0  0  0
   -0.7694   -3.1023    0.4708 N   0  0  0  0  0  0  0  0  0  0  0  0
   -0.6799   -4.3750    0.7620 C   0  0  0  0  0  0  0  0  0  0  0  0
   -1.7552   -5.0625    1.0492 N   0  0  0  0  0  0  0  0  0  0  0  0
    0.4870   -4.9618    0.7596 N   0  0  0  0  0  0  0  0  0  0  0  0
  2  1  1  6  0  0  0
  2  3  1  0  0  0  0
  2  5  1  0  0  0  0
  3  4  1  0  0  0  0
  5  6  1  0  0  0  0
  6  7  1  0  0  0  0
  7  8  1  0  0  0  0
  8  9  1  0  0  0  0
  9 10  1  0  0  0  0
  9 11  1  0  0  0  0
M  END
>  <CHROM.1>
52.07355424,64.83780108,-169.05947181,-90.43502428,-159.80800714,-71.57665289
-46.42458559,-18.87373075,159.46407336,-2.36296675,-3.31229072,-1.29839653
-2.27521462,0.12491037,2.11198708

>  <Name>
1akx_lig

>  <RI>
0

>  <Rbt.Current_Directory>
/home/itssahil/PROJECTS/Mol_Feturizer/New_Systems/rnas/1akx

>  <Rbt.Executable>
rbdock ($Id: //depot/dev/client3/rdock/2013.1/src/exe/rbdock.cxx#4 $)

>  <Rbt.Library>
libRbt.so (2013.1, Build901 2013/11/27)

>  <Rbt.Parameter_File>
/export/apps/rDock/src/rDock_2013.1_src/data/scripts/dock_solv.prm

>  <Rbt.Receptor>
prm/pocket_docking_4.prm

>  <SCORE>
-31.0527

>  <SCORE.INTER>
-26.6606

>  <SCORE.INTER.CONST>
1

>  <SCORE.INTER.POLAR>
-3.50649

>  <SCORE.INTER.ROT>
8

>  <SCORE.INTER.SOLV>
6.60739

>  <SCORE.INTER.VDW>
-17.2212

>  <SCORE.INTER.norm>
-2.42369

>  <SCORE.INTRA>
-4.39214

>  <SCORE.INTRA.DIHEDRAL>
-11.6029

>  <SCORE.INTRA.DIHEDRAL.0>
21.6454

>  <SCORE.INTRA.POLAR>
0

>  <SCORE.INTRA.POLAR.0>
0

>  <SCORE.INTRA.REPUL>
0

>  <SCORE.INTRA.REPUL.0>
0

>  <SCORE.INTRA.SOLV>
0.479763

>  <SCORE.INTRA.SOLV.lig_0>
-16.5947

>  <SCORE.INTRA.VDW>
1.16943

>  <SCORE.INTRA.VDW.0>
-0.691398

>  <SCORE.INTRA.norm>
-0.399285

>  <SCORE.RESTR>
0

>  <SCORE.RESTR.CAVITY>
0

>  <SCORE.RESTR.norm>
0

>  <SCORE.SYSTEM>
0

>  <SCORE.SYSTEM.CONST>
0

>  <SCORE.SYSTEM.DIHEDRAL>
0

>  <SCORE.SYSTEM.SOLV>
0

>  <SCORE.SYSTEM.norm>
0

>  <SCORE.heavy>
11

>  <SCORE.norm>
-2.82297

>  <RMSD>
5.766

$$$$
1akx_lig
 OpenBabel11021811383D
libRbt.so/2013.1/901 2013/11/27
 11 10  0  0  0  0  0  0  0  0999 V2000
   -4.1615   -2.0251   -4.5598 N   0  0  0  0  0  0  0  0  0  0  0  0
   -3.8085   -2.8666   -3.3785 C   0  0  2  0  0  0  0  0  0  0  0  0
   -4.9829   -2.8824   -2.3920 C   0  0  0  0  0  0  0  0  0  0  0  0
   -4.9291   -3.5522   -1.3798 O   0  0  0  0  0  0  0  0  0  0  0  0
   -2.5630   -2.2917   -2.6903 C   0  0  0  0  0  0  0  0  0  0  0  0
   -1.9360   -3.3556   -1.7835 C   0  0  0  0  0  0  0  0  0  0  0  0
   -0.9124   -2.6988   -0.8575 C   0  0  0  0  0  0  0  0  0  0  0  0
   -0.1620   -3.7553   -0.1205 N   0  0  0  0  0  0  0  0  0  0  0  0
   -0.7568   -4.4612    0.8071 C   0  0  0  0  0  0  0  0  0  0  0  0
   -0.9393   -3.9597    2.0015 N   0  0  0  0  0  0  0  0  0  0  0  0
   -1.1752   -5.6686    0.5368 N   0  0  0  0  0  0  0  0  0  0  0  0
  2  1  1  6  0  0  0
  2  3  1  0  0  0  0
  2  5  1  0  0  0  0
  3  4  1  0  0  0  0
  5  6  1  0  0  0  0
  6  7  1  0  0  0  0
  7  8  1  0  0  0  0
  8  9  1  0  0  0  0
  9 10  1  0  0  0  0
  9 11  1  0  0  0  0
M  END
>  <CHROM.1>
60.17044542,177.13576881,-162.00354138,-166.65384354,-171.71683815,-70.34857697
-78.83769334,149.57641154,-153.57119532,-2.41038094,-3.42095187,-1.25139518
-2.22863707,0.17096201,2.10838379

>  <Name>
1akx_lig

>  <RI>
0

>  <Rbt.Current_Directory>
/home/afrankz/demos/rdock_decoys_rna/rnas/1akx

>  <Rbt.Executable>
rbdock ($Id: //depot/dev/client3/rdock/2013.1/src/exe/rbdock.cxx#4 $)

>  <Rbt.Library>
libRbt.so (2013.1, Build901 2013/11/27)

>  <Rbt.Parameter_File>
/export/apps/rDock/src/rDock_2013.1_src/data/scripts/dock_solv.prm

>  <Rbt.Receptor>
prm/pocket_docking_2.prm

>  <SCORE>
-30.8141

>  <SCORE.INTER>
-24.4767

>  <SCORE.INTER.CONST>
1

>  <SCORE.INTER.POLAR>
-3.67255

>  <SCORE.INTER.ROT>
8

>  <SCORE.INTER.SOLV>
5.55653

>  <SCORE.INTER.VDW>
-14.8615

>  <SCORE.INTER.norm>
-2.22515

>  <SCORE.INTRA>
-6.89108

>  <SCORE.INTRA.DIHEDRAL>
-14.6352

>  <SCORE.INTRA.DIHEDRAL.0>
21.6454

>  <SCORE.INTRA.POLAR>
0

>  <SCORE.INTRA.POLAR.0>
0

>  <SCORE.INTRA.REPUL>
0

>  <SCORE.INTRA.REPUL.0>
0

>  <SCORE.INTRA.SOLV>
0.339512

>  <SCORE.INTRA.SOLV.lig_0>
-16.5947

>  <SCORE.INTRA.VDW>
0.256756

>  <SCORE.INTRA.VDW.0>
-0.691398

>  <SCORE.INTRA.norm>
-0.626461

>  <SCORE.RESTR>
0.553651

>  <SCORE.RESTR.CAVITY>
0.553651

>  <SCORE.RESTR.norm>
0.0503319

>  <SCORE.SYSTEM>
0

>  <SCORE.SYSTEM.CONST>
0

>  <SCORE.SYSTEM.DIHEDRAL>
0

>  <SCORE.SYSTEM.SOLV>
0

>  <SCORE.SYSTEM.norm>
0

>  <SCORE.heavy>
11

>  <SCORE.norm>
-2.80128

>  <RMSD>
5.768

>  <RMSD>
5.768

$$$$
1akx_lig
 OpenBabel11021811383D
libRbt.so/2013.1/901 2013/11/27
 11 10  0  0  0  0  0  0  0  0999 V2000
   -4.1615   -2.0251   -4.5598 N   0  0  0  0  0  0  0  0  0  0  0  0
   -3.8085   -2.8666   -3.3785 C   0  0  2  0  0  0  0  0  0  0  0  0
   -4.9829   -2.8824   -2.3920 C   0  0  0  0  0  0  0  0  0  0  0  0
   -4.9291   -3.5522   -1.3798 O   0  0  0  0  0  0  0  0  0  0  0  0
   -2.5630   -2.2917   -2.6903 C   0  0  0  0  0  0  0  0  0  0  0  0
   -1.9360   -3.3556   -1.7835 C   0  0  0  0  0  0  0  0  0  0  0  0
   -0.9124   -2.6988   -0.8575 C   0  0  0  0  0  0  0  0  0  0  0  0
   -0.1620   -3.7553   -0.1205 N   0  0  0  0  0  0  0  0  0  0  0  0
   -0.7568   -4.4612    0.8071 C   0  0  0  0  0  0  0  0  0  0  0  0
   -0.9393   -3.9597    2.0015 N   0  0  0  0  0  0  0  0  0  0  0  0
   -1.1752   -5.6686    0.5368 N   0  0  0  0  0  0  0  0  0  0  0  0
  2  1  1  6  0  0  0
  2  3  1  0  0  0  0
  2  5  1  0  0  0  0
  3  4  1  0  0  0  0
  5  6  1  0  0  0  0
  6  7  1  0  0  0  0
  7  8  1  0  0  0  0
  8  9  1  0  0  0  0
  9 10  1  0  0  0  0
  9 11  1  0  0  0  0
M  END
>  <CHROM.1>
60.17044542,177.13576881,-162.00354138,-166.65384354,-171.71683815,-70.34857697
-78.83769334,149.57641154,-153.57119532,-2.41038094,-3.42095187,-1.25139518
-2.22863707,0.17096201,2.10838379

>  <Name>
1akx_lig

>  <RI>
0

>  <Rbt.Current_Directory>
/home/afrankz/demos/rdock_decoys_rna/rnas/1akx

>  <Rbt.Executable>
rbdock ($Id: //depot/dev/client3/rdock/2013.1/src/exe/rbdock.cxx#4 $)

>  <Rbt.Library>
libRbt.so (2013.1, Build901 2013/11/27)

>  <Rbt.Parameter_File>
/export/apps/rDock/src/rDock_2013.1_src/data/scripts/dock_solv.prm

>  <Rbt.Receptor>
prm/pocket_docking_2.prm

>  <SCORE>
-30.8141

>  <SCORE.INTER>
-24.4767

>  <SCORE.INTER.CONST>
1

>  <SCORE.INTER.POLAR>
-3.67255

>  <SCORE.INTER.ROT>
8

>  <SCORE.INTER.SOLV>
5.55653

>  <SCORE.INTER.VDW>
-14.8615

>  <SCORE.INTER.norm>
-2.22515

>  <SCORE.INTRA>
-6.89108

>  <SCORE.INTRA.DIHEDRAL>
-14.6352

>  <SCORE.INTRA.DIHEDRAL.0>
21.6454

>  <SCORE.INTRA.POLAR>
0

>  <SCORE.INTRA.POLAR.0>
0

>  <SCORE.INTRA.REPUL>
0

>  <SCORE.INTRA.REPUL.0>
0

>  <SCORE.INTRA.SOLV>
0.339512

>  <SCORE.INTRA.SOLV.lig_0>
-16.5947

>  <SCORE.INTRA.VDW>
0.256756

>  <SCORE.INTRA.VDW.0>
-0.691398

>  <SCORE.INTRA.norm>
-0.626461

>  <SCORE.RESTR>
0.553651

>  <SCORE.RESTR.CAVITY>
0.553651

>  <SCORE.RESTR.norm>
0.0503319

>  <SCORE.SYSTEM>
0

>  <SCORE.SYSTEM.CONST>
0

>  <SCORE.SYSTEM.DIHEDRAL>
0

>  <SCORE.SYSTEM.SOLV>
0

>  <SCORE.SYSTEM.norm>
0

>  <SCORE.heavy>
11

>  <SCORE.norm>
-2.80128

>  <RMSD>
5.768

>  <RMSD>
5.768

$$$$
1akx_lig
 OpenBabel11021811383D
libRbt.so/2013.1/901 2013/11/27
 11 10  0  0  0  0  0  0  0  0999 V2000
   -4.1870   -2.3547   -4.0945 N   0  0  0  0  0  0  0  0  0  0  0  0
   -3.8916   -3.2566   -2.9424 C   0  0  2  0  0  0  0  0  0  0  0  0
   -5.2075   -3.7273   -2.3102 C   0  0  0  0  0  0  0  0  0  0  0  0
   -5.9866   -4.4106   -2.9445 O   0  0  0  0  0  0  0  0  0  0  0  0
   -3.0573   -2.5022   -1.8983 C   0  0  0  0  0  0  0  0  0  0  0  0
   -1.6052   -2.3964   -2.3752 C   0  0  0  0  0  0  0  0  0  0  0  0
   -0.7283   -3.3438   -1.5563 C   0  0  0  0  0  0  0  0  0  0  0  0
   -0.6665   -2.8659   -0.1456 N   0  0  0  0  0  0  0  0  0  0  0  0
   -0.4488   -3.7122    0.8284 C   0  0  0  0  0  0  0  0  0  0  0  0
    0.4373   -4.6644    0.6884 N   0  0  0  0  0  0  0  0  0  0  0  0
   -1.1145   -3.6013    1.9467 N   0  0  0  0  0  0  0  0  0  0  0  0
  2  1  1  6  0  0  0
  2  3  1  0  0  0  0
  2  5  1  0  0  0  0
  3  4  1  0  0  0  0
  5  6  1  0  0  0  0
  6  7  1  0  0  0  0
  7  8  1  0  0  0  0
  8  9  1  0  0  0  0
  9 10  1  0  0  0  0
  9 11  1  0  0  0  0
M  END
>  <CHROM.1>
-167.17425301,63.73318112,-76.45883295,-106.96060251,-67.22985080,153.26490172
41.31161642,-140.26451667,111.43751743,-2.42413533,-3.35204434,-1.34595810
-2.48032226,0.31333277,2.05923709

>  <Name>
1akx_lig

>  <RI>
0

>  <Rbt.Current_Directory>
/home/afrankz/demos/rdock_decoys_rna/rnas/1akx

>  <Rbt.Executable>
rbdock ($Id: //depot/dev/client3/rdock/2013.1/src/exe/rbdock.cxx#4 $)

>  <Rbt.Library>
libRbt.so (2013.1, Build901 2013/11/27)

>  <Rbt.Parameter_File>
/export/apps/rDock/src/rDock_2013.1_src/data/scripts/dock_solv.prm

>  <Rbt.Receptor>
prm/pocket_docking_4.prm

>  <SCORE>
-28.4875

>  <SCORE.INTER>
-23.8119

>  <SCORE.INTER.CONST>
1

>  <SCORE.INTER.POLAR>
-3.11936

>  <SCORE.INTER.ROT>
8

>  <SCORE.INTER.SOLV>
7.26514

>  <SCORE.INTER.VDW>
-16.8318

>  <SCORE.INTER.norm>
-2.16472

>  <SCORE.INTRA>
-4.67564

>  <SCORE.INTRA.DIHEDRAL>
-9.75144

>  <SCORE.INTRA.DIHEDRAL.0>
21.6454

>  <SCORE.INTRA.POLAR>
0

>  <SCORE.INTRA.POLAR.0>
0

>  <SCORE.INTRA.REPUL>
0

>  <SCORE.INTRA.REPUL.0>
0

>  <SCORE.INTRA.SOLV>
0.37509

>  <SCORE.INTRA.SOLV.lig_0>
-16.5947

>  <SCORE.INTRA.VDW>
0.0125325

>  <SCORE.INTRA.VDW.0>
-0.691398

>  <SCORE.INTRA.norm>
-0.425059

>  <SCORE.RESTR>
0

>  <SCORE.RESTR.CAVITY>
0

>  <SCORE.RESTR.norm>
0

>  <SCORE.SYSTEM>
0

>  <SCORE.SYSTEM.CONST>
0

>  <SCORE.SYSTEM.DIHEDRAL>
0

>  <SCORE.SYSTEM.SOLV>
0

>  <SCORE.SYSTEM.norm>
0

>  <SCORE.heavy>
11

>  <SCORE.norm>
-2.58978

>  <RMSD>
5.771

>  <RMSD>
5.771

$$$$
1akx_lig
 OpenBabel11021811383D
libRbt.so/2013.1/901 2013/11/27
 11 10  0  0  0  0  0  0  0  0999 V2000
   -4.1870   -2.3547   -4.0945 N   0  0  0  0  0  0  0  0  0  0  0  0
   -3.8916   -3.2566   -2.9424 C   0  0  2  0  0  0  0  0  0  0  0  0
   -5.2075   -3.7273   -2.3102 C   0  0  0  0  0  0  0  0  0  0  0  0
   -5.9866   -4.4106   -2.9445 O   0  0  0  0  0  0  0  0  0  0  0  0
   -3.0573   -2.5022   -1.8983 C   0  0  0  0  0  0  0  0  0  0  0  0
   -1.6052   -2.3964   -2.3752 C   0  0  0  0  0  0  0  0  0  0  0  0
   -0.7283   -3.3438   -1.5563 C   0  0  0  0  0  0  0  0  0  0  0  0
   -0.6665   -2.8659   -0.1456 N   0  0  0  0  0  0  0  0  0  0  0  0
   -0.4488   -3.7122    0.8284 C   0  0  0  0  0  0  0  0  0  0  0  0
    0.4373   -4.6644    0.6884 N   0  0  0  0  0  0  0  0  0  0  0  0
   -1.1145   -3.6013    1.9467 N   0  0  0  0  0  0  0  0  0  0  0  0
  2  1  1  6  0  0  0
  2  3  1  0  0  0  0
  2  5  1  0  0  0  0
  3  4  1  0  0  0  0
  5  6  1  0  0  0  0
  6  7  1  0  0  0  0
  7  8  1  0  0  0  0
  8  9  1  0  0  0  0
  9 10  1  0  0  0  0
  9 11  1  0  0  0  0
M  END
>  <CHROM.1>
-167.17425301,63.73318112,-76.45883295,-106.96060251,-67.22985080,153.26490172
41.31161642,-140.26451667,111.43751743,-2.42413533,-3.35204434,-1.34595810
-2.48032226,0.31333277,2.05923709

>  <Name>
1akx_lig

>  <RI>
0

>  <Rbt.Current_Directory>
/home/afrankz/demos/rdock_decoys_rna/rnas/1akx

>  <Rbt.Executable>
rbdock ($Id: //depot/dev/client3/rdock/2013.1/src/exe/rbdock.cxx#4 $)

>  <Rbt.Library>
libRbt.so (2013.1, Build901 2013/11/27)

>  <Rbt.Parameter_File>
/export/apps/rDock/src/rDock_2013.1_src/data/scripts/dock_solv.prm

>  <Rbt.Receptor>
prm/pocket_docking_4.prm

>  <SCORE>
-28.4875

>  <SCORE.INTER>
-23.8119

>  <SCORE.INTER.CONST>
1

>  <SCORE.INTER.POLAR>
-3.11936

>  <SCORE.INTER.ROT>
8

>  <SCORE.INTER.SOLV>
7.26514

>  <SCORE.INTER.VDW>
-16.8318

>  <SCORE.INTER.norm>
-2.16472

>  <SCORE.INTRA>
-4.67564

>  <SCORE.INTRA.DIHEDRAL>
-9.75144

>  <SCORE.INTRA.DIHEDRAL.0>
21.6454

>  <SCORE.INTRA.POLAR>
0

>  <SCORE.INTRA.POLAR.0>
0

>  <SCORE.INTRA.REPUL>
0

>  <SCORE.INTRA.REPUL.0>
0

>  <SCORE.INTRA.SOLV>
0.37509

>  <SCORE.INTRA.SOLV.lig_0>
-16.5947

>  <SCORE.INTRA.VDW>
0.0125325

>  <SCORE.INTRA.VDW.0>
-0.691398

>  <SCORE.INTRA.norm>
-0.425059

>  <SCORE.RESTR>
0

>  <SCORE.RESTR.CAVITY>
0

>  <SCORE.RESTR.norm>
0

>  <SCORE.SYSTEM>
0

>  <SCORE.SYSTEM.CONST>
0

>  <SCORE.SYSTEM.DIHEDRAL>
0

>  <SCORE.SYSTEM.SOLV>
0

>  <SCORE.SYSTEM.norm>
0

>  <SCORE.heavy>
11

>  <SCORE.norm>
-2.58978

>  <RMSD>
5.771

>  <RMSD>
5.771

$$$$
1akx_lig
 OpenBabel11021811383D
libRbt.so/2013.1/901 2013/11/27
 11 10  0  0  0  0  0  0  0  0999 V2000
   -4.0505   -2.1772   -4.4548 N   0  0  0  0  0  0  0  0  0  0  0  0
   -3.5191   -3.0186   -3.3423 C   0  0  2  0  0  0  0  0  0  0  0  0
   -4.6325   -3.2780   -2.3197 C   0  0  0  0  0  0  0  0  0  0  0  0
   -5.1732   -2.3519   -1.7486 O   0  0  0  0  0  0  0  0  0  0  0  0
   -2.3503   -2.2937   -2.6612 C   0  0  0  0  0  0  0  0  0  0  0  0
   -1.5793   -3.2762   -1.7737 C   0  0  0  0  0  0  0  0  0  0  0  0
   -0.6920   -2.4986   -0.8017 C   0  0  0  0  0  0  0  0  0  0  0  0
   -1.5463   -1.8251    0.2176 N   0  0  0  0  0  0  0  0  0  0  0  0
   -1.2438   -1.9048    1.4882 C   0  0  0  0  0  0  0  0  0  0  0  0
   -0.1025   -1.4376    1.9247 N   0  0  0  0  0  0  0  0  0  0  0  0
   -2.0879   -2.4475    2.3244 N   0  0  0  0  0  0  0  0  0  0  0  0
  2  1  1  6  0  0  0
  2  3  1  0  0  0  0
  2  5  1  0  0  0  0
  3  4  1  0  0  0  0
  5  6  1  0  0  0  0
  6  7  1  0  0  0  0
  7  8  1  0  0  0  0
  8  9  1  0  0  0  0
  9 10  1  0  0  0  0
  9 11  1  0  0  0  0
M  END
>  <CHROM.1>
-172.49953543,-59.91832929,-165.66010639,-163.73695300,70.76026065,132.76875339
60.76842672,-131.78938648,-18.98217375,-2.48296168,-2.38283256,-1.00295570
-2.13493827,0.09216201,1.49093924

>  <Name>
1akx_lig

>  <RI>
0

>  <Rbt.Current_Directory>
/home/afrankz/demos/rdock_decoys_rna/rnas/1akx

>  <Rbt.Executable>
rbdock ($Id: //depot/dev/client3/rdock/2013.1/src/exe/rbdock.cxx#4 $)

>  <Rbt.Library>
libRbt.so (2013.1, Build901 2013/11/27)

>  <Rbt.Parameter_File>
/export/apps/rDock/src/rDock_2013.1_src/data/scripts/dock_solv.prm

>  <Rbt.Receptor>
prm/pocket_docking_6.prm

>  <SCORE>
-32.5588

>  <SCORE.INTER>
-25.8485

>  <SCORE.INTER.CONST>
1

>  <SCORE.INTER.POLAR>
-3.52068

>  <SCORE.INTER.ROT>
8

>  <SCORE.INTER.SOLV>
6.57896

>  <SCORE.INTER.VDW>
-16.623

>  <SCORE.INTER.norm>
-2.34986

>  <SCORE.INTRA>
-6.71036

>  <SCORE.INTRA.DIHEDRAL>
-14.4532

>  <SCORE.INTRA.DIHEDRAL.0>
21.6454

>  <SCORE.INTRA.POLAR>
0

>  <SCORE.INTRA.POLAR.0>
0

>  <SCORE.INTRA.REPUL>
0

>  <SCORE.INTRA.REPUL.0>
0

>  <SCORE.INTRA.SOLV>
0.666562

>  <SCORE.INTRA.SOLV.lig_0>
-16.5947

>  <SCORE.INTRA.VDW>
0.182945

>  <SCORE.INTRA.VDW.0>
-0.691398

>  <SCORE.INTRA.norm>
-0.610033

>  <SCORE.RESTR>
0

>  <SCORE.RESTR.CAVITY>
0

>  <SCORE.RESTR.norm>
0

>  <SCORE.SYSTEM>
0

>  <SCORE.SYSTEM.CONST>
0

>  <SCORE.SYSTEM.DIHEDRAL>
0

>  <SCORE.SYSTEM.SOLV>
0

>  <SCORE.SYSTEM.norm>
0

>  <SCORE.heavy>
11

>  <SCORE.norm>
-2.95989

>  <RMSD>
5.778

>  <RMSD>
5.778

$$$$
1akx_lig
 OpenBabel11021811383D
libRbt.so/2013.1/901 2013/11/27
 11 10  0  0  0  0  0  0  0  0999 V2000
   -4.0505   -2.1772   -4.4548 N   0  0  0  0  0  0  0  0  0  0  0  0
   -3.5191   -3.0186   -3.3423 C   0  0  2  0  0  0  0  0  0  0  0  0
   -4.6325   -3.2780   -2.3197 C   0  0  0  0  0  0  0  0  0  0  0  0
   -5.1732   -2.3519   -1.7486 O   0  0  0  0  0  0  0  0  0  0  0  0
   -2.3503   -2.2937   -2.6612 C   0  0  0  0  0  0  0  0  0  0  0  0
   -1.5793   -3.2762   -1.7737 C   0  0  0  0  0  0  0  0  0  0  0  0
   -0.6920   -2.4986   -0.8017 C   0  0  0  0  0  0  0  0  0  0  0  0
   -1.5463   -1.8251    0.2176 N   0  0  0  0  0  0  0  0  0  0  0  0
   -1.2438   -1.9048    1.4882 C   0  0  0  0  0  0  0  0  0  0  0  0
   -0.1025   -1.4376    1.9247 N   0  0  0  0  0  0  0  0  0  0  0  0
   -2.0879   -2.4475    2.3244 N   0  0  0  0  0  0  0  0  0  0  0  0
  2  1  1  6  0  0  0
  2  3  1  0  0  0  0
  2  5  1  0  0  0  0
  3  4  1  0  0  0  0
  5  6  1  0  0  0  0
  6  7  1  0  0  0  0
  7  8  1  0  0  0  0
  8  9  1  0  0  0  0
  9 10  1  0  0  0  0
  9 11  1  0  0  0  0
M  END
>  <CHROM.1>
-172.49953543,-59.91832929,-165.66010639,-163.73695300,70.76026065,132.76875339
60.76842672,-131.78938648,-18.98217375,-2.48296168,-2.38283256,-1.00295570
-2.13493827,0.09216201,1.49093924

>  <Name>
1akx_lig

>  <RI>
0

>  <Rbt.Current_Directory>
/home/afrankz/demos/rdock_decoys_rna/rnas/1akx

>  <Rbt.Executable>
rbdock ($Id: //depot/dev/client3/rdock/2013.1/src/exe/rbdock.cxx#4 $)

>  <Rbt.Library>
libRbt.so (2013.1, Build901 2013/11/27)

>  <Rbt.Parameter_File>
/export/apps/rDock/src/rDock_2013.1_src/data/scripts/dock_solv.prm

>  <Rbt.Receptor>
prm/pocket_docking_6.prm

>  <SCORE>
-32.5588

>  <SCORE.INTER>
-25.8485

>  <SCORE.INTER.CONST>
1

>  <SCORE.INTER.POLAR>
-3.52068

>  <SCORE.INTER.ROT>
8

>  <SCORE.INTER.SOLV>
6.57896

>  <SCORE.INTER.VDW>
-16.623

>  <SCORE.INTER.norm>
-2.34986

>  <SCORE.INTRA>
-6.71036

>  <SCORE.INTRA.DIHEDRAL>
-14.4532

>  <SCORE.INTRA.DIHEDRAL.0>
21.6454

>  <SCORE.INTRA.POLAR>
0

>  <SCORE.INTRA.POLAR.0>
0

>  <SCORE.INTRA.REPUL>
0

>  <SCORE.INTRA.REPUL.0>
0

>  <SCORE.INTRA.SOLV>
0.666562

>  <SCORE.INTRA.SOLV.lig_0>
-16.5947

>  <SCORE.INTRA.VDW>
0.182945

>  <SCORE.INTRA.VDW.0>
-0.691398

>  <SCORE.INTRA.norm>
-0.610033

>  <SCORE.RESTR>
0

>  <SCORE.RESTR.CAVITY>
0

>  <SCORE.RESTR.norm>
0

>  <SCORE.SYSTEM>
0

>  <SCORE.SYSTEM.CONST>
0

>  <SCORE.SYSTEM.DIHEDRAL>
0

>  <SCORE.SYSTEM.SOLV>
0

>  <SCORE.SYSTEM.norm>
0

>  <SCORE.heavy>
11

>  <SCORE.norm>
-2.95989

>  <RMSD>
5.778

>  <RMSD>
5.778

$$$$
1akx_lig
 OpenBabel11021811383D
libRbt.so/2013.1/901 2013/11/27
 11 10  0  0  0  0  0  0  0  0999 V2000
   -2.3257   -2.1031   -3.6789 N   0  0  0  0  0  0  0  0  0  0  0  0
   -3.0335   -3.2620   -3.0592 C   0  0  2  0  0  0  0  0  0  0  0  0
   -4.5189   -2.9213   -2.8855 C   0  0  0  0  0  0  0  0  0  0  0  0
   -5.3012   -3.7598   -2.4840 O   0  0  0  0  0  0  0  0  0  0  0  0
   -2.4113   -3.5741   -1.6914 C   0  0  0  0  0  0  0  0  0  0  0  0
   -2.8659   -4.9595   -1.2207 C   0  0  0  0  0  0  0  0  0  0  0  0
   -2.2122   -5.2824    0.1229 C   0  0  0  0  0  0  0  0  0  0  0  0
   -0.7369   -5.3946   -0.0587 N   0  0  0  0  0  0  0  0  0  0  0  0
    0.0765   -4.9719    0.8752 C   0  0  0  0  0  0  0  0  0  0  0  0
    0.5347   -5.8029    1.7758 N   0  0  0  0  0  0  0  0  0  0  0  0
    0.4369   -3.7168    0.9039 N   0  0  0  0  0  0  0  0  0  0  0  0
  2  1  1  1  0  0  0
  2  3  1  0  0  0  0
  2  5  1  0  0  0  0
  3  4  1  0  0  0  0
  5  6  1  0  0  0  0
  6  7  1  0  0  0  0
  7  8  1  0  0  0  0
  8  9  1  0  0  0  0
  9 10  1  0  0  0  0
  9 11  1  0  0  0  0
M  END
>  <CHROM.1>
-66.32940661,174.83489621,-165.11649726,178.39805725,-65.12778926,143.80491790
94.35482393,-174.75888873,104.92643069,-2.00546876,-4.13423238,-1.04117634
-2.34922879,0.34413464,2.35967578

>  <Name>
1akx_lig

>  <RI>
0

>  <Rbt.Current_Directory>
/home/itssahil/PROJECTS/Mol_Feturizer/New_Systems/rnas/1akx

>  <Rbt.Executable>
rbdock ($Id: //depot/dev/client3/rdock/2013.1/src/exe/rbdock.cxx#4 $)

>  <Rbt.Library>
libRbt.so (2013.1, Build901 2013/11/27)

>  <Rbt.Parameter_File>
/export/apps/rDock/src/rDock_2013.1_src/data/scripts/dock_solv.prm

>  <Rbt.Receptor>
prm/pocket_docking_4.prm

>  <SCORE>
-25.6666

>  <SCORE.INTER>
-18.2518

>  <SCORE.INTER.CONST>
1

>  <SCORE.INTER.POLAR>
-2.89322

>  <SCORE.INTER.ROT>
8

>  <SCORE.INTER.SOLV>
5.97083

>  <SCORE.INTER.VDW>
-13.4474

>  <SCORE.INTER.norm>
-1.65925

>  <SCORE.INTRA>
-7.41477

>  <SCORE.INTRA.DIHEDRAL>
-15.696

>  <SCORE.INTRA.DIHEDRAL.0>
21.6454

>  <SCORE.INTRA.POLAR>
0

>  <SCORE.INTRA.POLAR.0>
0

>  <SCORE.INTRA.REPUL>
0

>  <SCORE.INTRA.REPUL.0>
0

>  <SCORE.INTRA.SOLV>
0.406008

>  <SCORE.INTRA.SOLV.lig_0>
-16.5947

>  <SCORE.INTRA.VDW>
0.230243

>  <SCORE.INTRA.VDW.0>
-0.691398

>  <SCORE.INTRA.norm>
-0.67407

>  <SCORE.RESTR>
0

>  <SCORE.RESTR.CAVITY>
0

>  <SCORE.RESTR.norm>
0

>  <SCORE.SYSTEM>
0

>  <SCORE.SYSTEM.CONST>
0

>  <SCORE.SYSTEM.DIHEDRAL>
0

>  <SCORE.SYSTEM.SOLV>
0

>  <SCORE.SYSTEM.norm>
0

>  <SCORE.heavy>
11

>  <SCORE.norm>
-2.33332

>  <RMSD>
5.789

$$$$
1akx_lig
 OpenBabel11021811383D
libRbt.so/2013.1/901 2013/11/27
 11 10  0  0  0  0  0  0  0  0999 V2000
   -4.1113   -2.0963   -4.4807 N   0  0  0  0  0  0  0  0  0  0  0  0
   -3.5676   -2.8412   -3.3069 C   0  0  2  0  0  0  0  0  0  0  0  0
   -4.5450   -2.7266   -2.1304 C   0  0  0  0  0  0  0  0  0  0  0  0
   -4.3590   -3.3595   -1.1101 O   0  0  0  0  0  0  0  0  0  0  0  0
   -2.2075   -2.2526   -2.9083 C   0  0  0  0  0  0  0  0  0  0  0  0
   -1.4436   -3.2578   -2.0402 C   0  0  0  0  0  0  0  0  0  0  0  0
   -1.0861   -2.6097   -0.7027 C   0  0  0  0  0  0  0  0  0  0  0  0
   -0.1531   -3.5000    0.0450 N   0  0  0  0  0  0  0  0  0  0  0  0
   -0.3864   -3.7963    1.2981 C   0  0  0  0  0  0  0  0  0  0  0  0
   -0.1424   -2.9207    2.2389 N   0  0  0  0  0  0  0  0  0  0  0  0
   -0.8706   -4.9688    1.6093 N   0  0  0  0  0  0  0  0  0  0  0  0
  2  1  1  6  0  0  0
  2  3  1  0  0  0  0
  2  5  1  0  0  0  0
  3  4  1  0  0  0  0
  5  6  1  0  0  0  0
  6  7  1  0  0  0  0
  7  8  1  0  0  0  0
  8  9  1  0  0  0  0
  9 10  1  0  0  0  0
  9 11  1  0  0  0  0
M  END
>  <CHROM.1>
-67.75282210,173.29723292,-161.56678794,-123.08823587,-170.59642594,-130.84328860
-76.33859390,28.11821722,57.18566927,-2.09407922,-3.12535965,-1.03151818
-2.19646740,0.16086237,1.94247941

>  <Name>
1akx_lig

>  <RI>
0

>  <Rbt.Current_Directory>
/home/afrankz/demos/rdock_decoys_rna/rnas/1akx

>  <Rbt.Executable>
rbdock ($Id: //depot/dev/client3/rdock/2013.1/src/exe/rbdock.cxx#4 $)

>  <Rbt.Library>
libRbt.so (2013.1, Build901 2013/11/27)

>  <Rbt.Parameter_File>
/export/apps/rDock/src/rDock_2013.1_src/data/scripts/dock_solv.prm

>  <Rbt.Receptor>
prm/pocket_docking_5.prm

>  <SCORE>
-29.9873

>  <SCORE.INTER>
-25.5713

>  <SCORE.INTER.CONST>
1

>  <SCORE.INTER.POLAR>
-3.56642

>  <SCORE.INTER.ROT>
8

>  <SCORE.INTER.SOLV>
5.10099

>  <SCORE.INTER.VDW>
-15.7931

>  <SCORE.INTER.norm>
-2.32466

>  <SCORE.INTRA>
-4.416

>  <SCORE.INTRA.DIHEDRAL>
-8.8619

>  <SCORE.INTRA.DIHEDRAL.0>
21.6454

>  <SCORE.INTRA.POLAR>
0

>  <SCORE.INTRA.POLAR.0>
0

>  <SCORE.INTRA.REPUL>
0

>  <SCORE.INTRA.REPUL.0>
0

>  <SCORE.INTRA.SOLV>
0.238781

>  <SCORE.INTRA.SOLV.lig_0>
-16.5947

>  <SCORE.INTRA.VDW>
-0.104442

>  <SCORE.INTRA.VDW.0>
-0.691398

>  <SCORE.INTRA.norm>
-0.401455

>  <SCORE.RESTR>
0

>  <SCORE.RESTR.CAVITY>
0

>  <SCORE.RESTR.norm>
0

>  <SCORE.SYSTEM>
0

>  <SCORE.SYSTEM.CONST>
0

>  <SCORE.SYSTEM.DIHEDRAL>
0

>  <SCORE.SYSTEM.SOLV>
0

>  <SCORE.SYSTEM.norm>
0

>  <SCORE.heavy>
11

>  <SCORE.norm>
-2.72612

>  <RMSD>
5.802

>  <RMSD>
5.802

$$$$
1akx_lig
 OpenBabel11021811383D
libRbt.so/2013.1/901 2013/11/27
 11 10  0  0  0  0  0  0  0  0999 V2000
   -4.1113   -2.0963   -4.4807 N   0  0  0  0  0  0  0  0  0  0  0  0
   -3.5676   -2.8412   -3.3069 C   0  0  2  0  0  0  0  0  0  0  0  0
   -4.5450   -2.7266   -2.1304 C   0  0  0  0  0  0  0  0  0  0  0  0
   -4.3590   -3.3595   -1.1101 O   0  0  0  0  0  0  0  0  0  0  0  0
   -2.2075   -2.2526   -2.9083 C   0  0  0  0  0  0  0  0  0  0  0  0
   -1.4436   -3.2578   -2.0402 C   0  0  0  0  0  0  0  0  0  0  0  0
   -1.0861   -2.6097   -0.7027 C   0  0  0  0  0  0  0  0  0  0  0  0
   -0.1531   -3.5000    0.0450 N   0  0  0  0  0  0  0  0  0  0  0  0
   -0.3864   -3.7963    1.2981 C   0  0  0  0  0  0  0  0  0  0  0  0
   -0.1424   -2.9207    2.2389 N   0  0  0  0  0  0  0  0  0  0  0  0
   -0.8706   -4.9688    1.6093 N   0  0  0  0  0  0  0  0  0  0  0  0
  2  1  1  6  0  0  0
  2  3  1  0  0  0  0
  2  5  1  0  0  0  0
  3  4  1  0  0  0  0
  5  6  1  0  0  0  0
  6  7  1  0  0  0  0
  7  8  1  0  0  0  0
  8  9  1  0  0  0  0
  9 10  1  0  0  0  0
  9 11  1  0  0  0  0
M  END
>  <CHROM.1>
-67.75282210,173.29723292,-161.56678794,-123.08823587,-170.59642594,-130.84328860
-76.33859390,28.11821722,57.18566927,-2.09407922,-3.12535965,-1.03151818
-2.19646740,0.16086237,1.94247941

>  <Name>
1akx_lig

>  <RI>
0

>  <Rbt.Current_Directory>
/home/afrankz/demos/rdock_decoys_rna/rnas/1akx

>  <Rbt.Executable>
rbdock ($Id: //depot/dev/client3/rdock/2013.1/src/exe/rbdock.cxx#4 $)

>  <Rbt.Library>
libRbt.so (2013.1, Build901 2013/11/27)

>  <Rbt.Parameter_File>
/export/apps/rDock/src/rDock_2013.1_src/data/scripts/dock_solv.prm

>  <Rbt.Receptor>
prm/pocket_docking_5.prm

>  <SCORE>
-29.9873

>  <SCORE.INTER>
-25.5713

>  <SCORE.INTER.CONST>
1

>  <SCORE.INTER.POLAR>
-3.56642

>  <SCORE.INTER.ROT>
8

>  <SCORE.INTER.SOLV>
5.10099

>  <SCORE.INTER.VDW>
-15.7931

>  <SCORE.INTER.norm>
-2.32466

>  <SCORE.INTRA>
-4.416

>  <SCORE.INTRA.DIHEDRAL>
-8.8619

>  <SCORE.INTRA.DIHEDRAL.0>
21.6454

>  <SCORE.INTRA.POLAR>
0

>  <SCORE.INTRA.POLAR.0>
0

>  <SCORE.INTRA.REPUL>
0

>  <SCORE.INTRA.REPUL.0>
0

>  <SCORE.INTRA.SOLV>
0.238781

>  <SCORE.INTRA.SOLV.lig_0>
-16.5947

>  <SCORE.INTRA.VDW>
-0.104442

>  <SCORE.INTRA.VDW.0>
-0.691398

>  <SCORE.INTRA.norm>
-0.401455

>  <SCORE.RESTR>
0

>  <SCORE.RESTR.CAVITY>
0

>  <SCORE.RESTR.norm>
0

>  <SCORE.SYSTEM>
0

>  <SCORE.SYSTEM.CONST>
0

>  <SCORE.SYSTEM.DIHEDRAL>
0

>  <SCORE.SYSTEM.SOLV>
0

>  <SCORE.SYSTEM.norm>
0

>  <SCORE.heavy>
11

>  <SCORE.norm>
-2.72612

>  <RMSD>
5.802

>  <RMSD>
5.802

$$$$
1akx_lig
 OpenBabel11021811383D
libRbt.so/2013.1/901 2013/11/27
 11 10  0  0  0  0  0  0  0  0999 V2000
   -4.1052   -2.1622   -4.4387 N   0  0  0  0  0  0  0  0  0  0  0  0
   -3.6106   -3.0428   -3.3395 C   0  0  2  0  0  0  0  0  0  0  0  0
   -4.7406   -3.2870   -2.3315 C   0  0  0  0  0  0  0  0  0  0  0  0
   -5.2299   -2.3600   -1.7170 O   0  0  0  0  0  0  0  0  0  0  0  0
   -2.4252   -2.3698   -2.6343 C   0  0  0  0  0  0  0  0  0  0  0  0
   -1.5393   -3.4357   -1.9813 C   0  0  0  0  0  0  0  0  0  0  0  0
   -0.4850   -2.7577   -1.1063 C   0  0  0  0  0  0  0  0  0  0  0  0
   -1.1024   -2.3530    0.1888 N   0  0  0  0  0  0  0  0  0  0  0  0
   -0.8292   -3.0139    1.2846 C   0  0  0  0  0  0  0  0  0  0  0  0
    0.3465   -3.5642    1.4466 N   0  0  0  0  0  0  0  0  0  0  0  0
   -1.7321   -3.1188    2.2226 N   0  0  0  0  0  0  0  0  0  0  0  0
  2  1  1  6  0  0  0
  2  3  1  0  0  0  0
  2  5  1  0  0  0  0
  3  4  1  0  0  0  0
  5  6  1  0  0  0  0
  6  7  1  0  0  0  0
  7  8  1  0  0  0  0
  8  9  1  0  0  0  0
  9 10  1  0  0  0  0
  9 11  1  0  0  0  0
M  END
>  <CHROM.1>
-173.99289288,-62.06160290,-154.83728616,-171.47865248,79.04100203,106.54762498
31.99441567,68.40966208,-169.99654817,-2.34111169,-2.84263092,-1.11594180
-2.24060231,-0.05830542,1.64582767

>  <Name>
1akx_lig

>  <RI>
0

>  <Rbt.Current_Directory>
/home/itssahil/PROJECTS/Mol_Feturizer/New_Systems/rnas/1akx

>  <Rbt.Executable>
rbdock ($Id: //depot/dev/client3/rdock/2013.1/src/exe/rbdock.cxx#4 $)

>  <Rbt.Library>
libRbt.so (2013.1, Build901 2013/11/27)

>  <Rbt.Parameter_File>
/export/apps/rDock/src/rDock_2013.1_src/data/scripts/dock_solv.prm

>  <Rbt.Receptor>
prm/pocket_docking_3.prm

>  <SCORE>
-25.9608

>  <SCORE.INTER>
-19.8705

>  <SCORE.INTER.CONST>
1

>  <SCORE.INTER.POLAR>
-2.4199

>  <SCORE.INTER.ROT>
8

>  <SCORE.INTER.SOLV>
6.46411

>  <SCORE.INTER.VDW>
-16.2687

>  <SCORE.INTER.norm>
-1.80641

>  <SCORE.INTRA>
-6.09024

>  <SCORE.INTRA.DIHEDRAL>
-12.9818

>  <SCORE.INTRA.DIHEDRAL.0>
21.6454

>  <SCORE.INTRA.POLAR>
0

>  <SCORE.INTRA.POLAR.0>
0

>  <SCORE.INTRA.REPUL>
0

>  <SCORE.INTRA.REPUL.0>
0

>  <SCORE.INTRA.SOLV>
0.54979

>  <SCORE.INTRA.SOLV.lig_0>
-16.5947

>  <SCORE.INTRA.VDW>
0.125749

>  <SCORE.INTRA.VDW.0>
-0.691398

>  <SCORE.INTRA.norm>
-0.553658

>  <SCORE.RESTR>
0

>  <SCORE.RESTR.CAVITY>
0

>  <SCORE.RESTR.norm>
0

>  <SCORE.SYSTEM>
0

>  <SCORE.SYSTEM.CONST>
0

>  <SCORE.SYSTEM.DIHEDRAL>
0

>  <SCORE.SYSTEM.SOLV>
0

>  <SCORE.SYSTEM.norm>
0

>  <SCORE.heavy>
11

>  <SCORE.norm>
-2.36007

>  <RMSD>
5.810

$$$$
1akx_lig
 OpenBabel11021811383D
libRbt.so/2013.1/901 2013/11/27
 11 10  0  0  0  0  0  0  0  0999 V2000
   -4.1503   -2.0490   -4.4790 N   0  0  0  0  0  0  0  0  0  0  0  0
   -3.6978   -2.8189   -3.2828 C   0  0  2  0  0  0  0  0  0  0  0  0
   -4.7669   -2.7358   -2.1861 C   0  0  0  0  0  0  0  0  0  0  0  0
   -4.6331   -3.3504   -1.1466 O   0  0  0  0  0  0  0  0  0  0  0  0
   -2.3775   -2.2340   -2.7630 C   0  0  0  0  0  0  0  0  0  0  0  0
   -1.4357   -3.3700   -2.3508 C   0  0  0  0  0  0  0  0  0  0  0  0
   -1.7980   -3.8493   -0.9452 C   0  0  0  0  0  0  0  0  0  0  0  0
   -1.0164   -5.0775   -0.6243 N   0  0  0  0  0  0  0  0  0  0  0  0
   -0.4936   -5.2345    0.5649 C   0  0  0  0  0  0  0  0  0  0  0  0
   -1.1984   -5.7673    1.5297 N   0  0  0  0  0  0  0  0  0  0  0  0
    0.7388   -4.8634    0.7872 N   0  0  0  0  0  0  0  0  0  0  0  0
  2  1  1  6  0  0  0
  2  3  1  0  0  0  0
  2  5  1  0  0  0  0
  3  4  1  0  0  0  0
  5  6  1  0  0  0  0
  6  7  1  0  0  0  0
  7  8  1  0  0  0  0
  8  9  1  0  0  0  0
  9 10  1  0  0  0  0
  9 11  1  0  0  0  0
M  END
>  <CHROM.1>
54.88280484,176.23786526,-139.18051497,-81.91741711,171.87300226,138.61481532
86.76340414,-10.77508557,9.89988432,-2.26439721,-3.76718335,-1.34698349,-2.21828857
-0.09699642,2.10309306

>  <Name>
1akx_lig

>  <RI>
0

>  <Rbt.Current_Directory>
/home/afrankz/demos/rdock_decoys_rna/rnas/1akx

>  <Rbt.Executable>
rbdock ($Id: //depot/dev/client3/rdock/2013.1/src/exe/rbdock.cxx#4 $)

>  <Rbt.Library>
libRbt.so (2013.1, Build901 2013/11/27)

>  <Rbt.Parameter_File>
/export/apps/rDock/src/rDock_2013.1_src/data/scripts/dock_solv.prm

>  <Rbt.Receptor>
prm/pocket_docking_4.prm

>  <SCORE>
-30.7956

>  <SCORE.INTER>
-25.9506

>  <SCORE.INTER.CONST>
1

>  <SCORE.INTER.POLAR>
-3.65561

>  <SCORE.INTER.ROT>
8

>  <SCORE.INTER.SOLV>
6.44418

>  <SCORE.INTER.VDW>
-16.1964

>  <SCORE.INTER.norm>
-2.35915

>  <SCORE.INTRA>
-4.84498

>  <SCORE.INTRA.DIHEDRAL>
-10.1621

>  <SCORE.INTRA.DIHEDRAL.0>
21.6454

>  <SCORE.INTRA.POLAR>
0

>  <SCORE.INTRA.POLAR.0>
0

>  <SCORE.INTRA.REPUL>
0

>  <SCORE.INTRA.REPUL.0>
0

>  <SCORE.INTRA.SOLV>
0.398689

>  <SCORE.INTRA.SOLV.lig_0>
-16.5947

>  <SCORE.INTRA.VDW>
0.0367179

>  <SCORE.INTRA.VDW.0>
-0.691398

>  <SCORE.INTRA.norm>
-0.440453

>  <SCORE.RESTR>
0

>  <SCORE.RESTR.CAVITY>
0

>  <SCORE.RESTR.norm>
0

>  <SCORE.SYSTEM>
0

>  <SCORE.SYSTEM.CONST>
0

>  <SCORE.SYSTEM.DIHEDRAL>
0

>  <SCORE.SYSTEM.SOLV>
0

>  <SCORE.SYSTEM.norm>
0

>  <SCORE.heavy>
11

>  <SCORE.norm>
-2.7996

>  <RMSD>
5.820

>  <RMSD>
5.820

$$$$
1akx_lig
 OpenBabel11021811383D
libRbt.so/2013.1/901 2013/11/27
 11 10  0  0  0  0  0  0  0  0999 V2000
   -4.1503   -2.0490   -4.4790 N   0  0  0  0  0  0  0  0  0  0  0  0
   -3.6978   -2.8189   -3.2828 C   0  0  2  0  0  0  0  0  0  0  0  0
   -4.7669   -2.7358   -2.1861 C   0  0  0  0  0  0  0  0  0  0  0  0
   -4.6331   -3.3504   -1.1466 O   0  0  0  0  0  0  0  0  0  0  0  0
   -2.3775   -2.2340   -2.7630 C   0  0  0  0  0  0  0  0  0  0  0  0
   -1.4357   -3.3700   -2.3508 C   0  0  0  0  0  0  0  0  0  0  0  0
   -1.7980   -3.8493   -0.9452 C   0  0  0  0  0  0  0  0  0  0  0  0
   -1.0164   -5.0775   -0.6243 N   0  0  0  0  0  0  0  0  0  0  0  0
   -0.4936   -5.2345    0.5649 C   0  0  0  0  0  0  0  0  0  0  0  0
   -1.1984   -5.7673    1.5297 N   0  0  0  0  0  0  0  0  0  0  0  0
    0.7388   -4.8634    0.7872 N   0  0  0  0  0  0  0  0  0  0  0  0
  2  1  1  6  0  0  0
  2  3  1  0  0  0  0
  2  5  1  0  0  0  0
  3  4  1  0  0  0  0
  5  6  1  0  0  0  0
  6  7  1  0  0  0  0
  7  8  1  0  0  0  0
  8  9  1  0  0  0  0
  9 10  1  0  0  0  0
  9 11  1  0  0  0  0
M  END
>  <CHROM.1>
54.88280484,176.23786526,-139.18051497,-81.91741711,171.87300226,138.61481532
86.76340414,-10.77508557,9.89988432,-2.26439721,-3.76718335,-1.34698349,-2.21828857
-0.09699642,2.10309306

>  <Name>
1akx_lig

>  <RI>
0

>  <Rbt.Current_Directory>
/home/afrankz/demos/rdock_decoys_rna/rnas/1akx

>  <Rbt.Executable>
rbdock ($Id: //depot/dev/client3/rdock/2013.1/src/exe/rbdock.cxx#4 $)

>  <Rbt.Library>
libRbt.so (2013.1, Build901 2013/11/27)

>  <Rbt.Parameter_File>
/export/apps/rDock/src/rDock_2013.1_src/data/scripts/dock_solv.prm

>  <Rbt.Receptor>
prm/pocket_docking_4.prm

>  <SCORE>
-30.7956

>  <SCORE.INTER>
-25.9506

>  <SCORE.INTER.CONST>
1

>  <SCORE.INTER.POLAR>
-3.65561

>  <SCORE.INTER.ROT>
8

>  <SCORE.INTER.SOLV>
6.44418

>  <SCORE.INTER.VDW>
-16.1964

>  <SCORE.INTER.norm>
-2.35915

>  <SCORE.INTRA>
-4.84498

>  <SCORE.INTRA.DIHEDRAL>
-10.1621

>  <SCORE.INTRA.DIHEDRAL.0>
21.6454

>  <SCORE.INTRA.POLAR>
0

>  <SCORE.INTRA.POLAR.0>
0

>  <SCORE.INTRA.REPUL>
0

>  <SCORE.INTRA.REPUL.0>
0

>  <SCORE.INTRA.SOLV>
0.398689

>  <SCORE.INTRA.SOLV.lig_0>
-16.5947

>  <SCORE.INTRA.VDW>
0.0367179

>  <SCORE.INTRA.VDW.0>
-0.691398

>  <SCORE.INTRA.norm>
-0.440453

>  <SCORE.RESTR>
0

>  <SCORE.RESTR.CAVITY>
0

>  <SCORE.RESTR.norm>
0

>  <SCORE.SYSTEM>
0

>  <SCORE.SYSTEM.CONST>
0

>  <SCORE.SYSTEM.DIHEDRAL>
0

>  <SCORE.SYSTEM.SOLV>
0

>  <SCORE.SYSTEM.norm>
0

>  <SCORE.heavy>
11

>  <SCORE.norm>
-2.7996

>  <RMSD>
5.820

>  <RMSD>
5.820

$$$$
1akx_lig
 OpenBabel11021811383D
libRbt.so/2013.1/901 2013/11/27
 11 10  0  0  0  0  0  0  0  0999 V2000
   -4.0176   -2.3618   -4.3272 N   0  0  0  0  0  0  0  0  0  0  0  0
   -3.2784   -3.0559   -3.2318 C   0  0  2  0  0  0  0  0  0  0  0  0
   -4.2607   -3.4521   -2.1224 C   0  0  0  0  0  0  0  0  0  0  0  0
   -5.0211   -2.6308   -1.6496 O   0  0  0  0  0  0  0  0  0  0  0  0
   -2.2046   -2.1195   -2.6612 C   0  0  0  0  0  0  0  0  0  0  0  0
   -1.0294   -2.9451   -2.1275 C   0  0  0  0  0  0  0  0  0  0  0  0
   -1.3413   -3.4195   -0.7082 C   0  0  0  0  0  0  0  0  0  0  0  0
   -0.1459   -4.1074   -0.1424 N   0  0  0  0  0  0  0  0  0  0  0  0
   -0.2820   -5.2268    0.5216 C   0  0  0  0  0  0  0  0  0  0  0  0
   -0.6216   -6.3257   -0.1015 N   0  0  0  0  0  0  0  0  0  0  0  0
   -0.0716   -5.2475    1.8105 N   0  0  0  0  0  0  0  0  0  0  0  0
  2  1  1  6  0  0  0
  2  3  1  0  0  0  0
  2  5  1  0  0  0  0
  3  4  1  0  0  0  0
  5  6  1  0  0  0  0
  6  7  1  0  0  0  0
  7  8  1  0  0  0  0
  8  9  1  0  0  0  0
  9 10  1  0  0  0  0
  9 11  1  0  0  0  0
M  END
>  <CHROM.1>
-53.88645111,-51.27875194,-150.63021488,-83.55204402,-174.50539929,-136.45120413
69.99923231,8.81118798,-98.98275606,-2.04682206,-3.72702448,-1.33992589,-2.24544696
0.02196285,2.19769433

>  <Name>
1akx_lig

>  <RI>
0

>  <Rbt.Current_Directory>
/home/itssahil/PROJECTS/Mol_Feturizer/New_Systems/rnas/1akx

>  <Rbt.Executable>
rbdock ($Id: //depot/dev/client3/rdock/2013.1/src/exe/rbdock.cxx#4 $)

>  <Rbt.Library>
libRbt.so (2013.1, Build901 2013/11/27)

>  <Rbt.Parameter_File>
/export/apps/rDock/src/rDock_2013.1_src/data/scripts/dock_solv.prm

>  <Rbt.Receptor>
prm/pocket_docking_4.prm

>  <SCORE>
-30.8677

>  <SCORE.INTER>
-25.381

>  <SCORE.INTER.CONST>
1

>  <SCORE.INTER.POLAR>
-3.56209

>  <SCORE.INTER.ROT>
8

>  <SCORE.INTER.SOLV>
7.03087

>  <SCORE.INTER.VDW>
-16.324

>  <SCORE.INTER.norm>
-2.30736

>  <SCORE.INTRA>
-5.48674

>  <SCORE.INTRA.DIHEDRAL>
-11.4804

>  <SCORE.INTRA.DIHEDRAL.0>
21.6454

>  <SCORE.INTRA.POLAR>
0

>  <SCORE.INTRA.POLAR.0>
0

>  <SCORE.INTRA.REPUL>
0

>  <SCORE.INTRA.REPUL.0>
0

>  <SCORE.INTRA.SOLV>
0.43348

>  <SCORE.INTRA.SOLV.lig_0>
-16.5947

>  <SCORE.INTRA.VDW>
0.0367181

>  <SCORE.INTRA.VDW.0>
-0.691398

>  <SCORE.INTRA.norm>
-0.498795

>  <SCORE.RESTR>
0

>  <SCORE.RESTR.CAVITY>
0

>  <SCORE.RESTR.norm>
0

>  <SCORE.SYSTEM>
0

>  <SCORE.SYSTEM.CONST>
0

>  <SCORE.SYSTEM.DIHEDRAL>
0

>  <SCORE.SYSTEM.SOLV>
0

>  <SCORE.SYSTEM.norm>
0

>  <SCORE.heavy>
11

>  <SCORE.norm>
-2.80616

>  <RMSD>
5.823

$$$$
1akx_lig
 OpenBabel11021811383D
libRbt.so/2013.1/901 2013/11/27
 11 10  0  0  0  0  0  0  0  0999 V2000
   -3.9435   -2.2749   -4.3793 N   0  0  0  0  0  0  0  0  0  0  0  0
   -3.4222   -3.0843   -3.2385 C   0  0  2  0  0  0  0  0  0  0  0  0
   -4.5514   -3.3364   -2.2316 C   0  0  0  0  0  0  0  0  0  0  0  0
   -5.0882   -2.4074   -1.6614 O   0  0  0  0  0  0  0  0  0  0  0  0
   -2.2765   -2.3285   -2.5518 C   0  0  0  0  0  0  0  0  0  0  0  0
   -1.4329   -3.3065   -1.7277 C   0  0  0  0  0  0  0  0  0  0  0  0
   -2.1210   -3.5720   -0.3887 C   0  0  0  0  0  0  0  0  0  0  0  0
   -1.4969   -4.7593    0.2617 N   0  0  0  0  0  0  0  0  0  0  0  0
   -0.6212   -4.6013    1.2212 C   0  0  0  0  0  0  0  0  0  0  0  0
    0.6532   -4.7806    0.9866 N   0  0  0  0  0  0  0  0  0  0  0  0
   -1.0213   -4.2571    2.4160 N   0  0  0  0  0  0  0  0  0  0  0  0
  2  1  1  6  0  0  0
  2  3  1  0  0  0  0
  2  5  1  0  0  0  0
  3  4  1  0  0  0  0
  5  6  1  0  0  0  0
  6  7  1  0  0  0  0
  7  8  1  0  0  0  0
  8  9  1  0  0  0  0
  9 10  1  0  0  0  0
  9 11  1  0  0  0  0
M  END
>  <CHROM.1>
-177.22490370,-62.13169353,-160.56967105,-80.76291200,166.01183180,100.80727849
-104.34988001,-115.89901897,-85.24322592,-2.31243584,-3.51185561,-1.02393368
-2.21210030,-0.19479831,1.84177975

>  <Name>
1akx_lig

>  <RI>
0

>  <Rbt.Current_Directory>
/home/itssahil/PROJECTS/Mol_Feturizer/New_Systems/rnas/1akx

>  <Rbt.Executable>
rbdock ($Id: //depot/dev/client3/rdock/2013.1/src/exe/rbdock.cxx#4 $)

>  <Rbt.Library>
libRbt.so (2013.1, Build901 2013/11/27)

>  <Rbt.Parameter_File>
/export/apps/rDock/src/rDock_2013.1_src/data/scripts/dock_solv.prm

>  <Rbt.Receptor>
prm/pocket_docking_2.prm

>  <SCORE>
-28.7867

>  <SCORE.INTER>
-23.4141

>  <SCORE.INTER.CONST>
1

>  <SCORE.INTER.POLAR>
-3.27744

>  <SCORE.INTER.ROT>
8

>  <SCORE.INTER.SOLV>
5.69891

>  <SCORE.INTER.VDW>
-15.5176

>  <SCORE.INTER.norm>
-2.12856

>  <SCORE.INTRA>
-5.50025

>  <SCORE.INTRA.DIHEDRAL>
-13.0682

>  <SCORE.INTRA.DIHEDRAL.0>
21.6454

>  <SCORE.INTRA.POLAR>
0

>  <SCORE.INTRA.POLAR.0>
0

>  <SCORE.INTRA.REPUL>
0

>  <SCORE.INTRA.REPUL.0>
0

>  <SCORE.INTRA.SOLV>
0.679911

>  <SCORE.INTRA.SOLV.lig_0>
-16.5947

>  <SCORE.INTRA.VDW>
0.693879

>  <SCORE.INTRA.VDW.0>
-0.691398

>  <SCORE.INTRA.norm>
-0.500022

>  <SCORE.RESTR>
0.127655

>  <SCORE.RESTR.CAVITY>
0.127655

>  <SCORE.RESTR.norm>
0.011605

>  <SCORE.SYSTEM>
0

>  <SCORE.SYSTEM.CONST>
0

>  <SCORE.SYSTEM.DIHEDRAL>
0

>  <SCORE.SYSTEM.SOLV>
0

>  <SCORE.SYSTEM.norm>
0

>  <SCORE.heavy>
11

>  <SCORE.norm>
-2.61697

>  <RMSD>
5.832

$$$$
1akx_lig
 OpenBabel11021811383D
libRbt.so/2013.1/901 2013/11/27
 11 10  0  0  0  0  0  0  0  0999 V2000
   -4.0935   -2.1294   -4.4137 N   0  0  0  0  0  0  0  0  0  0  0  0
   -3.7702   -3.0050   -3.2488 C   0  0  2  0  0  0  0  0  0  0  0  0
   -5.0520   -3.3028   -2.4609 C   0  0  0  0  0  0  0  0  0  0  0  0
   -5.9322   -3.9832   -2.9494 O   0  0  0  0  0  0  0  0  0  0  0  0
   -2.7564   -2.2982   -2.3388 C   0  0  0  0  0  0  0  0  0  0  0  0
   -1.3917   -2.9849   -2.4539 C   0  0  0  0  0  0  0  0  0  0  0  0
   -1.4137   -4.2992   -1.6735 C   0  0  0  0  0  0  0  0  0  0  0  0
   -1.6194   -4.0114   -0.2254 N   0  0  0  0  0  0  0  0  0  0  0  0
   -0.5911   -3.8414    0.5658 C   0  0  0  0  0  0  0  0  0  0  0  0
   -0.5277   -2.7952    1.3486 N   0  0  0  0  0  0  0  0  0  0  0  0
    0.3724   -4.7232    0.5780 N   0  0  0  0  0  0  0  0  0  0  0  0
  2  1  1  6  0  0  0
  2  3  1  0  0  0  0
  2  5  1  0  0  0  0
  3  4  1  0  0  0  0
  5  6  1  0  0  0  0
  6  7  1  0  0  0  0
  7  8  1  0  0  0  0
  8  9  1  0  0  0  0
  9 10  1  0  0  0  0
  9 11  1  0  0  0  0
M  END
>  <CHROM.1>
-49.73637889,67.43725449,-108.67967792,-75.94279611,-63.73733512,-91.28776428
129.54995769,-12.97951188,-72.34498129,-2.44978540,-3.38862331,-1.57097324
-2.42965200,0.26115451,2.07855342

>  <Name>
1akx_lig

>  <RI>
0

>  <Rbt.Current_Directory>
/home/itssahil/PROJECTS/Mol_Feturizer/New_Systems/rnas/1akx

>  <Rbt.Executable>
rbdock ($Id: //depot/dev/client3/rdock/2013.1/src/exe/rbdock.cxx#4 $)

>  <Rbt.Library>
libRbt.so (2013.1, Build901 2013/11/27)

>  <Rbt.Parameter_File>
/export/apps/rDock/src/rDock_2013.1_src/data/scripts/dock_solv.prm

>  <Rbt.Receptor>
prm/pocket_docking_6.prm

>  <SCORE>
-29.5426

>  <SCORE.INTER>
-24.6047

>  <SCORE.INTER.CONST>
1

>  <SCORE.INTER.POLAR>
-3.41625

>  <SCORE.INTER.ROT>
8

>  <SCORE.INTER.SOLV>
7.04724

>  <SCORE.INTER.VDW>
-16.2981

>  <SCORE.INTER.norm>
-2.23679

>  <SCORE.INTRA>
-4.93792

>  <SCORE.INTRA.DIHEDRAL>
-9.95629

>  <SCORE.INTRA.DIHEDRAL.0>
21.6454

>  <SCORE.INTRA.POLAR>
0

>  <SCORE.INTRA.POLAR.0>
0

>  <SCORE.INTRA.REPUL>
0

>  <SCORE.INTRA.REPUL.0>
0

>  <SCORE.INTRA.SOLV>
0.697333

>  <SCORE.INTRA.SOLV.lig_0>
-16.5947

>  <SCORE.INTRA.VDW>
-0.308446

>  <SCORE.INTRA.VDW.0>
-0.691398

>  <SCORE.INTRA.norm>
-0.448902

>  <SCORE.RESTR>
0

>  <SCORE.RESTR.CAVITY>
0

>  <SCORE.RESTR.norm>
0

>  <SCORE.SYSTEM>
0

>  <SCORE.SYSTEM.CONST>
0

>  <SCORE.SYSTEM.DIHEDRAL>
0

>  <SCORE.SYSTEM.SOLV>
0

>  <SCORE.SYSTEM.norm>
0

>  <SCORE.heavy>
11

>  <SCORE.norm>
-2.68569

>  <RMSD>
5.833

$$$$
1akx_lig
 OpenBabel11021811383D
libRbt.so/2013.1/901 2013/11/27
 11 10  0  0  0  0  0  0  0  0999 V2000
   -4.1058   -2.1001   -4.5139 N   0  0  0  0  0  0  0  0  0  0  0  0
   -3.6494   -2.9365   -3.3648 C   0  0  2  0  0  0  0  0  0  0  0  0
   -4.7902   -3.0771   -2.3491 C   0  0  0  0  0  0  0  0  0  0  0  0
   -5.8117   -3.6639   -2.6463 O   0  0  0  0  0  0  0  0  0  0  0  0
   -2.4387   -2.2736   -2.6939 C   0  0  0  0  0  0  0  0  0  0  0  0
   -1.7272   -3.2882   -1.7930 C   0  0  0  0  0  0  0  0  0  0  0  0
   -0.7901   -2.5522   -0.8354 C   0  0  0  0  0  0  0  0  0  0  0  0
   -1.5973   -1.8154    0.1784 N   0  0  0  0  0  0  0  0  0  0  0  0
   -1.1627   -1.6952    1.4068 C   0  0  0  0  0  0  0  0  0  0  0  0
   -0.5441   -0.6058    1.7835 N   0  0  0  0  0  0  0  0  0  0  0  0
   -1.3532   -2.6644    2.2613 N   0  0  0  0  0  0  0  0  0  0  0  0
  2  1  1  6  0  0  0
  2  3  1  0  0  0  0
  2  5  1  0  0  0  0
  3  4  1  0  0  0  0
  5  6  1  0  0  0  0
  6  7  1  0  0  0  0
  7  8  1  0  0  0  0
  8  9  1  0  0  0  0
  9 10  1  0  0  0  0
  9 11  1  0  0  0  0
M  END
>  <CHROM.1>
-176.30988174,64.93445021,-164.01464927,-163.94716556,70.97480460,145.13985779
97.50268201,-78.42471109,139.01753519,-2.57350760,-2.40533913,-1.13994226
-2.24655817,0.40607620,1.63986668

>  <Name>
1akx_lig

>  <RI>
0

>  <Rbt.Current_Directory>
/home/itssahil/PROJECTS/Mol_Feturizer/New_Systems/rnas/1akx

>  <Rbt.Executable>
rbdock ($Id: //depot/dev/client3/rdock/2013.1/src/exe/rbdock.cxx#4 $)

>  <Rbt.Library>
libRbt.so (2013.1, Build901 2013/11/27)

>  <Rbt.Parameter_File>
/export/apps/rDock/src/rDock_2013.1_src/data/scripts/dock_solv.prm

>  <Rbt.Receptor>
prm/pocket_docking_8.prm

>  <SCORE>
-35.0638

>  <SCORE.INTER>
-28.0602

>  <SCORE.INTER.CONST>
1

>  <SCORE.INTER.POLAR>
-3.91446

>  <SCORE.INTER.ROT>
8

>  <SCORE.INTER.SOLV>
7.26363

>  <SCORE.INTER.VDW>
-17.0131

>  <SCORE.INTER.norm>
-2.55093

>  <SCORE.INTRA>
-7.00364

>  <SCORE.INTRA.DIHEDRAL>
-14.2894

>  <SCORE.INTRA.DIHEDRAL.0>
21.6454

>  <SCORE.INTRA.POLAR>
0

>  <SCORE.INTRA.POLAR.0>
0

>  <SCORE.INTRA.REPUL>
0

>  <SCORE.INTRA.REPUL.0>
0

>  <SCORE.INTRA.SOLV>
0.370002

>  <SCORE.INTRA.SOLV.lig_0>
-16.5947

>  <SCORE.INTRA.VDW>
-0.0439322

>  <SCORE.INTRA.VDW.0>
-0.691398

>  <SCORE.INTRA.norm>
-0.636695

>  <SCORE.RESTR>
0

>  <SCORE.RESTR.CAVITY>
0

>  <SCORE.RESTR.norm>
0

>  <SCORE.SYSTEM>
0

>  <SCORE.SYSTEM.CONST>
0

>  <SCORE.SYSTEM.DIHEDRAL>
0

>  <SCORE.SYSTEM.SOLV>
0

>  <SCORE.SYSTEM.norm>
0

>  <SCORE.heavy>
11

>  <SCORE.norm>
-3.18762

>  <RMSD>
5.858

$$$$
1akx_lig
 OpenBabel11021811383D
libRbt.so/2013.1/901 2013/11/27
 11 10  0  0  0  0  0  0  0  0999 V2000
   -2.4735   -2.1038   -3.7116 N   0  0  0  0  0  0  0  0  0  0  0  0
   -2.9223   -3.2295   -2.8400 C   0  0  2  0  0  0  0  0  0  0  0  0
   -4.4551   -3.2838   -2.8227 C   0  0  0  0  0  0  0  0  0  0  0  0
   -5.0340   -4.1794   -2.2405 O   0  0  0  0  0  0  0  0  0  0  0  0
   -2.3965   -3.0179   -1.4138 C   0  0  0  0  0  0  0  0  0  0  0  0
   -0.8669   -2.9320   -1.4342 C   0  0  0  0  0  0  0  0  0  0  0  0
   -0.3345   -2.9601   -0.0015 C   0  0  0  0  0  0  0  0  0  0  0  0
   -0.5031   -4.3297    0.5624 N   0  0  0  0  0  0  0  0  0  0  0  0
    0.0750   -4.6541    1.6906 C   0  0  0  0  0  0  0  0  0  0  0  0
    1.3465   -4.9609    1.7153 N   0  0  0  0  0  0  0  0  0  0  0  0
   -0.6192   -4.6653    2.7969 N   0  0  0  0  0  0  0  0  0  0  0  0
  2  1  1  6  0  0  0
  2  3  1  0  0  0  0
  2  5  1  0  0  0  0
  3  4  1  0  0  0  0
  5  6  1  0  0  0  0
  6  7  1  0  0  0  0
  7  8  1  0  0  0  0
  8  9  1  0  0  0  0
  9 10  1  0  0  0  0
  9 11  1  0  0  0  0
M  END
>  <CHROM.1>
-60.31497115,175.35522711,-58.48617118,-170.47182226,71.61058641,168.77432794
-79.08882459,5.08519516,158.50228503,-1.65429230,-3.67200298,-0.69687682
-2.27411195,0.26681113,2.09890663

>  <Name>
1akx_lig

>  <RI>
0

>  <Rbt.Current_Directory>
/home/itssahil/PROJECTS/Mol_Feturizer/New_Systems/rnas/1akx

>  <Rbt.Executable>
rbdock ($Id: //depot/dev/client3/rdock/2013.1/src/exe/rbdock.cxx#4 $)

>  <Rbt.Library>
libRbt.so (2013.1, Build901 2013/11/27)

>  <Rbt.Parameter_File>
/export/apps/rDock/src/rDock_2013.1_src/data/scripts/dock_solv.prm

>  <Rbt.Receptor>
prm/pocket_docking_3.prm

>  <SCORE>
-23.219

>  <SCORE.INTER>
-15.7486

>  <SCORE.INTER.CONST>
1

>  <SCORE.INTER.POLAR>
-1.83921

>  <SCORE.INTER.ROT>
8

>  <SCORE.INTER.SOLV>
5.51112

>  <SCORE.INTER.VDW>
-15.1387

>  <SCORE.INTER.norm>
-1.43169

>  <SCORE.INTRA>
-7.47045

>  <SCORE.INTRA.DIHEDRAL>
-15.8862

>  <SCORE.INTRA.DIHEDRAL.0>
21.6454

>  <SCORE.INTRA.POLAR>
0

>  <SCORE.INTRA.POLAR.0>
0

>  <SCORE.INTRA.REPUL>
0

>  <SCORE.INTRA.REPUL.0>
0

>  <SCORE.INTRA.SOLV>
0.137587

>  <SCORE.INTRA.SOLV.lig_0>
-16.5947

>  <SCORE.INTRA.VDW>
0.403847

>  <SCORE.INTRA.VDW.0>
-0.691398

>  <SCORE.INTRA.norm>
-0.679132

>  <SCORE.RESTR>
0

>  <SCORE.RESTR.CAVITY>
0

>  <SCORE.RESTR.norm>
0

>  <SCORE.SYSTEM>
0

>  <SCORE.SYSTEM.CONST>
0

>  <SCORE.SYSTEM.DIHEDRAL>
0

>  <SCORE.SYSTEM.SOLV>
0

>  <SCORE.SYSTEM.norm>
0

>  <SCORE.heavy>
11

>  <SCORE.norm>
-2.11082

>  <RMSD>
5.867

$$$$
1akx_lig
 OpenBabel11021811383D
libRbt.so/2013.1/901 2013/11/27
 11 10  0  0  0  0  0  0  0  0999 V2000
   -4.1303   -2.0295   -4.5170 N   0  0  0  0  0  0  0  0  0  0  0  0
   -3.7301   -2.7933   -3.2985 C   0  0  2  0  0  0  0  0  0  0  0  0
   -4.8110   -2.6410   -2.2209 C   0  0  0  0  0  0  0  0  0  0  0  0
   -4.7832   -3.3266   -1.2183 O   0  0  0  0  0  0  0  0  0  0  0  0
   -2.3934   -2.2557   -2.7695 C   0  0  0  0  0  0  0  0  0  0  0  0
   -1.9492   -3.0786   -1.5559 C   0  0  0  0  0  0  0  0  0  0  0  0
   -0.7056   -2.4425   -0.9349 C   0  0  0  0  0  0  0  0  0  0  0  0
   -0.7499   -2.6120    0.5455 N   0  0  0  0  0  0  0  0  0  0  0  0
   -0.0678   -3.5695    1.1204 C   0  0  0  0  0  0  0  0  0  0  0  0
    0.2420   -3.4881    2.3887 N   0  0  0  0  0  0  0  0  0  0  0  0
    0.2993   -4.6131    0.4260 N   0  0  0  0  0  0  0  0  0  0  0  0
  2  1  1  6  0  0  0
  2  3  1  0  0  0  0
  2  5  1  0  0  0  0
  3  4  1  0  0  0  0
  5  6  1  0  0  0  0
  6  7  1  0  0  0  0
  7  8  1  0  0  0  0
  8  9  1  0  0  0  0
  9 10  1  0  0  0  0
  9 11  1  0  0  0  0
M  END
>  <CHROM.1>
173.52054937,169.69539350,-177.48622967,-173.49657571,144.98486478,99.23268990
158.63585775,56.19471663,-112.25929162,-2.08035819,-2.99175621,-1.08665513
-2.31166055,0.04865651,1.85737998

>  <Name>
1akx_lig

>  <RI>
0

>  <Rbt.Current_Directory>
/home/itssahil/PROJECTS/Mol_Feturizer/New_Systems/rnas/1akx

>  <Rbt.Executable>
rbdock ($Id: //depot/dev/client3/rdock/2013.1/src/exe/rbdock.cxx#4 $)

>  <Rbt.Library>
libRbt.so (2013.1, Build901 2013/11/27)

>  <Rbt.Parameter_File>
/export/apps/rDock/src/rDock_2013.1_src/data/scripts/dock_solv.prm

>  <Rbt.Receptor>
prm/pocket_docking_5.prm

>  <SCORE>
-30.9981

>  <SCORE.INTER>
-26.5517

>  <SCORE.INTER.CONST>
1

>  <SCORE.INTER.POLAR>
-3.65904

>  <SCORE.INTER.ROT>
8

>  <SCORE.INTER.SOLV>
6.4479

>  <SCORE.INTER.VDW>
-16.5869

>  <SCORE.INTER.norm>
-2.41379

>  <SCORE.INTRA>
-4.44642

>  <SCORE.INTRA.DIHEDRAL>
-12.6862

>  <SCORE.INTRA.DIHEDRAL.0>
21.6454

>  <SCORE.INTRA.POLAR>
0

>  <SCORE.INTRA.POLAR.0>
0

>  <SCORE.INTRA.REPUL>
0

>  <SCORE.INTRA.REPUL.0>
0

>  <SCORE.INTRA.SOLV>
0.274217

>  <SCORE.INTRA.SOLV.lig_0>
-16.5947

>  <SCORE.INTRA.VDW>
1.75959

>  <SCORE.INTRA.VDW.0>
-0.691398

>  <SCORE.INTRA.norm>
-0.40422

>  <SCORE.RESTR>
0

>  <SCORE.RESTR.CAVITY>
0

>  <SCORE.RESTR.norm>
0

>  <SCORE.SYSTEM>
0

>  <SCORE.SYSTEM.CONST>
0

>  <SCORE.SYSTEM.DIHEDRAL>
0

>  <SCORE.SYSTEM.SOLV>
0

>  <SCORE.SYSTEM.norm>
0

>  <SCORE.heavy>
11

>  <SCORE.norm>
-2.81801

>  <RMSD>
5.876

$$$$
1akx_lig
 OpenBabel11021811383D
libRbt.so/2013.1/901 2013/11/27
 11 10  0  0  0  0  0  0  0  0999 V2000
   -4.1412   -2.0828   -4.4530 N   0  0  0  0  0  0  0  0  0  0  0  0
   -3.6883   -2.9037   -3.2915 C   0  0  2  0  0  0  0  0  0  0  0  0
   -4.7912   -2.9356   -2.2261 C   0  0  0  0  0  0  0  0  0  0  0  0
   -5.8286   -3.5342   -2.4301 O   0  0  0  0  0  0  0  0  0  0  0  0
   -2.4119   -2.2939   -2.6963 C   0  0  0  0  0  0  0  0  0  0  0  0
   -1.4527   -3.4119   -2.2750 C   0  0  0  0  0  0  0  0  0  0  0  0
   -2.0420   -4.1691   -1.0849 C   0  0  0  0  0  0  0  0  0  0  0  0
   -1.3985   -5.5100   -0.9837 N   0  0  0  0  0  0  0  0  0  0  0  0
   -1.5853   -6.2527    0.0774 C   0  0  0  0  0  0  0  0  0  0  0  0
   -2.7956   -6.4749    0.5216 N   0  0  0  0  0  0  0  0  0  0  0  0
   -0.5595   -6.7789    0.6912 N   0  0  0  0  0  0  0  0  0  0  0  0
  2  1  1  6  0  0  0
  2  3  1  0  0  0  0
  2  5  1  0  0  0  0
  3  4  1  0  0  0  0
  5  6  1  0  0  0  0
  6  7  1  0  0  0  0
  7  8  1  0  0  0  0
  8  9  1  0  0  0  0
  9 10  1  0  0  0  0
  9 11  1  0  0  0  0
M  END
>  <CHROM.1>
58.53893553,69.21987826,-141.29361273,-68.29216367,159.78750356,169.12094176
50.22475960,-141.48643127,-117.27734369,-2.81774318,-4.23048123,-1.65696105
-2.07791079,0.01057910,2.38351632

>  <Name>
1akx_lig

>  <RI>
0

>  <Rbt.Current_Directory>
/home/afrankz/demos/rdock_decoys_rna/rnas/1akx

>  <Rbt.Executable>
rbdock ($Id: //depot/dev/client3/rdock/2013.1/src/exe/rbdock.cxx#4 $)

>  <Rbt.Library>
libRbt.so (2013.1, Build901 2013/11/27)

>  <Rbt.Parameter_File>
/export/apps/rDock/src/rDock_2013.1_src/data/scripts/dock_solv.prm

>  <Rbt.Receptor>
prm/pocket_docking_3.prm

>  <SCORE>
-28.7891

>  <SCORE.INTER>
-24.1886

>  <SCORE.INTER.CONST>
1

>  <SCORE.INTER.POLAR>
-3.50397

>  <SCORE.INTER.ROT>
8

>  <SCORE.INTER.SOLV>
6.41659

>  <SCORE.INTER.VDW>
-15.518

>  <SCORE.INTER.norm>
-2.19896

>  <SCORE.INTRA>
-4.60055

>  <SCORE.INTRA.DIHEDRAL>
-10.6165

>  <SCORE.INTRA.DIHEDRAL.0>
21.6454

>  <SCORE.INTRA.POLAR>
0

>  <SCORE.INTRA.POLAR.0>
0

>  <SCORE.INTRA.REPUL>
0

>  <SCORE.INTRA.REPUL.0>
0

>  <SCORE.INTRA.SOLV>
0.284826

>  <SCORE.INTRA.SOLV.lig_0>
-16.5947

>  <SCORE.INTRA.VDW>
0.565298

>  <SCORE.INTRA.VDW.0>
-0.691398

>  <SCORE.INTRA.norm>
-0.418232

>  <SCORE.RESTR>
0

>  <SCORE.RESTR.CAVITY>
0

>  <SCORE.RESTR.norm>
0

>  <SCORE.SYSTEM>
0

>  <SCORE.SYSTEM.CONST>
0

>  <SCORE.SYSTEM.DIHEDRAL>
0

>  <SCORE.SYSTEM.SOLV>
0

>  <SCORE.SYSTEM.norm>
0

>  <SCORE.heavy>
11

>  <SCORE.norm>
-2.61719

>  <RMSD>
5.888

>  <RMSD>
5.888

$$$$
1akx_lig
 OpenBabel11021811383D
libRbt.so/2013.1/901 2013/11/27
 11 10  0  0  0  0  0  0  0  0999 V2000
   -4.1412   -2.0828   -4.4530 N   0  0  0  0  0  0  0  0  0  0  0  0
   -3.6883   -2.9037   -3.2915 C   0  0  2  0  0  0  0  0  0  0  0  0
   -4.7912   -2.9356   -2.2261 C   0  0  0  0  0  0  0  0  0  0  0  0
   -5.8286   -3.5342   -2.4301 O   0  0  0  0  0  0  0  0  0  0  0  0
   -2.4119   -2.2939   -2.6963 C   0  0  0  0  0  0  0  0  0  0  0  0
   -1.4527   -3.4119   -2.2750 C   0  0  0  0  0  0  0  0  0  0  0  0
   -2.0420   -4.1691   -1.0849 C   0  0  0  0  0  0  0  0  0  0  0  0
   -1.3985   -5.5100   -0.9837 N   0  0  0  0  0  0  0  0  0  0  0  0
   -1.5853   -6.2527    0.0774 C   0  0  0  0  0  0  0  0  0  0  0  0
   -2.7956   -6.4749    0.5216 N   0  0  0  0  0  0  0  0  0  0  0  0
   -0.5595   -6.7789    0.6912 N   0  0  0  0  0  0  0  0  0  0  0  0
  2  1  1  6  0  0  0
  2  3  1  0  0  0  0
  2  5  1  0  0  0  0
  3  4  1  0  0  0  0
  5  6  1  0  0  0  0
  6  7  1  0  0  0  0
  7  8  1  0  0  0  0
  8  9  1  0  0  0  0
  9 10  1  0  0  0  0
  9 11  1  0  0  0  0
M  END
>  <CHROM.1>
58.53893553,69.21987826,-141.29361273,-68.29216367,159.78750356,169.12094176
50.22475960,-141.48643127,-117.27734369,-2.81774318,-4.23048123,-1.65696105
-2.07791079,0.01057910,2.38351632

>  <Name>
1akx_lig

>  <RI>
0

>  <Rbt.Current_Directory>
/home/afrankz/demos/rdock_decoys_rna/rnas/1akx

>  <Rbt.Executable>
rbdock ($Id: //depot/dev/client3/rdock/2013.1/src/exe/rbdock.cxx#4 $)

>  <Rbt.Library>
libRbt.so (2013.1, Build901 2013/11/27)

>  <Rbt.Parameter_File>
/export/apps/rDock/src/rDock_2013.1_src/data/scripts/dock_solv.prm

>  <Rbt.Receptor>
prm/pocket_docking_3.prm

>  <SCORE>
-28.7891

>  <SCORE.INTER>
-24.1886

>  <SCORE.INTER.CONST>
1

>  <SCORE.INTER.POLAR>
-3.50397

>  <SCORE.INTER.ROT>
8

>  <SCORE.INTER.SOLV>
6.41659

>  <SCORE.INTER.VDW>
-15.518

>  <SCORE.INTER.norm>
-2.19896

>  <SCORE.INTRA>
-4.60055

>  <SCORE.INTRA.DIHEDRAL>
-10.6165

>  <SCORE.INTRA.DIHEDRAL.0>
21.6454

>  <SCORE.INTRA.POLAR>
0

>  <SCORE.INTRA.POLAR.0>
0

>  <SCORE.INTRA.REPUL>
0

>  <SCORE.INTRA.REPUL.0>
0

>  <SCORE.INTRA.SOLV>
0.284826

>  <SCORE.INTRA.SOLV.lig_0>
-16.5947

>  <SCORE.INTRA.VDW>
0.565298

>  <SCORE.INTRA.VDW.0>
-0.691398

>  <SCORE.INTRA.norm>
-0.418232

>  <SCORE.RESTR>
0

>  <SCORE.RESTR.CAVITY>
0

>  <SCORE.RESTR.norm>
0

>  <SCORE.SYSTEM>
0

>  <SCORE.SYSTEM.CONST>
0

>  <SCORE.SYSTEM.DIHEDRAL>
0

>  <SCORE.SYSTEM.SOLV>
0

>  <SCORE.SYSTEM.norm>
0

>  <SCORE.heavy>
11

>  <SCORE.norm>
-2.61719

>  <RMSD>
5.888

>  <RMSD>
5.888

$$$$
1akx_lig
 OpenBabel11021811383D
libRbt.so/2013.1/901 2013/11/27
 11 10  0  0  0  0  0  0  0  0999 V2000
   -1.9987   -2.9268   -3.9989 N   0  0  0  0  0  0  0  0  0  0  0  0
   -2.7507   -3.1559   -2.7299 C   0  0  2  0  0  0  0  0  0  0  0  0
   -4.1693   -2.5887   -2.8660 C   0  0  0  0  0  0  0  0  0  0  0  0
   -4.9313   -3.0277   -3.7043 O   0  0  0  0  0  0  0  0  0  0  0  0
   -2.0256   -2.4618   -1.5689 C   0  0  0  0  0  0  0  0  0  0  0  0
   -2.0263   -3.3753   -0.3390 C   0  0  0  0  0  0  0  0  0  0  0  0
   -0.9994   -4.4913   -0.5309 C   0  0  0  0  0  0  0  0  0  0  0  0
   -0.5875   -5.0192    0.8010 N   0  0  0  0  0  0  0  0  0  0  0  0
   -1.0659   -6.1568    1.2361 C   0  0  0  0  0  0  0  0  0  0  0  0
   -0.4656   -7.2808    0.9398 N   0  0  0  0  0  0  0  0  0  0  0  0
   -2.1433   -6.1689    1.9743 N   0  0  0  0  0  0  0  0  0  0  0  0
  2  1  1  6  0  0  0
  2  3  1  0  0  0  0
  2  5  1  0  0  0  0
  3  4  1  0  0  0  0
  5  6  1  0  0  0  0
  6  7  1  0  0  0  0
  7  8  1  0  0  0  0
  8  9  1  0  0  0  0
  9 10  1  0  0  0  0
  9 11  1  0  0  0  0
M  END
>  <CHROM.1>
-2.67799048,61.73500060,-138.19142914,75.60834053,156.82696725,102.76429474
88.06512747,87.42088860,-136.29961606,-2.10672258,-4.26400505,-1.00162283
-1.97755204,0.03193680,2.22905875

>  <Name>
1akx_lig

>  <RI>
0

>  <Rbt.Current_Directory>
/home/itssahil/PROJECTS/Mol_Feturizer/New_Systems/rnas/1akx

>  <Rbt.Executable>
rbdock ($Id: //depot/dev/client3/rdock/2013.1/src/exe/rbdock.cxx#4 $)

>  <Rbt.Library>
libRbt.so (2013.1, Build901 2013/11/27)

>  <Rbt.Parameter_File>
/export/apps/rDock/src/rDock_2013.1_src/data/scripts/dock_solv.prm

>  <Rbt.Receptor>
prm/pocket_docking_2.prm

>  <SCORE>
-22.3641

>  <SCORE.INTER>
-20.3455

>  <SCORE.INTER.CONST>
1

>  <SCORE.INTER.POLAR>
-2.90809

>  <SCORE.INTER.ROT>
8

>  <SCORE.INTER.SOLV>
5.8217

>  <SCORE.INTER.VDW>
-14.7439

>  <SCORE.INTER.norm>
-1.84959

>  <SCORE.INTRA>
-2.02049

>  <SCORE.INTRA.DIHEDRAL>
-5.85383

>  <SCORE.INTRA.DIHEDRAL.0>
21.6454

>  <SCORE.INTRA.POLAR>
0

>  <SCORE.INTRA.POLAR.0>
0

>  <SCORE.INTRA.REPUL>
0

>  <SCORE.INTRA.REPUL.0>
0

>  <SCORE.INTRA.SOLV>
0.282315

>  <SCORE.INTRA.SOLV.lig_0>
-16.5947

>  <SCORE.INTRA.VDW>
0.765268

>  <SCORE.INTRA.VDW.0>
-0.691398

>  <SCORE.INTRA.norm>
-0.183681

>  <SCORE.RESTR>
0.00191006

>  <SCORE.RESTR.CAVITY>
0.00191006

>  <SCORE.RESTR.norm>
0.000173642

>  <SCORE.SYSTEM>
0

>  <SCORE.SYSTEM.CONST>
0

>  <SCORE.SYSTEM.DIHEDRAL>
0

>  <SCORE.SYSTEM.SOLV>
0

>  <SCORE.SYSTEM.norm>
0

>  <SCORE.heavy>
11

>  <SCORE.norm>
-2.0331

>  <RMSD>
5.894

$$$$
1akx_lig
 OpenBabel11021811383D
libRbt.so/2013.1/901 2013/11/27
 11 10  0  0  0  0  0  0  0  0999 V2000
   -4.0959   -2.0790   -4.5054 N   0  0  0  0  0  0  0  0  0  0  0  0
   -3.7165   -2.9762   -3.3744 C   0  0  2  0  0  0  0  0  0  0  0  0
   -4.9170   -3.1528   -2.4361 C   0  0  0  0  0  0  0  0  0  0  0  0
   -5.8960   -3.7749   -2.7977 O   0  0  0  0  0  0  0  0  0  0  0  0
   -2.5420   -2.3616   -2.6010 C   0  0  0  0  0  0  0  0  0  0  0  0
   -1.6965   -3.4750   -1.9744 C   0  0  0  0  0  0  0  0  0  0  0  0
   -0.9023   -2.9117   -0.7959 C   0  0  0  0  0  0  0  0  0  0  0  0
   -0.1028   -4.0036   -0.1707 N   0  0  0  0  0  0  0  0  0  0  0  0
   -0.6870   -4.9013    0.5811 C   0  0  0  0  0  0  0  0  0  0  0  0
   -0.5945   -4.8311    1.8841 N   0  0  0  0  0  0  0  0  0  0  0  0
   -1.3703   -5.8673    0.0279 N   0  0  0  0  0  0  0  0  0  0  0  0
  2  1  1  6  0  0  0
  2  3  1  0  0  0  0
  2  5  1  0  0  0  0
  3  4  1  0  0  0  0
  5  6  1  0  0  0  0
  6  7  1  0  0  0  0
  7  8  1  0  0  0  0
  8  9  1  0  0  0  0
  9 10  1  0  0  0  0
  9 11  1  0  0  0  0
M  END
>  <CHROM.1>
64.87572508,68.93715456,-150.75648625,-157.69937146,178.82151464,-75.12787681
-102.57089542,90.85773687,-79.39225448,-2.43639988,-3.67941493,-1.47735265
-2.32910283,0.30825610,2.28825670

>  <Name>
1akx_lig

>  <RI>
0

>  <Rbt.Current_Directory>
/home/itssahil/PROJECTS/Mol_Feturizer/New_Systems/rnas/1akx

>  <Rbt.Executable>
rbdock ($Id: //depot/dev/client3/rdock/2013.1/src/exe/rbdock.cxx#4 $)

>  <Rbt.Library>
libRbt.so (2013.1, Build901 2013/11/27)

>  <Rbt.Parameter_File>
/export/apps/rDock/src/rDock_2013.1_src/data/scripts/dock_solv.prm

>  <Rbt.Receptor>
prm/pocket_docking_3.prm

>  <SCORE>
-31.0766

>  <SCORE.INTER>
-25.0508

>  <SCORE.INTER.CONST>
1

>  <SCORE.INTER.POLAR>
-3.57296

>  <SCORE.INTER.ROT>
8

>  <SCORE.INTER.SOLV>
6.79975

>  <SCORE.INTER.VDW>
-15.9906

>  <SCORE.INTER.norm>
-2.27734

>  <SCORE.INTRA>
-6.02588

>  <SCORE.INTRA.DIHEDRAL>
-11.8163

>  <SCORE.INTRA.DIHEDRAL.0>
21.6454

>  <SCORE.INTRA.POLAR>
0

>  <SCORE.INTRA.POLAR.0>
0

>  <SCORE.INTRA.REPUL>
0

>  <SCORE.INTRA.REPUL.0>
0

>  <SCORE.INTRA.SOLV>
0.301375

>  <SCORE.INTRA.SOLV.lig_0>
-16.5947

>  <SCORE.INTRA.VDW>
-0.268399

>  <SCORE.INTRA.VDW.0>
-0.691398

>  <SCORE.INTRA.norm>
-0.547807

>  <SCORE.RESTR>
0

>  <SCORE.RESTR.CAVITY>
0

>  <SCORE.RESTR.norm>
0

>  <SCORE.SYSTEM>
0

>  <SCORE.SYSTEM.CONST>
0

>  <SCORE.SYSTEM.DIHEDRAL>
0

>  <SCORE.SYSTEM.SOLV>
0

>  <SCORE.SYSTEM.norm>
0

>  <SCORE.heavy>
11

>  <SCORE.norm>
-2.82515

>  <RMSD>
5.897

$$$$
1akx_lig
 OpenBabel11021811383D
libRbt.so/2013.1/901 2013/11/27
 11 10  0  0  0  0  0  0  0  0999 V2000
   -4.0828   -2.1015   -4.4940 N   0  0  0  0  0  0  0  0  0  0  0  0
   -3.5487   -2.8661   -3.3286 C   0  0  2  0  0  0  0  0  0  0  0  0
   -4.5698   -2.8349   -2.1844 C   0  0  0  0  0  0  0  0  0  0  0  0
   -5.6333   -3.4127   -2.2909 O   0  0  0  0  0  0  0  0  0  0  0  0
   -2.2291   -2.2374   -2.8610 C   0  0  0  0  0  0  0  0  0  0  0  0
   -1.4528   -3.2424   -2.0038 C   0  0  0  0  0  0  0  0  0  0  0  0
   -1.9705   -3.1949   -0.5662 C   0  0  0  0  0  0  0  0  0  0  0  0
   -1.2258   -4.1864    0.2610 N   0  0  0  0  0  0  0  0  0  0  0  0
   -0.5045   -3.7880    1.2776 C   0  0  0  0  0  0  0  0  0  0  0  0
    0.6482   -3.2023    1.0787 N   0  0  0  0  0  0  0  0  0  0  0  0
   -0.9408   -3.9705    2.4952 N   0  0  0  0  0  0  0  0  0  0  0  0
  2  1  1  6  0  0  0
  2  3  1  0  0  0  0
  2  5  1  0  0  0  0
  3  4  1  0  0  0  0
  5  6  1  0  0  0  0
  6  7  1  0  0  0  0
  7  8  1  0  0  0  0
  8  9  1  0  0  0  0
  9 10  1  0  0  0  0
  9 11  1  0  0  0  0
M  END
>  <CHROM.1>
-64.26253473,67.75680126,-161.49172600,-83.21900175,179.25367979,118.28495247
-74.77853360,159.52402560,37.51029413,-2.33475642,-3.18280198,-1.14512274
-2.25136789,0.15326039,1.91482159

>  <Name>
1akx_lig

>  <RI>
0

>  <Rbt.Current_Directory>
/home/itssahil/PROJECTS/Mol_Feturizer/New_Systems/rnas/1akx

>  <Rbt.Executable>
rbdock ($Id: //depot/dev/client3/rdock/2013.1/src/exe/rbdock.cxx#4 $)

>  <Rbt.Library>
libRbt.so (2013.1, Build901 2013/11/27)

>  <Rbt.Parameter_File>
/export/apps/rDock/src/rDock_2013.1_src/data/scripts/dock_solv.prm

>  <Rbt.Receptor>
prm/pocket_docking_5.prm

>  <SCORE>
-30.7853

>  <SCORE.INTER>
-24.7578

>  <SCORE.INTER.CONST>
1

>  <SCORE.INTER.POLAR>
-3.57159

>  <SCORE.INTER.ROT>
8

>  <SCORE.INTER.SOLV>
5.47854

>  <SCORE.INTER.VDW>
-15.3594

>  <SCORE.INTER.norm>
-2.25071

>  <SCORE.INTRA>
-6.02751

>  <SCORE.INTRA.DIHEDRAL>
-13.309

>  <SCORE.INTRA.DIHEDRAL.0>
21.6454

>  <SCORE.INTRA.POLAR>
0

>  <SCORE.INTRA.POLAR.0>
0

>  <SCORE.INTRA.REPUL>
0

>  <SCORE.INTRA.REPUL.0>
0

>  <SCORE.INTRA.SOLV>
0.361118

>  <SCORE.INTRA.SOLV.lig_0>
-16.5947

>  <SCORE.INTRA.VDW>
0.446445

>  <SCORE.INTRA.VDW.0>
-0.691398

>  <SCORE.INTRA.norm>
-0.547955

>  <SCORE.RESTR>
0

>  <SCORE.RESTR.CAVITY>
0

>  <SCORE.RESTR.norm>
0

>  <SCORE.SYSTEM>
0

>  <SCORE.SYSTEM.CONST>
0

>  <SCORE.SYSTEM.DIHEDRAL>
0

>  <SCORE.SYSTEM.SOLV>
0

>  <SCORE.SYSTEM.norm>
0

>  <SCORE.heavy>
11

>  <SCORE.norm>
-2.79866

>  <RMSD>
5.899

$$$$
1akx_lig
 OpenBabel11021811383D
libRbt.so/2013.1/901 2013/11/27
 11 10  0  0  0  0  0  0  0  0999 V2000
   -4.0439   -2.1024   -4.4898 N   0  0  0  0  0  0  0  0  0  0  0  0
   -3.5183   -2.4360   -3.1331 C   0  0  2  0  0  0  0  0  0  0  0  0
   -1.9995   -2.6371   -3.2077 C   0  0  0  0  0  0  0  0  0  0  0  0
   -1.5288   -3.5398   -3.8707 O   0  0  0  0  0  0  0  0  0  0  0  0
   -4.1855   -3.7209   -2.6239 C   0  0  0  0  0  0  0  0  0  0  0  0
   -5.4731   -3.3714   -1.8708 C   0  0  0  0  0  0  0  0  0  0  0  0
   -6.1746   -4.6574   -1.4339 C   0  0  0  0  0  0  0  0  0  0  0  0
   -7.2346   -4.3294   -0.4385 N   0  0  0  0  0  0  0  0  0  0  0  0
   -6.9514   -4.2924    0.8385 C   0  0  0  0  0  0  0  0  0  0  0  0
   -6.2432   -3.3075    1.3283 N   0  0  0  0  0  0  0  0  0  0  0  0
   -7.3831   -5.2394    1.6277 N   0  0  0  0  0  0  0  0  0  0  0  0
  2  1  1  6  0  0  0
  2  3  1  0  0  0  0
  2  5  1  0  0  0  0
  3  4  1  0  0  0  0
  5  6  1  0  0  0  0
  6  7  1  0  0  0  0
  7  8  1  0  0  0  0
  8  9  1  0  0  0  0
  9 10  1  0  0  0  0
  9 11  1  0  0  0  0
M  END
>  <CHROM.1>
4.69958622,-63.46574239,-89.13037752,176.83587524,166.67983276,-89.19290472
72.59565214,62.21588761,-96.80999203,-4.97926543,-3.59562078,-1.57744842
0.85064500,-0.04399013,-1.26699499

>  <Name>
1akx_lig

>  <RI>
0

>  <Rbt.Current_Directory>
/home/itssahil/PROJECTS/Mol_Feturizer/New_Systems/rnas/1akx

>  <Rbt.Executable>
rbdock ($Id: //depot/dev/client3/rdock/2013.1/src/exe/rbdock.cxx#4 $)

>  <Rbt.Library>
libRbt.so (2013.1, Build901 2013/11/27)

>  <Rbt.Parameter_File>
/export/apps/rDock/src/rDock_2013.1_src/data/scripts/dock_solv.prm

>  <Rbt.Receptor>
prm/pocket_docking_5.prm

>  <SCORE>
-32.5174

>  <SCORE.INTER>
-28.7246

>  <SCORE.INTER.CONST>
1

>  <SCORE.INTER.POLAR>
-4.38611

>  <SCORE.INTER.ROT>
8

>  <SCORE.INTER.SOLV>
7.45207

>  <SCORE.INTER.VDW>
-15.9468

>  <SCORE.INTER.norm>
-2.61133

>  <SCORE.INTRA>
-3.92719

>  <SCORE.INTRA.DIHEDRAL>
-9.75702

>  <SCORE.INTRA.DIHEDRAL.0>
21.6454

>  <SCORE.INTRA.POLAR>
0

>  <SCORE.INTRA.POLAR.0>
0

>  <SCORE.INTRA.REPUL>
0

>  <SCORE.INTRA.REPUL.0>
0

>  <SCORE.INTRA.SOLV>
0.412743

>  <SCORE.INTRA.SOLV.lig_0>
-16.5947

>  <SCORE.INTRA.VDW>
0.744949

>  <SCORE.INTRA.VDW.0>
-0.691398

>  <SCORE.INTRA.norm>
-0.357017

>  <SCORE.RESTR>
0.13445

>  <SCORE.RESTR.CAVITY>
0.13445

>  <SCORE.RESTR.norm>
0.0122227

>  <SCORE.SYSTEM>
0

>  <SCORE.SYSTEM.CONST>
0

>  <SCORE.SYSTEM.DIHEDRAL>
0

>  <SCORE.SYSTEM.SOLV>
0

>  <SCORE.SYSTEM.norm>
0

>  <SCORE.heavy>
11

>  <SCORE.norm>
-2.95613

>  <RMSD>
5.900

$$$$
1akx_lig
 OpenBabel11021811383D
libRbt.so/2013.1/901 2013/11/27
 11 10  0  0  0  0  0  0  0  0999 V2000
   -4.1003   -2.0860   -4.5005 N   0  0  0  0  0  0  0  0  0  0  0  0
   -3.6341   -2.9137   -3.3491 C   0  0  2  0  0  0  0  0  0  0  0  0
   -4.7669   -3.0488   -2.3239 C   0  0  0  0  0  0  0  0  0  0  0  0
   -5.7844   -3.6505   -2.6048 O   0  0  0  0  0  0  0  0  0  0  0  0
   -2.4193   -2.2444   -2.6919 C   0  0  0  0  0  0  0  0  0  0  0  0
   -1.7713   -3.2123   -1.6967 C   0  0  0  0  0  0  0  0  0  0  0  0
   -0.7060   -2.4741   -0.8860 C   0  0  0  0  0  0  0  0  0  0  0  0
   -0.0201   -3.4368    0.0223 N   0  0  0  0  0  0  0  0  0  0  0  0
   -0.5936   -3.8161    1.1357 C   0  0  0  0  0  0  0  0  0  0  0  0
   -0.9866   -5.0547    1.2859 N   0  0  0  0  0  0  0  0  0  0  0  0
   -0.7682   -2.9557    2.1028 N   0  0  0  0  0  0  0  0  0  0  0  0
  2  1  1  6  0  0  0
  2  3  1  0  0  0  0
  2  5  1  0  0  0  0
  3  4  1  0  0  0  0
  5  6  1  0  0  0  0
  6  7  1  0  0  0  0
  7  8  1  0  0  0  0
  8  9  1  0  0  0  0
  9 10  1  0  0  0  0
  9 11  1  0  0  0  0
M  END
>  <CHROM.1>
-176.48593601,65.66291321,-168.92086955,-171.05651551,-176.56698285,-78.57091110
112.80618239,52.00231945,-170.41478816,-2.35001156,-3.17791028,-1.22831558
-2.31697104,0.31367356,2.05467066

>  <Name>
1akx_lig

>  <RI>
0

>  <Rbt.Current_Directory>
/home/itssahil/PROJECTS/Mol_Feturizer/New_Systems/rnas/1akx

>  <Rbt.Executable>
rbdock ($Id: //depot/dev/client3/rdock/2013.1/src/exe/rbdock.cxx#4 $)

>  <Rbt.Library>
libRbt.so (2013.1, Build901 2013/11/27)

>  <Rbt.Parameter_File>
/export/apps/rDock/src/rDock_2013.1_src/data/scripts/dock_solv.prm

>  <Rbt.Receptor>
prm/pocket_docking_4.prm

>  <SCORE>
-32.5359

>  <SCORE.INTER>
-25.0351

>  <SCORE.INTER.CONST>
1

>  <SCORE.INTER.POLAR>
-3.58522

>  <SCORE.INTER.ROT>
8

>  <SCORE.INTER.SOLV>
6.28797

>  <SCORE.INTER.VDW>
-15.7686

>  <SCORE.INTER.norm>
-2.27592

>  <SCORE.INTRA>
-7.50086

>  <SCORE.INTRA.DIHEDRAL>
-15.8481

>  <SCORE.INTRA.DIHEDRAL.0>
21.6454

>  <SCORE.INTRA.POLAR>
0

>  <SCORE.INTRA.POLAR.0>
0

>  <SCORE.INTRA.REPUL>
0

>  <SCORE.INTRA.REPUL.0>
0

>  <SCORE.INTRA.SOLV>
0.296673

>  <SCORE.INTRA.SOLV.lig_0>
-16.5947

>  <SCORE.INTRA.VDW>
0.274862

>  <SCORE.INTRA.VDW.0>
-0.691398

>  <SCORE.INTRA.norm>
-0.681896

>  <SCORE.RESTR>
0

>  <SCORE.RESTR.CAVITY>
0

>  <SCORE.RESTR.norm>
0

>  <SCORE.SYSTEM>
0

>  <SCORE.SYSTEM.CONST>
0

>  <SCORE.SYSTEM.DIHEDRAL>
0

>  <SCORE.SYSTEM.SOLV>
0

>  <SCORE.SYSTEM.norm>
0

>  <SCORE.heavy>
11

>  <SCORE.norm>
-2.95781

>  <RMSD>
5.903

$$$$
1akx_lig
 OpenBabel11021811383D
libRbt.so/2013.1/901 2013/11/27
 11 10  0  0  0  0  0  0  0  0999 V2000
   -2.1454   -2.7592   -4.0425 N   0  0  0  0  0  0  0  0  0  0  0  0
   -2.7310   -3.1626   -2.7301 C   0  0  2  0  0  0  0  0  0  0  0  0
   -4.1933   -2.7049   -2.6596 C   0  0  0  0  0  0  0  0  0  0  0  0
   -5.0113   -3.1301   -3.4509 O   0  0  0  0  0  0  0  0  0  0  0  0
   -1.9319   -2.5177   -1.5894 C   0  0  0  0  0  0  0  0  0  0  0  0
   -2.3459   -3.1401   -0.2520 C   0  0  0  0  0  0  0  0  0  0  0  0
   -1.7232   -4.5301   -0.1210 C   0  0  0  0  0  0  0  0  0  0  0  0
   -0.3136   -4.3989    0.3460 N   0  0  0  0  0  0  0  0  0  0  0  0
   -0.0053   -4.6530    1.5921 C   0  0  0  0  0  0  0  0  0  0  0  0
   -0.8192   -4.3071    2.5561 N   0  0  0  0  0  0  0  0  0  0  0  0
    1.1164   -5.2601    1.8733 N   0  0  0  0  0  0  0  0  0  0  0  0
  2  1  1  6  0  0  0
  2  3  1  0  0  0  0
  2  5  1  0  0  0  0
  3  4  1  0  0  0  0
  5  6  1  0  0  0  0
  6  7  1  0  0  0  0
  7  8  1  0  0  0  0
  8  9  1  0  0  0  0
  9 10  1  0  0  0  0
  9 11  1  0  0  0  0
M  END
>  <CHROM.1>
131.75027141,61.83786108,-168.85546144,75.70798588,81.67383601,103.25883259
-37.98289887,-49.62382116,-135.44578093,-1.81173213,-3.69002374,-0.78988940
-2.18476696,-0.17741454,1.80537963

>  <Name>
1akx_lig

>  <RI>
0

>  <Rbt.Current_Directory>
/home/itssahil/PROJECTS/Mol_Feturizer/New_Systems/rnas/1akx

>  <Rbt.Executable>
rbdock ($Id: //depot/dev/client3/rdock/2013.1/src/exe/rbdock.cxx#4 $)

>  <Rbt.Library>
libRbt.so (2013.1, Build901 2013/11/27)

>  <Rbt.Parameter_File>
/export/apps/rDock/src/rDock_2013.1_src/data/scripts/dock_solv.prm

>  <Rbt.Receptor>
prm/pocket_docking_2.prm

>  <SCORE>
-24.1137

>  <SCORE.INTER>
-21.0263

>  <SCORE.INTER.CONST>
1

>  <SCORE.INTER.POLAR>
-2.80061

>  <SCORE.INTER.ROT>
8

>  <SCORE.INTER.SOLV>
6.16686

>  <SCORE.INTER.VDW>
-15.6711

>  <SCORE.INTER.norm>
-1.91148

>  <SCORE.INTRA>
-3.35257

>  <SCORE.INTRA.DIHEDRAL>
-10.5072

>  <SCORE.INTRA.DIHEDRAL.0>
21.6454

>  <SCORE.INTRA.POLAR>
0

>  <SCORE.INTRA.POLAR.0>
0

>  <SCORE.INTRA.REPUL>
0

>  <SCORE.INTRA.REPUL.0>
0

>  <SCORE.INTRA.SOLV>
0.51152

>  <SCORE.INTRA.SOLV.lig_0>
-16.5947

>  <SCORE.INTRA.VDW>
1.64526

>  <SCORE.INTRA.VDW.0>
-0.691398

>  <SCORE.INTRA.norm>
-0.304779

>  <SCORE.RESTR>
0.265146

>  <SCORE.RESTR.CAVITY>
0.265146

>  <SCORE.RESTR.norm>
0.0241042

>  <SCORE.SYSTEM>
0

>  <SCORE.SYSTEM.CONST>
0

>  <SCORE.SYSTEM.DIHEDRAL>
0

>  <SCORE.SYSTEM.SOLV>
0

>  <SCORE.SYSTEM.norm>
0

>  <SCORE.heavy>
11

>  <SCORE.norm>
-2.19215

>  <RMSD>
5.905

$$$$
1akx_lig
 OpenBabel11021811383D
libRbt.so/2013.1/901 2013/11/27
 11 10  0  0  0  0  0  0  0  0999 V2000
   -4.1084   -2.0777   -4.5169 N   0  0  0  0  0  0  0  0  0  0  0  0
   -3.6877   -2.9351   -3.3697 C   0  0  2  0  0  0  0  0  0  0  0  0
   -4.8517   -3.0738   -2.3805 C   0  0  0  0  0  0  0  0  0  0  0  0
   -5.8537   -3.6878   -2.6893 O   0  0  0  0  0  0  0  0  0  0  0  0
   -2.4832   -2.2972   -2.6644 C   0  0  0  0  0  0  0  0  0  0  0  0
   -1.8927   -3.2859   -1.6538 C   0  0  0  0  0  0  0  0  0  0  0  0
   -0.9011   -2.5578   -0.7464 C   0  0  0  0  0  0  0  0  0  0  0  0
   -0.0959   -3.5584    0.0104 N   0  0  0  0  0  0  0  0  0  0  0  0
   -0.6115   -4.1745    1.0433 C   0  0  0  0  0  0  0  0  0  0  0  0
   -1.8867   -4.0582    1.3112 N   0  0  0  0  0  0  0  0  0  0  0  0
    0.1493   -4.9135    1.8057 N   0  0  0  0  0  0  0  0  0  0  0  0
  2  1  1  6  0  0  0
  2  3  1  0  0  0  0
  2  5  1  0  0  0  0
  3  4  1  0  0  0  0
  5  6  1  0  0  0  0
  6  7  1  0  0  0  0
  7  8  1  0  0  0  0
  8  9  1  0  0  0  0
  9 10  1  0  0  0  0
  9 11  1  0  0  0  0
M  END
>  <CHROM.1>
63.54040802,67.80098664,-169.87618561,-167.78150085,-166.69794773,-77.34027040
9.37391071,-70.52086155,-35.94623130,-2.40828808,-3.33778450,-1.26279306
-2.31109295,0.23238869,2.08039546

>  <Name>
1akx_lig

>  <RI>
0

>  <Rbt.Current_Directory>
/home/itssahil/PROJECTS/Mol_Feturizer/New_Systems/rnas/1akx

>  <Rbt.Executable>
rbdock ($Id: //depot/dev/client3/rdock/2013.1/src/exe/rbdock.cxx#4 $)

>  <Rbt.Library>
libRbt.so (2013.1, Build901 2013/11/27)

>  <Rbt.Parameter_File>
/export/apps/rDock/src/rDock_2013.1_src/data/scripts/dock_solv.prm

>  <Rbt.Receptor>
prm/pocket_docking_2.prm

>  <SCORE>
-30.5661

>  <SCORE.INTER>
-25.3776

>  <SCORE.INTER.CONST>
1

>  <SCORE.INTER.POLAR>
-3.59816

>  <SCORE.INTER.ROT>
8

>  <SCORE.INTER.SOLV>
6.64687

>  <SCORE.INTER.VDW>
-16.0735

>  <SCORE.INTER.norm>
-2.30705

>  <SCORE.INTRA>
-6.09497

>  <SCORE.INTRA.DIHEDRAL>
-14.9509

>  <SCORE.INTRA.DIHEDRAL.0>
21.6454

>  <SCORE.INTRA.POLAR>
0

>  <SCORE.INTRA.POLAR.0>
0

>  <SCORE.INTRA.REPUL>
0

>  <SCORE.INTRA.REPUL.0>
0

>  <SCORE.INTRA.SOLV>
0.378148

>  <SCORE.INTRA.SOLV.lig_0>
-16.5947

>  <SCORE.INTRA.VDW>
1.19141

>  <SCORE.INTRA.VDW.0>
-0.691398

>  <SCORE.INTRA.norm>
-0.554088

>  <SCORE.RESTR>
0.906443

>  <SCORE.RESTR.CAVITY>
0.906443

>  <SCORE.RESTR.norm>
0.0824039

>  <SCORE.SYSTEM>
0

>  <SCORE.SYSTEM.CONST>
0

>  <SCORE.SYSTEM.DIHEDRAL>
0

>  <SCORE.SYSTEM.SOLV>
0

>  <SCORE.SYSTEM.norm>
0

>  <SCORE.heavy>
11

>  <SCORE.norm>
-2.77874

>  <RMSD>
5.911

$$$$
1akx_lig
 OpenBabel11021811383D
libRbt.so/2013.1/901 2013/11/27
 11 10  0  0  0  0  0  0  0  0999 V2000
   -4.0220   -2.3806   -4.3560 N   0  0  0  0  0  0  0  0  0  0  0  0
   -3.3231   -3.0693   -3.2311 C   0  0  2  0  0  0  0  0  0  0  0  0
   -4.3190   -3.3336   -2.0948 C   0  0  0  0  0  0  0  0  0  0  0  0
   -4.9992   -2.4312   -1.6486 O   0  0  0  0  0  0  0  0  0  0  0  0
   -2.1770   -2.1863   -2.7190 C   0  0  0  0  0  0  0  0  0  0  0  0
   -1.0944   -3.0629   -2.0812 C   0  0  0  0  0  0  0  0  0  0  0  0
   -1.4256   -3.2919   -0.6065 C   0  0  0  0  0  0  0  0  0  0  0  0
   -0.2328   -3.8564    0.0868 N   0  0  0  0  0  0  0  0  0  0  0  0
   -0.3143   -4.2347    1.3369 C   0  0  0  0  0  0  0  0  0  0  0  0
    0.1360   -5.4077    1.7012 N   0  0  0  0  0  0  0  0  0  0  0  0
   -0.8416   -3.4350    2.2249 N   0  0  0  0  0  0  0  0  0  0  0  0
  2  1  1  6  0  0  0
  2  3  1  0  0  0  0
  2  5  1  0  0  0  0
  3  4  1  0  0  0  0
  5  6  1  0  0  0  0
  6  7  1  0  0  0  0
  7  8  1  0  0  0  0
  8  9  1  0  0  0  0
  9 10  1  0  0  0  0
  9 11  1  0  0  0  0
M  END
>  <CHROM.1>
62.86292159,-52.22940896,-153.75246433,-87.48802988,-166.57842757,-174.51730766
131.11006561,-125.00912670,-53.55979453,-2.07602296,-3.33201212,-1.02663039
-2.22266463,-0.18178488,1.79353315

>  <Name>
1akx_lig

>  <RI>
0

>  <Rbt.Current_Directory>
/home/itssahil/PROJECTS/Mol_Feturizer/New_Systems/rnas/1akx

>  <Rbt.Executable>
rbdock ($Id: //depot/dev/client3/rdock/2013.1/src/exe/rbdock.cxx#4 $)

>  <Rbt.Library>
libRbt.so (2013.1, Build901 2013/11/27)

>  <Rbt.Parameter_File>
/export/apps/rDock/src/rDock_2013.1_src/data/scripts/dock_solv.prm

>  <Rbt.Receptor>
prm/pocket_docking_4.prm

>  <SCORE>
-28.0826

>  <SCORE.INTER>
-23.3117

>  <SCORE.INTER.CONST>
1

>  <SCORE.INTER.POLAR>
-3.20224

>  <SCORE.INTER.ROT>
8

>  <SCORE.INTER.SOLV>
6.08034

>  <SCORE.INTER.VDW>
-15.8271

>  <SCORE.INTER.norm>
-2.11925

>  <SCORE.INTRA>
-4.77086

>  <SCORE.INTRA.DIHEDRAL>
-10.9355

>  <SCORE.INTRA.DIHEDRAL.0>
21.6454

>  <SCORE.INTRA.POLAR>
0

>  <SCORE.INTRA.POLAR.0>
0

>  <SCORE.INTRA.REPUL>
0

>  <SCORE.INTRA.REPUL.0>
0

>  <SCORE.INTRA.SOLV>
0.371945

>  <SCORE.INTRA.SOLV.lig_0>
-16.5947

>  <SCORE.INTRA.VDW>
0.510918

>  <SCORE.INTRA.VDW.0>
-0.691398

>  <SCORE.INTRA.norm>
-0.433714

>  <SCORE.RESTR>
0

>  <SCORE.RESTR.CAVITY>
0

>  <SCORE.RESTR.norm>
0

>  <SCORE.SYSTEM>
0

>  <SCORE.SYSTEM.CONST>
0

>  <SCORE.SYSTEM.DIHEDRAL>
0

>  <SCORE.SYSTEM.SOLV>
0

>  <SCORE.SYSTEM.norm>
0

>  <SCORE.heavy>
11

>  <SCORE.norm>
-2.55296

>  <RMSD>
5.913

$$$$
1akx_lig
 OpenBabel11021811383D
libRbt.so/2013.1/901 2013/11/27
 11 10  0  0  0  0  0  0  0  0999 V2000
   -4.1272   -2.0811   -4.4765 N   0  0  0  0  0  0  0  0  0  0  0  0
   -3.6370   -2.8679   -3.3066 C   0  0  2  0  0  0  0  0  0  0  0  0
   -4.6991   -2.8556   -2.2000 C   0  0  0  0  0  0  0  0  0  0  0  0
   -5.7655   -3.4146   -2.3625 O   0  0  0  0  0  0  0  0  0  0  0  0
   -2.3345   -2.2503   -2.7798 C   0  0  0  0  0  0  0  0  0  0  0  0
   -1.6697   -3.2122   -1.7897 C   0  0  0  0  0  0  0  0  0  0  0  0
   -0.7341   -2.4302   -0.8677 C   0  0  0  0  0  0  0  0  0  0  0  0
   -0.0162   -3.3798    0.0296 N   0  0  0  0  0  0  0  0  0  0  0  0
   -0.5025   -3.6672    1.2100 C   0  0  0  0  0  0  0  0  0  0  0  0
   -0.0993   -3.0099    2.2668 N   0  0  0  0  0  0  0  0  0  0  0  0
   -1.3984   -4.6098    1.3319 N   0  0  0  0  0  0  0  0  0  0  0  0
  2  1  1  6  0  0  0
  2  3  1  0  0  0  0
  2  5  1  0  0  0  0
  3  4  1  0  0  0  0
  5  6  1  0  0  0  0
  6  7  1  0  0  0  0
  7  8  1  0  0  0  0
  8  9  1  0  0  0  0
  9 10  1  0  0  0  0
  9 11  1  0  0  0  0
M  END
>  <CHROM.1>
-62.64678286,66.79989916,-167.78019577,-157.46839693,-176.00973046,-92.59947413
-94.67081576,144.72818891,37.39432498,-2.29861651,-3.07476621,-1.17460301
-2.30978397,0.24027622,1.96821023

>  <Name>
1akx_lig

>  <RI>
0

>  <Rbt.Current_Directory>
/home/itssahil/PROJECTS/Mol_Feturizer/New_Systems/rnas/1akx

>  <Rbt.Executable>
rbdock ($Id: //depot/dev/client3/rdock/2013.1/src/exe/rbdock.cxx#4 $)

>  <Rbt.Library>
libRbt.so (2013.1, Build901 2013/11/27)

>  <Rbt.Parameter_File>
/export/apps/rDock/src/rDock_2013.1_src/data/scripts/dock_solv.prm

>  <Rbt.Receptor>
prm/pocket_docking_8.prm

>  <SCORE>
-32.1925

>  <SCORE.INTER>
-25.2044

>  <SCORE.INTER.CONST>
1

>  <SCORE.INTER.POLAR>
-3.58096

>  <SCORE.INTER.ROT>
8

>  <SCORE.INTER.SOLV>
6.18839

>  <SCORE.INTER.VDW>
-15.8625

>  <SCORE.INTER.norm>
-2.29131

>  <SCORE.INTRA>
-6.98816

>  <SCORE.INTRA.DIHEDRAL>
-14.1241

>  <SCORE.INTRA.DIHEDRAL.0>
21.6454

>  <SCORE.INTRA.POLAR>
0

>  <SCORE.INTRA.POLAR.0>
0

>  <SCORE.INTRA.REPUL>
0

>  <SCORE.INTRA.REPUL.0>
0

>  <SCORE.INTRA.SOLV>
0.259786

>  <SCORE.INTRA.SOLV.lig_0>
-16.5947

>  <SCORE.INTRA.VDW>
-0.0560121

>  <SCORE.INTRA.VDW.0>
-0.691398

>  <SCORE.INTRA.norm>
-0.635288

>  <SCORE.RESTR>
0

>  <SCORE.RESTR.CAVITY>
0

>  <SCORE.RESTR.norm>
0

>  <SCORE.SYSTEM>
0

>  <SCORE.SYSTEM.CONST>
0

>  <SCORE.SYSTEM.DIHEDRAL>
0

>  <SCORE.SYSTEM.SOLV>
0

>  <SCORE.SYSTEM.norm>
0

>  <SCORE.heavy>
11

>  <SCORE.norm>
-2.9266

>  <RMSD>
5.914

$$$$
1akx_lig
 OpenBabel11021811383D
libRbt.so/2013.1/901 2013/11/27
 11 10  0  0  0  0  0  0  0  0999 V2000
   -4.1066   -2.1739   -4.4292 N   0  0  0  0  0  0  0  0  0  0  0  0
   -3.6185   -3.0360   -3.3127 C   0  0  2  0  0  0  0  0  0  0  0  0
   -4.7689   -3.3078   -2.3352 C   0  0  0  0  0  0  0  0  0  0  0  0
   -5.3216   -2.3897   -1.7626 O   0  0  0  0  0  0  0  0  0  0  0  0
   -2.4724   -2.3274   -2.5779 C   0  0  0  0  0  0  0  0  0  0  0  0
   -1.4224   -3.3554   -2.1445 C   0  0  0  0  0  0  0  0  0  0  0  0
   -1.9579   -4.1660   -0.9642 C   0  0  0  0  0  0  0  0  0  0  0  0
   -0.9549   -5.1988   -0.5775 N   0  0  0  0  0  0  0  0  0  0  0  0
   -0.4717   -5.2261    0.6383 C   0  0  0  0  0  0  0  0  0  0  0  0
    0.7905   -4.9567    0.8521 N   0  0  0  0  0  0  0  0  0  0  0  0
   -1.2546   -5.5174    1.6425 N   0  0  0  0  0  0  0  0  0  0  0  0
  2  1  1  6  0  0  0
  2  3  1  0  0  0  0
  2  5  1  0  0  0  0
  3  4  1  0  0  0  0
  5  6  1  0  0  0  0
  6  7  1  0  0  0  0
  7  8  1  0  0  0  0
  8  9  1  0  0  0  0
  9 10  1  0  0  0  0
  9 11  1  0  0  0  0
M  END
>  <CHROM.1>
-172.20435323,-60.33815714,-143.19513165,-73.66590684,177.91451101,121.99933711
-113.28961031,-156.38845216,108.90403917,-2.33466182,-3.78046617,-1.35715896
-2.27000045,-0.15978460,2.03609548

>  <Name>
1akx_lig

>  <RI>
0

>  <Rbt.Current_Directory>
/home/itssahil/PROJECTS/Mol_Feturizer/New_Systems/rnas/1akx

>  <Rbt.Executable>
rbdock ($Id: //depot/dev/client3/rdock/2013.1/src/exe/rbdock.cxx#4 $)

>  <Rbt.Library>
libRbt.so (2013.1, Build901 2013/11/27)

>  <Rbt.Parameter_File>
/export/apps/rDock/src/rDock_2013.1_src/data/scripts/dock_solv.prm

>  <Rbt.Receptor>
prm/pocket_docking_3.prm

>  <SCORE>
-30.5785

>  <SCORE.INTER>
-25.0938

>  <SCORE.INTER.CONST>
1

>  <SCORE.INTER.POLAR>
-3.4084

>  <SCORE.INTER.ROT>
8

>  <SCORE.INTER.SOLV>
7.16429

>  <SCORE.INTER.VDW>
-16.6893

>  <SCORE.INTER.norm>
-2.28126

>  <SCORE.INTRA>
-5.48462

>  <SCORE.INTRA.DIHEDRAL>
-11.9706

>  <SCORE.INTRA.DIHEDRAL.0>
21.6454

>  <SCORE.INTRA.POLAR>
0

>  <SCORE.INTRA.POLAR.0>
0

>  <SCORE.INTRA.REPUL>
0

>  <SCORE.INTRA.REPUL.0>
0

>  <SCORE.INTRA.SOLV>
0.478727

>  <SCORE.INTRA.SOLV.lig_0>
-16.5947

>  <SCORE.INTRA.VDW>
0.261323

>  <SCORE.INTRA.VDW.0>
-0.691398

>  <SCORE.INTRA.norm>
-0.498602

>  <SCORE.RESTR>
0

>  <SCORE.RESTR.CAVITY>
0

>  <SCORE.RESTR.norm>
0

>  <SCORE.SYSTEM>
0

>  <SCORE.SYSTEM.CONST>
0

>  <SCORE.SYSTEM.DIHEDRAL>
0

>  <SCORE.SYSTEM.SOLV>
0

>  <SCORE.SYSTEM.norm>
0

>  <SCORE.heavy>
11

>  <SCORE.norm>
-2.77986

>  <RMSD>
5.924

$$$$
1akx_lig
 OpenBabel11021811383D
libRbt.so/2013.1/901 2013/11/27
 11 10  0  0  0  0  0  0  0  0999 V2000
   -2.1792   -2.2244   -3.3641 N   0  0  0  0  0  0  0  0  0  0  0  0
   -2.8832   -3.4342   -2.8457 C   0  0  2  0  0  0  0  0  0  0  0  0
   -4.2699   -3.0357   -2.3250 C   0  0  0  0  0  0  0  0  0  0  0  0
   -5.0843   -3.8864   -2.0263 O   0  0  0  0  0  0  0  0  0  0  0  0
   -2.0639   -4.0593   -1.7084 C   0  0  0  0  0  0  0  0  0  0  0  0
   -2.6896   -5.3951   -1.2943 C   0  0  0  0  0  0  0  0  0  0  0  0
   -1.7565   -6.1166   -0.3219 C   0  0  0  0  0  0  0  0  0  0  0  0
   -0.8321   -7.0010   -1.0871 N   0  0  0  0  0  0  0  0  0  0  0  0
   -0.9079   -8.3012   -0.9605 C   0  0  0  0  0  0  0  0  0  0  0  0
   -2.0718   -8.8841   -0.8304 N   0  0  0  0  0  0  0  0  0  0  0  0
    0.1828   -9.0198   -0.9706 N   0  0  0  0  0  0  0  0  0  0  0  0
  2  1  1  1  0  0  0
  2  3  1  0  0  0  0
  2  5  1  0  0  0  0
  3  4  1  0  0  0  0
  5  6  1  0  0  0  0
  6  7  1  0  0  0  0
  7  8  1  0  0  0  0
  8  9  1  0  0  0  0
  9 10  1  0  0  0  0
  9 11  1  0  0  0  0
M  END
>  <CHROM.1>
-72.58242651,169.90725374,-172.87564687,171.16731060,-90.92337413,-113.72803131
37.44314284,130.33510481,122.64150638,-2.22313998,-5.58191696,-1.63077138
-2.01060273,-0.15548751,2.75838183

>  <Name>
1akx_lig

>  <RI>
0

>  <Rbt.Current_Directory>
/home/itssahil/PROJECTS/Mol_Feturizer/New_Systems/rnas/1akx

>  <Rbt.Executable>
rbdock ($Id: //depot/dev/client3/rdock/2013.1/src/exe/rbdock.cxx#4 $)

>  <Rbt.Library>
libRbt.so (2013.1, Build901 2013/11/27)

>  <Rbt.Parameter_File>
/export/apps/rDock/src/rDock_2013.1_src/data/scripts/dock_solv.prm

>  <Rbt.Receptor>
prm/pocket_docking_4.prm

>  <SCORE>
-25.8315

>  <SCORE.INTER>
-20.9401

>  <SCORE.INTER.CONST>
1

>  <SCORE.INTER.POLAR>
-3.73046

>  <SCORE.INTER.ROT>
8

>  <SCORE.INTER.SOLV>
6.11342

>  <SCORE.INTER.VDW>
-12.4964

>  <SCORE.INTER.norm>
-1.90365

>  <SCORE.INTRA>
-4.98884

>  <SCORE.INTRA.DIHEDRAL>
-12.6882

>  <SCORE.INTRA.DIHEDRAL.0>
21.6454

>  <SCORE.INTRA.POLAR>
0

>  <SCORE.INTRA.POLAR.0>
0

>  <SCORE.INTRA.REPUL>
0

>  <SCORE.INTRA.REPUL.0>
0

>  <SCORE.INTRA.SOLV>
0.299538

>  <SCORE.INTRA.SOLV.lig_0>
-16.5947

>  <SCORE.INTRA.VDW>
1.20547

>  <SCORE.INTRA.VDW.0>
-0.691398

>  <SCORE.INTRA.norm>
-0.453531

>  <SCORE.RESTR>
0.0974649

>  <SCORE.RESTR.CAVITY>
0.0974649

>  <SCORE.RESTR.norm>
0.00886045

>  <SCORE.SYSTEM>
0

>  <SCORE.SYSTEM.CONST>
0

>  <SCORE.SYSTEM.DIHEDRAL>
0

>  <SCORE.SYSTEM.SOLV>
0

>  <SCORE.SYSTEM.norm>
0

>  <SCORE.heavy>
11

>  <SCORE.norm>
-2.34832

>  <RMSD>
5.943

$$$$
1akx_lig
 OpenBabel11021811383D
libRbt.so/2013.1/901 2013/11/27
 11 10  0  0  0  0  0  0  0  0999 V2000
   -2.5162   -2.4972   -3.3562 N   0  0  0  0  0  0  0  0  0  0  0  0
   -2.7698   -3.2582   -2.0974 C   0  0  2  0  0  0  0  0  0  0  0  0
   -4.2752   -3.5109   -1.9465 C   0  0  0  0  0  0  0  0  0  0  0  0
   -5.0642   -2.5889   -2.0048 O   0  0  0  0  0  0  0  0  0  0  0  0
   -2.2580   -2.4519   -0.8960 C   0  0  0  0  0  0  0  0  0  0  0  0
   -0.8916   -2.9886   -0.4575 C   0  0  0  0  0  0  0  0  0  0  0  0
   -1.0844   -4.2510    0.3828 C   0  0  0  0  0  0  0  0  0  0  0  0
    0.2407   -4.7259    0.8736 N   0  0  0  0  0  0  0  0  0  0  0  0
    0.3102   -5.6888    1.7571 C   0  0  0  0  0  0  0  0  0  0  0  0
    0.6385   -5.4245    2.9955 N   0  0  0  0  0  0  0  0  0  0  0  0
    0.0445   -6.9173    1.4018 N   0  0  0  0  0  0  0  0  0  0  0  0
  2  1  1  6  0  0  0
  2  3  1  0  0  0  0
  2  5  1  0  0  0  0
  3  4  1  0  0  0  0
  5  6  1  0  0  0  0
  6  7  1  0  0  0  0
  7  8  1  0  0  0  0
  8  9  1  0  0  0  0
  9 10  1  0  0  0  0
  9 11  1  0  0  0  0
M  END
>  <CHROM.1>
-62.39372184,-53.21026650,-100.07973305,-79.71948021,-176.74752415,170.99974464
-106.87153673,-161.25986400,151.28353653,-1.60042891,-4.03189785,-0.31778041
-2.26297353,0.29442684,2.41907389

>  <Name>
1akx_lig

>  <RI>
0

>  <Rbt.Current_Directory>
/home/itssahil/PROJECTS/Mol_Feturizer/New_Systems/rnas/1akx

>  <Rbt.Executable>
rbdock ($Id: //depot/dev/client3/rdock/2013.1/src/exe/rbdock.cxx#4 $)

>  <Rbt.Library>
libRbt.so (2013.1, Build901 2013/11/27)

>  <Rbt.Parameter_File>
/export/apps/rDock/src/rDock_2013.1_src/data/scripts/dock_solv.prm

>  <Rbt.Receptor>
prm/pocket_docking_2.prm

>  <SCORE>
-26.9151

>  <SCORE.INTER>
-21.6427

>  <SCORE.INTER.CONST>
1

>  <SCORE.INTER.POLAR>
-3.07971

>  <SCORE.INTER.ROT>
8

>  <SCORE.INTER.SOLV>
5.9786

>  <SCORE.INTER.VDW>
-15.089

>  <SCORE.INTER.norm>
-1.96752

>  <SCORE.INTRA>
-5.30705

>  <SCORE.INTRA.DIHEDRAL>
-10.7096

>  <SCORE.INTRA.DIHEDRAL.0>
21.6454

>  <SCORE.INTRA.POLAR>
0

>  <SCORE.INTRA.POLAR.0>
0

>  <SCORE.INTRA.REPUL>
0

>  <SCORE.INTRA.REPUL.0>
0

>  <SCORE.INTRA.SOLV>
0.276527

>  <SCORE.INTRA.SOLV.lig_0>
-16.5947

>  <SCORE.INTRA.VDW>
-0.0905195

>  <SCORE.INTRA.VDW.0>
-0.691398

>  <SCORE.INTRA.norm>
-0.482459

>  <SCORE.RESTR>
0.0347026

>  <SCORE.RESTR.CAVITY>
0.0347026

>  <SCORE.RESTR.norm>
0.00315478

>  <SCORE.SYSTEM>
0

>  <SCORE.SYSTEM.CONST>
0

>  <SCORE.SYSTEM.DIHEDRAL>
0

>  <SCORE.SYSTEM.SOLV>
0

>  <SCORE.SYSTEM.norm>
0

>  <SCORE.heavy>
11

>  <SCORE.norm>
-2.44682

>  <RMSD>
5.944

$$$$
1akx_lig
 OpenBabel11021811383D
libRbt.so/2013.1/901 2013/11/27
 11 10  0  0  0  0  0  0  0  0999 V2000
   -4.0595   -2.2420   -4.4653 N   0  0  0  0  0  0  0  0  0  0  0  0
   -3.4143   -2.9937   -3.3486 C   0  0  2  0  0  0  0  0  0  0  0  0
   -4.4280   -3.1972   -2.2156 C   0  0  0  0  0  0  0  0  0  0  0  0
   -5.1043   -2.2689   -1.8190 O   0  0  0  0  0  0  0  0  0  0  0  0
   -2.2066   -2.2039   -2.8261 C   0  0  0  0  0  0  0  0  0  0  0  0
   -1.3487   -3.1037   -1.9307 C   0  0  0  0  0  0  0  0  0  0  0  0
   -1.6061   -2.7592   -0.4638 C   0  0  0  0  0  0  0  0  0  0  0  0
   -0.3159   -2.7777    0.2827 N   0  0  0  0  0  0  0  0  0  0  0  0
   -0.2203   -2.1920    1.4490 C   0  0  0  0  0  0  0  0  0  0  0  0
   -0.4134   -0.9026    1.5567 N   0  0  0  0  0  0  0  0  0  0  0  0
    0.0628   -2.8990    2.5101 N   0  0  0  0  0  0  0  0  0  0  0  0
  2  1  1  6  0  0  0
  2  3  1  0  0  0  0
  2  5  1  0  0  0  0
  3  4  1  0  0  0  0
  5  6  1  0  0  0  0
  6  7  1  0  0  0  0
  7  8  1  0  0  0  0
  8  9  1  0  0  0  0
  9 10  1  0  0  0  0
  9 11  1  0  0  0  0
M  END
>  <CHROM.1>
-177.02636111,-47.32906087,-166.34704875,-102.85742114,-139.26134636,162.37428848
-61.79310253,-83.73098199,106.75112872,-2.11171433,-2.47841759,-1.01735885
-2.24180017,-0.07318508,1.44464561

>  <Name>
1akx_lig

>  <RI>
0

>  <Rbt.Current_Directory>
/home/itssahil/PROJECTS/Mol_Feturizer/New_Systems/rnas/1akx

>  <Rbt.Executable>
rbdock ($Id: //depot/dev/client3/rdock/2013.1/src/exe/rbdock.cxx#4 $)

>  <Rbt.Library>
libRbt.so (2013.1, Build901 2013/11/27)

>  <Rbt.Parameter_File>
/export/apps/rDock/src/rDock_2013.1_src/data/scripts/dock_solv.prm

>  <Rbt.Receptor>
prm/pocket_docking_8.prm

>  <SCORE>
-30.2139

>  <SCORE.INTER>
-27.6524

>  <SCORE.INTER.CONST>
1

>  <SCORE.INTER.POLAR>
-4.06577

>  <SCORE.INTER.ROT>
8

>  <SCORE.INTER.SOLV>
6.54973

>  <SCORE.INTER.VDW>
-15.9989

>  <SCORE.INTER.norm>
-2.51385

>  <SCORE.INTRA>
-2.56156

>  <SCORE.INTRA.DIHEDRAL>
-6.34866

>  <SCORE.INTRA.DIHEDRAL.0>
21.6454

>  <SCORE.INTRA.POLAR>
0

>  <SCORE.INTRA.POLAR.0>
0

>  <SCORE.INTRA.REPUL>
0

>  <SCORE.INTRA.REPUL.0>
0

>  <SCORE.INTRA.SOLV>
0.395957

>  <SCORE.INTRA.SOLV.lig_0>
-16.5947

>  <SCORE.INTRA.VDW>
0.414789

>  <SCORE.INTRA.VDW.0>
-0.691398

>  <SCORE.INTRA.norm>
-0.23287

>  <SCORE.RESTR>
0

>  <SCORE.RESTR.CAVITY>
0

>  <SCORE.RESTR.norm>
0

>  <SCORE.SYSTEM>
0

>  <SCORE.SYSTEM.CONST>
0

>  <SCORE.SYSTEM.DIHEDRAL>
0

>  <SCORE.SYSTEM.SOLV>
0

>  <SCORE.SYSTEM.norm>
0

>  <SCORE.heavy>
11

>  <SCORE.norm>
-2.74672

>  <RMSD>
5.957

$$$$
1akx_lig
 OpenBabel11021811383D
libRbt.so/2013.1/901 2013/11/27
 11 10  0  0  0  0  0  0  0  0999 V2000
   -2.0914   -2.8236   -4.1088 N   0  0  0  0  0  0  0  0  0  0  0  0
   -2.8878   -3.0369   -2.8644 C   0  0  2  0  0  0  0  0  0  0  0  0
   -4.3073   -2.4916   -3.0653 C   0  0  0  0  0  0  0  0  0  0  0  0
   -5.0606   -3.0121   -3.8639 O   0  0  0  0  0  0  0  0  0  0  0  0
   -2.2158   -2.3097   -1.6918 C   0  0  0  0  0  0  0  0  0  0  0  0
   -1.9046   -3.3097   -0.5735 C   0  0  0  0  0  0  0  0  0  0  0  0
   -0.9571   -4.3872   -1.1008 C   0  0  0  0  0  0  0  0  0  0  0  0
   -0.0301   -4.8073   -0.0115 N   0  0  0  0  0  0  0  0  0  0  0  0
   -0.4668   -5.5425    0.9791 C   0  0  0  0  0  0  0  0  0  0  0  0
   -1.0564   -4.9838    2.0046 N   0  0  0  0  0  0  0  0  0  0  0  0
   -0.3189   -6.8396    0.9401 N   0  0  0  0  0  0  0  0  0  0  0  0
  2  1  1  6  0  0  0
  2  3  1  0  0  0  0
  2  5  1  0  0  0  0
  3  4  1  0  0  0  0
  5  6  1  0  0  0  0
  6  7  1  0  0  0  0
  7  8  1  0  0  0  0
  8  9  1  0  0  0  0
  9 10  1  0  0  0  0
  9 11  1  0  0  0  0
M  END
>  <CHROM.1>
123.89976743,66.39078712,-122.78202351,60.35255413,145.49385418,72.92517056
-83.72023848,154.52603760,-66.90694032,-1.93059014,-3.97602668,-1.23086754
-2.13132483,-0.25525114,1.98145028

>  <Name>
1akx_lig

>  <RI>
0

>  <Rbt.Current_Directory>
/home/afrankz/demos/rdock_decoys_rna/rnas/1akx

>  <Rbt.Executable>
rbdock ($Id: //depot/dev/client3/rdock/2013.1/src/exe/rbdock.cxx#4 $)

>  <Rbt.Library>
libRbt.so (2013.1, Build901 2013/11/27)

>  <Rbt.Parameter_File>
/export/apps/rDock/src/rDock_2013.1_src/data/scripts/dock_solv.prm

>  <Rbt.Receptor>
prm/pocket_docking_4.prm

>  <SCORE>
-24.588

>  <SCORE.INTER>
-24.348

>  <SCORE.INTER.CONST>
1

>  <SCORE.INTER.POLAR>
-3.54773

>  <SCORE.INTER.ROT>
8

>  <SCORE.INTER.SOLV>
7.27918

>  <SCORE.INTER.VDW>
-15.766

>  <SCORE.INTER.norm>
-2.21345

>  <SCORE.INTRA>
-0.239972

>  <SCORE.INTRA.DIHEDRAL>
-3.88002

>  <SCORE.INTRA.DIHEDRAL.0>
21.6454

>  <SCORE.INTRA.POLAR>
0

>  <SCORE.INTRA.POLAR.0>
0

>  <SCORE.INTRA.REPUL>
0

>  <SCORE.INTRA.REPUL.0>
0

>  <SCORE.INTRA.SOLV>
0.465045

>  <SCORE.INTRA.SOLV.lig_0>
-16.5947

>  <SCORE.INTRA.VDW>
1.46752

>  <SCORE.INTRA.VDW.0>
-0.691398

>  <SCORE.INTRA.norm>
-0.0218156

>  <SCORE.RESTR>
0

>  <SCORE.RESTR.CAVITY>
0

>  <SCORE.RESTR.norm>
0

>  <SCORE.SYSTEM>
0

>  <SCORE.SYSTEM.CONST>
0

>  <SCORE.SYSTEM.DIHEDRAL>
0

>  <SCORE.SYSTEM.SOLV>
0

>  <SCORE.SYSTEM.norm>
0

>  <SCORE.heavy>
11

>  <SCORE.norm>
-2.23527

>  <RMSD>
5.958

>  <RMSD>
5.958

$$$$
1akx_lig
 OpenBabel11021811383D
libRbt.so/2013.1/901 2013/11/27
 11 10  0  0  0  0  0  0  0  0999 V2000
   -2.0914   -2.8236   -4.1088 N   0  0  0  0  0  0  0  0  0  0  0  0
   -2.8878   -3.0369   -2.8644 C   0  0  2  0  0  0  0  0  0  0  0  0
   -4.3073   -2.4916   -3.0653 C   0  0  0  0  0  0  0  0  0  0  0  0
   -5.0606   -3.0121   -3.8639 O   0  0  0  0  0  0  0  0  0  0  0  0
   -2.2158   -2.3097   -1.6918 C   0  0  0  0  0  0  0  0  0  0  0  0
   -1.9046   -3.3097   -0.5735 C   0  0  0  0  0  0  0  0  0  0  0  0
   -0.9571   -4.3872   -1.1008 C   0  0  0  0  0  0  0  0  0  0  0  0
   -0.0301   -4.8073   -0.0115 N   0  0  0  0  0  0  0  0  0  0  0  0
   -0.4668   -5.5425    0.9791 C   0  0  0  0  0  0  0  0  0  0  0  0
   -1.0564   -4.9838    2.0046 N   0  0  0  0  0  0  0  0  0  0  0  0
   -0.3189   -6.8396    0.9401 N   0  0  0  0  0  0  0  0  0  0  0  0
  2  1  1  6  0  0  0
  2  3  1  0  0  0  0
  2  5  1  0  0  0  0
  3  4  1  0  0  0  0
  5  6  1  0  0  0  0
  6  7  1  0  0  0  0
  7  8  1  0  0  0  0
  8  9  1  0  0  0  0
  9 10  1  0  0  0  0
  9 11  1  0  0  0  0
M  END
>  <CHROM.1>
123.89976743,66.39078712,-122.78202351,60.35255413,145.49385418,72.92517056
-83.72023848,154.52603760,-66.90694032,-1.93059014,-3.97602668,-1.23086754
-2.13132483,-0.25525114,1.98145028

>  <Name>
1akx_lig

>  <RI>
0

>  <Rbt.Current_Directory>
/home/afrankz/demos/rdock_decoys_rna/rnas/1akx

>  <Rbt.Executable>
rbdock ($Id: //depot/dev/client3/rdock/2013.1/src/exe/rbdock.cxx#4 $)

>  <Rbt.Library>
libRbt.so (2013.1, Build901 2013/11/27)

>  <Rbt.Parameter_File>
/export/apps/rDock/src/rDock_2013.1_src/data/scripts/dock_solv.prm

>  <Rbt.Receptor>
prm/pocket_docking_4.prm

>  <SCORE>
-24.588

>  <SCORE.INTER>
-24.348

>  <SCORE.INTER.CONST>
1

>  <SCORE.INTER.POLAR>
-3.54773

>  <SCORE.INTER.ROT>
8

>  <SCORE.INTER.SOLV>
7.27918

>  <SCORE.INTER.VDW>
-15.766

>  <SCORE.INTER.norm>
-2.21345

>  <SCORE.INTRA>
-0.239972

>  <SCORE.INTRA.DIHEDRAL>
-3.88002

>  <SCORE.INTRA.DIHEDRAL.0>
21.6454

>  <SCORE.INTRA.POLAR>
0

>  <SCORE.INTRA.POLAR.0>
0

>  <SCORE.INTRA.REPUL>
0

>  <SCORE.INTRA.REPUL.0>
0

>  <SCORE.INTRA.SOLV>
0.465045

>  <SCORE.INTRA.SOLV.lig_0>
-16.5947

>  <SCORE.INTRA.VDW>
1.46752

>  <SCORE.INTRA.VDW.0>
-0.691398

>  <SCORE.INTRA.norm>
-0.0218156

>  <SCORE.RESTR>
0

>  <SCORE.RESTR.CAVITY>
0

>  <SCORE.RESTR.norm>
0

>  <SCORE.SYSTEM>
0

>  <SCORE.SYSTEM.CONST>
0

>  <SCORE.SYSTEM.DIHEDRAL>
0

>  <SCORE.SYSTEM.SOLV>
0

>  <SCORE.SYSTEM.norm>
0

>  <SCORE.heavy>
11

>  <SCORE.norm>
-2.23527

>  <RMSD>
5.958

>  <RMSD>
5.958

$$$$
1akx_lig
 OpenBabel11021811383D
libRbt.so/2013.1/901 2013/11/27
 11 10  0  0  0  0  0  0  0  0999 V2000
   -2.2590   -2.4281   -3.2945 N   0  0  0  0  0  0  0  0  0  0  0  0
   -2.3062   -3.6731   -2.4723 C   0  0  2  0  0  0  0  0  0  0  0  0
   -3.6728   -3.7807   -1.7842 C   0  0  0  0  0  0  0  0  0  0  0  0
   -4.6940   -3.8079   -2.4420 O   0  0  0  0  0  0  0  0  0  0  0  0
   -1.1960   -3.6335   -1.4134 C   0  0  0  0  0  0  0  0  0  0  0  0
   -0.5832   -5.0287   -1.2545 C   0  0  0  0  0  0  0  0  0  0  0  0
   -1.5415   -5.9206   -0.4652 C   0  0  0  0  0  0  0  0  0  0  0  0
   -0.9303   -7.2687   -0.2879 N   0  0  0  0  0  0  0  0  0  0  0  0
   -0.9020   -7.8297    0.8940 C   0  0  0  0  0  0  0  0  0  0  0  0
   -1.1289   -7.1171    1.9674 N   0  0  0  0  0  0  0  0  0  0  0  0
   -0.6523   -9.1072    1.0012 N   0  0  0  0  0  0  0  0  0  0  0  0
  2  1  1  1  0  0  0
  2  3  1  0  0  0  0
  2  5  1  0  0  0  0
  3  4  1  0  0  0  0
  5  6  1  0  0  0  0
  6  7  1  0  0  0  0
  7  8  1  0  0  0  0
  8  9  1  0  0  0  0
  9 10  1  0  0  0  0
  9 11  1  0  0  0  0
M  END
>  <CHROM.1>
-61.35201557,58.66805300,-141.16827829,-75.30964624,-178.83592843,131.10147592
-15.19690166,-59.05890539,-106.56821287,-1.82149860,-5.41643874,-0.87472507
-1.91616277,0.03450596,2.50973029

>  <Name>
1akx_lig

>  <RI>
0

>  <Rbt.Current_Directory>
/home/itssahil/PROJECTS/Mol_Feturizer/New_Systems/rnas/1akx

>  <Rbt.Executable>
rbdock ($Id: //depot/dev/client3/rdock/2013.1/src/exe/rbdock.cxx#4 $)

>  <Rbt.Library>
libRbt.so (2013.1, Build901 2013/11/27)

>  <Rbt.Parameter_File>
/export/apps/rDock/src/rDock_2013.1_src/data/scripts/dock_solv.prm

>  <Rbt.Receptor>
prm/pocket_docking_4.prm

>  <SCORE>
-23.4675

>  <SCORE.INTER>
-18.4933

>  <SCORE.INTER.CONST>
1

>  <SCORE.INTER.POLAR>
-3.14996

>  <SCORE.INTER.ROT>
8

>  <SCORE.INTER.SOLV>
4.97309

>  <SCORE.INTER.VDW>
-12.42

>  <SCORE.INTER.norm>
-1.68121

>  <SCORE.INTRA>
-4.97415

>  <SCORE.INTRA.DIHEDRAL>
-11.6452

>  <SCORE.INTRA.DIHEDRAL.0>
21.6454

>  <SCORE.INTRA.POLAR>
0

>  <SCORE.INTRA.POLAR.0>
0

>  <SCORE.INTRA.REPUL>
0

>  <SCORE.INTRA.REPUL.0>
0

>  <SCORE.INTRA.SOLV>
0.261532

>  <SCORE.INTRA.SOLV.lig_0>
-16.5947

>  <SCORE.INTRA.VDW>
0.717676

>  <SCORE.INTRA.VDW.0>
-0.691398

>  <SCORE.INTRA.norm>
-0.452196

>  <SCORE.RESTR>
0

>  <SCORE.RESTR.CAVITY>
0

>  <SCORE.RESTR.norm>
0

>  <SCORE.SYSTEM>
0

>  <SCORE.SYSTEM.CONST>
0

>  <SCORE.SYSTEM.DIHEDRAL>
0

>  <SCORE.SYSTEM.SOLV>
0

>  <SCORE.SYSTEM.norm>
0

>  <SCORE.heavy>
11

>  <SCORE.norm>
-2.13341

>  <RMSD>
5.978

$$$$
1akx_lig
 OpenBabel11021811383D
libRbt.so/2013.1/901 2013/11/27
 11 10  0  0  0  0  0  0  0  0999 V2000
   -2.5490   -2.3931   -3.6793 N   0  0  0  0  0  0  0  0  0  0  0  0
   -2.9675   -3.0709   -2.4168 C   0  0  2  0  0  0  0  0  0  0  0  0
   -4.4917   -2.9827   -2.2695 C   0  0  0  0  0  0  0  0  0  0  0  0
   -5.2217   -3.4759   -3.1062 O   0  0  0  0  0  0  0  0  0  0  0  0
   -2.2921   -2.3903   -1.2185 C   0  0  0  0  0  0  0  0  0  0  0  0
   -0.9123   -3.0124   -0.9807 C   0  0  0  0  0  0  0  0  0  0  0  0
   -1.0701   -4.3309   -0.2234 C   0  0  0  0  0  0  0  0  0  0  0  0
    0.2419   -4.7236    0.3654 N   0  0  0  0  0  0  0  0  0  0  0  0
    0.2872   -5.3773    1.4981 C   0  0  0  0  0  0  0  0  0  0  0  0
    0.9782   -4.9059    2.5040 N   0  0  0  0  0  0  0  0  0  0  0  0
   -0.3654   -6.5015    1.6262 N   0  0  0  0  0  0  0  0  0  0  0  0
  2  1  1  6  0  0  0
  2  3  1  0  0  0  0
  2  5  1  0  0  0  0
  3  4  1  0  0  0  0
  5  6  1  0  0  0  0
  6  7  1  0  0  0  0
  7  8  1  0  0  0  0
  8  9  1  0  0  0  0
  9 10  1  0  0  0  0
  9 11  1  0  0  0  0
M  END
>  <CHROM.1>
168.47400924,60.56957012,-86.76128338,-80.01479005,-162.93679491,147.71757451
-124.23680235,-87.75984091,110.81104995,-1.66548912,-3.93390452,-0.73319062
-2.31570665,0.37859076,2.40078124

>  <Name>
1akx_lig

>  <RI>
0

>  <Rbt.Current_Directory>
/home/itssahil/PROJECTS/Mol_Feturizer/New_Systems/rnas/1akx

>  <Rbt.Executable>
rbdock ($Id: //depot/dev/client3/rdock/2013.1/src/exe/rbdock.cxx#4 $)

>  <Rbt.Library>
libRbt.so (2013.1, Build901 2013/11/27)

>  <Rbt.Parameter_File>
/export/apps/rDock/src/rDock_2013.1_src/data/scripts/dock_solv.prm

>  <Rbt.Receptor>
prm/pocket_docking_2.prm

>  <SCORE>
-24.8544

>  <SCORE.INTER>
-19.6545

>  <SCORE.INTER.CONST>
1

>  <SCORE.INTER.POLAR>
-2.18819

>  <SCORE.INTER.ROT>
8

>  <SCORE.INTER.SOLV>
6.6791

>  <SCORE.INTER.VDW>
-16.9687

>  <SCORE.INTER.norm>
-1.78677

>  <SCORE.INTRA>
-5.68595

>  <SCORE.INTRA.DIHEDRAL>
-11.5167

>  <SCORE.INTRA.DIHEDRAL.0>
21.6454

>  <SCORE.INTRA.POLAR>
0

>  <SCORE.INTRA.POLAR.0>
0

>  <SCORE.INTRA.REPUL>
0

>  <SCORE.INTRA.REPUL.0>
0

>  <SCORE.INTRA.SOLV>
0.170521

>  <SCORE.INTRA.SOLV.lig_0>
-16.5947

>  <SCORE.INTRA.VDW>
-0.0128563

>  <SCORE.INTRA.VDW.0>
-0.691398

>  <SCORE.INTRA.norm>
-0.516904

>  <SCORE.RESTR>
0.486084

>  <SCORE.RESTR.CAVITY>
0.486084

>  <SCORE.RESTR.norm>
0.0441895

>  <SCORE.SYSTEM>
0

>  <SCORE.SYSTEM.CONST>
0

>  <SCORE.SYSTEM.DIHEDRAL>
0

>  <SCORE.SYSTEM.SOLV>
0

>  <SCORE.SYSTEM.norm>
0

>  <SCORE.heavy>
11

>  <SCORE.norm>
-2.25949

>  <RMSD>
5.988

$$$$
1akx_lig
 OpenBabel11021811383D
libRbt.so/2013.1/901 2013/11/27
 11 10  0  0  0  0  0  0  0  0999 V2000
   -2.0208   -2.8418   -4.1022 N   0  0  0  0  0  0  0  0  0  0  0  0
   -2.8457   -3.1181   -2.8892 C   0  0  2  0  0  0  0  0  0  0  0  0
   -4.2997   -2.7084   -3.1548 C   0  0  0  0  0  0  0  0  0  0  0  0
   -5.1661   -2.9435   -2.3360 O   0  0  0  0  0  0  0  0  0  0  0  0
   -2.2936   -2.3223   -1.6986 C   0  0  0  0  0  0  0  0  0  0  0  0
   -0.9523   -2.9165   -1.2571 C   0  0  0  0  0  0  0  0  0  0  0  0
   -1.1869   -4.2799   -0.6065 C   0  0  0  0  0  0  0  0  0  0  0  0
    0.0453   -4.7004    0.1196 N   0  0  0  0  0  0  0  0  0  0  0  0
   -0.0408   -5.4735    1.1719 C   0  0  0  0  0  0  0  0  0  0  0  0
   -0.1814   -6.7664    1.0301 N   0  0  0  0  0  0  0  0  0  0  0  0
    0.0202   -4.9523    2.3680 N   0  0  0  0  0  0  0  0  0  0  0  0
  2  1  1  6  0  0  0
  2  3  1  0  0  0  0
  2  5  1  0  0  0  0
  3  4  1  0  0  0  0
  5  6  1  0  0  0  0
  6  7  1  0  0  0  0
  7  8  1  0  0  0  0
  8  9  1  0  0  0  0
  9 10  1  0  0  0  0
  9 11  1  0  0  0  0
M  END
>  <CHROM.1>
9.37738695,174.22194521,-70.83789919,-70.22150601,-165.95970152,150.89736232
81.00246580,-40.08852865,101.03180889,-1.71128441,-3.92817453,-1.03506919
-2.17271284,-0.04738621,2.10507214

>  <Name>
1akx_lig

>  <RI>
0

>  <Rbt.Current_Directory>
/home/itssahil/PROJECTS/Mol_Feturizer/New_Systems/rnas/1akx

>  <Rbt.Executable>
rbdock ($Id: //depot/dev/client3/rdock/2013.1/src/exe/rbdock.cxx#4 $)

>  <Rbt.Library>
libRbt.so (2013.1, Build901 2013/11/27)

>  <Rbt.Parameter_File>
/export/apps/rDock/src/rDock_2013.1_src/data/scripts/dock_solv.prm

>  <Rbt.Receptor>
prm/pocket_docking_4.prm

>  <SCORE>
-30.0851

>  <SCORE.INTER>
-25.6227

>  <SCORE.INTER.CONST>
1

>  <SCORE.INTER.POLAR>
-3.4649

>  <SCORE.INTER.ROT>
8

>  <SCORE.INTER.SOLV>
7.14212

>  <SCORE.INTER.VDW>
-16.8462

>  <SCORE.INTER.norm>
-2.32933

>  <SCORE.INTRA>
-4.4624

>  <SCORE.INTRA.DIHEDRAL>
-11.7374

>  <SCORE.INTRA.DIHEDRAL.0>
21.6454

>  <SCORE.INTRA.POLAR>
0

>  <SCORE.INTRA.POLAR.0>
0

>  <SCORE.INTRA.REPUL>
0

>  <SCORE.INTRA.REPUL.0>
0

>  <SCORE.INTRA.SOLV>
0.0648017

>  <SCORE.INTRA.SOLV.lig_0>
-16.5947

>  <SCORE.INTRA.VDW>
1.37392

>  <SCORE.INTRA.VDW.0>
-0.691398

>  <SCORE.INTRA.norm>
-0.405672

>  <SCORE.RESTR>
0

>  <SCORE.RESTR.CAVITY>
0

>  <SCORE.RESTR.norm>
0

>  <SCORE.SYSTEM>
0

>  <SCORE.SYSTEM.CONST>
0

>  <SCORE.SYSTEM.DIHEDRAL>
0

>  <SCORE.SYSTEM.SOLV>
0

>  <SCORE.SYSTEM.norm>
0

>  <SCORE.heavy>
11

>  <SCORE.norm>
-2.73501

>  <RMSD>
5.994

$$$$
1akx_lig
 OpenBabel11021811383D
libRbt.so/2013.1/901 2013/11/27
 11 10  0  0  0  0  0  0  0  0999 V2000
   -2.3527   -2.1593   -3.6652 N   0  0  0  0  0  0  0  0  0  0  0  0
   -3.1633   -3.1742   -2.9296 C   0  0  2  0  0  0  0  0  0  0  0  0
   -4.6551   -2.9067   -3.1654 C   0  0  0  0  0  0  0  0  0  0  0  0
   -5.4968   -3.6360   -2.6799 O   0  0  0  0  0  0  0  0  0  0  0  0
   -2.8541   -3.0909   -1.4286 C   0  0  0  0  0  0  0  0  0  0  0  0
   -1.4526   -3.6476   -1.1578 C   0  0  0  0  0  0  0  0  0  0  0  0
   -1.1436   -3.5489    0.3360 C   0  0  0  0  0  0  0  0  0  0  0  0
   -0.0498   -4.5018    0.6791 N   0  0  0  0  0  0  0  0  0  0  0  0
   -0.2728   -5.4923    1.5047 C   0  0  0  0  0  0  0  0  0  0  0  0
   -0.2669   -6.7263    1.0705 N   0  0  0  0  0  0  0  0  0  0  0  0
   -0.4959   -5.2475    2.7682 N   0  0  0  0  0  0  0  0  0  0  0  0
  2  1  1  6  0  0  0
  2  3  1  0  0  0  0
  2  5  1  0  0  0  0
  3  4  1  0  0  0  0
  5  6  1  0  0  0  0
  6  7  1  0  0  0  0
  7  8  1  0  0  0  0
  8  9  1  0  0  0  0
  9 10  1  0  0  0  0
  9 11  1  0  0  0  0
M  END
>  <CHROM.1>
-171.44948762,178.38923865,-71.87829350,179.41117050,159.58358207,-116.68918464
111.71264024,-47.34477714,-44.19281110,-2.01047195,-4.02020828,-0.79138391
-2.20147045,0.27826943,2.26795371

>  <Name>
1akx_lig

>  <RI>
0

>  <Rbt.Current_Directory>
/home/itssahil/PROJECTS/Mol_Feturizer/New_Systems/rnas/1akx

>  <Rbt.Executable>
rbdock ($Id: //depot/dev/client3/rdock/2013.1/src/exe/rbdock.cxx#4 $)

>  <Rbt.Library>
libRbt.so (2013.1, Build901 2013/11/27)

>  <Rbt.Parameter_File>
/export/apps/rDock/src/rDock_2013.1_src/data/scripts/dock_solv.prm

>  <Rbt.Receptor>
prm/pocket_docking_2.prm

>  <SCORE>
-29.3165

>  <SCORE.INTER>
-21.8825

>  <SCORE.INTER.CONST>
1

>  <SCORE.INTER.POLAR>
-3.32606

>  <SCORE.INTER.ROT>
8

>  <SCORE.INTER.SOLV>
5.9815

>  <SCORE.INTER.VDW>
-14.4286

>  <SCORE.INTER.norm>
-1.98932

>  <SCORE.INTRA>
-7.62293

>  <SCORE.INTRA.DIHEDRAL>
-14.6766

>  <SCORE.INTRA.DIHEDRAL.0>
21.6454

>  <SCORE.INTRA.POLAR>
0

>  <SCORE.INTRA.POLAR.0>
0

>  <SCORE.INTRA.REPUL>
0

>  <SCORE.INTRA.REPUL.0>
0

>  <SCORE.INTRA.SOLV>
0.0310261

>  <SCORE.INTRA.SOLV.lig_0>
-16.5947

>  <SCORE.INTRA.VDW>
-0.300126

>  <SCORE.INTRA.VDW.0>
-0.691398

>  <SCORE.INTRA.norm>
-0.692994

>  <SCORE.RESTR>
0.188928

>  <SCORE.RESTR.CAVITY>
0.188928

>  <SCORE.RESTR.norm>
0.0171752

>  <SCORE.SYSTEM>
0

>  <SCORE.SYSTEM.CONST>
0

>  <SCORE.SYSTEM.DIHEDRAL>
0

>  <SCORE.SYSTEM.SOLV>
0

>  <SCORE.SYSTEM.norm>
0

>  <SCORE.heavy>
11

>  <SCORE.norm>
-2.66514

>  <RMSD>
5.995

$$$$
1akx_lig
 OpenBabel11021811383D
libRbt.so/2013.1/901 2013/11/27
 11 10  0  0  0  0  0  0  0  0999 V2000
   -4.0575   -2.1376   -4.4437 N   0  0  0  0  0  0  0  0  0  0  0  0
   -3.6392   -3.0093   -3.3064 C   0  0  2  0  0  0  0  0  0  0  0  0
   -4.8643   -3.3592   -2.4523 C   0  0  0  0  0  0  0  0  0  0  0  0
   -5.4402   -2.4978   -1.8179 O   0  0  0  0  0  0  0  0  0  0  0  0
   -2.6030   -2.2726   -2.4468 C   0  0  0  0  0  0  0  0  0  0  0  0
   -2.1942   -3.1536   -1.2618 C   0  0  0  0  0  0  0  0  0  0  0  0
   -1.3566   -2.3336   -0.2806 C   0  0  0  0  0  0  0  0  0  0  0  0
   -1.0936   -3.1436    0.9429 N   0  0  0  0  0  0  0  0  0  0  0  0
    0.1344   -3.3548    1.3426 C   0  0  0  0  0  0  0  0  0  0  0  0
    0.7520   -4.4616    1.0184 N   0  0  0  0  0  0  0  0  0  0  0  0
    0.7476   -2.4539    2.0627 N   0  0  0  0  0  0  0  0  0  0  0  0
  2  1  1  6  0  0  0
  2  3  1  0  0  0  0
  2  5  1  0  0  0  0
  3  4  1  0  0  0  0
  5  6  1  0  0  0  0
  6  7  1  0  0  0  0
  7  8  1  0  0  0  0
  8  9  1  0  0  0  0
  9 10  1  0  0  0  0
  9 11  1  0  0  0  0
M  END
>  <CHROM.1>
-167.96205471,-66.92004891,178.80534911,-170.16967866,173.50217222,124.06303796
-96.59243944,90.67715832,4.80361723,-2.15006879,-2.91622487,-0.96859852,-2.36655579
-0.04910037,1.67222441

>  <Name>
1akx_lig

>  <RI>
0

>  <Rbt.Current_Directory>
/home/itssahil/PROJECTS/Mol_Feturizer/New_Systems/rnas/1akx

>  <Rbt.Executable>
rbdock ($Id: //depot/dev/client3/rdock/2013.1/src/exe/rbdock.cxx#4 $)

>  <Rbt.Library>
libRbt.so (2013.1, Build901 2013/11/27)

>  <Rbt.Parameter_File>
/export/apps/rDock/src/rDock_2013.1_src/data/scripts/dock_solv.prm

>  <Rbt.Receptor>
prm/pocket_docking_4.prm

>  <SCORE>
-30.5883

>  <SCORE.INTER>
-23.9931

>  <SCORE.INTER.CONST>
1

>  <SCORE.INTER.POLAR>
-3.46488

>  <SCORE.INTER.ROT>
8

>  <SCORE.INTER.SOLV>
6.46136

>  <SCORE.INTER.VDW>
-15.5329

>  <SCORE.INTER.norm>
-2.18119

>  <SCORE.INTRA>
-6.59521

>  <SCORE.INTRA.DIHEDRAL>
-15.7681

>  <SCORE.INTRA.DIHEDRAL.0>
21.6454

>  <SCORE.INTRA.POLAR>
0

>  <SCORE.INTRA.POLAR.0>
0

>  <SCORE.INTRA.REPUL>
0

>  <SCORE.INTRA.REPUL.0>
0

>  <SCORE.INTRA.SOLV>
0.373903

>  <SCORE.INTRA.SOLV.lig_0>
-16.5947

>  <SCORE.INTRA.VDW>
1.10188

>  <SCORE.INTRA.VDW.0>
-0.691398

>  <SCORE.INTRA.norm>
-0.599565

>  <SCORE.RESTR>
0

>  <SCORE.RESTR.CAVITY>
0

>  <SCORE.RESTR.norm>
0

>  <SCORE.SYSTEM>
0

>  <SCORE.SYSTEM.CONST>
0

>  <SCORE.SYSTEM.DIHEDRAL>
0

>  <SCORE.SYSTEM.SOLV>
0

>  <SCORE.SYSTEM.norm>
0

>  <SCORE.heavy>
11

>  <SCORE.norm>
-2.78076

>  <RMSD>
5.995

$$$$
1akx_lig
 OpenBabel11021811383D
libRbt.so/2013.1/901 2013/11/27
 11 10  0  0  0  0  0  0  0  0999 V2000
   -2.4697   -2.4744   -3.5471 N   0  0  0  0  0  0  0  0  0  0  0  0
   -2.7571   -3.1242   -2.2344 C   0  0  2  0  0  0  0  0  0  0  0  0
   -4.2416   -2.9487   -1.8904 C   0  0  0  0  0  0  0  0  0  0  0  0
   -5.1003   -3.4406   -2.5954 O   0  0  0  0  0  0  0  0  0  0  0  0
   -1.8936   -2.4805   -1.1410 C   0  0  0  0  0  0  0  0  0  0  0  0
   -0.6632   -3.3533   -0.8733 C   0  0  0  0  0  0  0  0  0  0  0  0
   -0.9414   -4.2791    0.3109 C   0  0  0  0  0  0  0  0  0  0  0  0
    0.3392   -4.8804    0.7806 N   0  0  0  0  0  0  0  0  0  0  0  0
    0.3312   -5.8245    1.6866 C   0  0  0  0  0  0  0  0  0  0  0  0
    0.6814   -5.5587    2.9187 N   0  0  0  0  0  0  0  0  0  0  0  0
   -0.0340   -7.0354    1.3603 N   0  0  0  0  0  0  0  0  0  0  0  0
  2  1  1  6  0  0  0
  2  3  1  0  0  0  0
  2  5  1  0  0  0  0
  3  4  1  0  0  0  0
  5  6  1  0  0  0  0
  6  7  1  0  0  0  0
  7  8  1  0  0  0  0
  8  9  1  0  0  0  0
  9 10  1  0  0  0  0
  9 11  1  0  0  0  0
M  END
>  <CHROM.1>
45.57695200,63.10580601,-98.67710085,-95.34991476,-166.31341246,-172.15306354
-104.82099384,23.20533886,144.94727505,-1.52431268,-4.14169761,-0.49183185
-2.25314394,0.33074776,2.41710909

>  <Name>
1akx_lig

>  <RI>
0

>  <Rbt.Current_Directory>
/home/itssahil/PROJECTS/Mol_Feturizer/New_Systems/rnas/1akx

>  <Rbt.Executable>
rbdock ($Id: //depot/dev/client3/rdock/2013.1/src/exe/rbdock.cxx#4 $)

>  <Rbt.Library>
libRbt.so (2013.1, Build901 2013/11/27)

>  <Rbt.Parameter_File>
/export/apps/rDock/src/rDock_2013.1_src/data/scripts/dock_solv.prm

>  <Rbt.Receptor>
prm/pocket_docking_4.prm

>  <SCORE>
-27.0287

>  <SCORE.INTER>
-23.1035

>  <SCORE.INTER.CONST>
1

>  <SCORE.INTER.POLAR>
-2.98811

>  <SCORE.INTER.ROT>
8

>  <SCORE.INTER.SOLV>
6.35688

>  <SCORE.INTER.VDW>
-16.4943

>  <SCORE.INTER.norm>
-2.10032

>  <SCORE.INTRA>
-3.92517

>  <SCORE.INTRA.DIHEDRAL>
-7.49747

>  <SCORE.INTRA.DIHEDRAL.0>
21.6454

>  <SCORE.INTRA.POLAR>
0

>  <SCORE.INTRA.POLAR.0>
0

>  <SCORE.INTRA.REPUL>
0

>  <SCORE.INTRA.REPUL.0>
0

>  <SCORE.INTRA.SOLV>
0.103104

>  <SCORE.INTRA.SOLV.lig_0>
-16.5947

>  <SCORE.INTRA.VDW>
-0.227982

>  <SCORE.INTRA.VDW.0>
-0.691398

>  <SCORE.INTRA.norm>
-0.356833

>  <SCORE.RESTR>
0

>  <SCORE.RESTR.CAVITY>
0

>  <SCORE.RESTR.norm>
0

>  <SCORE.SYSTEM>
0

>  <SCORE.SYSTEM.CONST>
0

>  <SCORE.SYSTEM.DIHEDRAL>
0

>  <SCORE.SYSTEM.SOLV>
0

>  <SCORE.SYSTEM.norm>
0

>  <SCORE.heavy>
11

>  <SCORE.norm>
-2.45716

>  <RMSD>
6.011

$$$$
1akx_lig
 OpenBabel11021811383D
libRbt.so/2013.1/901 2013/11/27
 11 10  0  0  0  0  0  0  0  0999 V2000
   -2.0299   -2.8588   -4.0804 N   0  0  0  0  0  0  0  0  0  0  0  0
   -2.9733   -3.1801   -2.9692 C   0  0  2  0  0  0  0  0  0  0  0  0
   -4.4117   -2.8989   -3.4215 C   0  0  0  0  0  0  0  0  0  0  0  0
   -5.3523   -3.2278   -2.7263 O   0  0  0  0  0  0  0  0  0  0  0  0
   -2.6388   -2.3184   -1.7441 C   0  0  0  0  0  0  0  0  0  0  0  0
   -1.3231   -2.7952   -1.1204 C   0  0  0  0  0  0  0  0  0  0  0  0
   -1.1450   -2.1483    0.2532 C   0  0  0  0  0  0  0  0  0  0  0  0
    0.2326   -2.4208    0.7536 N   0  0  0  0  0  0  0  0  0  0  0  0
    0.4617   -3.4522    1.5257 C   0  0  0  0  0  0  0  0  0  0  0  0
    0.2333   -3.3766    2.8116 N   0  0  0  0  0  0  0  0  0  0  0  0
    0.9140   -4.5632    1.0089 N   0  0  0  0  0  0  0  0  0  0  0  0
  2  1  1  6  0  0  0
  2  3  1  0  0  0  0
  2  5  1  0  0  0  0
  3  4  1  0  0  0  0
  5  6  1  0  0  0  0
  6  7  1  0  0  0  0
  7  8  1  0  0  0  0
  8  9  1  0  0  0  0
  9 10  1  0  0  0  0
  9 11  1  0  0  0  0
M  END
>  <CHROM.1>
-101.99240181,171.91983378,-71.18541118,-167.89623664,-170.22186316,-93.49858653
-82.62648871,73.49185948,-157.78644667,-1.62090091,-3.03716681,-0.89031799
-2.28983204,-0.08562912,1.59241216

>  <Name>
1akx_lig

>  <RI>
0

>  <Rbt.Current_Directory>
/home/itssahil/PROJECTS/Mol_Feturizer/New_Systems/rnas/1akx

>  <Rbt.Executable>
rbdock ($Id: //depot/dev/client3/rdock/2013.1/src/exe/rbdock.cxx#4 $)

>  <Rbt.Library>
libRbt.so (2013.1, Build901 2013/11/27)

>  <Rbt.Parameter_File>
/export/apps/rDock/src/rDock_2013.1_src/data/scripts/dock_solv.prm

>  <Rbt.Receptor>
prm/pocket_docking_4.prm

>  <SCORE>
-26.6936

>  <SCORE.INTER>
-21.2298

>  <SCORE.INTER.CONST>
1

>  <SCORE.INTER.POLAR>
-2.85333

>  <SCORE.INTER.ROT>
8

>  <SCORE.INTER.SOLV>
7.32519

>  <SCORE.INTER.VDW>
-16.0172

>  <SCORE.INTER.norm>
-1.92998

>  <SCORE.INTRA>
-5.4638

>  <SCORE.INTRA.DIHEDRAL>
-12.3167

>  <SCORE.INTRA.DIHEDRAL.0>
21.6454

>  <SCORE.INTRA.POLAR>
0

>  <SCORE.INTRA.POLAR.0>
0

>  <SCORE.INTRA.REPUL>
0

>  <SCORE.INTRA.REPUL.0>
0

>  <SCORE.INTRA.SOLV>
0.103684

>  <SCORE.INTRA.SOLV.lig_0>
-16.5947

>  <SCORE.INTRA.VDW>
0.64273

>  <SCORE.INTRA.VDW.0>
-0.691398

>  <SCORE.INTRA.norm>
-0.496709

>  <SCORE.RESTR>
0

>  <SCORE.RESTR.CAVITY>
0

>  <SCORE.RESTR.norm>
0

>  <SCORE.SYSTEM>
0

>  <SCORE.SYSTEM.CONST>
0

>  <SCORE.SYSTEM.DIHEDRAL>
0

>  <SCORE.SYSTEM.SOLV>
0

>  <SCORE.SYSTEM.norm>
0

>  <SCORE.heavy>
11

>  <SCORE.norm>
-2.42669

>  <RMSD>
6.024

$$$$
1akx_lig
 OpenBabel11021811383D
libRbt.so/2013.1/901 2013/11/27
 11 10  0  0  0  0  0  0  0  0999 V2000
   -2.4423   -2.1649   -3.6533 N   0  0  0  0  0  0  0  0  0  0  0  0
   -2.8383   -3.2345   -2.6903 C   0  0  2  0  0  0  0  0  0  0  0  0
   -4.3596   -3.2106   -2.4959 C   0  0  0  0  0  0  0  0  0  0  0  0
   -5.1047   -3.3852   -3.4396 O   0  0  0  0  0  0  0  0  0  0  0  0
   -2.1412   -2.9989   -1.3434 C   0  0  0  0  0  0  0  0  0  0  0  0
   -2.0329   -4.3222   -0.5790 C   0  0  0  0  0  0  0  0  0  0  0  0
   -1.3868   -4.0735    0.7839 C   0  0  0  0  0  0  0  0  0  0  0  0
   -1.0882   -5.3804    1.4360 N   0  0  0  0  0  0  0  0  0  0  0  0
    0.1309   -5.6632    1.8183 C   0  0  0  0  0  0  0  0  0  0  0  0
    1.1394   -4.9512    1.3854 N   0  0  0  0  0  0  0  0  0  0  0  0
    0.3403   -6.6565    2.6402 N   0  0  0  0  0  0  0  0  0  0  0  0
  2  1  1  6  0  0  0
  2  3  1  0  0  0  0
  2  5  1  0  0  0  0
  3  4  1  0  0  0  0
  5  6  1  0  0  0  0
  6  7  1  0  0  0  0
  7  8  1  0  0  0  0
  8  9  1  0  0  0  0
  9 10  1  0  0  0  0
  9 11  1  0  0  0  0
M  END
>  <CHROM.1>
173.97031001,60.10784700,-155.79214817,-177.83701219,-171.24064267,123.67117223
-14.79287850,-39.92293927,54.55998888,-1.78630838,-4.18297245,-0.57790571
-2.19825355,0.27168012,2.26671625

>  <Name>
1akx_lig

>  <RI>
0

>  <Rbt.Current_Directory>
/home/itssahil/PROJECTS/Mol_Feturizer/New_Systems/rnas/1akx

>  <Rbt.Executable>
rbdock ($Id: //depot/dev/client3/rdock/2013.1/src/exe/rbdock.cxx#4 $)

>  <Rbt.Library>
libRbt.so (2013.1, Build901 2013/11/27)

>  <Rbt.Parameter_File>
/export/apps/rDock/src/rDock_2013.1_src/data/scripts/dock_solv.prm

>  <Rbt.Receptor>
prm/pocket_docking_2.prm

>  <SCORE>
-27.5249

>  <SCORE.INTER>
-21.108

>  <SCORE.INTER.CONST>
1

>  <SCORE.INTER.POLAR>
-3.05726

>  <SCORE.INTER.ROT>
8

>  <SCORE.INTER.SOLV>
6.16812

>  <SCORE.INTER.VDW>
-14.8705

>  <SCORE.INTER.norm>
-1.91891

>  <SCORE.INTRA>
-6.46567

>  <SCORE.INTRA.DIHEDRAL>
-14.3903

>  <SCORE.INTRA.DIHEDRAL.0>
21.6454

>  <SCORE.INTRA.POLAR>
0

>  <SCORE.INTRA.POLAR.0>
0

>  <SCORE.INTRA.REPUL>
0

>  <SCORE.INTRA.REPUL.0>
0

>  <SCORE.INTRA.SOLV>
0.181987

>  <SCORE.INTRA.SOLV.lig_0>
-16.5947

>  <SCORE.INTRA.VDW>
0.638485

>  <SCORE.INTRA.VDW.0>
-0.691398

>  <SCORE.INTRA.norm>
-0.587788

>  <SCORE.RESTR>
0.0487485

>  <SCORE.RESTR.CAVITY>
0.0487485

>  <SCORE.RESTR.norm>
0.00443169

>  <SCORE.SYSTEM>
0

>  <SCORE.SYSTEM.CONST>
0

>  <SCORE.SYSTEM.DIHEDRAL>
0

>  <SCORE.SYSTEM.SOLV>
0

>  <SCORE.SYSTEM.norm>
0

>  <SCORE.heavy>
11

>  <SCORE.norm>
-2.50227

>  <RMSD>
6.058

$$$$
1akx_lig
 OpenBabel11021811383D
libRbt.so/2013.1/901 2013/11/27
 11 10  0  0  0  0  0  0  0  0999 V2000
   -2.4921   -2.1542   -3.7023 N   0  0  0  0  0  0  0  0  0  0  0  0
   -2.9155   -3.1268   -2.6521 C   0  0  2  0  0  0  0  0  0  0  0  0
   -4.4426   -3.0968   -2.5123 C   0  0  0  0  0  0  0  0  0  0  0  0
   -5.1543   -3.2952   -3.4769 O   0  0  0  0  0  0  0  0  0  0  0  0
   -2.2663   -2.7535   -1.3125 C   0  0  0  0  0  0  0  0  0  0  0  0
   -0.7426   -2.8657   -1.4274 C   0  0  0  0  0  0  0  0  0  0  0  0
   -0.0972   -2.4205   -0.1152 C   0  0  0  0  0  0  0  0  0  0  0  0
   -0.3659   -3.4394    0.9393 N   0  0  0  0  0  0  0  0  0  0  0  0
    0.5872   -3.8113    1.7552 C   0  0  0  0  0  0  0  0  0  0  0  0
    0.8868   -3.0782    2.7964 N   0  0  0  0  0  0  0  0  0  0  0  0
    1.2372   -4.9220    1.5319 N   0  0  0  0  0  0  0  0  0  0  0  0
  2  1  1  6  0  0  0
  2  3  1  0  0  0  0
  2  5  1  0  0  0  0
  3  4  1  0  0  0  0
  5  6  1  0  0  0  0
  6  7  1  0  0  0  0
  7  8  1  0  0  0  0
  8  9  1  0  0  0  0
  9 10  1  0  0  0  0
  9 11  1  0  0  0  0
M  END
>  <CHROM.1>
173.08345536,55.89357288,-63.16083990,176.95598461,70.73993836,136.67136977
81.11617521,77.06451798,-40.27212943,-1.43272843,-3.17917996,-0.75338527
-2.37527557,0.34324443,2.07453709

>  <Name>
1akx_lig

>  <RI>
0

>  <Rbt.Current_Directory>
/home/itssahil/PROJECTS/Mol_Feturizer/New_Systems/rnas/1akx

>  <Rbt.Executable>
rbdock ($Id: //depot/dev/client3/rdock/2013.1/src/exe/rbdock.cxx#4 $)

>  <Rbt.Library>
libRbt.so (2013.1, Build901 2013/11/27)

>  <Rbt.Parameter_File>
/export/apps/rDock/src/rDock_2013.1_src/data/scripts/dock_solv.prm

>  <Rbt.Receptor>
prm/pocket_docking_7.prm

>  <SCORE>
-24.5669

>  <SCORE.INTER>
-16.7496

>  <SCORE.INTER.CONST>
1

>  <SCORE.INTER.POLAR>
-1.59256

>  <SCORE.INTER.ROT>
8

>  <SCORE.INTER.SOLV>
6.69278

>  <SCORE.INTER.VDW>
-17.0221

>  <SCORE.INTER.norm>
-1.52269

>  <SCORE.INTRA>
-7.81728

>  <SCORE.INTRA.DIHEDRAL>
-16.1655

>  <SCORE.INTRA.DIHEDRAL.0>
21.6454

>  <SCORE.INTRA.POLAR>
0

>  <SCORE.INTRA.POLAR.0>
0

>  <SCORE.INTRA.REPUL>
0

>  <SCORE.INTRA.REPUL.0>
0

>  <SCORE.INTRA.SOLV>
0.375312

>  <SCORE.INTRA.SOLV.lig_0>
-16.5947

>  <SCORE.INTRA.VDW>
0.0778163

>  <SCORE.INTRA.VDW.0>
-0.691398

>  <SCORE.INTRA.norm>
-0.710662

>  <SCORE.RESTR>
0

>  <SCORE.RESTR.CAVITY>
0

>  <SCORE.RESTR.norm>
0

>  <SCORE.SYSTEM>
0

>  <SCORE.SYSTEM.CONST>
0

>  <SCORE.SYSTEM.DIHEDRAL>
0

>  <SCORE.SYSTEM.SOLV>
0

>  <SCORE.SYSTEM.norm>
0

>  <SCORE.heavy>
11

>  <SCORE.norm>
-2.23335

>  <RMSD>
6.060

$$$$
1akx_lig
 OpenBabel11021811383D
libRbt.so/2013.1/901 2013/11/27
 11 10  0  0  0  0  0  0  0  0999 V2000
   -1.9093   -2.9358   -3.9573 N   0  0  0  0  0  0  0  0  0  0  0  0
   -2.6507   -3.2759   -2.7072 C   0  0  2  0  0  0  0  0  0  0  0  0
   -4.1519   -3.0475   -2.9241 C   0  0  0  0  0  0  0  0  0  0  0  0
   -4.5521   -2.0193   -3.4329 O   0  0  0  0  0  0  0  0  0  0  0  0
   -2.1540   -2.3901   -1.5565 C   0  0  0  0  0  0  0  0  0  0  0  0
   -0.8257   -2.9345   -1.0213 C   0  0  0  0  0  0  0  0  0  0  0  0
   -1.0591   -3.6169    0.3266 C   0  0  0  0  0  0  0  0  0  0  0  0
    0.1546   -4.3958    0.7038 N   0  0  0  0  0  0  0  0  0  0  0  0
    0.0519   -5.4378    1.4888 C   0  0  0  0  0  0  0  0  0  0  0  0
   -0.1697   -6.6241    0.9839 N   0  0  0  0  0  0  0  0  0  0  0  0
    0.1775   -5.2930    2.7808 N   0  0  0  0  0  0  0  0  0  0  0  0
  2  1  1  6  0  0  0
  2  3  1  0  0  0  0
  2  5  1  0  0  0  0
  3  4  1  0  0  0  0
  5  6  1  0  0  0  0
  6  7  1  0  0  0  0
  7  8  1  0  0  0  0
  8  9  1  0  0  0  0
  9 10  1  0  0  0  0
  9 11  1  0  0  0  0
M  END
>  <CHROM.1>
14.43548386,-47.43923002,-78.92031849,-105.78125050,167.82353978,-153.47963939
88.79971832,-33.50849610,83.85233244,-1.54275372,-3.82874041,-0.86605491
-2.18346986,0.44537381,2.38896511

>  <Name>
1akx_lig

>  <RI>
0

>  <Rbt.Current_Directory>
/home/itssahil/PROJECTS/Mol_Feturizer/New_Systems/rnas/1akx

>  <Rbt.Executable>
rbdock ($Id: //depot/dev/client3/rdock/2013.1/src/exe/rbdock.cxx#4 $)

>  <Rbt.Library>
libRbt.so (2013.1, Build901 2013/11/27)

>  <Rbt.Parameter_File>
/export/apps/rDock/src/rDock_2013.1_src/data/scripts/dock_solv.prm

>  <Rbt.Receptor>
prm/pocket_docking_4.prm

>  <SCORE>
-26.6817

>  <SCORE.INTER>
-24.5342

>  <SCORE.INTER.CONST>
1

>  <SCORE.INTER.POLAR>
-3.49407

>  <SCORE.INTER.ROT>
8

>  <SCORE.INTER.SOLV>
6.99801

>  <SCORE.INTER.VDW>
-15.9752

>  <SCORE.INTER.norm>
-2.23038

>  <SCORE.INTRA>
-2.14754

>  <SCORE.INTRA.DIHEDRAL>
-6.00549

>  <SCORE.INTRA.DIHEDRAL.0>
21.6454

>  <SCORE.INTRA.POLAR>
0

>  <SCORE.INTRA.POLAR.0>
0

>  <SCORE.INTRA.REPUL>
0

>  <SCORE.INTRA.REPUL.0>
0

>  <SCORE.INTRA.SOLV>
0.275865

>  <SCORE.INTRA.SOLV.lig_0>
-16.5947

>  <SCORE.INTRA.VDW>
0.71727

>  <SCORE.INTRA.VDW.0>
-0.691398

>  <SCORE.INTRA.norm>
-0.195231

>  <SCORE.RESTR>
0

>  <SCORE.RESTR.CAVITY>
0

>  <SCORE.RESTR.norm>
0

>  <SCORE.SYSTEM>
0

>  <SCORE.SYSTEM.CONST>
0

>  <SCORE.SYSTEM.DIHEDRAL>
0

>  <SCORE.SYSTEM.SOLV>
0

>  <SCORE.SYSTEM.norm>
0

>  <SCORE.heavy>
11

>  <SCORE.norm>
-2.42561

>  <RMSD>
6.069

$$$$
1akx_lig
 OpenBabel11021811383D
libRbt.so/2013.1/901 2013/11/27
 11 10  0  0  0  0  0  0  0  0999 V2000
   -1.9068   -2.9952   -3.9888 N   0  0  0  0  0  0  0  0  0  0  0  0
   -2.8638   -3.2534   -2.8727 C   0  0  2  0  0  0  0  0  0  0  0  0
   -4.1603   -2.4716   -3.1188 C   0  0  0  0  0  0  0  0  0  0  0  0
   -5.1235   -2.6313   -2.3958 O   0  0  0  0  0  0  0  0  0  0  0  0
   -2.2371   -2.8101   -1.5438 C   0  0  0  0  0  0  0  0  0  0  0  0
   -1.1275   -3.7880   -1.1438 C   0  0  0  0  0  0  0  0  0  0  0  0
   -0.9021   -3.7148    0.3663 C   0  0  0  0  0  0  0  0  0  0  0  0
    0.3207   -4.4897    0.7223 N   0  0  0  0  0  0  0  0  0  0  0  0
    0.2367   -5.5257    1.5174 C   0  0  0  0  0  0  0  0  0  0  0  0
    0.6310   -5.4353    2.7615 N   0  0  0  0  0  0  0  0  0  0  0  0
   -0.2487   -6.6520    1.0683 N   0  0  0  0  0  0  0  0  0  0  0  0
  2  1  1  6  0  0  0
  2  3  1  0  0  0  0
  2  5  1  0  0  0  0
  3  4  1  0  0  0  0
  5  6  1  0  0  0  0
  6  7  1  0  0  0  0
  7  8  1  0  0  0  0
  8  9  1  0  0  0  0
  9 10  1  0  0  0  0
  9 11  1  0  0  0  0
M  END
>  <CHROM.1>
-13.83650825,173.25958857,-72.14215750,-157.00250675,-170.62578036,-118.24856029
-104.31767783,-38.88397597,-20.86103330,-1.56826063,-3.99519326,-0.79237655
-2.20205220,-0.22736741,1.93959243

>  <Name>
1akx_lig

>  <RI>
0

>  <Rbt.Current_Directory>
/home/itssahil/PROJECTS/Mol_Feturizer/New_Systems/rnas/1akx

>  <Rbt.Executable>
rbdock ($Id: //depot/dev/client3/rdock/2013.1/src/exe/rbdock.cxx#4 $)

>  <Rbt.Library>
libRbt.so (2013.1, Build901 2013/11/27)

>  <Rbt.Parameter_File>
/export/apps/rDock/src/rDock_2013.1_src/data/scripts/dock_solv.prm

>  <Rbt.Receptor>
prm/pocket_docking_2.prm

>  <SCORE>
-29.4087

>  <SCORE.INTER>
-24.8274

>  <SCORE.INTER.CONST>
1

>  <SCORE.INTER.POLAR>
-3.3444

>  <SCORE.INTER.ROT>
8

>  <SCORE.INTER.SOLV>
6.85531

>  <SCORE.INTER.VDW>
-16.622

>  <SCORE.INTER.norm>
-2.25703

>  <SCORE.INTRA>
-4.76594

>  <SCORE.INTRA.DIHEDRAL>
-10.6753

>  <SCORE.INTRA.DIHEDRAL.0>
21.6454

>  <SCORE.INTRA.POLAR>
0

>  <SCORE.INTRA.POLAR.0>
0

>  <SCORE.INTRA.REPUL>
0

>  <SCORE.INTRA.REPUL.0>
0

>  <SCORE.INTRA.SOLV>
0.0391091

>  <SCORE.INTRA.SOLV.lig_0>
-16.5947

>  <SCORE.INTRA.VDW>
0.552182

>  <SCORE.INTRA.VDW.0>
-0.691398

>  <SCORE.INTRA.norm>
-0.433267

>  <SCORE.RESTR>
0.184629

>  <SCORE.RESTR.CAVITY>
0.184629

>  <SCORE.RESTR.norm>
0.0167844

>  <SCORE.SYSTEM>
0

>  <SCORE.SYSTEM.CONST>
0

>  <SCORE.SYSTEM.DIHEDRAL>
0

>  <SCORE.SYSTEM.SOLV>
0

>  <SCORE.SYSTEM.norm>
0

>  <SCORE.heavy>
11

>  <SCORE.norm>
-2.67352

>  <RMSD>
6.096

$$$$
1akx_lig
 OpenBabel11021811383D
libRbt.so/2013.1/901 2013/11/27
 11 10  0  0  0  0  0  0  0  0999 V2000
   -2.0152   -2.8913   -4.0034 N   0  0  0  0  0  0  0  0  0  0  0  0
   -2.7950   -3.0952   -2.7471 C   0  0  2  0  0  0  0  0  0  0  0  0
   -4.2256   -2.5778   -2.9429 C   0  0  0  0  0  0  0  0  0  0  0  0
   -4.9359   -3.0425   -3.8123 O   0  0  0  0  0  0  0  0  0  0  0  0
   -2.1237   -2.3353   -1.5949 C   0  0  0  0  0  0  0  0  0  0  0  0
   -0.7969   -3.0110   -1.2338 C   0  0  0  0  0  0  0  0  0  0  0  0
   -1.0618   -4.1875   -0.2943 C   0  0  0  0  0  0  0  0  0  0  0  0
    0.2345   -4.7023    0.2318 N   0  0  0  0  0  0  0  0  0  0  0  0
    0.2606   -5.4469    1.3076 C   0  0  0  0  0  0  0  0  0  0  0  0
    1.0787   -5.1608    2.2874 N   0  0  0  0  0  0  0  0  0  0  0  0
   -0.5381   -6.4757    1.4053 N   0  0  0  0  0  0  0  0  0  0  0  0
  2  1  1  6  0  0  0
  2  3  1  0  0  0  0
  2  5  1  0  0  0  0
  3  4  1  0  0  0  0
  5  6  1  0  0  0  0
  6  7  1  0  0  0  0
  7  8  1  0  0  0  0
  8  9  1  0  0  0  0
  9 10  1  0  0  0  0
  9 11  1  0  0  0  0
M  END
>  <CHROM.1>
-119.54028091,59.35158717,-69.73955760,-82.99440948,-170.79596446,161.44125648
-129.91904755,-19.04455387,-157.23642160,-1.52764061,-3.92187676,-1.05326566
-2.23368790,0.34844027,2.33003456

>  <Name>
1akx_lig

>  <RI>
0

>  <Rbt.Current_Directory>
/home/itssahil/PROJECTS/Mol_Feturizer/New_Systems/rnas/1akx

>  <Rbt.Executable>
rbdock ($Id: //depot/dev/client3/rdock/2013.1/src/exe/rbdock.cxx#4 $)

>  <Rbt.Library>
libRbt.so (2013.1, Build901 2013/11/27)

>  <Rbt.Parameter_File>
/export/apps/rDock/src/rDock_2013.1_src/data/scripts/dock_solv.prm

>  <Rbt.Receptor>
prm/pocket_docking_4.prm

>  <SCORE>
-27.9704

>  <SCORE.INTER>
-24.1684

>  <SCORE.INTER.CONST>
1

>  <SCORE.INTER.POLAR>
-2.98286

>  <SCORE.INTER.ROT>
8

>  <SCORE.INTER.SOLV>
7.82008

>  <SCORE.INTER.VDW>
-17.7095

>  <SCORE.INTER.norm>
-2.19713

>  <SCORE.INTRA>
-3.80194

>  <SCORE.INTRA.DIHEDRAL>
-10.5964

>  <SCORE.INTRA.DIHEDRAL.0>
21.6454

>  <SCORE.INTRA.POLAR>
0

>  <SCORE.INTRA.POLAR.0>
0

>  <SCORE.INTRA.REPUL>
0

>  <SCORE.INTRA.REPUL.0>
0

>  <SCORE.INTRA.SOLV>
0.21164

>  <SCORE.INTRA.SOLV.lig_0>
-16.5947

>  <SCORE.INTRA.VDW>
1.39043

>  <SCORE.INTRA.VDW.0>
-0.691398

>  <SCORE.INTRA.norm>
-0.345631

>  <SCORE.RESTR>
0

>  <SCORE.RESTR.CAVITY>
0

>  <SCORE.RESTR.norm>
0

>  <SCORE.SYSTEM>
0

>  <SCORE.SYSTEM.CONST>
0

>  <SCORE.SYSTEM.DIHEDRAL>
0

>  <SCORE.SYSTEM.SOLV>
0

>  <SCORE.SYSTEM.norm>
0

>  <SCORE.heavy>
11

>  <SCORE.norm>
-2.54276

>  <RMSD>
6.105

$$$$
1akx_lig
 OpenBabel11021811383D
libRbt.so/2013.1/901 2013/11/27
 11 10  0  0  0  0  0  0  0  0999 V2000
    1.0645   -4.6385    1.1755 N   0  0  0  0  0  0  0  0  0  0  0  0
   -0.4218   -4.6570    1.3127 C   0  0  2  0  0  0  0  0  0  0  0  0
   -1.0026   -3.3467    0.7664 C   0  0  0  0  0  0  0  0  0  0  0  0
   -0.8500   -3.0435   -0.4002 O   0  0  0  0  0  0  0  0  0  0  0  0
   -0.8006   -4.8134    2.7917 C   0  0  0  0  0  0  0  0  0  0  0  0
   -1.2695   -6.2478    3.0563 C   0  0  0  0  0  0  0  0  0  0  0  0
   -0.0870   -7.2062    2.9147 C   0  0  0  0  0  0  0  0  0  0  0  0
   -0.5293   -8.5904    3.2469 N   0  0  0  0  0  0  0  0  0  0  0  0
   -0.7765   -9.4507    2.2923 C   0  0  0  0  0  0  0  0  0  0  0  0
   -1.4051  -10.5669    2.5574 N   0  0  0  0  0  0  0  0  0  0  0  0
   -0.3994   -9.1903    1.0692 N   0  0  0  0  0  0  0  0  0  0  0  0
  2  1  1  1  0  0  0
  2  3  1  0  0  0  0
  2  5  1  0  0  0  0
  3  4  1  0  0  0  0
  5  6  1  0  0  0  0
  6  7  1  0  0  0  0
  7  8  1  0  0  0  0
  8  9  1  0  0  0  0
  9 10  1  0  0  0  0
  9 11  1  0  0  0  0
M  END
>  <CHROM.1>
-175.19965998,61.63379758,-104.29639893,68.23003544,176.86944083,101.77534627
-166.72501557,-19.94595000,116.16931884,-0.56405694,-6.53986847,1.85642078
-0.87175069,-1.46814860,-2.72890374

>  <Name>
1akx_lig

>  <RI>
0

>  <Rbt.Current_Directory>
/home/afrankz/demos/rdock_decoys_rna/rnas/1akx

>  <Rbt.Executable>
rbdock ($Id: //depot/dev/client3/rdock/2013.1/src/exe/rbdock.cxx#4 $)

>  <Rbt.Library>
libRbt.so (2013.1, Build901 2013/11/27)

>  <Rbt.Parameter_File>
/export/apps/rDock/src/rDock_2013.1_src/data/scripts/dock_solv.prm

>  <Rbt.Receptor>
prm/pocket_docking_4.prm

>  <SCORE>
-21.0944

>  <SCORE.INTER>
-16.2015

>  <SCORE.INTER.CONST>
1

>  <SCORE.INTER.POLAR>
-3.01115

>  <SCORE.INTER.ROT>
8

>  <SCORE.INTER.SOLV>
6.41295

>  <SCORE.INTER.VDW>
-11.8348

>  <SCORE.INTER.norm>
-1.47286

>  <SCORE.INTRA>
-4.90264

>  <SCORE.INTRA.DIHEDRAL>
-11.5219

>  <SCORE.INTRA.DIHEDRAL.0>
21.6454

>  <SCORE.INTRA.POLAR>
0

>  <SCORE.INTRA.POLAR.0>
0

>  <SCORE.INTRA.REPUL>
0

>  <SCORE.INTRA.REPUL.0>
0

>  <SCORE.INTRA.SOLV>
0.447076

>  <SCORE.INTRA.SOLV.lig_0>
-16.5947

>  <SCORE.INTRA.VDW>
0.634789

>  <SCORE.INTRA.VDW.0>
-0.691398

>  <SCORE.INTRA.norm>
-0.445695

>  <SCORE.RESTR>
0.00975951

>  <SCORE.RESTR.CAVITY>
0.00975951

>  <SCORE.RESTR.norm>
0.000887228

>  <SCORE.SYSTEM>
0

>  <SCORE.SYSTEM.CONST>
0

>  <SCORE.SYSTEM.DIHEDRAL>
0

>  <SCORE.SYSTEM.SOLV>
0

>  <SCORE.SYSTEM.norm>
0

>  <SCORE.heavy>
11

>  <SCORE.norm>
-1.91767

>  <RMSD>
6.126

>  <RMSD>
6.126

$$$$
1akx_lig
 OpenBabel11021811383D
libRbt.so/2013.1/901 2013/11/27
 11 10  0  0  0  0  0  0  0  0999 V2000
    1.0645   -4.6385    1.1755 N   0  0  0  0  0  0  0  0  0  0  0  0
   -0.4218   -4.6570    1.3127 C   0  0  2  0  0  0  0  0  0  0  0  0
   -1.0026   -3.3467    0.7664 C   0  0  0  0  0  0  0  0  0  0  0  0
   -0.8500   -3.0435   -0.4002 O   0  0  0  0  0  0  0  0  0  0  0  0
   -0.8006   -4.8134    2.7917 C   0  0  0  0  0  0  0  0  0  0  0  0
   -1.2695   -6.2478    3.0563 C   0  0  0  0  0  0  0  0  0  0  0  0
   -0.0870   -7.2062    2.9147 C   0  0  0  0  0  0  0  0  0  0  0  0
   -0.5293   -8.5904    3.2469 N   0  0  0  0  0  0  0  0  0  0  0  0
   -0.7765   -9.4507    2.2923 C   0  0  0  0  0  0  0  0  0  0  0  0
   -1.4051  -10.5669    2.5574 N   0  0  0  0  0  0  0  0  0  0  0  0
   -0.3994   -9.1903    1.0692 N   0  0  0  0  0  0  0  0  0  0  0  0
  2  1  1  1  0  0  0
  2  3  1  0  0  0  0
  2  5  1  0  0  0  0
  3  4  1  0  0  0  0
  5  6  1  0  0  0  0
  6  7  1  0  0  0  0
  7  8  1  0  0  0  0
  8  9  1  0  0  0  0
  9 10  1  0  0  0  0
  9 11  1  0  0  0  0
M  END
>  <CHROM.1>
-175.19965998,61.63379758,-104.29639893,68.23003544,176.86944083,101.77534627
-166.72501557,-19.94595000,116.16931884,-0.56405694,-6.53986847,1.85642078
-0.87175069,-1.46814860,-2.72890374

>  <Name>
1akx_lig

>  <RI>
0

>  <Rbt.Current_Directory>
/home/afrankz/demos/rdock_decoys_rna/rnas/1akx

>  <Rbt.Executable>
rbdock ($Id: //depot/dev/client3/rdock/2013.1/src/exe/rbdock.cxx#4 $)

>  <Rbt.Library>
libRbt.so (2013.1, Build901 2013/11/27)

>  <Rbt.Parameter_File>
/export/apps/rDock/src/rDock_2013.1_src/data/scripts/dock_solv.prm

>  <Rbt.Receptor>
prm/pocket_docking_4.prm

>  <SCORE>
-21.0944

>  <SCORE.INTER>
-16.2015

>  <SCORE.INTER.CONST>
1

>  <SCORE.INTER.POLAR>
-3.01115

>  <SCORE.INTER.ROT>
8

>  <SCORE.INTER.SOLV>
6.41295

>  <SCORE.INTER.VDW>
-11.8348

>  <SCORE.INTER.norm>
-1.47286

>  <SCORE.INTRA>
-4.90264

>  <SCORE.INTRA.DIHEDRAL>
-11.5219

>  <SCORE.INTRA.DIHEDRAL.0>
21.6454

>  <SCORE.INTRA.POLAR>
0

>  <SCORE.INTRA.POLAR.0>
0

>  <SCORE.INTRA.REPUL>
0

>  <SCORE.INTRA.REPUL.0>
0

>  <SCORE.INTRA.SOLV>
0.447076

>  <SCORE.INTRA.SOLV.lig_0>
-16.5947

>  <SCORE.INTRA.VDW>
0.634789

>  <SCORE.INTRA.VDW.0>
-0.691398

>  <SCORE.INTRA.norm>
-0.445695

>  <SCORE.RESTR>
0.00975951

>  <SCORE.RESTR.CAVITY>
0.00975951

>  <SCORE.RESTR.norm>
0.000887228

>  <SCORE.SYSTEM>
0

>  <SCORE.SYSTEM.CONST>
0

>  <SCORE.SYSTEM.DIHEDRAL>
0

>  <SCORE.SYSTEM.SOLV>
0

>  <SCORE.SYSTEM.norm>
0

>  <SCORE.heavy>
11

>  <SCORE.norm>
-1.91767

>  <RMSD>
6.126

>  <RMSD>
6.126

$$$$
1akx_lig
 OpenBabel11021811383D
libRbt.so/2013.1/901 2013/11/27
 11 10  0  0  0  0  0  0  0  0999 V2000
   -2.2657   -2.1801   -3.5323 N   0  0  0  0  0  0  0  0  0  0  0  0
   -2.5570   -3.3916   -2.7103 C   0  0  2  0  0  0  0  0  0  0  0  0
   -4.0296   -3.3773   -2.2815 C   0  0  0  0  0  0  0  0  0  0  0  0
   -4.4747   -2.4500   -1.6348 O   0  0  0  0  0  0  0  0  0  0  0  0
   -1.6567   -3.3995   -1.4674 C   0  0  0  0  0  0  0  0  0  0  0  0
   -1.7171   -4.7743   -0.7941 C   0  0  0  0  0  0  0  0  0  0  0  0
   -0.6312   -4.8663    0.2780 C   0  0  0  0  0  0  0  0  0  0  0  0
   -0.4297   -6.2938    0.6572 N   0  0  0  0  0  0  0  0  0  0  0  0
    0.0478   -6.6020    1.8359 C   0  0  0  0  0  0  0  0  0  0  0  0
    0.1355   -7.8540    2.2048 N   0  0  0  0  0  0  0  0  0  0  0  0
    0.4441   -5.6556    2.6443 N   0  0  0  0  0  0  0  0  0  0  0  0
  2  1  1  6  0  0  0
  2  3  1  0  0  0  0
  2  5  1  0  0  0  0
  3  4  1  0  0  0  0
  5  6  1  0  0  0  0
  6  7  1  0  0  0  0
  7  8  1  0  0  0  0
  8  9  1  0  0  0  0
  9 10  1  0  0  0  0
  9 11  1  0  0  0  0
M  END
>  <CHROM.1>
47.78957486,-58.50848878,-167.21663243,169.43085498,-164.05872033,-154.89450760
175.12214349,48.10644504,-79.60480968,-1.55553272,-4.60917546,-0.43316579
-2.08258763,-0.14345207,2.20754230

>  <Name>
1akx_lig

>  <RI>
0

>  <Rbt.Current_Directory>
/home/itssahil/PROJECTS/Mol_Feturizer/New_Systems/rnas/1akx

>  <Rbt.Executable>
rbdock ($Id: //depot/dev/client3/rdock/2013.1/src/exe/rbdock.cxx#4 $)

>  <Rbt.Library>
libRbt.so (2013.1, Build901 2013/11/27)

>  <Rbt.Parameter_File>
/export/apps/rDock/src/rDock_2013.1_src/data/scripts/dock_solv.prm

>  <Rbt.Receptor>
prm/pocket_docking_2.prm

>  <SCORE>
-22.7064

>  <SCORE.INTER>
-17.2104

>  <SCORE.INTER.CONST>
1

>  <SCORE.INTER.POLAR>
-2.61075

>  <SCORE.INTER.ROT>
8

>  <SCORE.INTER.SOLV>
5.98568

>  <SCORE.INTER.VDW>
-13.6997

>  <SCORE.INTER.norm>
-1.56458

>  <SCORE.INTRA>
-5.72763

>  <SCORE.INTRA.DIHEDRAL>
-14.4793

>  <SCORE.INTRA.DIHEDRAL.0>
21.6454

>  <SCORE.INTRA.POLAR>
0

>  <SCORE.INTRA.POLAR.0>
0

>  <SCORE.INTRA.REPUL>
0

>  <SCORE.INTRA.REPUL.0>
0

>  <SCORE.INTRA.SOLV>
0.265641

>  <SCORE.INTRA.SOLV.lig_0>
-16.5947

>  <SCORE.INTRA.VDW>
1.37922

>  <SCORE.INTRA.VDW.0>
-0.691398

>  <SCORE.INTRA.norm>
-0.520694

>  <SCORE.RESTR>
0.231693

>  <SCORE.RESTR.CAVITY>
0.231693

>  <SCORE.RESTR.norm>
0.021063

>  <SCORE.SYSTEM>
0

>  <SCORE.SYSTEM.CONST>
0

>  <SCORE.SYSTEM.DIHEDRAL>
0

>  <SCORE.SYSTEM.SOLV>
0

>  <SCORE.SYSTEM.norm>
0

>  <SCORE.heavy>
11

>  <SCORE.norm>
-2.06421

>  <RMSD>
6.137

$$$$
1akx_lig
 OpenBabel11021811383D
libRbt.so/2013.1/901 2013/11/27
 11 10  0  0  0  0  0  0  0  0999 V2000
   -1.9598   -2.9384   -4.0546 N   0  0  0  0  0  0  0  0  0  0  0  0
   -2.8943   -3.1835   -2.9168 C   0  0  2  0  0  0  0  0  0  0  0  0
   -4.1935   -2.4003   -3.1436 C   0  0  0  0  0  0  0  0  0  0  0  0
   -5.0906   -2.4436   -2.3253 O   0  0  0  0  0  0  0  0  0  0  0  0
   -2.2393   -2.7294   -1.6052 C   0  0  0  0  0  0  0  0  0  0  0  0
   -1.1066   -3.6915   -1.2329 C   0  0  0  0  0  0  0  0  0  0  0  0
   -0.7084   -3.4715    0.2265 C   0  0  0  0  0  0  0  0  0  0  0  0
    0.4565   -4.3406    0.5581 N   0  0  0  0  0  0  0  0  0  0  0  0
    0.4826   -5.0071    1.6839 C   0  0  0  0  0  0  0  0  0  0  0  0
   -0.2343   -6.0924    1.8242 N   0  0  0  0  0  0  0  0  0  0  0  0
    1.2324   -4.5902    2.6688 N   0  0  0  0  0  0  0  0  0  0  0  0
  2  1  1  6  0  0  0
  2  3  1  0  0  0  0
  2  5  1  0  0  0  0
  3  4  1  0  0  0  0
  5  6  1  0  0  0  0
  6  7  1  0  0  0  0
  7  8  1  0  0  0  0
  8  9  1  0  0  0  0
  9 10  1  0  0  0  0
  9 11  1  0  0  0  0
M  END
>  <CHROM.1>
-13.65016218,-179.06844736,-71.06381141,-164.96302162,-176.05756445,-135.98686054
76.46823184,-150.12981106,-87.42716116,-1.46466210,-3.72881682,-0.75958880
-2.23347452,-0.16362400,1.88797695

>  <Name>
1akx_lig

>  <RI>
0

>  <Rbt.Current_Directory>
/home/itssahil/PROJECTS/Mol_Feturizer/New_Systems/rnas/1akx

>  <Rbt.Executable>
rbdock ($Id: //depot/dev/client3/rdock/2013.1/src/exe/rbdock.cxx#4 $)

>  <Rbt.Library>
libRbt.so (2013.1, Build901 2013/11/27)

>  <Rbt.Parameter_File>
/export/apps/rDock/src/rDock_2013.1_src/data/scripts/dock_solv.prm

>  <Rbt.Receptor>
prm/pocket_docking_6.prm

>  <SCORE>
-28.4488

>  <SCORE.INTER>
-23.0949

>  <SCORE.INTER.CONST>
1

>  <SCORE.INTER.POLAR>
-2.95384

>  <SCORE.INTER.ROT>
8

>  <SCORE.INTER.SOLV>
7.09672

>  <SCORE.INTER.VDW>
-16.8494

>  <SCORE.INTER.norm>
-2.09953

>  <SCORE.INTRA>
-5.35397

>  <SCORE.INTRA.DIHEDRAL>
-12.2417

>  <SCORE.INTRA.DIHEDRAL.0>
21.6454

>  <SCORE.INTRA.POLAR>
0

>  <SCORE.INTRA.POLAR.0>
0

>  <SCORE.INTRA.REPUL>
0

>  <SCORE.INTRA.REPUL.0>
0

>  <SCORE.INTRA.SOLV>
-0.0102009

>  <SCORE.INTRA.SOLV.lig_0>
-16.5947

>  <SCORE.INTRA.VDW>
0.772003

>  <SCORE.INTRA.VDW.0>
-0.691398

>  <SCORE.INTRA.norm>
-0.486724

>  <SCORE.RESTR>
0

>  <SCORE.RESTR.CAVITY>
0

>  <SCORE.RESTR.norm>
0

>  <SCORE.SYSTEM>
0

>  <SCORE.SYSTEM.CONST>
0

>  <SCORE.SYSTEM.DIHEDRAL>
0

>  <SCORE.SYSTEM.SOLV>
0

>  <SCORE.SYSTEM.norm>
0

>  <SCORE.heavy>
11

>  <SCORE.norm>
-2.58626

>  <RMSD>
6.153

$$$$
1akx_lig
 OpenBabel11021811383D
libRbt.so/2013.1/901 2013/11/27
 11 10  0  0  0  0  0  0  0  0999 V2000
   -1.9400   -2.9177   -3.9181 N   0  0  0  0  0  0  0  0  0  0  0  0
   -2.9185   -3.1922   -2.8247 C   0  0  2  0  0  0  0  0  0  0  0  0
   -4.2181   -2.4241   -3.0960 C   0  0  0  0  0  0  0  0  0  0  0  0
   -4.8450   -2.6146   -4.1191 O   0  0  0  0  0  0  0  0  0  0  0  0
   -2.3265   -2.7481   -1.4802 C   0  0  0  0  0  0  0  0  0  0  0  0
   -1.1403   -3.6467   -1.1155 C   0  0  0  0  0  0  0  0  0  0  0  0
   -0.8992   -3.5874    0.3928 C   0  0  0  0  0  0  0  0  0  0  0  0
    0.2686   -4.4458    0.7415 N   0  0  0  0  0  0  0  0  0  0  0  0
    0.1095   -5.4981    1.5029 C   0  0  0  0  0  0  0  0  0  0  0  0
   -0.2959   -6.6298    0.9868 N   0  0  0  0  0  0  0  0  0  0  0  0
    0.3628   -5.4193    2.7818 N   0  0  0  0  0  0  0  0  0  0  0  0
  2  1  1  6  0  0  0
  2  3  1  0  0  0  0
  2  5  1  0  0  0  0
  3  4  1  0  0  0  0
  5  6  1  0  0  0  0
  6  7  1  0  0  0  0
  7  8  1  0  0  0  0
  8  9  1  0  0  0  0
  9 10  1  0  0  0  0
  9 11  1  0  0  0  0
M  END
>  <CHROM.1>
104.95270544,58.92935090,-67.55635468,-158.19136400,-179.12211192,-115.94149692
83.00992237,-25.68123843,102.07925023,-1.60853459,-3.93804527,-0.94416271
-2.18318427,0.36089724,2.30342367

>  <Name>
1akx_lig

>  <RI>
0

>  <Rbt.Current_Directory>
/home/itssahil/PROJECTS/Mol_Feturizer/New_Systems/rnas/1akx

>  <Rbt.Executable>
rbdock ($Id: //depot/dev/client3/rdock/2013.1/src/exe/rbdock.cxx#4 $)

>  <Rbt.Library>
libRbt.so (2013.1, Build901 2013/11/27)

>  <Rbt.Parameter_File>
/export/apps/rDock/src/rDock_2013.1_src/data/scripts/dock_solv.prm

>  <Rbt.Receptor>
prm/pocket_docking_2.prm

>  <SCORE>
-30.1774

>  <SCORE.INTER>
-25.0167

>  <SCORE.INTER.CONST>
1

>  <SCORE.INTER.POLAR>
-3.33912

>  <SCORE.INTER.ROT>
8

>  <SCORE.INTER.SOLV>
6.96145

>  <SCORE.INTER.VDW>
-16.8012

>  <SCORE.INTER.norm>
-2.27424

>  <SCORE.INTRA>
-5.35782

>  <SCORE.INTRA.DIHEDRAL>
-11.7589

>  <SCORE.INTRA.DIHEDRAL.0>
21.6454

>  <SCORE.INTRA.POLAR>
0

>  <SCORE.INTRA.POLAR.0>
0

>  <SCORE.INTRA.REPUL>
0

>  <SCORE.INTRA.REPUL.0>
0

>  <SCORE.INTRA.SOLV>
0.218387

>  <SCORE.INTRA.SOLV.lig_0>
-16.5947

>  <SCORE.INTRA.VDW>
0.412436

>  <SCORE.INTRA.VDW.0>
-0.691398

>  <SCORE.INTRA.norm>
-0.487075

>  <SCORE.RESTR>
0.197064

>  <SCORE.RESTR.CAVITY>
0.197064

>  <SCORE.RESTR.norm>
0.0179149

>  <SCORE.SYSTEM>
0

>  <SCORE.SYSTEM.CONST>
0

>  <SCORE.SYSTEM.DIHEDRAL>
0

>  <SCORE.SYSTEM.SOLV>
0

>  <SCORE.SYSTEM.norm>
0

>  <SCORE.heavy>
11

>  <SCORE.norm>
-2.7434

>  <RMSD>
6.161

$$$$
1akx_lig
 OpenBabel11021811383D
libRbt.so/2013.1/901 2013/11/27
 11 10  0  0  0  0  0  0  0  0999 V2000
   -1.9247   -2.9340   -3.7610 N   0  0  0  0  0  0  0  0  0  0  0  0
   -2.8918   -3.2690   -2.6744 C   0  0  2  0  0  0  0  0  0  0  0  0
   -4.1951   -2.4898   -2.8908 C   0  0  0  0  0  0  0  0  0  0  0  0
   -4.8629   -2.6703   -3.8897 O   0  0  0  0  0  0  0  0  0  0  0  0
   -2.2870   -2.8971   -1.3138 C   0  0  0  0  0  0  0  0  0  0  0  0
   -1.1374   -3.8535   -0.9802 C   0  0  0  0  0  0  0  0  0  0  0  0
   -0.8972   -3.8565    0.5294 C   0  0  0  0  0  0  0  0  0  0  0  0
    0.3330   -4.6419    0.8332 N   0  0  0  0  0  0  0  0  0  0  0  0
    0.2884   -5.6336    1.6858 C   0  0  0  0  0  0  0  0  0  0  0  0
    0.6540   -5.4513    2.9285 N   0  0  0  0  0  0  0  0  0  0  0  0
   -0.1287   -6.8081    1.2953 N   0  0  0  0  0  0  0  0  0  0  0  0
  2  1  1  6  0  0  0
  2  3  1  0  0  0  0
  2  5  1  0  0  0  0
  3  4  1  0  0  0  0
  5  6  1  0  0  0  0
  6  7  1  0  0  0  0
  7  8  1  0  0  0  0
  8  9  1  0  0  0  0
  9 10  1  0  0  0  0
  9 11  1  0  0  0  0
M  END
>  <CHROM.1>
-132.09836754,62.22957713,-70.17319272,-158.27631630,-172.48356525,-125.42814757
-97.46073431,-153.98794807,168.89818783,-1.53502242,-4.06030576,-0.76939651
-2.16330322,0.15632501,2.18023924

>  <Name>
1akx_lig

>  <RI>
0

>  <Rbt.Current_Directory>
/home/itssahil/PROJECTS/Mol_Feturizer/New_Systems/rnas/1akx

>  <Rbt.Executable>
rbdock ($Id: //depot/dev/client3/rdock/2013.1/src/exe/rbdock.cxx#4 $)

>  <Rbt.Library>
libRbt.so (2013.1, Build901 2013/11/27)

>  <Rbt.Parameter_File>
/export/apps/rDock/src/rDock_2013.1_src/data/scripts/dock_solv.prm

>  <Rbt.Receptor>
prm/pocket_docking_2.prm

>  <SCORE>
-29.7215

>  <SCORE.INTER>
-24.7841

>  <SCORE.INTER.CONST>
1

>  <SCORE.INTER.POLAR>
-3.42561

>  <SCORE.INTER.ROT>
8

>  <SCORE.INTER.SOLV>
6.94822

>  <SCORE.INTER.VDW>
-16.3535

>  <SCORE.INTER.norm>
-2.2531

>  <SCORE.INTRA>
-5.00937

>  <SCORE.INTRA.DIHEDRAL>
-11.1827

>  <SCORE.INTRA.DIHEDRAL.0>
21.6454

>  <SCORE.INTRA.POLAR>
0

>  <SCORE.INTRA.POLAR.0>
0

>  <SCORE.INTRA.REPUL>
0

>  <SCORE.INTRA.REPUL.0>
0

>  <SCORE.INTRA.SOLV>
0.185598

>  <SCORE.INTRA.SOLV.lig_0>
-16.5947

>  <SCORE.INTRA.VDW>
0.489192

>  <SCORE.INTRA.VDW.0>
-0.691398

>  <SCORE.INTRA.norm>
-0.455397

>  <SCORE.RESTR>
0.0720227

>  <SCORE.RESTR.CAVITY>
0.0720227

>  <SCORE.RESTR.norm>
0.00654752

>  <SCORE.SYSTEM>
0

>  <SCORE.SYSTEM.CONST>
0

>  <SCORE.SYSTEM.DIHEDRAL>
0

>  <SCORE.SYSTEM.SOLV>
0

>  <SCORE.SYSTEM.norm>
0

>  <SCORE.heavy>
11

>  <SCORE.norm>
-2.70195

>  <RMSD>
6.184

$$$$
1akx_lig
 OpenBabel11021811383D
libRbt.so/2013.1/901 2013/11/27
 11 10  0  0  0  0  0  0  0  0999 V2000
   -1.9539   -2.0674   -2.8523 N   0  0  0  0  0  0  0  0  0  0  0  0
   -2.7824   -3.2784   -2.5782 C   0  0  2  0  0  0  0  0  0  0  0  0
   -4.2534   -2.9731   -2.8875 C   0  0  0  0  0  0  0  0  0  0  0  0
   -4.5858   -2.5973   -3.9941 O   0  0  0  0  0  0  0  0  0  0  0  0
   -2.6366   -3.6795   -1.1040 C   0  0  0  0  0  0  0  0  0  0  0  0
   -1.1886   -4.0929   -0.8215 C   0  0  0  0  0  0  0  0  0  0  0  0
   -0.9916   -4.2670    0.6844 C   0  0  0  0  0  0  0  0  0  0  0  0
    0.3460   -4.8727    0.9417 N   0  0  0  0  0  0  0  0  0  0  0  0
    0.4717   -5.8545    1.7976 C   0  0  0  0  0  0  0  0  0  0  0  0
    0.0826   -7.0618    1.4775 N   0  0  0  0  0  0  0  0  0  0  0  0
    0.9936   -5.6288    2.9735 N   0  0  0  0  0  0  0  0  0  0  0  0
  2  1  1  1  0  0  0
  2  3  1  0  0  0  0
  2  5  1  0  0  0  0
  3  4  1  0  0  0  0
  5  6  1  0  0  0  0
  6  7  1  0  0  0  0
  7  8  1  0  0  0  0
  8  9  1  0  0  0  0
  9 10  1  0  0  0  0
  9 11  1  0  0  0  0
M  END
>  <CHROM.1>
-128.00158200,57.55695640,-64.26571432,170.66920375,171.17687795,-134.87252275
75.39989234,158.03086344,16.47025504,-1.47961664,-4.20561235,-0.58621147
-2.31380617,0.59174591,2.59976722

>  <Name>
1akx_lig

>  <RI>
0

>  <Rbt.Current_Directory>
/home/afrankz/demos/rdock_decoys_rna/rnas/1akx

>  <Rbt.Executable>
rbdock ($Id: //depot/dev/client3/rdock/2013.1/src/exe/rbdock.cxx#4 $)

>  <Rbt.Library>
libRbt.so (2013.1, Build901 2013/11/27)

>  <Rbt.Parameter_File>
/export/apps/rDock/src/rDock_2013.1_src/data/scripts/dock_solv.prm

>  <Rbt.Receptor>
prm/pocket_docking_2.prm

>  <SCORE>
-26.021

>  <SCORE.INTER>
-20.572

>  <SCORE.INTER.CONST>
1

>  <SCORE.INTER.POLAR>
-2.93161

>  <SCORE.INTER.ROT>
8

>  <SCORE.INTER.SOLV>
7.44841

>  <SCORE.INTER.VDW>
-15.3587

>  <SCORE.INTER.norm>
-1.87018

>  <SCORE.INTRA>
-5.44905

>  <SCORE.INTRA.DIHEDRAL>
-12.6555

>  <SCORE.INTRA.DIHEDRAL.0>
21.6454

>  <SCORE.INTRA.POLAR>
0

>  <SCORE.INTRA.POLAR.0>
0

>  <SCORE.INTRA.REPUL>
0

>  <SCORE.INTRA.REPUL.0>
0

>  <SCORE.INTRA.SOLV>
0.214916

>  <SCORE.INTRA.SOLV.lig_0>
-16.5947

>  <SCORE.INTRA.VDW>
0.771227

>  <SCORE.INTRA.VDW.0>
-0.691398

>  <SCORE.INTRA.norm>
-0.495368

>  <SCORE.RESTR>
0

>  <SCORE.RESTR.CAVITY>
0

>  <SCORE.RESTR.norm>
0

>  <SCORE.SYSTEM>
0

>  <SCORE.SYSTEM.CONST>
0

>  <SCORE.SYSTEM.DIHEDRAL>
0

>  <SCORE.SYSTEM.SOLV>
0

>  <SCORE.SYSTEM.norm>
0

>  <SCORE.heavy>
11

>  <SCORE.norm>
-2.36555

>  <RMSD>
6.188

>  <RMSD>
6.188

$$$$
1akx_lig
 OpenBabel11021811383D
libRbt.so/2013.1/901 2013/11/27
 11 10  0  0  0  0  0  0  0  0999 V2000
   -1.9539   -2.0674   -2.8523 N   0  0  0  0  0  0  0  0  0  0  0  0
   -2.7824   -3.2784   -2.5782 C   0  0  2  0  0  0  0  0  0  0  0  0
   -4.2534   -2.9731   -2.8875 C   0  0  0  0  0  0  0  0  0  0  0  0
   -4.5858   -2.5973   -3.9941 O   0  0  0  0  0  0  0  0  0  0  0  0
   -2.6366   -3.6795   -1.1040 C   0  0  0  0  0  0  0  0  0  0  0  0
   -1.1886   -4.0929   -0.8215 C   0  0  0  0  0  0  0  0  0  0  0  0
   -0.9916   -4.2670    0.6844 C   0  0  0  0  0  0  0  0  0  0  0  0
    0.3460   -4.8727    0.9417 N   0  0  0  0  0  0  0  0  0  0  0  0
    0.4717   -5.8545    1.7976 C   0  0  0  0  0  0  0  0  0  0  0  0
    0.0826   -7.0618    1.4775 N   0  0  0  0  0  0  0  0  0  0  0  0
    0.9936   -5.6288    2.9735 N   0  0  0  0  0  0  0  0  0  0  0  0
  2  1  1  1  0  0  0
  2  3  1  0  0  0  0
  2  5  1  0  0  0  0
  3  4  1  0  0  0  0
  5  6  1  0  0  0  0
  6  7  1  0  0  0  0
  7  8  1  0  0  0  0
  8  9  1  0  0  0  0
  9 10  1  0  0  0  0
  9 11  1  0  0  0  0
M  END
>  <CHROM.1>
-128.00158200,57.55695640,-64.26571432,170.66920375,171.17687795,-134.87252275
75.39989234,158.03086344,16.47025504,-1.47961664,-4.20561235,-0.58621147
-2.31380617,0.59174591,2.59976722

>  <Name>
1akx_lig

>  <RI>
0

>  <Rbt.Current_Directory>
/home/afrankz/demos/rdock_decoys_rna/rnas/1akx

>  <Rbt.Executable>
rbdock ($Id: //depot/dev/client3/rdock/2013.1/src/exe/rbdock.cxx#4 $)

>  <Rbt.Library>
libRbt.so (2013.1, Build901 2013/11/27)

>  <Rbt.Parameter_File>
/export/apps/rDock/src/rDock_2013.1_src/data/scripts/dock_solv.prm

>  <Rbt.Receptor>
prm/pocket_docking_2.prm

>  <SCORE>
-26.021

>  <SCORE.INTER>
-20.572

>  <SCORE.INTER.CONST>
1

>  <SCORE.INTER.POLAR>
-2.93161

>  <SCORE.INTER.ROT>
8

>  <SCORE.INTER.SOLV>
7.44841

>  <SCORE.INTER.VDW>
-15.3587

>  <SCORE.INTER.norm>
-1.87018

>  <SCORE.INTRA>
-5.44905

>  <SCORE.INTRA.DIHEDRAL>
-12.6555

>  <SCORE.INTRA.DIHEDRAL.0>
21.6454

>  <SCORE.INTRA.POLAR>
0

>  <SCORE.INTRA.POLAR.0>
0

>  <SCORE.INTRA.REPUL>
0

>  <SCORE.INTRA.REPUL.0>
0

>  <SCORE.INTRA.SOLV>
0.214916

>  <SCORE.INTRA.SOLV.lig_0>
-16.5947

>  <SCORE.INTRA.VDW>
0.771227

>  <SCORE.INTRA.VDW.0>
-0.691398

>  <SCORE.INTRA.norm>
-0.495368

>  <SCORE.RESTR>
0

>  <SCORE.RESTR.CAVITY>
0

>  <SCORE.RESTR.norm>
0

>  <SCORE.SYSTEM>
0

>  <SCORE.SYSTEM.CONST>
0

>  <SCORE.SYSTEM.DIHEDRAL>
0

>  <SCORE.SYSTEM.SOLV>
0

>  <SCORE.SYSTEM.norm>
0

>  <SCORE.heavy>
11

>  <SCORE.norm>
-2.36555

>  <RMSD>
6.188

>  <RMSD>
6.188

$$$$
1akx_lig
 OpenBabel11021811383D
libRbt.so/2013.1/901 2013/11/27
 11 10  0  0  0  0  0  0  0  0999 V2000
   -1.9078   -3.0245   -4.1261 N   0  0  0  0  0  0  0  0  0  0  0  0
   -2.6962   -3.4093   -2.9184 C   0  0  2  0  0  0  0  0  0  0  0  0
   -3.7889   -2.3628   -2.6657 C   0  0  0  0  0  0  0  0  0  0  0  0
   -4.7291   -2.2565   -3.4278 O   0  0  0  0  0  0  0  0  0  0  0  0
   -1.7662   -3.4901   -1.7003 C   0  0  0  0  0  0  0  0  0  0  0  0
   -1.2858   -4.9326   -1.5115 C   0  0  0  0  0  0  0  0  0  0  0  0
   -0.9990   -5.1860   -0.0315 C   0  0  0  0  0  0  0  0  0  0  0  0
    0.4011   -4.7786    0.2782 N   0  0  0  0  0  0  0  0  0  0  0  0
    0.8620   -4.8775    1.4989 C   0  0  0  0  0  0  0  0  0  0  0  0
    0.6969   -5.9832    2.1782 N   0  0  0  0  0  0  0  0  0  0  0  0
    1.4946   -3.8701    2.0383 N   0  0  0  0  0  0  0  0  0  0  0  0
  2  1  1  6  0  0  0
  2  3  1  0  0  0  0
  2  5  1  0  0  0  0
  3  4  1  0  0  0  0
  5  6  1  0  0  0  0
  6  7  1  0  0  0  0
  7  8  1  0  0  0  0
  8  9  1  0  0  0  0
  9 10  1  0  0  0  0
  9 11  1  0  0  0  0
M  END
>  <CHROM.1>
81.30706068,69.02343758,-94.10653162,-151.27859547,-86.89443221,178.45355250
48.38154764,-166.17034250,-132.60168813,-1.22886525,-3.99796286,-0.95774058
-2.32005610,-0.44482641,1.62086089

>  <Name>
1akx_lig

>  <RI>
0

>  <Rbt.Current_Directory>
/home/itssahil/PROJECTS/Mol_Feturizer/New_Systems/rnas/1akx

>  <Rbt.Executable>
rbdock ($Id: //depot/dev/client3/rdock/2013.1/src/exe/rbdock.cxx#4 $)

>  <Rbt.Library>
libRbt.so (2013.1, Build901 2013/11/27)

>  <Rbt.Parameter_File>
/export/apps/rDock/src/rDock_2013.1_src/data/scripts/dock_solv.prm

>  <Rbt.Receptor>
prm/pocket_docking_4.prm

>  <SCORE>
-24.3884

>  <SCORE.INTER>
-21.1907

>  <SCORE.INTER.CONST>
1

>  <SCORE.INTER.POLAR>
-2.83647

>  <SCORE.INTER.ROT>
8

>  <SCORE.INTER.SOLV>
8.25494

>  <SCORE.INTER.VDW>
-16.3572

>  <SCORE.INTER.norm>
-1.92643

>  <SCORE.INTRA>
-3.19769

>  <SCORE.INTRA.DIHEDRAL>
-6.81558

>  <SCORE.INTRA.DIHEDRAL.0>
21.6454

>  <SCORE.INTRA.POLAR>
0

>  <SCORE.INTRA.POLAR.0>
0

>  <SCORE.INTRA.REPUL>
0

>  <SCORE.INTRA.REPUL.0>
0

>  <SCORE.INTRA.SOLV>
0.155283

>  <SCORE.INTRA.SOLV.lig_0>
-16.5947

>  <SCORE.INTRA.VDW>
0.132462

>  <SCORE.INTRA.VDW.0>
-0.691398

>  <SCORE.INTRA.norm>
-0.290699

>  <SCORE.RESTR>
0

>  <SCORE.RESTR.CAVITY>
0

>  <SCORE.RESTR.norm>
0

>  <SCORE.SYSTEM>
0

>  <SCORE.SYSTEM.CONST>
0

>  <SCORE.SYSTEM.DIHEDRAL>
0

>  <SCORE.SYSTEM.SOLV>
0

>  <SCORE.SYSTEM.norm>
0

>  <SCORE.heavy>
11

>  <SCORE.norm>
-2.21713

>  <RMSD>
6.206

$$$$
1akx_lig
 OpenBabel11021811383D
libRbt.so/2013.1/901 2013/11/27
 11 10  0  0  0  0  0  0  0  0999 V2000
   -2.2648   -2.2015   -3.4982 N   0  0  0  0  0  0  0  0  0  0  0  0
   -3.0218   -3.2233   -2.7163 C   0  0  2  0  0  0  0  0  0  0  0  0
   -4.5263   -2.9522   -2.8413 C   0  0  0  0  0  0  0  0  0  0  0  0
   -5.0571   -2.9119   -3.9334 O   0  0  0  0  0  0  0  0  0  0  0  0
   -2.6050   -3.1556   -1.2408 C   0  0  0  0  0  0  0  0  0  0  0  0
   -1.1713   -3.6726   -1.0843 C   0  0  0  0  0  0  0  0  0  0  0  0
   -0.7981   -3.7029    0.3978 C   0  0  0  0  0  0  0  0  0  0  0  0
    0.4952   -4.4244    0.5678 N   0  0  0  0  0  0  0  0  0  0  0  0
    0.7677   -5.0331    1.6937 C   0  0  0  0  0  0  0  0  0  0  0  0
    0.0648   -6.0707    2.0689 N   0  0  0  0  0  0  0  0  0  0  0  0
    1.7495   -4.6065    2.4421 N   0  0  0  0  0  0  0  0  0  0  0  0
  2  1  1  6  0  0  0
  2  3  1  0  0  0  0
  2  5  1  0  0  0  0
  3  4  1  0  0  0  0
  5  6  1  0  0  0  0
  6  7  1  0  0  0  0
  7  8  1  0  0  0  0
  8  9  1  0  0  0  0
  9 10  1  0  0  0  0
  9 11  1  0  0  0  0
M  END
>  <CHROM.1>
-53.43968406,57.08113538,-70.00050218,-175.74363983,170.14195143,-153.14916615
65.99575929,-84.57487840,-82.92529993,-1.47053988,-3.80908211,-0.75405293
-2.31975125,0.31920339,2.26287283

>  <Name>
1akx_lig

>  <RI>
0

>  <Rbt.Current_Directory>
/home/itssahil/PROJECTS/Mol_Feturizer/New_Systems/rnas/1akx

>  <Rbt.Executable>
rbdock ($Id: //depot/dev/client3/rdock/2013.1/src/exe/rbdock.cxx#4 $)

>  <Rbt.Library>
libRbt.so (2013.1, Build901 2013/11/27)

>  <Rbt.Parameter_File>
/export/apps/rDock/src/rDock_2013.1_src/data/scripts/dock_solv.prm

>  <Rbt.Receptor>
prm/pocket_docking_4.prm

>  <SCORE>
-27.9774

>  <SCORE.INTER>
-19.8962

>  <SCORE.INTER.CONST>
1

>  <SCORE.INTER.POLAR>
-2.54999

>  <SCORE.INTER.ROT>
8

>  <SCORE.INTER.SOLV>
7.4581

>  <SCORE.INTER.VDW>
-16.1835

>  <SCORE.INTER.norm>
-1.80875

>  <SCORE.INTRA>
-8.0812

>  <SCORE.INTRA.DIHEDRAL>
-15.8745

>  <SCORE.INTRA.DIHEDRAL.0>
21.6454

>  <SCORE.INTRA.POLAR>
0

>  <SCORE.INTRA.POLAR.0>
0

>  <SCORE.INTRA.REPUL>
0

>  <SCORE.INTRA.REPUL.0>
0

>  <SCORE.INTRA.SOLV>
0.128968

>  <SCORE.INTRA.SOLV.lig_0>
-16.5947

>  <SCORE.INTRA.VDW>
-0.208415

>  <SCORE.INTRA.VDW.0>
-0.691398

>  <SCORE.INTRA.norm>
-0.734654

>  <SCORE.RESTR>
0

>  <SCORE.RESTR.CAVITY>
0

>  <SCORE.RESTR.norm>
0

>  <SCORE.SYSTEM>
0

>  <SCORE.SYSTEM.CONST>
0

>  <SCORE.SYSTEM.DIHEDRAL>
0

>  <SCORE.SYSTEM.SOLV>
0

>  <SCORE.SYSTEM.norm>
0

>  <SCORE.heavy>
11

>  <SCORE.norm>
-2.5434

>  <RMSD>
6.208

$$$$
1akx_lig
 OpenBabel11021811383D
libRbt.so/2013.1/901 2013/11/27
 11 10  0  0  0  0  0  0  0  0999 V2000
   -1.0850  -10.6542   -0.6052 N   0  0  0  0  0  0  0  0  0  0  0  0
   -0.7164   -9.6456   -1.6421 C   0  0  2  0  0  0  0  0  0  0  0  0
   -1.9512   -8.8123   -2.0073 C   0  0  0  0  0  0  0  0  0  0  0  0
   -2.4089   -8.0095   -1.2184 O   0  0  0  0  0  0  0  0  0  0  0  0
   -0.1878  -10.3617   -2.8923 C   0  0  0  0  0  0  0  0  0  0  0  0
    0.3561   -9.3313   -3.8871 C   0  0  0  0  0  0  0  0  0  0  0  0
    0.3656   -9.9333   -5.2923 C   0  0  0  0  0  0  0  0  0  0  0  0
    0.8781   -8.9222   -6.2604 N   0  0  0  0  0  0  0  0  0  0  0  0
    0.1771   -8.6094   -7.3203 C   0  0  0  0  0  0  0  0  0  0  0  0
    0.6784   -7.8159   -8.2315 N   0  0  0  0  0  0  0  0  0  0  0  0
   -1.0252   -9.0969   -7.4713 N   0  0  0  0  0  0  0  0  0  0  0  0
  2  1  1  1  0  0  0
  2  3  1  0  0  0  0
  2  5  1  0  0  0  0
  3  4  1  0  0  0  0
  5  6  1  0  0  0  0
  6  7  1  0  0  0  0
  7  8  1  0  0  0  0
  8  9  1  0  0  0  0
  9 10  1  0  0  0  0
  9 11  1  0  0  0  0
M  END
>  <CHROM.1>
-54.92705419,70.80549936,-172.86524132,-157.87758489,179.25277030,-126.06909727
-173.73850322,161.90857367,-79.23005295,-0.46984081,-9.19294030,-4.24993126
-1.92971431,0.74418047,-1.17110460

>  <Name>
1akx_lig

>  <RI>
0

>  <Rbt.Current_Directory>
/home/itssahil/PROJECTS/Mol_Feturizer/New_Systems/rnas/1akx

>  <Rbt.Executable>
rbdock ($Id: //depot/dev/client3/rdock/2013.1/src/exe/rbdock.cxx#4 $)

>  <Rbt.Library>
libRbt.so (2013.1, Build901 2013/11/27)

>  <Rbt.Parameter_File>
/export/apps/rDock/src/rDock_2013.1_src/data/scripts/dock_solv.prm

>  <Rbt.Receptor>
prm/blind_docking_60.prm

>  <SCORE>
-25.9364

>  <SCORE.INTER>
-20.3232

>  <SCORE.INTER.CONST>
1

>  <SCORE.INTER.POLAR>
-3.8278

>  <SCORE.INTER.ROT>
8

>  <SCORE.INTER.SOLV>
7.63224

>  <SCORE.INTER.VDW>
-12.2669

>  <SCORE.INTER.norm>
-1.84756

>  <SCORE.INTRA>
-5.87389

>  <SCORE.INTRA.DIHEDRAL>
-14.3307

>  <SCORE.INTRA.DIHEDRAL.0>
21.6454

>  <SCORE.INTRA.POLAR>
0

>  <SCORE.INTRA.POLAR.0>
0

>  <SCORE.INTRA.REPUL>
0

>  <SCORE.INTRA.REPUL.0>
0

>  <SCORE.INTRA.SOLV>
0.158544

>  <SCORE.INTRA.SOLV.lig_0>
-16.5947

>  <SCORE.INTRA.VDW>
1.21217

>  <SCORE.INTRA.VDW.0>
-0.691398

>  <SCORE.INTRA.norm>
-0.53399

>  <SCORE.RESTR>
0.260593

>  <SCORE.RESTR.CAVITY>
0.260593

>  <SCORE.RESTR.norm>
0.0236903

>  <SCORE.SYSTEM>
0

>  <SCORE.SYSTEM.CONST>
0

>  <SCORE.SYSTEM.DIHEDRAL>
0

>  <SCORE.SYSTEM.SOLV>
0

>  <SCORE.SYSTEM.norm>
0

>  <SCORE.heavy>
11

>  <SCORE.norm>
-2.35786

>  <RMSD>
7.422

$$$$
1akx_lig
 OpenBabel11021811383D
libRbt.so/2013.1/901 2013/11/27
 11 10  0  0  0  0  0  0  0  0999 V2000
    0.1347   -9.7530   -1.2554 N   0  0  0  0  0  0  0  0  0  0  0  0
   -1.0171   -9.7467   -2.2048 C   0  0  2  0  0  0  0  0  0  0  0  0
   -2.3293   -9.8599   -1.4186 C   0  0  0  0  0  0  0  0  0  0  0  0
   -2.5332  -10.8129   -0.6930 O   0  0  0  0  0  0  0  0  0  0  0  0
   -0.8918  -10.9295   -3.1747 C   0  0  0  0  0  0  0  0  0  0  0  0
    0.4063  -10.8036   -3.9786 C   0  0  0  0  0  0  0  0  0  0  0  0
    0.3632   -9.5295   -4.8222 C   0  0  0  0  0  0  0  0  0  0  0  0
   -0.1390   -9.8564   -6.1872 N   0  0  0  0  0  0  0  0  0  0  0  0
    0.5308   -9.4758   -7.2449 C   0  0  0  0  0  0  0  0  0  0  0  0
    1.8305   -9.6177   -7.2884 N   0  0  0  0  0  0  0  0  0  0  0  0
   -0.1022   -8.9581   -8.2634 N   0  0  0  0  0  0  0  0  0  0  0  0
  2  1  1  1  0  0  0
  2  3  1  0  0  0  0
  2  5  1  0  0  0  0
  3  4  1  0  0  0  0
  5  6  1  0  0  0  0
  6  7  1  0  0  0  0
  7  8  1  0  0  0  0
  8  9  1  0  0  0  0
  9 10  1  0  0  0  0
  9 11  1  0  0  0  0
M  END
>  <CHROM.1>
58.17496445,-58.60226160,-60.77672818,-62.57093701,-94.25997495,-128.46382636
44.25502698,-81.45908704,-172.83571312,-0.32586587,-9.93633003,-4.22663547
-1.91509868,-0.00014287,-1.43183602

>  <Name>
1akx_lig

>  <RI>
0

>  <Rbt.Current_Directory>
/home/itssahil/PROJECTS/Mol_Feturizer/New_Systems/rnas/1akx

>  <Rbt.Executable>
rbdock ($Id: //depot/dev/client3/rdock/2013.1/src/exe/rbdock.cxx#4 $)

>  <Rbt.Library>
libRbt.so (2013.1, Build901 2013/11/27)

>  <Rbt.Parameter_File>
/export/apps/rDock/src/rDock_2013.1_src/data/scripts/dock_solv.prm

>  <Rbt.Receptor>
prm/blind_docking_60.prm

>  <SCORE>
-26.1916

>  <SCORE.INTER>
-20.7297

>  <SCORE.INTER.CONST>
1

>  <SCORE.INTER.POLAR>
-4.21674

>  <SCORE.INTER.ROT>
8

>  <SCORE.INTER.SOLV>
5.80976

>  <SCORE.INTER.VDW>
-10.6339

>  <SCORE.INTER.norm>
-1.88452

>  <SCORE.INTRA>
-5.47946

>  <SCORE.INTRA.DIHEDRAL>
-13.429

>  <SCORE.INTRA.DIHEDRAL.0>
21.6454

>  <SCORE.INTRA.POLAR>
0

>  <SCORE.INTRA.POLAR.0>
0

>  <SCORE.INTRA.REPUL>
0

>  <SCORE.INTRA.REPUL.0>
0

>  <SCORE.INTRA.SOLV>
0.632033

>  <SCORE.INTRA.SOLV.lig_0>
-16.5947

>  <SCORE.INTRA.VDW>
0.91901

>  <SCORE.INTRA.VDW.0>
-0.691398

>  <SCORE.INTRA.norm>
-0.498133

>  <SCORE.RESTR>
0.0175671

>  <SCORE.RESTR.CAVITY>
0.0175671

>  <SCORE.RESTR.norm>
0.00159701

>  <SCORE.SYSTEM>
0

>  <SCORE.SYSTEM.CONST>
0

>  <SCORE.SYSTEM.DIHEDRAL>
0

>  <SCORE.SYSTEM.SOLV>
0

>  <SCORE.SYSTEM.norm>
0

>  <SCORE.heavy>
11

>  <SCORE.norm>
-2.38106

>  <RMSD>
7.967

$$$$
1akx_lig
 OpenBabel11021811383D
libRbt.so/2013.1/901 2013/11/27
 11 10  0  0  0  0  0  0  0  0999 V2000
    0.6229   -8.9221   -3.1993 N   0  0  0  0  0  0  0  0  0  0  0  0
   -0.2949   -9.6444   -4.1289 C   0  0  2  0  0  0  0  0  0  0  0  0
   -0.4210  -11.1083   -3.6889 C   0  0  0  0  0  0  0  0  0  0  0  0
   -1.0234  -11.3976   -2.6742 O   0  0  0  0  0  0  0  0  0  0  0  0
    0.2633   -9.5801   -5.5571 C   0  0  0  0  0  0  0  0  0  0  0  0
   -0.8918   -9.4998   -6.5604 C   0  0  0  0  0  0  0  0  0  0  0  0
   -0.4261   -8.7656   -7.8178 C   0  0  0  0  0  0  0  0  0  0  0  0
   -1.6082   -8.4330   -8.6631 N   0  0  0  0  0  0  0  0  0  0  0  0
   -1.4825   -8.3305   -9.9616 C   0  0  0  0  0  0  0  0  0  0  0  0
   -2.0142   -7.3184  -10.5973 N   0  0  0  0  0  0  0  0  0  0  0  0
   -0.8180   -9.2391  -10.6240 N   0  0  0  0  0  0  0  0  0  0  0  0
  2  1  1  1  0  0  0
  2  3  1  0  0  0  0
  2  5  1  0  0  0  0
  3  4  1  0  0  0  0
  5  6  1  0  0  0  0
  6  7  1  0  0  0  0
  7  8  1  0  0  0  0
  8  9  1  0  0  0  0
  9 10  1  0  0  0  0
  9 11  1  0  0  0  0
M  END
>  <CHROM.1>
-97.26077028,70.62638873,-145.72390488,152.02624357,-168.07677318,-151.46706911
-133.81827032,-160.05098774,-88.92054927,-0.73510463,-9.28223865,-6.66996604
-1.18418471,-1.10686567,-0.92564463

>  <Name>
1akx_lig

>  <RI>
0

>  <Rbt.Current_Directory>
/home/itssahil/PROJECTS/Mol_Feturizer/New_Systems/rnas/1akx

>  <Rbt.Executable>
rbdock ($Id: //depot/dev/client3/rdock/2013.1/src/exe/rbdock.cxx#4 $)

>  <Rbt.Library>
libRbt.so (2013.1, Build901 2013/11/27)

>  <Rbt.Parameter_File>
/export/apps/rDock/src/rDock_2013.1_src/data/scripts/dock_solv.prm

>  <Rbt.Receptor>
prm/blind_docking_60.prm

>  <SCORE>
-21.4923

>  <SCORE.INTER>
-18.7672

>  <SCORE.INTER.CONST>
1

>  <SCORE.INTER.POLAR>
-3.66328

>  <SCORE.INTER.ROT>
8

>  <SCORE.INTER.SOLV>
8.20898

>  <SCORE.INTER.VDW>
-11.9702

>  <SCORE.INTER.norm>
-1.70611

>  <SCORE.INTRA>
-2.72555

>  <SCORE.INTRA.DIHEDRAL>
-7.12769

>  <SCORE.INTRA.DIHEDRAL.0>
21.6454

>  <SCORE.INTRA.POLAR>
0

>  <SCORE.INTRA.POLAR.0>
0

>  <SCORE.INTRA.REPUL>
0

>  <SCORE.INTRA.REPUL.0>
0

>  <SCORE.INTRA.SOLV>
0.0692848

>  <SCORE.INTRA.SOLV.lig_0>
-16.5947

>  <SCORE.INTRA.VDW>
0.803656

>  <SCORE.INTRA.VDW.0>
-0.691398

>  <SCORE.INTRA.norm>
-0.247777

>  <SCORE.RESTR>
0.000414927

>  <SCORE.RESTR.CAVITY>
0.000414927

>  <SCORE.RESTR.norm>
3.77206e-05

>  <SCORE.SYSTEM>
0

>  <SCORE.SYSTEM.CONST>
0

>  <SCORE.SYSTEM.DIHEDRAL>
0

>  <SCORE.SYSTEM.SOLV>
0

>  <SCORE.SYSTEM.norm>
0

>  <SCORE.heavy>
11

>  <SCORE.norm>
-1.95385

>  <RMSD>
8.774

$$$$
1akx_lig
 OpenBabel11021811383D
libRbt.so/2013.1/901 2013/11/27
 11 10  0  0  0  0  0  0  0  0999 V2000
    2.0626   -9.5060   -8.1900 N   0  0  0  0  0  0  0  0  0  0  0  0
    0.7507   -9.6284   -7.4885 C   0  0  2  0  0  0  0  0  0  0  0  0
   -0.3121   -8.8227   -8.2462 C   0  0  0  0  0  0  0  0  0  0  0  0
   -0.3338   -7.6100   -8.1747 O   0  0  0  0  0  0  0  0  0  0  0  0
    0.8808   -9.0936   -6.0559 C   0  0  0  0  0  0  0  0  0  0  0  0
   -0.2717   -9.6267   -5.1985 C   0  0  0  0  0  0  0  0  0  0  0  0
    0.2274   -9.8885   -3.7775 C   0  0  0  0  0  0  0  0  0  0  0  0
   -0.9038   -9.7329   -2.8191 N   0  0  0  0  0  0  0  0  0  0  0  0
   -0.7446   -9.0456   -1.7170 C   0  0  0  0  0  0  0  0  0  0  0  0
   -0.6053   -7.7458   -1.7651 N   0  0  0  0  0  0  0  0  0  0  0  0
   -0.7311   -9.6598   -0.5643 N   0  0  0  0  0  0  0  0  0  0  0  0
  2  1  1  6  0  0  0
  2  3  1  0  0  0  0
  2  5  1  0  0  0  0
  3  4  1  0  0  0  0
  5  6  1  0  0  0  0
  6  7  1  0  0  0  0
  7  8  1  0  0  0  0
  8  9  1  0  0  0  0
  9 10  1  0  0  0  0
  9 11  1  0  0  0  0
M  END
>  <CHROM.1>
-146.79454236,-75.17143982,-161.18248914,144.57470075,151.76674117,-133.94386020
70.04785105,-18.37948806,-88.14653514,0.01481361,-9.10182766,-4.90726981
-1.23404249,-0.88311025,1.86967771

>  <Name>
1akx_lig

>  <RI>
0

>  <Rbt.Current_Directory>
/home/itssahil/PROJECTS/Mol_Feturizer/New_Systems/rnas/1akx

>  <Rbt.Executable>
rbdock ($Id: //depot/dev/client3/rdock/2013.1/src/exe/rbdock.cxx#4 $)

>  <Rbt.Library>
libRbt.so (2013.1, Build901 2013/11/27)

>  <Rbt.Parameter_File>
/export/apps/rDock/src/rDock_2013.1_src/data/scripts/dock_solv.prm

>  <Rbt.Receptor>
prm/blind_docking_60.prm

>  <SCORE>
-24.98

>  <SCORE.INTER>
-22.9784

>  <SCORE.INTER.CONST>
1

>  <SCORE.INTER.POLAR>
-4.35419

>  <SCORE.INTER.ROT>
8

>  <SCORE.INTER.SOLV>
7.20841

>  <SCORE.INTER.VDW>
-12.1411

>  <SCORE.INTER.norm>
-2.08895

>  <SCORE.INTRA>
-2.10034

>  <SCORE.INTRA.DIHEDRAL>
-6.21682

>  <SCORE.INTRA.DIHEDRAL.0>
21.6454

>  <SCORE.INTRA.POLAR>
0

>  <SCORE.INTRA.POLAR.0>
0

>  <SCORE.INTRA.REPUL>
0

>  <SCORE.INTRA.REPUL.0>
0

>  <SCORE.INTRA.SOLV>
0.285616

>  <SCORE.INTRA.SOLV.lig_0>
-16.5947

>  <SCORE.INTRA.VDW>
0.865263

>  <SCORE.INTRA.VDW.0>
-0.691398

>  <SCORE.INTRA.norm>
-0.19094

>  <SCORE.RESTR>
0.0987113

>  <SCORE.RESTR.CAVITY>
0.0987113

>  <SCORE.RESTR.norm>
0.00897375

>  <SCORE.SYSTEM>
0

>  <SCORE.SYSTEM.CONST>
0

>  <SCORE.SYSTEM.DIHEDRAL>
0

>  <SCORE.SYSTEM.SOLV>
0

>  <SCORE.SYSTEM.norm>
0

>  <SCORE.heavy>
11

>  <SCORE.norm>
-2.27091

>  <RMSD>
9.200

$$$$
1akx_lig
 OpenBabel11021811383D
libRbt.so/2013.1/901 2013/11/27
 11 10  0  0  0  0  0  0  0  0999 V2000
    1.0352   -7.9339   -8.1068 N   0  0  0  0  0  0  0  0  0  0  0  0
    0.0977   -9.0918   -8.0141 C   0  0  2  0  0  0  0  0  0  0  0  0
   -0.9613   -8.9827   -9.1183 C   0  0  0  0  0  0  0  0  0  0  0  0
   -1.5928   -7.9556   -9.2678 O   0  0  0  0  0  0  0  0  0  0  0  0
   -0.5861   -9.0923   -6.6401 C   0  0  0  0  0  0  0  0  0  0  0  0
    0.1317  -10.0715   -5.7057 C   0  0  0  0  0  0  0  0  0  0  0  0
   -0.5310  -10.0424   -4.3285 C   0  0  0  0  0  0  0  0  0  0  0  0
    0.2250   -9.1191   -3.4350 N   0  0  0  0  0  0  0  0  0  0  0  0
   -0.0619   -9.0533   -2.1599 C   0  0  0  0  0  0  0  0  0  0  0  0
   -0.0602  -10.1371   -1.4272 N   0  0  0  0  0  0  0  0  0  0  0  0
   -0.3448   -7.9000   -1.6161 N   0  0  0  0  0  0  0  0  0  0  0  0
  2  1  1  1  0  0  0
  2  3  1  0  0  0  0
  2  5  1  0  0  0  0
  3  4  1  0  0  0  0
  5  6  1  0  0  0  0
  6  7  1  0  0  0  0
  7  8  1  0  0  0  0
  8  9  1  0  0  0  0
  9 10  1  0  0  0  0
  9 11  1  0  0  0  0
M  END
>  <CHROM.1>
-71.87194701,-51.42964138,-98.18272562,178.58202067,-96.22028213,-171.87504486
54.75254854,124.14312111,-17.57285604,-0.22587955,-8.99179061,-5.42653261
-2.07490125,1.45063456,2.17686125

>  <Name>
1akx_lig

>  <RI>
0

>  <Rbt.Current_Directory>
/home/itssahil/PROJECTS/Mol_Feturizer/New_Systems/rnas/1akx

>  <Rbt.Executable>
rbdock ($Id: //depot/dev/client3/rdock/2013.1/src/exe/rbdock.cxx#4 $)

>  <Rbt.Library>
libRbt.so (2013.1, Build901 2013/11/27)

>  <Rbt.Parameter_File>
/export/apps/rDock/src/rDock_2013.1_src/data/scripts/dock_solv.prm

>  <Rbt.Receptor>
prm/blind_docking_60.prm

>  <SCORE>
-27.2279

>  <SCORE.INTER>
-23.1043

>  <SCORE.INTER.CONST>
1

>  <SCORE.INTER.POLAR>
-4.1717

>  <SCORE.INTER.ROT>
8

>  <SCORE.INTER.SOLV>
8.66356

>  <SCORE.INTER.VDW>
-13.3184

>  <SCORE.INTER.norm>
-2.10039

>  <SCORE.INTRA>
-4.12367

>  <SCORE.INTRA.DIHEDRAL>
-8.43387

>  <SCORE.INTRA.DIHEDRAL.0>
21.6454

>  <SCORE.INTRA.POLAR>
0

>  <SCORE.INTRA.POLAR.0>
0

>  <SCORE.INTRA.REPUL>
0

>  <SCORE.INTRA.REPUL.0>
0

>  <SCORE.INTRA.SOLV>
0.30794

>  <SCORE.INTRA.SOLV.lig_0>
-16.5947

>  <SCORE.INTRA.VDW>
-0.0607096

>  <SCORE.INTRA.VDW.0>
-0.691398

>  <SCORE.INTRA.norm>
-0.374879

>  <SCORE.RESTR>
0

>  <SCORE.RESTR.CAVITY>
0

>  <SCORE.RESTR.norm>
0

>  <SCORE.SYSTEM>
0

>  <SCORE.SYSTEM.CONST>
0

>  <SCORE.SYSTEM.DIHEDRAL>
0

>  <SCORE.SYSTEM.SOLV>
0

>  <SCORE.SYSTEM.norm>
0

>  <SCORE.heavy>
11

>  <SCORE.norm>
-2.47527

>  <RMSD>
9.528

$$$$
1akx_lig
 OpenBabel11021811383D
libRbt.so/2013.1/901 2013/11/27
 11 10  0  0  0  0  0  0  0  0999 V2000
    2.3619   -9.5167   -8.0290 N   0  0  0  0  0  0  0  0  0  0  0  0
    0.9511   -9.8831   -7.7074 C   0  0  2  0  0  0  0  0  0  0  0  0
    0.1490  -10.0213   -9.0075 C   0  0  0  0  0  0  0  0  0  0  0  0
   -1.0619  -10.1168   -8.9779 O   0  0  0  0  0  0  0  0  0  0  0  0
    0.3240   -8.7941   -6.8264 C   0  0  0  0  0  0  0  0  0  0  0  0
    0.8679   -8.9075   -5.3986 C   0  0  0  0  0  0  0  0  0  0  0  0
    0.0420   -9.9292   -4.6170 C   0  0  0  0  0  0  0  0  0  0  0  0
    0.3491   -9.8061   -3.1635 N   0  0  0  0  0  0  0  0  0  0  0  0
   -0.5563   -9.3532   -2.3342 C   0  0  0  0  0  0  0  0  0  0  0  0
   -0.6743   -8.0672   -2.1253 N   0  0  0  0  0  0  0  0  0  0  0  0
   -1.3490  -10.1885   -1.7180 N   0  0  0  0  0  0  0  0  0  0  0  0
  2  1  1  6  0  0  0
  2  3  1  0  0  0  0
  2  5  1  0  0  0  0
  3  4  1  0  0  0  0
  5  6  1  0  0  0  0
  6  7  1  0  0  0  0
  7  8  1  0  0  0  0
  8  9  1  0  0  0  0
  9 10  1  0  0  0  0
  9 11  1  0  0  0  0
M  END
>  <CHROM.1>
144.67164608,-168.93069073,-74.98244709,-85.29288036,-166.57552199,111.54264948
-87.27161885,-132.29340960,-33.92481688,0.13427728,-9.50422026,-5.43671622
-1.36364703,0.30959407,1.43703181

>  <Name>
1akx_lig

>  <RI>
0

>  <Rbt.Current_Directory>
/home/itssahil/PROJECTS/Mol_Feturizer/New_Systems/rnas/1akx

>  <Rbt.Executable>
rbdock ($Id: //depot/dev/client3/rdock/2013.1/src/exe/rbdock.cxx#4 $)

>  <Rbt.Library>
libRbt.so (2013.1, Build901 2013/11/27)

>  <Rbt.Parameter_File>
/export/apps/rDock/src/rDock_2013.1_src/data/scripts/dock_solv.prm

>  <Rbt.Receptor>
prm/blind_docking_60.prm

>  <SCORE>
-24.1629

>  <SCORE.INTER>
-19.6638

>  <SCORE.INTER.CONST>
1

>  <SCORE.INTER.POLAR>
-3.93099

>  <SCORE.INTER.ROT>
8

>  <SCORE.INTER.SOLV>
6.21967

>  <SCORE.INTER.VDW>
-11.0124

>  <SCORE.INTER.norm>
-1.78761

>  <SCORE.INTRA>
-4.52022

>  <SCORE.INTRA.DIHEDRAL>
-10.2925

>  <SCORE.INTRA.DIHEDRAL.0>
21.6454

>  <SCORE.INTRA.POLAR>
0

>  <SCORE.INTRA.POLAR.0>
0

>  <SCORE.INTRA.REPUL>
0

>  <SCORE.INTRA.REPUL.0>
0

>  <SCORE.INTRA.SOLV>
0.155393

>  <SCORE.INTRA.SOLV.lig_0>
-16.5947

>  <SCORE.INTRA.VDW>
0.548349

>  <SCORE.INTRA.VDW.0>
-0.691398

>  <SCORE.INTRA.norm>
-0.410929

>  <SCORE.RESTR>
0.0210493

>  <SCORE.RESTR.CAVITY>
0.0210493

>  <SCORE.RESTR.norm>
0.00191357

>  <SCORE.SYSTEM>
0

>  <SCORE.SYSTEM.CONST>
0

>  <SCORE.SYSTEM.DIHEDRAL>
0

>  <SCORE.SYSTEM.SOLV>
0

>  <SCORE.SYSTEM.norm>
0

>  <SCORE.heavy>
11

>  <SCORE.norm>
-2.19663

>  <RMSD>
9.619

$$$$
1akx_lig
 OpenBabel11021811383D
libRbt.so/2013.1/901 2013/11/27
 11 10  0  0  0  0  0  0  0  0999 V2000
    1.6175   -9.2092   -7.8942 N   0  0  0  0  0  0  0  0  0  0  0  0
    0.1530   -9.4896   -7.8269 C   0  0  2  0  0  0  0  0  0  0  0  0
   -0.5799   -8.6372   -8.8704 C   0  0  0  0  0  0  0  0  0  0  0  0
   -0.6404   -7.4299   -8.7482 O   0  0  0  0  0  0  0  0  0  0  0  0
   -0.3719   -9.1541   -6.4243 C   0  0  0  0  0  0  0  0  0  0  0  0
    0.3314  -10.0332   -5.3852 C   0  0  0  0  0  0  0  0  0  0  0  0
   -0.5069  -11.2845   -5.1233 C   0  0  0  0  0  0  0  0  0  0  0  0
   -0.3356  -11.7068   -3.7039 N   0  0  0  0  0  0  0  0  0  0  0  0
   -0.5445  -10.8550   -2.7327 C   0  0  0  0  0  0  0  0  0  0  0  0
   -1.7235  -10.3101   -2.5761 N   0  0  0  0  0  0  0  0  0  0  0  0
    0.4266  -10.5529   -1.9131 N   0  0  0  0  0  0  0  0  0  0  0  0
  2  1  1  1  0  0  0
  2  3  1  0  0  0  0
  2  5  1  0  0  0  0
  3  4  1  0  0  0  0
  5  6  1  0  0  0  0
  6  7  1  0  0  0  0
  7  8  1  0  0  0  0
  8  9  1  0  0  0  0
  9 10  1  0  0  0  0
  9 11  1  0  0  0  0
M  END
>  <CHROM.1>
-39.59279924,-68.11885400,-61.34136868,-93.38430503,-147.53528688,53.43026245
61.02787362,-59.82952680,-121.20813137,-0.17432117,-9.85783499,-5.55026219
-1.47129455,-0.47517769,2.00862605

>  <Name>
1akx_lig

>  <RI>
0

>  <Rbt.Current_Directory>
/home/itssahil/PROJECTS/Mol_Feturizer/New_Systems/rnas/1akx

>  <Rbt.Executable>
rbdock ($Id: //depot/dev/client3/rdock/2013.1/src/exe/rbdock.cxx#4 $)

>  <Rbt.Library>
libRbt.so (2013.1, Build901 2013/11/27)

>  <Rbt.Parameter_File>
/export/apps/rDock/src/rDock_2013.1_src/data/scripts/dock_solv.prm

>  <Rbt.Receptor>
prm/blind_docking_60.prm

>  <SCORE>
-23.5568

>  <SCORE.INTER>
-20.6256

>  <SCORE.INTER.CONST>
1

>  <SCORE.INTER.POLAR>
-4.72077

>  <SCORE.INTER.ROT>
8

>  <SCORE.INTER.SOLV>
7.08732

>  <SCORE.INTER.VDW>
-9.31029

>  <SCORE.INTER.norm>
-1.87506

>  <SCORE.INTRA>
-3.20963

>  <SCORE.INTRA.DIHEDRAL>
-8.95637

>  <SCORE.INTRA.DIHEDRAL.0>
21.6454

>  <SCORE.INTRA.POLAR>
0

>  <SCORE.INTRA.POLAR.0>
0

>  <SCORE.INTRA.REPUL>
0

>  <SCORE.INTRA.REPUL.0>
0

>  <SCORE.INTRA.SOLV>
0.692109

>  <SCORE.INTRA.SOLV.lig_0>
-16.5947

>  <SCORE.INTRA.VDW>
0.922498

>  <SCORE.INTRA.VDW.0>
-0.691398

>  <SCORE.INTRA.norm>
-0.291785

>  <SCORE.RESTR>
0.278481

>  <SCORE.RESTR.CAVITY>
0.278481

>  <SCORE.RESTR.norm>
0.0253165

>  <SCORE.SYSTEM>
0

>  <SCORE.SYSTEM.CONST>
0

>  <SCORE.SYSTEM.DIHEDRAL>
0

>  <SCORE.SYSTEM.SOLV>
0

>  <SCORE.SYSTEM.norm>
0

>  <SCORE.heavy>
11

>  <SCORE.norm>
-2.14153

>  <RMSD>
9.957

$$$$
1akx_lig
 OpenBabel11021811383D
libRbt.so/2013.1/901 2013/11/27
 11 10  0  0  0  0  0  0  0  0999 V2000
  -12.3605   -2.4471   -1.4854 N   0  0  0  0  0  0  0  0  0  0  0  0
  -12.2202   -1.3819   -0.4492 C   0  0  2  0  0  0  0  0  0  0  0  0
  -13.0887   -1.7319    0.7657 C   0  0  0  0  0  0  0  0  0  0  0  0
  -13.0843   -1.0223    1.7518 O   0  0  0  0  0  0  0  0  0  0  0  0
  -12.6661   -0.0341   -1.0323 C   0  0  0  0  0  0  0  0  0  0  0  0
  -11.6857    0.4066   -2.1241 C   0  0  0  0  0  0  0  0  0  0  0  0
  -11.8375    1.9074   -2.3715 C   0  0  0  0  0  0  0  0  0  0  0  0
  -10.7452    2.3734   -3.2727 N   0  0  0  0  0  0  0  0  0  0  0  0
  -10.3795    3.6298   -3.2707 C   0  0  0  0  0  0  0  0  0  0  0  0
  -11.0758    4.5201   -3.9295 N   0  0  0  0  0  0  0  0  0  0  0  0
   -9.3187    3.9968   -2.6029 N   0  0  0  0  0  0  0  0  0  0  0  0
  2  1  1  6  0  0  0
  2  3  1  0  0  0  0
  2  5  1  0  0  0  0
  3  4  1  0  0  0  0
  5  6  1  0  0  0  0
  6  7  1  0  0  0  0
  7  8  1  0  0  0  0
  8  9  1  0  0  0  0
  9 10  1  0  0  0  0
  9 11  1  0  0  0  0
M  END
>  <CHROM.1>
-54.57202550,177.17338511,-67.27830054,-161.18071663,171.20658511,-156.53568544
-80.22105387,-106.26289716,125.43631909,-11.66680223,0.92828487,-1.64961304
-3.08566064,1.21659817,0.93474700

>  <Name>
1akx_lig

>  <RI>
0

>  <Rbt.Current_Directory>
/home/afrankz/demos/rdock_decoys_rna/rnas/1akx

>  <Rbt.Executable>
rbdock ($Id: //depot/dev/client3/rdock/2013.1/src/exe/rbdock.cxx#4 $)

>  <Rbt.Library>
libRbt.so (2013.1, Build901 2013/11/27)

>  <Rbt.Parameter_File>
/export/apps/rDock/src/rDock_2013.1_src/data/scripts/dock_solv.prm

>  <Rbt.Receptor>
prm/blind_docking_80.prm

>  <SCORE>
-30.2515

>  <SCORE.INTER>
-22.7493

>  <SCORE.INTER.CONST>
1

>  <SCORE.INTER.POLAR>
-3.19895

>  <SCORE.INTER.ROT>
8

>  <SCORE.INTER.SOLV>
9.6853

>  <SCORE.INTER.VDW>
-16.6648

>  <SCORE.INTER.norm>
-2.06812

>  <SCORE.INTRA>
-7.50216

>  <SCORE.INTRA.DIHEDRAL>
-14.874

>  <SCORE.INTRA.DIHEDRAL.0>
21.6454

>  <SCORE.INTRA.POLAR>
0

>  <SCORE.INTRA.POLAR.0>
0

>  <SCORE.INTRA.REPUL>
0

>  <SCORE.INTRA.REPUL.0>
0

>  <SCORE.INTRA.SOLV>
-0.0855718

>  <SCORE.INTRA.SOLV.lig_0>
-16.5947

>  <SCORE.INTRA.VDW>
-0.0223686

>  <SCORE.INTRA.VDW.0>
-0.691398

>  <SCORE.INTRA.norm>
-0.682015

>  <SCORE.RESTR>
0

>  <SCORE.RESTR.CAVITY>
0

>  <SCORE.RESTR.norm>
0

>  <SCORE.SYSTEM>
0

>  <SCORE.SYSTEM.CONST>
0

>  <SCORE.SYSTEM.DIHEDRAL>
0

>  <SCORE.SYSTEM.SOLV>
0

>  <SCORE.SYSTEM.norm>
0

>  <SCORE.heavy>
11

>  <SCORE.norm>
-2.75013

>  <RMSD>
11.320

>  <RMSD>
11.320

$$$$
1akx_lig
 OpenBabel11021811383D
libRbt.so/2013.1/901 2013/11/27
 11 10  0  0  0  0  0  0  0  0999 V2000
  -12.3605   -2.4471   -1.4854 N   0  0  0  0  0  0  0  0  0  0  0  0
  -12.2202   -1.3819   -0.4492 C   0  0  2  0  0  0  0  0  0  0  0  0
  -13.0887   -1.7319    0.7657 C   0  0  0  0  0  0  0  0  0  0  0  0
  -13.0843   -1.0223    1.7518 O   0  0  0  0  0  0  0  0  0  0  0  0
  -12.6661   -0.0341   -1.0323 C   0  0  0  0  0  0  0  0  0  0  0  0
  -11.6857    0.4066   -2.1241 C   0  0  0  0  0  0  0  0  0  0  0  0
  -11.8375    1.9074   -2.3715 C   0  0  0  0  0  0  0  0  0  0  0  0
  -10.7452    2.3734   -3.2727 N   0  0  0  0  0  0  0  0  0  0  0  0
  -10.3795    3.6298   -3.2707 C   0  0  0  0  0  0  0  0  0  0  0  0
  -11.0758    4.5201   -3.9295 N   0  0  0  0  0  0  0  0  0  0  0  0
   -9.3187    3.9968   -2.6029 N   0  0  0  0  0  0  0  0  0  0  0  0
  2  1  1  6  0  0  0
  2  3  1  0  0  0  0
  2  5  1  0  0  0  0
  3  4  1  0  0  0  0
  5  6  1  0  0  0  0
  6  7  1  0  0  0  0
  7  8  1  0  0  0  0
  8  9  1  0  0  0  0
  9 10  1  0  0  0  0
  9 11  1  0  0  0  0
M  END
>  <CHROM.1>
-54.57202550,177.17338511,-67.27830054,-161.18071663,171.20658511,-156.53568544
-80.22105387,-106.26289716,125.43631909,-11.66680223,0.92828487,-1.64961304
-3.08566064,1.21659817,0.93474700

>  <Name>
1akx_lig

>  <RI>
0

>  <Rbt.Current_Directory>
/home/afrankz/demos/rdock_decoys_rna/rnas/1akx

>  <Rbt.Executable>
rbdock ($Id: //depot/dev/client3/rdock/2013.1/src/exe/rbdock.cxx#4 $)

>  <Rbt.Library>
libRbt.so (2013.1, Build901 2013/11/27)

>  <Rbt.Parameter_File>
/export/apps/rDock/src/rDock_2013.1_src/data/scripts/dock_solv.prm

>  <Rbt.Receptor>
prm/blind_docking_80.prm

>  <SCORE>
-30.2515

>  <SCORE.INTER>
-22.7493

>  <SCORE.INTER.CONST>
1

>  <SCORE.INTER.POLAR>
-3.19895

>  <SCORE.INTER.ROT>
8

>  <SCORE.INTER.SOLV>
9.6853

>  <SCORE.INTER.VDW>
-16.6648

>  <SCORE.INTER.norm>
-2.06812

>  <SCORE.INTRA>
-7.50216

>  <SCORE.INTRA.DIHEDRAL>
-14.874

>  <SCORE.INTRA.DIHEDRAL.0>
21.6454

>  <SCORE.INTRA.POLAR>
0

>  <SCORE.INTRA.POLAR.0>
0

>  <SCORE.INTRA.REPUL>
0

>  <SCORE.INTRA.REPUL.0>
0

>  <SCORE.INTRA.SOLV>
-0.0855718

>  <SCORE.INTRA.SOLV.lig_0>
-16.5947

>  <SCORE.INTRA.VDW>
-0.0223686

>  <SCORE.INTRA.VDW.0>
-0.691398

>  <SCORE.INTRA.norm>
-0.682015

>  <SCORE.RESTR>
0

>  <SCORE.RESTR.CAVITY>
0

>  <SCORE.RESTR.norm>
0

>  <SCORE.SYSTEM>
0

>  <SCORE.SYSTEM.CONST>
0

>  <SCORE.SYSTEM.DIHEDRAL>
0

>  <SCORE.SYSTEM.SOLV>
0

>  <SCORE.SYSTEM.norm>
0

>  <SCORE.heavy>
11

>  <SCORE.norm>
-2.75013

>  <RMSD>
11.320

>  <RMSD>
11.320

$$$$
1akx_lig
 OpenBabel11021811383D
libRbt.so/2013.1/901 2013/11/27
 11 10  0  0  0  0  0  0  0  0999 V2000
  -11.8845    0.9217   -0.8483 N   0  0  0  0  0  0  0  0  0  0  0  0
  -12.0908    0.8977   -2.3265 C   0  0  2  0  0  0  0  0  0  0  0  0
  -11.8967   -0.5319   -2.8473 C   0  0  0  0  0  0  0  0  0  0  0  0
  -12.6125   -1.4329   -2.4573 O   0  0  0  0  0  0  0  0  0  0  0  0
  -11.0818    1.8357   -3.0027 C   0  0  0  0  0  0  0  0  0  0  0  0
  -11.5764    3.2826   -2.9070 C   0  0  0  0  0  0  0  0  0  0  0  0
  -10.9420    4.1142   -4.0218 C   0  0  0  0  0  0  0  0  0  0  0  0
   -9.7788    4.8694   -3.4751 N   0  0  0  0  0  0  0  0  0  0  0  0
   -8.9563    4.2957   -2.6343 C   0  0  0  0  0  0  0  0  0  0  0  0
   -8.3016    3.2184   -2.9840 N   0  0  0  0  0  0  0  0  0  0  0  0
   -8.7842    4.8048   -1.4439 N   0  0  0  0  0  0  0  0  0  0  0  0
  2  1  1  1  0  0  0
  2  3  1  0  0  0  0
  2  5  1  0  0  0  0
  3  4  1  0  0  0  0
  5  6  1  0  0  0  0
  6  7  1  0  0  0  0
  7  8  1  0  0  0  0
  8  9  1  0  0  0  0
  9 10  1  0  0  0  0
  9 11  1  0  0  0  0
M  END
>  <CHROM.1>
27.05650940,60.98063632,-80.54745654,-156.54552655,-98.95768512,41.14898516
59.51021900,-134.51725202,40.11806750,-10.70073434,2.37067531,-2.58449018
-2.38034227,-0.75350360,-0.72976407

>  <Name>
1akx_lig

>  <RI>
0

>  <Rbt.Current_Directory>
/home/itssahil/PROJECTS/Mol_Feturizer/New_Systems/rnas/1akx

>  <Rbt.Executable>
rbdock ($Id: //depot/dev/client3/rdock/2013.1/src/exe/rbdock.cxx#4 $)

>  <Rbt.Library>
libRbt.so (2013.1, Build901 2013/11/27)

>  <Rbt.Parameter_File>
/export/apps/rDock/src/rDock_2013.1_src/data/scripts/dock_solv.prm

>  <Rbt.Receptor>
prm/blind_docking_20.prm

>  <SCORE>
-24.7795

>  <SCORE.INTER>
-24.76

>  <SCORE.INTER.CONST>
1

>  <SCORE.INTER.POLAR>
-4.32802

>  <SCORE.INTER.ROT>
8

>  <SCORE.INTER.SOLV>
13.0853

>  <SCORE.INTER.VDW>
-15.3751

>  <SCORE.INTER.norm>
-2.25091

>  <SCORE.INTRA>
-1.72249

>  <SCORE.INTRA.DIHEDRAL>
-7.17537

>  <SCORE.INTRA.DIHEDRAL.0>
21.6454

>  <SCORE.INTRA.POLAR>
0

>  <SCORE.INTRA.POLAR.0>
0

>  <SCORE.INTRA.REPUL>
0

>  <SCORE.INTRA.REPUL.0>
0

>  <SCORE.INTRA.SOLV>
0.891458

>  <SCORE.INTRA.SOLV.lig_0>
-16.5947

>  <SCORE.INTRA.VDW>
1.41947

>  <SCORE.INTRA.VDW.0>
-0.691398

>  <SCORE.INTRA.norm>
-0.15659

>  <SCORE.RESTR>
1.70303

>  <SCORE.RESTR.CAVITY>
1.70303

>  <SCORE.RESTR.norm>
0.154821

>  <SCORE.SYSTEM>
0

>  <SCORE.SYSTEM.CONST>
0

>  <SCORE.SYSTEM.DIHEDRAL>
0

>  <SCORE.SYSTEM.SOLV>
0

>  <SCORE.SYSTEM.norm>
0

>  <SCORE.heavy>
11

>  <SCORE.norm>
-2.25268

>  <RMSD>
11.647

$$$$
1akx_lig
 OpenBabel11021811383D
libRbt.so/2013.1/901 2013/11/27
 11 10  0  0  0  0  0  0  0  0999 V2000
  -10.3981   -0.4966   -4.8668 N   0  0  0  0  0  0  0  0  0  0  0  0
  -11.0074   -0.0872   -3.5670 C   0  0  2  0  0  0  0  0  0  0  0  0
  -12.4826   -0.5062   -3.5387 C   0  0  0  0  0  0  0  0  0  0  0  0
  -13.1065   -0.4969   -2.4962 O   0  0  0  0  0  0  0  0  0  0  0  0
  -10.8991    1.4350   -3.4041 C   0  0  0  0  0  0  0  0  0  0  0  0
  -11.6607    1.8761   -2.1500 C   0  0  0  0  0  0  0  0  0  0  0  0
  -11.9377    3.3778   -2.2223 C   0  0  0  0  0  0  0  0  0  0  0  0
  -10.8650    4.1145   -1.4951 N   0  0  0  0  0  0  0  0  0  0  0  0
   -9.7924    4.5133   -2.1296 C   0  0  0  0  0  0  0  0  0  0  0  0
   -9.7615    4.5121   -3.4375 N   0  0  0  0  0  0  0  0  0  0  0  0
   -8.7511    4.9201   -1.4540 N   0  0  0  0  0  0  0  0  0  0  0  0
  2  1  1  6  0  0  0
  2  3  1  0  0  0  0
  2  5  1  0  0  0  0
  3  4  1  0  0  0  0
  5  6  1  0  0  0  0
  6  7  1  0  0  0  0
  7  8  1  0  0  0  0
  8  9  1  0  0  0  0
  9 10  1  0  0  0  0
  9 11  1  0  0  0  0
M  END
>  <CHROM.1>
67.94660419,166.40472538,173.66874024,-161.98301274,-94.70570940,90.45870265
13.63095428,-73.28871811,-49.22730512,-10.94186916,2.10222245,-2.81661512
-2.02863899,0.58505082,0.57332083

>  <Name>
1akx_lig

>  <RI>
0

>  <Rbt.Current_Directory>
/home/afrankz/demos/rdock_decoys_rna/rnas/1akx

>  <Rbt.Executable>
rbdock ($Id: //depot/dev/client3/rdock/2013.1/src/exe/rbdock.cxx#4 $)

>  <Rbt.Library>
libRbt.so (2013.1, Build901 2013/11/27)

>  <Rbt.Parameter_File>
/export/apps/rDock/src/rDock_2013.1_src/data/scripts/dock_solv.prm

>  <Rbt.Receptor>
prm/blind_docking_20.prm

>  <SCORE>
-19.4525

>  <SCORE.INTER>
-16.9409

>  <SCORE.INTER.CONST>
1

>  <SCORE.INTER.POLAR>
-3.48887

>  <SCORE.INTER.ROT>
8

>  <SCORE.INTER.SOLV>
11.85

>  <SCORE.INTER.VDW>
-12.5477

>  <SCORE.INTER.norm>
-1.54008

>  <SCORE.INTRA>
-2.52146

>  <SCORE.INTRA.DIHEDRAL>
-11.1936

>  <SCORE.INTRA.DIHEDRAL.0>
21.6454

>  <SCORE.INTRA.POLAR>
0

>  <SCORE.INTRA.POLAR.0>
0

>  <SCORE.INTRA.REPUL>
0

>  <SCORE.INTRA.REPUL.0>
0

>  <SCORE.INTRA.SOLV>
0.660911

>  <SCORE.INTRA.SOLV.lig_0>
-16.5947

>  <SCORE.INTRA.VDW>
2.74488

>  <SCORE.INTRA.VDW.0>
-0.691398

>  <SCORE.INTRA.norm>
-0.229224

>  <SCORE.RESTR>
0.00985174

>  <SCORE.RESTR.CAVITY>
0.00985174

>  <SCORE.RESTR.norm>
0.000895613

>  <SCORE.SYSTEM>
0

>  <SCORE.SYSTEM.CONST>
0

>  <SCORE.SYSTEM.DIHEDRAL>
0

>  <SCORE.SYSTEM.SOLV>
0

>  <SCORE.SYSTEM.norm>
0

>  <SCORE.heavy>
11

>  <SCORE.norm>
-1.76841

>  <RMSD>
11.843

>  <RMSD>
11.843

$$$$
1akx_lig
 OpenBabel11021811383D
libRbt.so/2013.1/901 2013/11/27
 11 10  0  0  0  0  0  0  0  0999 V2000
  -10.3981   -0.4966   -4.8668 N   0  0  0  0  0  0  0  0  0  0  0  0
  -11.0074   -0.0872   -3.5670 C   0  0  2  0  0  0  0  0  0  0  0  0
  -12.4826   -0.5062   -3.5387 C   0  0  0  0  0  0  0  0  0  0  0  0
  -13.1065   -0.4969   -2.4962 O   0  0  0  0  0  0  0  0  0  0  0  0
  -10.8991    1.4350   -3.4041 C   0  0  0  0  0  0  0  0  0  0  0  0
  -11.6607    1.8761   -2.1500 C   0  0  0  0  0  0  0  0  0  0  0  0
  -11.9377    3.3778   -2.2223 C   0  0  0  0  0  0  0  0  0  0  0  0
  -10.8650    4.1145   -1.4951 N   0  0  0  0  0  0  0  0  0  0  0  0
   -9.7924    4.5133   -2.1296 C   0  0  0  0  0  0  0  0  0  0  0  0
   -9.7615    4.5121   -3.4375 N   0  0  0  0  0  0  0  0  0  0  0  0
   -8.7511    4.9201   -1.4540 N   0  0  0  0  0  0  0  0  0  0  0  0
  2  1  1  6  0  0  0
  2  3  1  0  0  0  0
  2  5  1  0  0  0  0
  3  4  1  0  0  0  0
  5  6  1  0  0  0  0
  6  7  1  0  0  0  0
  7  8  1  0  0  0  0
  8  9  1  0  0  0  0
  9 10  1  0  0  0  0
  9 11  1  0  0  0  0
M  END
>  <CHROM.1>
67.94660419,166.40472538,173.66874024,-161.98301274,-94.70570940,90.45870265
13.63095428,-73.28871811,-49.22730512,-10.94186916,2.10222245,-2.81661512
-2.02863899,0.58505082,0.57332083

>  <Name>
1akx_lig

>  <RI>
0

>  <Rbt.Current_Directory>
/home/afrankz/demos/rdock_decoys_rna/rnas/1akx

>  <Rbt.Executable>
rbdock ($Id: //depot/dev/client3/rdock/2013.1/src/exe/rbdock.cxx#4 $)

>  <Rbt.Library>
libRbt.so (2013.1, Build901 2013/11/27)

>  <Rbt.Parameter_File>
/export/apps/rDock/src/rDock_2013.1_src/data/scripts/dock_solv.prm

>  <Rbt.Receptor>
prm/blind_docking_20.prm

>  <SCORE>
-19.4525

>  <SCORE.INTER>
-16.9409

>  <SCORE.INTER.CONST>
1

>  <SCORE.INTER.POLAR>
-3.48887

>  <SCORE.INTER.ROT>
8

>  <SCORE.INTER.SOLV>
11.85

>  <SCORE.INTER.VDW>
-12.5477

>  <SCORE.INTER.norm>
-1.54008

>  <SCORE.INTRA>
-2.52146

>  <SCORE.INTRA.DIHEDRAL>
-11.1936

>  <SCORE.INTRA.DIHEDRAL.0>
21.6454

>  <SCORE.INTRA.POLAR>
0

>  <SCORE.INTRA.POLAR.0>
0

>  <SCORE.INTRA.REPUL>
0

>  <SCORE.INTRA.REPUL.0>
0

>  <SCORE.INTRA.SOLV>
0.660911

>  <SCORE.INTRA.SOLV.lig_0>
-16.5947

>  <SCORE.INTRA.VDW>
2.74488

>  <SCORE.INTRA.VDW.0>
-0.691398

>  <SCORE.INTRA.norm>
-0.229224

>  <SCORE.RESTR>
0.00985174

>  <SCORE.RESTR.CAVITY>
0.00985174

>  <SCORE.RESTR.norm>
0.000895613

>  <SCORE.SYSTEM>
0

>  <SCORE.SYSTEM.CONST>
0

>  <SCORE.SYSTEM.DIHEDRAL>
0

>  <SCORE.SYSTEM.SOLV>
0

>  <SCORE.SYSTEM.norm>
0

>  <SCORE.heavy>
11

>  <SCORE.norm>
-1.76841

>  <RMSD>
11.843

>  <RMSD>
11.843

$$$$
1akx_lig
 OpenBabel11021811383D
libRbt.so/2013.1/901 2013/11/27
 11 10  0  0  0  0  0  0  0  0999 V2000
  -12.0741    1.0749    0.0356 N   0  0  0  0  0  0  0  0  0  0  0  0
  -12.2440    2.2906   -0.8137 C   0  0  2  0  0  0  0  0  0  0  0  0
  -13.5850    2.9597   -0.4873 C   0  0  0  0  0  0  0  0  0  0  0  0
  -13.9341    3.9622   -1.0784 O   0  0  0  0  0  0  0  0  0  0  0  0
  -12.2120    1.8925   -2.2955 C   0  0  0  0  0  0  0  0  0  0  0  0
  -10.9509    1.0713   -2.5830 C   0  0  0  0  0  0  0  0  0  0  0  0
  -10.2398    1.6401   -3.8110 C   0  0  0  0  0  0  0  0  0  0  0  0
  -10.2519    3.1292   -3.7443 N   0  0  0  0  0  0  0  0  0  0  0  0
   -9.3033    3.7686   -3.1088 C   0  0  0  0  0  0  0  0  0  0  0  0
   -8.1209    3.2262   -2.9707 N   0  0  0  0  0  0  0  0  0  0  0  0
   -9.5368    4.9555   -2.6162 N   0  0  0  0  0  0  0  0  0  0  0  0
  2  1  1  1  0  0  0
  2  3  1  0  0  0  0
  2  5  1  0  0  0  0
  3  4  1  0  0  0  0
  5  6  1  0  0  0  0
  6  7  1  0  0  0  0
  7  8  1  0  0  0  0
  8  9  1  0  0  0  0
  9 10  1  0  0  0  0
  9 11  1  0  0  0  0
M  END
>  <CHROM.1>
72.68701527,-179.08342258,-52.75420266,-130.48215734,41.93116880,87.29269127
25.98211088,30.84520901,-56.39203029,-11.12526987,2.74232822,-2.10512434
-2.92708765,0.57285845,-0.03183829

>  <Name>
1akx_lig

>  <RI>
0

>  <Rbt.Current_Directory>
/home/itssahil/PROJECTS/Mol_Feturizer/New_Systems/rnas/1akx

>  <Rbt.Executable>
rbdock ($Id: //depot/dev/client3/rdock/2013.1/src/exe/rbdock.cxx#4 $)

>  <Rbt.Library>
libRbt.so (2013.1, Build901 2013/11/27)

>  <Rbt.Parameter_File>
/export/apps/rDock/src/rDock_2013.1_src/data/scripts/dock_solv.prm

>  <Rbt.Receptor>
prm/blind_docking_80.prm

>  <SCORE>
-23.9952

>  <SCORE.INTER>
-21.4049

>  <SCORE.INTER.CONST>
1

>  <SCORE.INTER.POLAR>
-4.07408

>  <SCORE.INTER.ROT>
8

>  <SCORE.INTER.SOLV>
11.6557

>  <SCORE.INTER.VDW>
-13.5083

>  <SCORE.INTER.norm>
-1.9459

>  <SCORE.INTRA>
-2.86931

>  <SCORE.INTRA.DIHEDRAL>
-9.43582

>  <SCORE.INTRA.DIHEDRAL.0>
21.6454

>  <SCORE.INTRA.POLAR>
0

>  <SCORE.INTRA.POLAR.0>
0

>  <SCORE.INTRA.REPUL>
0

>  <SCORE.INTRA.REPUL.0>
0

>  <SCORE.INTRA.SOLV>
0.761145

>  <SCORE.INTRA.SOLV.lig_0>
-16.5947

>  <SCORE.INTRA.VDW>
1.46803

>  <SCORE.INTRA.VDW.0>
-0.691398

>  <SCORE.INTRA.norm>
-0.260846

>  <SCORE.RESTR>
0.279077

>  <SCORE.RESTR.CAVITY>
0.279077

>  <SCORE.RESTR.norm>
0.0253706

>  <SCORE.SYSTEM>
0

>  <SCORE.SYSTEM.CONST>
0

>  <SCORE.SYSTEM.DIHEDRAL>
0

>  <SCORE.SYSTEM.SOLV>
0

>  <SCORE.SYSTEM.norm>
0

>  <SCORE.heavy>
11

>  <SCORE.norm>
-2.18138

>  <RMSD>
12.117

$$$$
1akx_lig
 OpenBabel11021811383D
libRbt.so/2013.1/901 2013/11/27
 11 10  0  0  0  0  0  0  0  0999 V2000
  -11.6090    0.6597   -1.6456 N   0  0  0  0  0  0  0  0  0  0  0  0
  -12.8764    1.1166   -1.0029 C   0  0  2  0  0  0  0  0  0  0  0  0
  -13.8761   -0.0459   -0.9588 C   0  0  0  0  0  0  0  0  0  0  0  0
  -13.5644   -1.1087   -0.4591 O   0  0  0  0  0  0  0  0  0  0  0  0
  -13.4718    2.2800   -1.8076 C   0  0  0  0  0  0  0  0  0  0  0  0
  -12.6512    3.5506   -1.5635 C   0  0  0  0  0  0  0  0  0  0  0  0
  -12.0465    4.0296   -2.8833 C   0  0  0  0  0  0  0  0  0  0  0  0
  -10.8511    3.2008   -3.2095 N   0  0  0  0  0  0  0  0  0  0  0  0
   -9.6471    3.6859   -3.0437 C   0  0  0  0  0  0  0  0  0  0  0  0
   -9.3592    4.8919   -3.4606 N   0  0  0  0  0  0  0  0  0  0  0  0
   -8.7315    2.9649   -2.4538 N   0  0  0  0  0  0  0  0  0  0  0  0
  2  1  1  6  0  0  0
  2  3  1  0  0  0  0
  2  5  1  0  0  0  0
  3  4  1  0  0  0  0
  5  6  1  0  0  0  0
  6  7  1  0  0  0  0
  7  8  1  0  0  0  0
  8  9  1  0  0  0  0
  9 10  1  0  0  0  0
  9 11  1  0  0  0  0
M  END
>  <CHROM.1>
43.61235506,53.95838261,-73.92385318,118.54087371,-78.48813826,-104.45673089
-45.78764474,18.92408729,-148.23673651,-11.64409946,2.26068221,-2.05158977
-2.26167664,0.18032128,-0.34886258

>  <Name>
1akx_lig

>  <RI>
0

>  <Rbt.Current_Directory>
/home/itssahil/PROJECTS/Mol_Feturizer/New_Systems/rnas/1akx

>  <Rbt.Executable>
rbdock ($Id: //depot/dev/client3/rdock/2013.1/src/exe/rbdock.cxx#4 $)

>  <Rbt.Library>
libRbt.so (2013.1, Build901 2013/11/27)

>  <Rbt.Parameter_File>
/export/apps/rDock/src/rDock_2013.1_src/data/scripts/dock_solv.prm

>  <Rbt.Receptor>
prm/blind_docking_80.prm

>  <SCORE>
-30.3682

>  <SCORE.INTER>
-24.2091

>  <SCORE.INTER.CONST>
1

>  <SCORE.INTER.POLAR>
-4.37107

>  <SCORE.INTER.ROT>
8

>  <SCORE.INTER.SOLV>
9.75777

>  <SCORE.INTER.VDW>
-13.7551

>  <SCORE.INTER.norm>
-2.20083

>  <SCORE.INTRA>
-6.24527

>  <SCORE.INTRA.DIHEDRAL>
-8.03582

>  <SCORE.INTRA.DIHEDRAL.0>
21.6454

>  <SCORE.INTRA.POLAR>
-0.946701

>  <SCORE.INTRA.POLAR.0>
0

>  <SCORE.INTRA.REPUL>
0

>  <SCORE.INTRA.REPUL.0>
0

>  <SCORE.INTRA.SOLV>
1.68427

>  <SCORE.INTRA.SOLV.lig_0>
-16.5947

>  <SCORE.INTRA.VDW>
0.149287

>  <SCORE.INTRA.VDW.0>
-0.691398

>  <SCORE.INTRA.norm>
-0.567752

>  <SCORE.RESTR>
0.0861957

>  <SCORE.RESTR.CAVITY>
0.0861957

>  <SCORE.RESTR.norm>
0.00783597

>  <SCORE.SYSTEM>
0

>  <SCORE.SYSTEM.CONST>
0

>  <SCORE.SYSTEM.DIHEDRAL>
0

>  <SCORE.SYSTEM.SOLV>
0

>  <SCORE.SYSTEM.norm>
0

>  <SCORE.heavy>
11

>  <SCORE.norm>
-2.76074

>  <RMSD>
12.181

$$$$
1akx_lig
 OpenBabel11021811383D
libRbt.so/2013.1/901 2013/11/27
 11 10  0  0  0  0  0  0  0  0999 V2000
  -11.7957    0.7913    0.4032 N   0  0  0  0  0  0  0  0  0  0  0  0
  -12.6580    1.7426   -0.3582 C   0  0  2  0  0  0  0  0  0  0  0  0
  -13.9797    1.0554   -0.7234 C   0  0  0  0  0  0  0  0  0  0  0  0
  -14.8353    1.6544   -1.3443 O   0  0  0  0  0  0  0  0  0  0  0  0
  -11.9338    2.1834   -1.6375 C   0  0  0  0  0  0  0  0  0  0  0  0
  -12.2101    3.6669   -1.9029 C   0  0  0  0  0  0  0  0  0  0  0  0
  -11.7578    4.0255   -3.3184 C   0  0  0  0  0  0  0  0  0  0  0  0
  -10.3123    4.3893   -3.2988 N   0  0  0  0  0  0  0  0  0  0  0  0
   -9.3968    3.4544   -3.3085 C   0  0  0  0  0  0  0  0  0  0  0  0
   -8.1412    3.7592   -3.1038 N   0  0  0  0  0  0  0  0  0  0  0  0
   -9.7395    2.2114   -3.5172 N   0  0  0  0  0  0  0  0  0  0  0  0
  2  1  1  6  0  0  0
  2  3  1  0  0  0  0
  2  5  1  0  0  0  0
  3  4  1  0  0  0  0
  5  6  1  0  0  0  0
  6  7  1  0  0  0  0
  7  8  1  0  0  0  0
  8  9  1  0  0  0  0
  9 10  1  0  0  0  0
  9 11  1  0  0  0  0
M  END
>  <CHROM.1>
-169.60977926,179.73671738,-141.74684577,-167.47008572,-86.65713206,81.45721686
-170.43106829,-41.17360963,60.79139787,-11.49444594,2.60152267,-1.99582309
-2.43891506,0.06864748,-0.78402720

>  <Name>
1akx_lig

>  <RI>
0

>  <Rbt.Current_Directory>
/home/afrankz/demos/rdock_decoys_rna/rnas/1akx

>  <Rbt.Executable>
rbdock ($Id: //depot/dev/client3/rdock/2013.1/src/exe/rbdock.cxx#4 $)

>  <Rbt.Library>
libRbt.so (2013.1, Build901 2013/11/27)

>  <Rbt.Parameter_File>
/export/apps/rDock/src/rDock_2013.1_src/data/scripts/dock_solv.prm

>  <Rbt.Receptor>
prm/blind_docking_80.prm

>  <SCORE>
-29.4118

>  <SCORE.INTER>
-25.8477

>  <SCORE.INTER.CONST>
1

>  <SCORE.INTER.POLAR>
-4.5159

>  <SCORE.INTER.ROT>
8

>  <SCORE.INTER.SOLV>
12.4576

>  <SCORE.INTER.VDW>
-15.2647

>  <SCORE.INTER.norm>
-2.34979

>  <SCORE.INTRA>
-3.56416

>  <SCORE.INTRA.DIHEDRAL>
-9.50342

>  <SCORE.INTRA.DIHEDRAL.0>
21.6454

>  <SCORE.INTRA.POLAR>
0

>  <SCORE.INTRA.POLAR.0>
0

>  <SCORE.INTRA.REPUL>
0

>  <SCORE.INTRA.REPUL.0>
0

>  <SCORE.INTRA.SOLV>
0.740782

>  <SCORE.INTRA.SOLV.lig_0>
-16.5947

>  <SCORE.INTRA.VDW>
0.817158

>  <SCORE.INTRA.VDW.0>
-0.691398

>  <SCORE.INTRA.norm>
-0.324015

>  <SCORE.RESTR>
0

>  <SCORE.RESTR.CAVITY>
0

>  <SCORE.RESTR.norm>
0

>  <SCORE.SYSTEM>
0

>  <SCORE.SYSTEM.CONST>
0

>  <SCORE.SYSTEM.DIHEDRAL>
0

>  <SCORE.SYSTEM.SOLV>
0

>  <SCORE.SYSTEM.norm>
0

>  <SCORE.heavy>
11

>  <SCORE.norm>
-2.6738

>  <RMSD>
12.231

>  <RMSD>
12.231

$$$$
1akx_lig
 OpenBabel11021811383D
libRbt.so/2013.1/901 2013/11/27
 11 10  0  0  0  0  0  0  0  0999 V2000
  -11.7957    0.7913    0.4032 N   0  0  0  0  0  0  0  0  0  0  0  0
  -12.6580    1.7426   -0.3582 C   0  0  2  0  0  0  0  0  0  0  0  0
  -13.9797    1.0554   -0.7234 C   0  0  0  0  0  0  0  0  0  0  0  0
  -14.8353    1.6544   -1.3443 O   0  0  0  0  0  0  0  0  0  0  0  0
  -11.9338    2.1834   -1.6375 C   0  0  0  0  0  0  0  0  0  0  0  0
  -12.2101    3.6669   -1.9029 C   0  0  0  0  0  0  0  0  0  0  0  0
  -11.7578    4.0255   -3.3184 C   0  0  0  0  0  0  0  0  0  0  0  0
  -10.3123    4.3893   -3.2988 N   0  0  0  0  0  0  0  0  0  0  0  0
   -9.3968    3.4544   -3.3085 C   0  0  0  0  0  0  0  0  0  0  0  0
   -8.1412    3.7592   -3.1038 N   0  0  0  0  0  0  0  0  0  0  0  0
   -9.7395    2.2114   -3.5172 N   0  0  0  0  0  0  0  0  0  0  0  0
  2  1  1  6  0  0  0
  2  3  1  0  0  0  0
  2  5  1  0  0  0  0
  3  4  1  0  0  0  0
  5  6  1  0  0  0  0
  6  7  1  0  0  0  0
  7  8  1  0  0  0  0
  8  9  1  0  0  0  0
  9 10  1  0  0  0  0
  9 11  1  0  0  0  0
M  END
>  <CHROM.1>
-169.60977926,179.73671738,-141.74684577,-167.47008572,-86.65713206,81.45721686
-170.43106829,-41.17360963,60.79139787,-11.49444594,2.60152267,-1.99582309
-2.43891506,0.06864748,-0.78402720

>  <Name>
1akx_lig

>  <RI>
0

>  <Rbt.Current_Directory>
/home/afrankz/demos/rdock_decoys_rna/rnas/1akx

>  <Rbt.Executable>
rbdock ($Id: //depot/dev/client3/rdock/2013.1/src/exe/rbdock.cxx#4 $)

>  <Rbt.Library>
libRbt.so (2013.1, Build901 2013/11/27)

>  <Rbt.Parameter_File>
/export/apps/rDock/src/rDock_2013.1_src/data/scripts/dock_solv.prm

>  <Rbt.Receptor>
prm/blind_docking_80.prm

>  <SCORE>
-29.4118

>  <SCORE.INTER>
-25.8477

>  <SCORE.INTER.CONST>
1

>  <SCORE.INTER.POLAR>
-4.5159

>  <SCORE.INTER.ROT>
8

>  <SCORE.INTER.SOLV>
12.4576

>  <SCORE.INTER.VDW>
-15.2647

>  <SCORE.INTER.norm>
-2.34979

>  <SCORE.INTRA>
-3.56416

>  <SCORE.INTRA.DIHEDRAL>
-9.50342

>  <SCORE.INTRA.DIHEDRAL.0>
21.6454

>  <SCORE.INTRA.POLAR>
0

>  <SCORE.INTRA.POLAR.0>
0

>  <SCORE.INTRA.REPUL>
0

>  <SCORE.INTRA.REPUL.0>
0

>  <SCORE.INTRA.SOLV>
0.740782

>  <SCORE.INTRA.SOLV.lig_0>
-16.5947

>  <SCORE.INTRA.VDW>
0.817158

>  <SCORE.INTRA.VDW.0>
-0.691398

>  <SCORE.INTRA.norm>
-0.324015

>  <SCORE.RESTR>
0

>  <SCORE.RESTR.CAVITY>
0

>  <SCORE.RESTR.norm>
0

>  <SCORE.SYSTEM>
0

>  <SCORE.SYSTEM.CONST>
0

>  <SCORE.SYSTEM.DIHEDRAL>
0

>  <SCORE.SYSTEM.SOLV>
0

>  <SCORE.SYSTEM.norm>
0

>  <SCORE.heavy>
11

>  <SCORE.norm>
-2.6738

>  <RMSD>
12.231

>  <RMSD>
12.231

$$$$
1akx_lig
 OpenBabel11021811383D
libRbt.so/2013.1/901 2013/11/27
 11 10  0  0  0  0  0  0  0  0999 V2000
  -10.1063    7.5803    1.2042 N   0  0  0  0  0  0  0  0  0  0  0  0
  -10.6495    6.4686    0.3693 C   0  0  2  0  0  0  0  0  0  0  0  0
  -11.3697    5.4570    1.2696 C   0  0  0  0  0  0  0  0  0  0  0  0
  -10.8303    5.0287    2.2705 O   0  0  0  0  0  0  0  0  0  0  0  0
   -9.5005    5.7732   -0.3735 C   0  0  0  0  0  0  0  0  0  0  0  0
  -10.0671    4.7275   -1.3392 C   0  0  0  0  0  0  0  0  0  0  0  0
   -9.0142    4.3805   -2.3917 C   0  0  0  0  0  0  0  0  0  0  0  0
   -9.1362    2.9406   -2.7580 N   0  0  0  0  0  0  0  0  0  0  0  0
  -10.0214    2.5579   -3.6426 C   0  0  0  0  0  0  0  0  0  0  0  0
  -10.0957    1.3016   -3.9998 N   0  0  0  0  0  0  0  0  0  0  0  0
  -10.8377    3.4331   -4.1657 N   0  0  0  0  0  0  0  0  0  0  0  0
  2  1  1  1  0  0  0
  2  3  1  0  0  0  0
  2  5  1  0  0  0  0
  3  4  1  0  0  0  0
  5  6  1  0  0  0  0
  6  7  1  0  0  0  0
  7  8  1  0  0  0  0
  8  9  1  0  0  0  0
  9 10  1  0  0  0  0
  9 11  1  0  0  0  0
M  END
>  <CHROM.1>
73.36764146,-49.33852404,-174.24524434,161.01410194,145.59256606,82.84966945
177.50986426,-55.47574829,-98.59448741,-10.15315918,4.51314673,-1.21702983
-1.77261227,-1.12494732,-2.40532410

>  <Name>
1akx_lig

>  <RI>
0

>  <Rbt.Current_Directory>
/home/itssahil/PROJECTS/Mol_Feturizer/New_Systems/rnas/1akx

>  <Rbt.Executable>
rbdock ($Id: //depot/dev/client3/rdock/2013.1/src/exe/rbdock.cxx#4 $)

>  <Rbt.Library>
libRbt.so (2013.1, Build901 2013/11/27)

>  <Rbt.Parameter_File>
/export/apps/rDock/src/rDock_2013.1_src/data/scripts/dock_solv.prm

>  <Rbt.Receptor>
prm/blind_docking_40.prm

>  <SCORE>
-42.1453

>  <SCORE.INTER>
-38.5472

>  <SCORE.INTER.CONST>
1

>  <SCORE.INTER.POLAR>
-5.94829

>  <SCORE.INTER.ROT>
8

>  <SCORE.INTER.SOLV>
15.2007

>  <SCORE.INTER.VDW>
-19.8707

>  <SCORE.INTER.norm>
-3.50429

>  <SCORE.INTRA>
-3.70162

>  <SCORE.INTRA.DIHEDRAL>
-11.106

>  <SCORE.INTRA.DIHEDRAL.0>
21.6454

>  <SCORE.INTRA.POLAR>
0

>  <SCORE.INTRA.POLAR.0>
0

>  <SCORE.INTRA.REPUL>
0

>  <SCORE.INTRA.REPUL.0>
0

>  <SCORE.INTRA.SOLV>
0.522724

>  <SCORE.INTRA.SOLV.lig_0>
-16.5947

>  <SCORE.INTRA.VDW>
1.59001

>  <SCORE.INTRA.VDW.0>
-0.691398

>  <SCORE.INTRA.norm>
-0.336511

>  <SCORE.RESTR>
0.103477

>  <SCORE.RESTR.CAVITY>
0.103477

>  <SCORE.RESTR.norm>
0.00940697

>  <SCORE.SYSTEM>
0

>  <SCORE.SYSTEM.CONST>
0

>  <SCORE.SYSTEM.DIHEDRAL>
0

>  <SCORE.SYSTEM.SOLV>
0

>  <SCORE.SYSTEM.norm>
0

>  <SCORE.heavy>
11

>  <SCORE.norm>
-3.8314

>  <RMSD>
12.408

$$$$
1akx_lig
 OpenBabel11021811383D
libRbt.so/2013.1/901 2013/11/27
 11 10  0  0  0  0  0  0  0  0999 V2000
   -9.7453    5.9170    0.0310 N   0  0  0  0  0  0  0  0  0  0  0  0
  -11.1509    5.9488    0.5327 C   0  0  2  0  0  0  0  0  0  0  0  0
  -11.3158    4.9206    1.6588 C   0  0  0  0  0  0  0  0  0  0  0  0
  -11.4178    3.7372    1.4034 O   0  0  0  0  0  0  0  0  0  0  0  0
  -12.1150    5.6179   -0.6147 C   0  0  0  0  0  0  0  0  0  0  0  0
  -11.5588    4.4509   -1.4369 C   0  0  0  0  0  0  0  0  0  0  0  0
  -10.7695    4.9952   -2.6275 C   0  0  0  0  0  0  0  0  0  0  0  0
  -10.4419    3.8768   -3.5571 N   0  0  0  0  0  0  0  0  0  0  0  0
   -9.3993    3.1180   -3.3342 C   0  0  0  0  0  0  0  0  0  0  0  0
   -8.2447    3.6556   -3.0351 N   0  0  0  0  0  0  0  0  0  0  0  0
   -9.5140    1.8188   -3.4046 N   0  0  0  0  0  0  0  0  0  0  0  0
  2  1  1  6  0  0  0
  2  3  1  0  0  0  0
  2  5  1  0  0  0  0
  3  4  1  0  0  0  0
  5  6  1  0  0  0  0
  6  7  1  0  0  0  0
  7  8  1  0  0  0  0
  8  9  1  0  0  0  0
  9 10  1  0  0  0  0
  9 11  1  0  0  0  0
M  END
>  <CHROM.1>
55.17951406,-77.07176903,42.70564995,-94.42011802,-169.78507229,-83.30073174
-46.79820465,149.21233767,124.89934884,-10.46717355,4.33979633,-1.31543664
2.82260291,-1.17669602,2.33720701

>  <Name>
1akx_lig

>  <RI>
0

>  <Rbt.Current_Directory>
/home/afrankz/demos/rdock_decoys_rna/rnas/1akx

>  <Rbt.Executable>
rbdock ($Id: //depot/dev/client3/rdock/2013.1/src/exe/rbdock.cxx#4 $)

>  <Rbt.Library>
libRbt.so (2013.1, Build901 2013/11/27)

>  <Rbt.Parameter_File>
/export/apps/rDock/src/rDock_2013.1_src/data/scripts/dock_solv.prm

>  <Rbt.Receptor>
prm/blind_docking_60.prm

>  <SCORE>
-30.537

>  <SCORE.INTER>
-28.1744

>  <SCORE.INTER.CONST>
1

>  <SCORE.INTER.POLAR>
-4.60144

>  <SCORE.INTER.ROT>
8

>  <SCORE.INTER.SOLV>
13.9041

>  <SCORE.INTER.VDW>
-17.0128

>  <SCORE.INTER.norm>
-2.5613

>  <SCORE.INTRA>
-2.36264

>  <SCORE.INTRA.DIHEDRAL>
-10.523

>  <SCORE.INTRA.DIHEDRAL.0>
21.6454

>  <SCORE.INTRA.POLAR>
0

>  <SCORE.INTRA.POLAR.0>
0

>  <SCORE.INTRA.REPUL>
0

>  <SCORE.INTRA.REPUL.0>
0

>  <SCORE.INTRA.SOLV>
1.09519

>  <SCORE.INTRA.SOLV.lig_0>
-16.5947

>  <SCORE.INTRA.VDW>
2.35126

>  <SCORE.INTRA.VDW.0>
-0.691398

>  <SCORE.INTRA.norm>
-0.214785

>  <SCORE.RESTR>
0

>  <SCORE.RESTR.CAVITY>
0

>  <SCORE.RESTR.norm>
0

>  <SCORE.SYSTEM>
0

>  <SCORE.SYSTEM.CONST>
0

>  <SCORE.SYSTEM.DIHEDRAL>
0

>  <SCORE.SYSTEM.SOLV>
0

>  <SCORE.SYSTEM.norm>
0

>  <SCORE.heavy>
11

>  <SCORE.norm>
-2.77609

>  <RMSD>
12.487

>  <RMSD>
12.487

$$$$
1akx_lig
 OpenBabel11021811383D
libRbt.so/2013.1/901 2013/11/27
 11 10  0  0  0  0  0  0  0  0999 V2000
   -9.7453    5.9170    0.0310 N   0  0  0  0  0  0  0  0  0  0  0  0
  -11.1509    5.9488    0.5327 C   0  0  2  0  0  0  0  0  0  0  0  0
  -11.3158    4.9206    1.6588 C   0  0  0  0  0  0  0  0  0  0  0  0
  -11.4178    3.7372    1.4034 O   0  0  0  0  0  0  0  0  0  0  0  0
  -12.1150    5.6179   -0.6147 C   0  0  0  0  0  0  0  0  0  0  0  0
  -11.5588    4.4509   -1.4369 C   0  0  0  0  0  0  0  0  0  0  0  0
  -10.7695    4.9952   -2.6275 C   0  0  0  0  0  0  0  0  0  0  0  0
  -10.4419    3.8768   -3.5571 N   0  0  0  0  0  0  0  0  0  0  0  0
   -9.3993    3.1180   -3.3342 C   0  0  0  0  0  0  0  0  0  0  0  0
   -8.2447    3.6556   -3.0351 N   0  0  0  0  0  0  0  0  0  0  0  0
   -9.5140    1.8188   -3.4046 N   0  0  0  0  0  0  0  0  0  0  0  0
  2  1  1  6  0  0  0
  2  3  1  0  0  0  0
  2  5  1  0  0  0  0
  3  4  1  0  0  0  0
  5  6  1  0  0  0  0
  6  7  1  0  0  0  0
  7  8  1  0  0  0  0
  8  9  1  0  0  0  0
  9 10  1  0  0  0  0
  9 11  1  0  0  0  0
M  END
>  <CHROM.1>
55.17951406,-77.07176903,42.70564995,-94.42011802,-169.78507229,-83.30073174
-46.79820465,149.21233767,124.89934884,-10.46717355,4.33979633,-1.31543664
2.82260291,-1.17669602,2.33720701

>  <Name>
1akx_lig

>  <RI>
0

>  <Rbt.Current_Directory>
/home/afrankz/demos/rdock_decoys_rna/rnas/1akx

>  <Rbt.Executable>
rbdock ($Id: //depot/dev/client3/rdock/2013.1/src/exe/rbdock.cxx#4 $)

>  <Rbt.Library>
libRbt.so (2013.1, Build901 2013/11/27)

>  <Rbt.Parameter_File>
/export/apps/rDock/src/rDock_2013.1_src/data/scripts/dock_solv.prm

>  <Rbt.Receptor>
prm/blind_docking_60.prm

>  <SCORE>
-30.537

>  <SCORE.INTER>
-28.1744

>  <SCORE.INTER.CONST>
1

>  <SCORE.INTER.POLAR>
-4.60144

>  <SCORE.INTER.ROT>
8

>  <SCORE.INTER.SOLV>
13.9041

>  <SCORE.INTER.VDW>
-17.0128

>  <SCORE.INTER.norm>
-2.5613

>  <SCORE.INTRA>
-2.36264

>  <SCORE.INTRA.DIHEDRAL>
-10.523

>  <SCORE.INTRA.DIHEDRAL.0>
21.6454

>  <SCORE.INTRA.POLAR>
0

>  <SCORE.INTRA.POLAR.0>
0

>  <SCORE.INTRA.REPUL>
0

>  <SCORE.INTRA.REPUL.0>
0

>  <SCORE.INTRA.SOLV>
1.09519

>  <SCORE.INTRA.SOLV.lig_0>
-16.5947

>  <SCORE.INTRA.VDW>
2.35126

>  <SCORE.INTRA.VDW.0>
-0.691398

>  <SCORE.INTRA.norm>
-0.214785

>  <SCORE.RESTR>
0

>  <SCORE.RESTR.CAVITY>
0

>  <SCORE.RESTR.norm>
0

>  <SCORE.SYSTEM>
0

>  <SCORE.SYSTEM.CONST>
0

>  <SCORE.SYSTEM.DIHEDRAL>
0

>  <SCORE.SYSTEM.SOLV>
0

>  <SCORE.SYSTEM.norm>
0

>  <SCORE.heavy>
11

>  <SCORE.norm>
-2.77609

>  <RMSD>
12.487

>  <RMSD>
12.487

$$$$
1akx_lig
 OpenBabel11021811383D
libRbt.so/2013.1/901 2013/11/27
 11 10  0  0  0  0  0  0  0  0999 V2000
   -9.9287    7.4477    1.1558 N   0  0  0  0  0  0  0  0  0  0  0  0
  -10.7077    6.3532    0.5050 C   0  0  2  0  0  0  0  0  0  0  0  0
  -11.0819    5.2980    1.5534 C   0  0  0  0  0  0  0  0  0  0  0  0
  -11.6752    4.2889    1.2281 O   0  0  0  0  0  0  0  0  0  0  0  0
   -9.8623    5.7064   -0.6006 C   0  0  0  0  0  0  0  0  0  0  0  0
  -10.7109    4.6913   -1.3731 C   0  0  0  0  0  0  0  0  0  0  0  0
  -10.6135    4.9790   -2.8713 C   0  0  0  0  0  0  0  0  0  0  0  0
  -10.5426    3.6913   -3.6190 N   0  0  0  0  0  0  0  0  0  0  0  0
   -9.5943    2.8283   -3.3575 C   0  0  0  0  0  0  0  0  0  0  0  0
   -8.4833    3.2217   -2.7897 N   0  0  0  0  0  0  0  0  0  0  0  0
   -9.7610    1.5684   -3.6590 N   0  0  0  0  0  0  0  0  0  0  0  0
  2  1  1  1  0  0  0
  2  3  1  0  0  0  0
  2  5  1  0  0  0  0
  3  4  1  0  0  0  0
  5  6  1  0  0  0  0
  6  7  1  0  0  0  0
  7  8  1  0  0  0  0
  8  9  1  0  0  0  0
  9 10  1  0  0  0  0
  9 11  1  0  0  0  0
M  END
>  <CHROM.1>
-55.77243994,-177.06160150,-173.71198401,128.22835705,140.69382653,-57.21657058
-22.17688613,150.41736993,-50.32668281,-10.25121238,4.54318956,-1.24312666
-1.89912577,-1.02261621,-2.50036109

>  <Name>
1akx_lig

>  <RI>
0

>  <Rbt.Current_Directory>
/home/itssahil/PROJECTS/Mol_Feturizer/New_Systems/rnas/1akx

>  <Rbt.Executable>
rbdock ($Id: //depot/dev/client3/rdock/2013.1/src/exe/rbdock.cxx#4 $)

>  <Rbt.Library>
libRbt.so (2013.1, Build901 2013/11/27)

>  <Rbt.Parameter_File>
/export/apps/rDock/src/rDock_2013.1_src/data/scripts/dock_solv.prm

>  <Rbt.Receptor>
prm/blind_docking_20.prm

>  <SCORE>
-33.3405

>  <SCORE.INTER>
-34.193

>  <SCORE.INTER.CONST>
1

>  <SCORE.INTER.POLAR>
-4.72469

>  <SCORE.INTER.ROT>
8

>  <SCORE.INTER.SOLV>
14.4348

>  <SCORE.INTER.VDW>
-20.7913

>  <SCORE.INTER.norm>
-3.10846

>  <SCORE.INTRA>
-0.434904

>  <SCORE.INTRA.DIHEDRAL>
-6.72146

>  <SCORE.INTRA.DIHEDRAL.0>
21.6454

>  <SCORE.INTRA.POLAR>
0

>  <SCORE.INTRA.POLAR.0>
0

>  <SCORE.INTRA.REPUL>
0

>  <SCORE.INTRA.REPUL.0>
0

>  <SCORE.INTRA.SOLV>
0.612353

>  <SCORE.INTRA.SOLV.lig_0>
-16.5947

>  <SCORE.INTRA.VDW>
2.61965

>  <SCORE.INTRA.VDW.0>
-0.691398

>  <SCORE.INTRA.norm>
-0.0395368

>  <SCORE.RESTR>
1.28749

>  <SCORE.RESTR.CAVITY>
1.28749

>  <SCORE.RESTR.norm>
0.117045

>  <SCORE.SYSTEM>
0

>  <SCORE.SYSTEM.CONST>
0

>  <SCORE.SYSTEM.DIHEDRAL>
0

>  <SCORE.SYSTEM.SOLV>
0

>  <SCORE.SYSTEM.norm>
0

>  <SCORE.heavy>
11

>  <SCORE.norm>
-3.03095

>  <RMSD>
12.487

$$$$
1akx_lig
 OpenBabel11021811383D
libRbt.so/2013.1/901 2013/11/27
 11 10  0  0  0  0  0  0  0  0999 V2000
   -9.8650    7.0669    1.2371 N   0  0  0  0  0  0  0  0  0  0  0  0
  -10.9012    6.1856    0.6225 C   0  0  2  0  0  0  0  0  0  0  0  0
  -11.0972    4.9400    1.4958 C   0  0  0  0  0  0  0  0  0  0  0  0
  -11.0035    5.0135    2.7049 O   0  0  0  0  0  0  0  0  0  0  0  0
  -10.4520    5.7656   -0.7837 C   0  0  0  0  0  0  0  0  0  0  0  0
  -11.6702    5.3420   -1.6106 C   0  0  0  0  0  0  0  0  0  0  0  0
  -11.4176    3.9647   -2.2238 C   0  0  0  0  0  0  0  0  0  0  0  0
  -10.1725    4.0084   -3.0424 N   0  0  0  0  0  0  0  0  0  0  0  0
   -9.4192    2.9442   -3.1543 C   0  0  0  0  0  0  0  0  0  0  0  0
   -9.9623    1.7693   -3.3447 N   0  0  0  0  0  0  0  0  0  0  0  0
   -8.1200    3.0570   -3.0819 N   0  0  0  0  0  0  0  0  0  0  0  0
  2  1  1  1  0  0  0
  2  3  1  0  0  0  0
  2  5  1  0  0  0  0
  3  4  1  0  0  0  0
  5  6  1  0  0  0  0
  6  7  1  0  0  0  0
  7  8  1  0  0  0  0
  8  9  1  0  0  0  0
  9 10  1  0  0  0  0
  9 11  1  0  0  0  0
M  END
>  <CHROM.1>
-57.48460874,34.60916373,-158.35128186,-128.28704626,-56.79962272,148.52249409
42.85027845,-60.10717485,-129.45273523,-10.32827951,4.55077657,-0.99353626
-2.83798784,-1.35882469,2.87467329

>  <Name>
1akx_lig

>  <RI>
0

>  <Rbt.Current_Directory>
/home/afrankz/demos/rdock_decoys_rna/rnas/1akx

>  <Rbt.Executable>
rbdock ($Id: //depot/dev/client3/rdock/2013.1/src/exe/rbdock.cxx#4 $)

>  <Rbt.Library>
libRbt.so (2013.1, Build901 2013/11/27)

>  <Rbt.Parameter_File>
/export/apps/rDock/src/rDock_2013.1_src/data/scripts/dock_solv.prm

>  <Rbt.Receptor>
prm/blind_docking_80.prm

>  <SCORE>
-28.8189

>  <SCORE.INTER>
-26.3482

>  <SCORE.INTER.CONST>
1

>  <SCORE.INTER.POLAR>
-4.23445

>  <SCORE.INTER.ROT>
8

>  <SCORE.INTER.SOLV>
14.1686

>  <SCORE.INTER.VDW>
-17.1068

>  <SCORE.INTER.norm>
-2.39529

>  <SCORE.INTRA>
-2.95827

>  <SCORE.INTRA.DIHEDRAL>
-7.25276

>  <SCORE.INTRA.DIHEDRAL.0>
21.6454

>  <SCORE.INTRA.POLAR>
0

>  <SCORE.INTRA.POLAR.0>
0

>  <SCORE.INTRA.REPUL>
0

>  <SCORE.INTRA.REPUL.0>
0

>  <SCORE.INTRA.SOLV>
0.486519

>  <SCORE.INTRA.SOLV.lig_0>
-16.5947

>  <SCORE.INTRA.VDW>
0.42485

>  <SCORE.INTRA.VDW.0>
-0.691398

>  <SCORE.INTRA.norm>
-0.268934

>  <SCORE.RESTR>
0.487551

>  <SCORE.RESTR.CAVITY>
0.487551

>  <SCORE.RESTR.norm>
0.0443228

>  <SCORE.SYSTEM>
0

>  <SCORE.SYSTEM.CONST>
0

>  <SCORE.SYSTEM.DIHEDRAL>
0

>  <SCORE.SYSTEM.SOLV>
0

>  <SCORE.SYSTEM.norm>
0

>  <SCORE.heavy>
11

>  <SCORE.norm>
-2.6199

>  <RMSD>
12.538

>  <RMSD>
12.538

$$$$
1akx_lig
 OpenBabel11021811383D
libRbt.so/2013.1/901 2013/11/27
 11 10  0  0  0  0  0  0  0  0999 V2000
   -9.8650    7.0669    1.2371 N   0  0  0  0  0  0  0  0  0  0  0  0
  -10.9012    6.1856    0.6225 C   0  0  2  0  0  0  0  0  0  0  0  0
  -11.0972    4.9400    1.4958 C   0  0  0  0  0  0  0  0  0  0  0  0
  -11.0035    5.0135    2.7049 O   0  0  0  0  0  0  0  0  0  0  0  0
  -10.4520    5.7656   -0.7837 C   0  0  0  0  0  0  0  0  0  0  0  0
  -11.6702    5.3420   -1.6106 C   0  0  0  0  0  0  0  0  0  0  0  0
  -11.4176    3.9647   -2.2238 C   0  0  0  0  0  0  0  0  0  0  0  0
  -10.1725    4.0084   -3.0424 N   0  0  0  0  0  0  0  0  0  0  0  0
   -9.4192    2.9442   -3.1543 C   0  0  0  0  0  0  0  0  0  0  0  0
   -9.9623    1.7693   -3.3447 N   0  0  0  0  0  0  0  0  0  0  0  0
   -8.1200    3.0570   -3.0819 N   0  0  0  0  0  0  0  0  0  0  0  0
  2  1  1  1  0  0  0
  2  3  1  0  0  0  0
  2  5  1  0  0  0  0
  3  4  1  0  0  0  0
  5  6  1  0  0  0  0
  6  7  1  0  0  0  0
  7  8  1  0  0  0  0
  8  9  1  0  0  0  0
  9 10  1  0  0  0  0
  9 11  1  0  0  0  0
M  END
>  <CHROM.1>
-57.48460874,34.60916373,-158.35128186,-128.28704626,-56.79962272,148.52249409
42.85027845,-60.10717485,-129.45273523,-10.32827951,4.55077657,-0.99353626
-2.83798784,-1.35882469,2.87467329

>  <Name>
1akx_lig

>  <RI>
0

>  <Rbt.Current_Directory>
/home/afrankz/demos/rdock_decoys_rna/rnas/1akx

>  <Rbt.Executable>
rbdock ($Id: //depot/dev/client3/rdock/2013.1/src/exe/rbdock.cxx#4 $)

>  <Rbt.Library>
libRbt.so (2013.1, Build901 2013/11/27)

>  <Rbt.Parameter_File>
/export/apps/rDock/src/rDock_2013.1_src/data/scripts/dock_solv.prm

>  <Rbt.Receptor>
prm/blind_docking_80.prm

>  <SCORE>
-28.8189

>  <SCORE.INTER>
-26.3482

>  <SCORE.INTER.CONST>
1

>  <SCORE.INTER.POLAR>
-4.23445

>  <SCORE.INTER.ROT>
8

>  <SCORE.INTER.SOLV>
14.1686

>  <SCORE.INTER.VDW>
-17.1068

>  <SCORE.INTER.norm>
-2.39529

>  <SCORE.INTRA>
-2.95827

>  <SCORE.INTRA.DIHEDRAL>
-7.25276

>  <SCORE.INTRA.DIHEDRAL.0>
21.6454

>  <SCORE.INTRA.POLAR>
0

>  <SCORE.INTRA.POLAR.0>
0

>  <SCORE.INTRA.REPUL>
0

>  <SCORE.INTRA.REPUL.0>
0

>  <SCORE.INTRA.SOLV>
0.486519

>  <SCORE.INTRA.SOLV.lig_0>
-16.5947

>  <SCORE.INTRA.VDW>
0.42485

>  <SCORE.INTRA.VDW.0>
-0.691398

>  <SCORE.INTRA.norm>
-0.268934

>  <SCORE.RESTR>
0.487551

>  <SCORE.RESTR.CAVITY>
0.487551

>  <SCORE.RESTR.norm>
0.0443228

>  <SCORE.SYSTEM>
0

>  <SCORE.SYSTEM.CONST>
0

>  <SCORE.SYSTEM.DIHEDRAL>
0

>  <SCORE.SYSTEM.SOLV>
0

>  <SCORE.SYSTEM.norm>
0

>  <SCORE.heavy>
11

>  <SCORE.norm>
-2.6199

>  <RMSD>
12.538

>  <RMSD>
12.538

$$$$
1akx_lig
 OpenBabel11021811383D
libRbt.so/2013.1/901 2013/11/27
 11 10  0  0  0  0  0  0  0  0999 V2000
   -9.9317    7.5365    1.3384 N   0  0  0  0  0  0  0  0  0  0  0  0
  -10.7268    6.4648    0.6694 C   0  0  2  0  0  0  0  0  0  0  0  0
  -11.0966    5.3860    1.6950 C   0  0  0  0  0  0  0  0  0  0  0  0
  -11.8614    4.4896    1.3986 O   0  0  0  0  0  0  0  0  0  0  0  0
   -9.8996    5.8403   -0.4625 C   0  0  0  0  0  0  0  0  0  0  0  0
  -10.8086    4.9969   -1.3624 C   0  0  0  0  0  0  0  0  0  0  0  0
  -10.0684    4.6489   -2.6538 C   0  0  0  0  0  0  0  0  0  0  0  0
  -10.7871    3.5470   -3.3547 N   0  0  0  0  0  0  0  0  0  0  0  0
  -10.3217    2.3247   -3.3129 C   0  0  0  0  0  0  0  0  0  0  0  0
  -11.1231    1.3225   -3.0585 N   0  0  0  0  0  0  0  0  0  0  0  0
   -9.0531    2.1045   -3.5322 N   0  0  0  0  0  0  0  0  0  0  0  0
  2  1  1  1  0  0  0
  2  3  1  0  0  0  0
  2  5  1  0  0  0  0
  3  4  1  0  0  0  0
  5  6  1  0  0  0  0
  6  7  1  0  0  0  0
  7  8  1  0  0  0  0
  8  9  1  0  0  0  0
  9 10  1  0  0  0  0
  9 11  1  0  0  0  0
M  END
>  <CHROM.1>
-55.62672034,172.28633342,-166.21126151,166.83112377,164.85900273,-103.52519131
133.79727897,-21.98078710,-144.19245487,-10.51218428,4.41061209,-1.13580015
-1.67631343,-0.92596880,-2.38386349

>  <Name>
1akx_lig

>  <RI>
0

>  <Rbt.Current_Directory>
/home/afrankz/demos/rdock_decoys_rna/rnas/1akx

>  <Rbt.Executable>
rbdock ($Id: //depot/dev/client3/rdock/2013.1/src/exe/rbdock.cxx#4 $)

>  <Rbt.Library>
libRbt.so (2013.1, Build901 2013/11/27)

>  <Rbt.Parameter_File>
/export/apps/rDock/src/rDock_2013.1_src/data/scripts/dock_solv.prm

>  <Rbt.Receptor>
prm/blind_docking_20.prm

>  <SCORE>
-36.2496

>  <SCORE.INTER>
-29.8734

>  <SCORE.INTER.CONST>
1

>  <SCORE.INTER.POLAR>
-3.79957

>  <SCORE.INTER.ROT>
8

>  <SCORE.INTER.SOLV>
12.4488

>  <SCORE.INTER.VDW>
-20.3333

>  <SCORE.INTER.norm>
-2.71576

>  <SCORE.INTRA>
-6.37618

>  <SCORE.INTRA.DIHEDRAL>
-14.336

>  <SCORE.INTRA.DIHEDRAL.0>
21.6454

>  <SCORE.INTRA.POLAR>
0

>  <SCORE.INTRA.POLAR.0>
0

>  <SCORE.INTRA.REPUL>
0

>  <SCORE.INTRA.REPUL.0>
0

>  <SCORE.INTRA.SOLV>
0.193327

>  <SCORE.INTRA.SOLV.lig_0>
-16.5947

>  <SCORE.INTRA.VDW>
0.695155

>  <SCORE.INTRA.VDW.0>
-0.691398

>  <SCORE.INTRA.norm>
-0.579653

>  <SCORE.RESTR>
0

>  <SCORE.RESTR.CAVITY>
0

>  <SCORE.RESTR.norm>
0

>  <SCORE.SYSTEM>
0

>  <SCORE.SYSTEM.CONST>
0

>  <SCORE.SYSTEM.DIHEDRAL>
0

>  <SCORE.SYSTEM.SOLV>
0

>  <SCORE.SYSTEM.norm>
0

>  <SCORE.heavy>
11

>  <SCORE.norm>
-3.29542

>  <RMSD>
12.573

>  <RMSD>
12.573

$$$$
1akx_lig
 OpenBabel11021811383D
libRbt.so/2013.1/901 2013/11/27
 11 10  0  0  0  0  0  0  0  0999 V2000
   -9.9317    7.5365    1.3384 N   0  0  0  0  0  0  0  0  0  0  0  0
  -10.7268    6.4648    0.6694 C   0  0  2  0  0  0  0  0  0  0  0  0
  -11.0966    5.3860    1.6950 C   0  0  0  0  0  0  0  0  0  0  0  0
  -11.8614    4.4896    1.3986 O   0  0  0  0  0  0  0  0  0  0  0  0
   -9.8996    5.8403   -0.4625 C   0  0  0  0  0  0  0  0  0  0  0  0
  -10.8086    4.9969   -1.3624 C   0  0  0  0  0  0  0  0  0  0  0  0
  -10.0684    4.6489   -2.6538 C   0  0  0  0  0  0  0  0  0  0  0  0
  -10.7871    3.5470   -3.3547 N   0  0  0  0  0  0  0  0  0  0  0  0
  -10.3217    2.3247   -3.3129 C   0  0  0  0  0  0  0  0  0  0  0  0
  -11.1231    1.3225   -3.0585 N   0  0  0  0  0  0  0  0  0  0  0  0
   -9.0531    2.1045   -3.5322 N   0  0  0  0  0  0  0  0  0  0  0  0
  2  1  1  1  0  0  0
  2  3  1  0  0  0  0
  2  5  1  0  0  0  0
  3  4  1  0  0  0  0
  5  6  1  0  0  0  0
  6  7  1  0  0  0  0
  7  8  1  0  0  0  0
  8  9  1  0  0  0  0
  9 10  1  0  0  0  0
  9 11  1  0  0  0  0
M  END
>  <CHROM.1>
-55.62672034,172.28633342,-166.21126151,166.83112377,164.85900273,-103.52519131
133.79727897,-21.98078710,-144.19245487,-10.51218428,4.41061209,-1.13580015
-1.67631343,-0.92596880,-2.38386349

>  <Name>
1akx_lig

>  <RI>
0

>  <Rbt.Current_Directory>
/home/afrankz/demos/rdock_decoys_rna/rnas/1akx

>  <Rbt.Executable>
rbdock ($Id: //depot/dev/client3/rdock/2013.1/src/exe/rbdock.cxx#4 $)

>  <Rbt.Library>
libRbt.so (2013.1, Build901 2013/11/27)

>  <Rbt.Parameter_File>
/export/apps/rDock/src/rDock_2013.1_src/data/scripts/dock_solv.prm

>  <Rbt.Receptor>
prm/blind_docking_20.prm

>  <SCORE>
-36.2496

>  <SCORE.INTER>
-29.8734

>  <SCORE.INTER.CONST>
1

>  <SCORE.INTER.POLAR>
-3.79957

>  <SCORE.INTER.ROT>
8

>  <SCORE.INTER.SOLV>
12.4488

>  <SCORE.INTER.VDW>
-20.3333

>  <SCORE.INTER.norm>
-2.71576

>  <SCORE.INTRA>
-6.37618

>  <SCORE.INTRA.DIHEDRAL>
-14.336

>  <SCORE.INTRA.DIHEDRAL.0>
21.6454

>  <SCORE.INTRA.POLAR>
0

>  <SCORE.INTRA.POLAR.0>
0

>  <SCORE.INTRA.REPUL>
0

>  <SCORE.INTRA.REPUL.0>
0

>  <SCORE.INTRA.SOLV>
0.193327

>  <SCORE.INTRA.SOLV.lig_0>
-16.5947

>  <SCORE.INTRA.VDW>
0.695155

>  <SCORE.INTRA.VDW.0>
-0.691398

>  <SCORE.INTRA.norm>
-0.579653

>  <SCORE.RESTR>
0

>  <SCORE.RESTR.CAVITY>
0

>  <SCORE.RESTR.norm>
0

>  <SCORE.SYSTEM>
0

>  <SCORE.SYSTEM.CONST>
0

>  <SCORE.SYSTEM.DIHEDRAL>
0

>  <SCORE.SYSTEM.SOLV>
0

>  <SCORE.SYSTEM.norm>
0

>  <SCORE.heavy>
11

>  <SCORE.norm>
-3.29542

>  <RMSD>
12.573

>  <RMSD>
12.573

$$$$
1akx_lig
 OpenBabel11021811383D
libRbt.so/2013.1/901 2013/11/27
 11 10  0  0  0  0  0  0  0  0999 V2000
  -10.1963    7.1954    0.5696 N   0  0  0  0  0  0  0  0  0  0  0  0
  -11.0446    6.0450    0.1392 C   0  0  2  0  0  0  0  0  0  0  0  0
  -10.9111    4.9027    1.1540 C   0  0  0  0  0  0  0  0  0  0  0  0
  -11.1487    3.7567    0.8275 O   0  0  0  0  0  0  0  0  0  0  0  0
  -10.5928    5.5617   -1.2457 C   0  0  0  0  0  0  0  0  0  0  0  0
  -11.8175    5.3232   -2.1348 C   0  0  0  0  0  0  0  0  0  0  0  0
  -11.6566    3.9991   -2.8816 C   0  0  0  0  0  0  0  0  0  0  0  0
  -10.4052    4.0362   -3.6909 N   0  0  0  0  0  0  0  0  0  0  0  0
   -9.4015    3.2525   -3.3897 C   0  0  0  0  0  0  0  0  0  0  0  0
   -9.4928    1.9616   -3.5809 N   0  0  0  0  0  0  0  0  0  0  0  0
   -8.3023    3.7625   -2.9021 N   0  0  0  0  0  0  0  0  0  0  0  0
  2  1  1  1  0  0  0
  2  3  1  0  0  0  0
  2  5  1  0  0  0  0
  3  4  1  0  0  0  0
  5  6  1  0  0  0  0
  6  7  1  0  0  0  0
  7  8  1  0  0  0  0
  8  9  1  0  0  0  0
  9 10  1  0  0  0  0
  9 11  1  0  0  0  0
M  END
>  <CHROM.1>
53.79532079,-156.71949074,-135.11523217,-135.40678357,-58.03117298,113.10583399
69.79593284,145.74641338,-26.57940828,-10.41091691,4.52667039,-1.54437846
2.53551336,-1.27918084,1.91436290

>  <Name>
1akx_lig

>  <RI>
0

>  <Rbt.Current_Directory>
/home/itssahil/PROJECTS/Mol_Feturizer/New_Systems/rnas/1akx

>  <Rbt.Executable>
rbdock ($Id: //depot/dev/client3/rdock/2013.1/src/exe/rbdock.cxx#4 $)

>  <Rbt.Library>
libRbt.so (2013.1, Build901 2013/11/27)

>  <Rbt.Parameter_File>
/export/apps/rDock/src/rDock_2013.1_src/data/scripts/dock_solv.prm

>  <Rbt.Receptor>
prm/blind_docking_20.prm

>  <SCORE>
-36.1355

>  <SCORE.INTER>
-34.6997

>  <SCORE.INTER.CONST>
1

>  <SCORE.INTER.POLAR>
-5.88545

>  <SCORE.INTER.ROT>
8

>  <SCORE.INTER.SOLV>
14.62

>  <SCORE.INTER.VDW>
-17.3217

>  <SCORE.INTER.norm>
-3.15452

>  <SCORE.INTRA>
-2.29853

>  <SCORE.INTRA.DIHEDRAL>
-4.82799

>  <SCORE.INTRA.DIHEDRAL.0>
21.6454

>  <SCORE.INTRA.POLAR>
0

>  <SCORE.INTRA.POLAR.0>
0

>  <SCORE.INTRA.REPUL>
0

>  <SCORE.INTRA.REPUL.0>
0

>  <SCORE.INTRA.SOLV>
0.707284

>  <SCORE.INTRA.SOLV.lig_0>
-16.5947

>  <SCORE.INTRA.VDW>
-0.238181

>  <SCORE.INTRA.VDW.0>
-0.691398

>  <SCORE.INTRA.norm>
-0.208958

>  <SCORE.RESTR>
0.862779

>  <SCORE.RESTR.CAVITY>
0.862779

>  <SCORE.RESTR.norm>
0.0784344

>  <SCORE.SYSTEM>
0

>  <SCORE.SYSTEM.CONST>
0

>  <SCORE.SYSTEM.DIHEDRAL>
0

>  <SCORE.SYSTEM.SOLV>
0

>  <SCORE.SYSTEM.norm>
0

>  <SCORE.heavy>
11

>  <SCORE.norm>
-3.28505

>  <RMSD>
12.585

$$$$
1akx_lig
 OpenBabel11021811383D
libRbt.so/2013.1/901 2013/11/27
 11 10  0  0  0  0  0  0  0  0999 V2000
   -9.8568    6.8577    0.8285 N   0  0  0  0  0  0  0  0  0  0  0  0
  -10.9669    6.0177    0.2898 C   0  0  2  0  0  0  0  0  0  0  0  0
  -11.2858    4.8928    1.2825 C   0  0  0  0  0  0  0  0  0  0  0  0
  -12.0869    4.0256    0.9954 O   0  0  0  0  0  0  0  0  0  0  0  0
  -10.5490    5.4145   -1.0582 C   0  0  0  0  0  0  0  0  0  0  0  0
  -11.7886    5.1881   -1.9297 C   0  0  0  0  0  0  0  0  0  0  0  0
  -11.5987    3.9251   -2.7697 C   0  0  0  0  0  0  0  0  0  0  0  0
  -10.3853    4.0757   -3.6226 N   0  0  0  0  0  0  0  0  0  0  0  0
   -9.3677    3.2672   -3.4702 C   0  0  0  0  0  0  0  0  0  0  0  0
   -9.5027    1.9868   -3.7019 N   0  0  0  0  0  0  0  0  0  0  0  0
   -8.2114    3.7420   -3.0914 N   0  0  0  0  0  0  0  0  0  0  0  0
  2  1  1  1  0  0  0
  2  3  1  0  0  0  0
  2  5  1  0  0  0  0
  3  4  1  0  0  0  0
  5  6  1  0  0  0  0
  6  7  1  0  0  0  0
  7  8  1  0  0  0  0
  8  9  1  0  0  0  0
  9 10  1  0  0  0  0
  9 11  1  0  0  0  0
M  END
>  <CHROM.1>
-63.20196854,-174.08597689,-151.17454175,-145.18112832,-58.92155880,117.46447058
63.28364833,-17.31036253,-37.93652614,-10.46914404,4.48827824,-1.46433351
-1.90001771,-0.46837148,-2.24584337

>  <Name>
1akx_lig

>  <RI>
0

>  <Rbt.Current_Directory>
/home/afrankz/demos/rdock_decoys_rna/rnas/1akx

>  <Rbt.Executable>
rbdock ($Id: //depot/dev/client3/rdock/2013.1/src/exe/rbdock.cxx#4 $)

>  <Rbt.Library>
libRbt.so (2013.1, Build901 2013/11/27)

>  <Rbt.Parameter_File>
/export/apps/rDock/src/rDock_2013.1_src/data/scripts/dock_solv.prm

>  <Rbt.Receptor>
prm/blind_docking_80.prm

>  <SCORE>
-45.1503

>  <SCORE.INTER>
-40.3181

>  <SCORE.INTER.CONST>
1

>  <SCORE.INTER.POLAR>
-6.16615

>  <SCORE.INTER.ROT>
8

>  <SCORE.INTER.SOLV>
13.9477

>  <SCORE.INTER.VDW>
-19.9075

>  <SCORE.INTER.norm>
-3.66528

>  <SCORE.INTRA>
-4.90074

>  <SCORE.INTRA.DIHEDRAL>
-10.1132

>  <SCORE.INTRA.DIHEDRAL.0>
21.6454

>  <SCORE.INTRA.POLAR>
0

>  <SCORE.INTRA.POLAR.0>
0

>  <SCORE.INTRA.REPUL>
0

>  <SCORE.INTRA.REPUL.0>
0

>  <SCORE.INTRA.SOLV>
0.640106

>  <SCORE.INTRA.SOLV.lig_0>
-16.5947

>  <SCORE.INTRA.VDW>
-0.164186

>  <SCORE.INTRA.VDW.0>
-0.691398

>  <SCORE.INTRA.norm>
-0.445522

>  <SCORE.RESTR>
0.0685128

>  <SCORE.RESTR.CAVITY>
0.0685128

>  <SCORE.RESTR.norm>
0.00622843

>  <SCORE.SYSTEM>
0

>  <SCORE.SYSTEM.CONST>
0

>  <SCORE.SYSTEM.DIHEDRAL>
0

>  <SCORE.SYSTEM.SOLV>
0

>  <SCORE.SYSTEM.norm>
0

>  <SCORE.heavy>
11

>  <SCORE.norm>
-4.10458

>  <RMSD>
12.602

>  <RMSD>
12.602

$$$$
1akx_lig
 OpenBabel11021811383D
libRbt.so/2013.1/901 2013/11/27
 11 10  0  0  0  0  0  0  0  0999 V2000
   -9.8568    6.8577    0.8285 N   0  0  0  0  0  0  0  0  0  0  0  0
  -10.9669    6.0177    0.2898 C   0  0  2  0  0  0  0  0  0  0  0  0
  -11.2858    4.8928    1.2825 C   0  0  0  0  0  0  0  0  0  0  0  0
  -12.0869    4.0256    0.9954 O   0  0  0  0  0  0  0  0  0  0  0  0
  -10.5490    5.4145   -1.0582 C   0  0  0  0  0  0  0  0  0  0  0  0
  -11.7886    5.1881   -1.9297 C   0  0  0  0  0  0  0  0  0  0  0  0
  -11.5987    3.9251   -2.7697 C   0  0  0  0  0  0  0  0  0  0  0  0
  -10.3853    4.0757   -3.6226 N   0  0  0  0  0  0  0  0  0  0  0  0
   -9.3677    3.2672   -3.4702 C   0  0  0  0  0  0  0  0  0  0  0  0
   -9.5027    1.9868   -3.7019 N   0  0  0  0  0  0  0  0  0  0  0  0
   -8.2114    3.7420   -3.0914 N   0  0  0  0  0  0  0  0  0  0  0  0
  2  1  1  1  0  0  0
  2  3  1  0  0  0  0
  2  5  1  0  0  0  0
  3  4  1  0  0  0  0
  5  6  1  0  0  0  0
  6  7  1  0  0  0  0
  7  8  1  0  0  0  0
  8  9  1  0  0  0  0
  9 10  1  0  0  0  0
  9 11  1  0  0  0  0
M  END
>  <CHROM.1>
-63.20196854,-174.08597689,-151.17454175,-145.18112832,-58.92155880,117.46447058
63.28364833,-17.31036253,-37.93652614,-10.46914404,4.48827824,-1.46433351
-1.90001771,-0.46837148,-2.24584337

>  <Name>
1akx_lig

>  <RI>
0

>  <Rbt.Current_Directory>
/home/afrankz/demos/rdock_decoys_rna/rnas/1akx

>  <Rbt.Executable>
rbdock ($Id: //depot/dev/client3/rdock/2013.1/src/exe/rbdock.cxx#4 $)

>  <Rbt.Library>
libRbt.so (2013.1, Build901 2013/11/27)

>  <Rbt.Parameter_File>
/export/apps/rDock/src/rDock_2013.1_src/data/scripts/dock_solv.prm

>  <Rbt.Receptor>
prm/blind_docking_80.prm

>  <SCORE>
-45.1503

>  <SCORE.INTER>
-40.3181

>  <SCORE.INTER.CONST>
1

>  <SCORE.INTER.POLAR>
-6.16615

>  <SCORE.INTER.ROT>
8

>  <SCORE.INTER.SOLV>
13.9477

>  <SCORE.INTER.VDW>
-19.9075

>  <SCORE.INTER.norm>
-3.66528

>  <SCORE.INTRA>
-4.90074

>  <SCORE.INTRA.DIHEDRAL>
-10.1132

>  <SCORE.INTRA.DIHEDRAL.0>
21.6454

>  <SCORE.INTRA.POLAR>
0

>  <SCORE.INTRA.POLAR.0>
0

>  <SCORE.INTRA.REPUL>
0

>  <SCORE.INTRA.REPUL.0>
0

>  <SCORE.INTRA.SOLV>
0.640106

>  <SCORE.INTRA.SOLV.lig_0>
-16.5947

>  <SCORE.INTRA.VDW>
-0.164186

>  <SCORE.INTRA.VDW.0>
-0.691398

>  <SCORE.INTRA.norm>
-0.445522

>  <SCORE.RESTR>
0.0685128

>  <SCORE.RESTR.CAVITY>
0.0685128

>  <SCORE.RESTR.norm>
0.00622843

>  <SCORE.SYSTEM>
0

>  <SCORE.SYSTEM.CONST>
0

>  <SCORE.SYSTEM.DIHEDRAL>
0

>  <SCORE.SYSTEM.SOLV>
0

>  <SCORE.SYSTEM.norm>
0

>  <SCORE.heavy>
11

>  <SCORE.norm>
-4.10458

>  <RMSD>
12.602

>  <RMSD>
12.602

$$$$
1akx_lig
 OpenBabel11021811383D
libRbt.so/2013.1/901 2013/11/27
 11 10  0  0  0  0  0  0  0  0999 V2000
   -9.9585    7.5475    1.3402 N   0  0  0  0  0  0  0  0  0  0  0  0
  -10.7816    6.4645    0.7255 C   0  0  2  0  0  0  0  0  0  0  0  0
  -11.2286    5.4808    1.8142 C   0  0  0  0  0  0  0  0  0  0  0  0
  -11.9907    4.5724    1.5494 O   0  0  0  0  0  0  0  0  0  0  0  0
   -9.9515    5.7235   -0.3315 C   0  0  0  0  0  0  0  0  0  0  0  0
  -10.8536    4.7707   -1.1225 C   0  0  0  0  0  0  0  0  0  0  0  0
  -10.6674    5.0160   -2.6198 C   0  0  0  0  0  0  0  0  0  0  0  0
  -10.5744    3.7075   -3.3279 N   0  0  0  0  0  0  0  0  0  0  0  0
   -9.4557    3.0288   -3.3152 C   0  0  0  0  0  0  0  0  0  0  0  0
   -8.3231    3.6298   -3.0553 N   0  0  0  0  0  0  0  0  0  0  0  0
   -9.4714    1.7453   -3.5567 N   0  0  0  0  0  0  0  0  0  0  0  0
  2  1  1  1  0  0  0
  2  3  1  0  0  0  0
  2  5  1  0  0  0  0
  3  4  1  0  0  0  0
  5  6  1  0  0  0  0
  6  7  1  0  0  0  0
  7  8  1  0  0  0  0
  8  9  1  0  0  0  0
  9 10  1  0  0  0  0
  9 11  1  0  0  0  0
M  END
>  <CHROM.1>
-51.73733098,174.67990989,-170.74966771,128.32953223,136.36512655,-78.96692639
-20.79258484,134.54058500,147.45802857,-10.27584176,4.69313432,-1.07088671
-1.90566166,-0.80040657,-2.42289527

>  <Name>
1akx_lig

>  <RI>
0

>  <Rbt.Current_Directory>
/home/itssahil/PROJECTS/Mol_Feturizer/New_Systems/rnas/1akx

>  <Rbt.Executable>
rbdock ($Id: //depot/dev/client3/rdock/2013.1/src/exe/rbdock.cxx#4 $)

>  <Rbt.Library>
libRbt.so (2013.1, Build901 2013/11/27)

>  <Rbt.Parameter_File>
/export/apps/rDock/src/rDock_2013.1_src/data/scripts/dock_solv.prm

>  <Rbt.Receptor>
prm/blind_docking_40.prm

>  <SCORE>
-38.0071

>  <SCORE.INTER>
-36.7184

>  <SCORE.INTER.CONST>
1

>  <SCORE.INTER.POLAR>
-5.57431

>  <SCORE.INTER.ROT>
8

>  <SCORE.INTER.SOLV>
13.8848

>  <SCORE.INTER.VDW>
-19.4595

>  <SCORE.INTER.norm>
-3.33804

>  <SCORE.INTRA>
-1.36054

>  <SCORE.INTRA.DIHEDRAL>
-5.83554

>  <SCORE.INTRA.DIHEDRAL.0>
21.6454

>  <SCORE.INTRA.POLAR>
0

>  <SCORE.INTRA.POLAR.0>
0

>  <SCORE.INTRA.REPUL>
0

>  <SCORE.INTRA.REPUL.0>
0

>  <SCORE.INTRA.SOLV>
0.467252

>  <SCORE.INTRA.SOLV.lig_0>
-16.5947

>  <SCORE.INTRA.VDW>
1.3236

>  <SCORE.INTRA.VDW.0>
-0.691398

>  <SCORE.INTRA.norm>
-0.123686

>  <SCORE.RESTR>
0.0718011

>  <SCORE.RESTR.CAVITY>
0.0718011

>  <SCORE.RESTR.norm>
0.00652737

>  <SCORE.SYSTEM>
0

>  <SCORE.SYSTEM.CONST>
0

>  <SCORE.SYSTEM.DIHEDRAL>
0

>  <SCORE.SYSTEM.SOLV>
0

>  <SCORE.SYSTEM.norm>
0

>  <SCORE.heavy>
11

>  <SCORE.norm>
-3.45519

>  <RMSD>
12.602

$$$$
1akx_lig
 OpenBabel11021811383D
libRbt.so/2013.1/901 2013/11/27
 11 10  0  0  0  0  0  0  0  0999 V2000
  -12.1125    1.6066   -2.4073 N   0  0  0  0  0  0  0  0  0  0  0  0
  -12.2340    2.2123   -1.0485 C   0  0  2  0  0  0  0  0  0  0  0  0
  -12.2349    1.1013    0.0091 C   0  0  0  0  0  0  0  0  0  0  0  0
  -13.0395    0.1930   -0.0513 O   0  0  0  0  0  0  0  0  0  0  0  0
  -13.5394    3.0142   -0.9569 C   0  0  0  0  0  0  0  0  0  0  0  0
  -13.6123    4.0170   -2.1129 C   0  0  0  0  0  0  0  0  0  0  0  0
  -12.3938    4.9390   -2.0671 C   0  0  0  0  0  0  0  0  0  0  0  0
  -11.3599    4.4405   -3.0183 N   0  0  0  0  0  0  0  0  0  0  0  0
  -10.1001    4.4092   -2.6659 C   0  0  0  0  0  0  0  0  0  0  0  0
   -9.7481    4.7313   -1.4478 N   0  0  0  0  0  0  0  0  0  0  0  0
   -9.1916    4.0489   -3.5325 N   0  0  0  0  0  0  0  0  0  0  0  0
  2  1  1  6  0  0  0
  2  3  1  0  0  0  0
  2  5  1  0  0  0  0
  3  4  1  0  0  0  0
  5  6  1  0  0  0  0
  6  7  1  0  0  0  0
  7  8  1  0  0  0  0
  8  9  1  0  0  0  0
  9 10  1  0  0  0  0
  9 11  1  0  0  0  0
M  END
>  <CHROM.1>
70.55101272,-55.15107784,-53.24268029,-57.72294677,97.66980289,-136.78520280
4.52112603,-99.85795409,-33.14781770,-11.74362817,3.12262461,-1.78020293
-2.18888558,0.21759191,-0.43161741

>  <Name>
1akx_lig

>  <RI>
0

>  <Rbt.Current_Directory>
/home/itssahil/PROJECTS/Mol_Feturizer/New_Systems/rnas/1akx

>  <Rbt.Executable>
rbdock ($Id: //depot/dev/client3/rdock/2013.1/src/exe/rbdock.cxx#4 $)

>  <Rbt.Library>
libRbt.so (2013.1, Build901 2013/11/27)

>  <Rbt.Parameter_File>
/export/apps/rDock/src/rDock_2013.1_src/data/scripts/dock_solv.prm

>  <Rbt.Receptor>
prm/blind_docking_80.prm

>  <SCORE>
-20.8687

>  <SCORE.INTER>
-14.9057

>  <SCORE.INTER.CONST>
1

>  <SCORE.INTER.POLAR>
-2.31129

>  <SCORE.INTER.ROT>
8

>  <SCORE.INTER.SOLV>
8.58347

>  <SCORE.INTER.VDW>
-14.0273

>  <SCORE.INTER.norm>
-1.35506

>  <SCORE.INTRA>
-5.963

>  <SCORE.INTRA.DIHEDRAL>
-12.4552

>  <SCORE.INTRA.DIHEDRAL.0>
21.6454

>  <SCORE.INTRA.POLAR>
-0.557093

>  <SCORE.INTRA.POLAR.0>
0

>  <SCORE.INTRA.REPUL>
0

>  <SCORE.INTRA.REPUL.0>
0

>  <SCORE.INTRA.SOLV>
2.18812

>  <SCORE.INTRA.SOLV.lig_0>
-16.5947

>  <SCORE.INTRA.VDW>
1.06466

>  <SCORE.INTRA.VDW.0>
-0.691398

>  <SCORE.INTRA.norm>
-0.542091

>  <SCORE.RESTR>
0

>  <SCORE.RESTR.CAVITY>
0

>  <SCORE.RESTR.norm>
0

>  <SCORE.SYSTEM>
0

>  <SCORE.SYSTEM.CONST>
0

>  <SCORE.SYSTEM.DIHEDRAL>
0

>  <SCORE.SYSTEM.SOLV>
0

>  <SCORE.SYSTEM.norm>
0

>  <SCORE.heavy>
11

>  <SCORE.norm>
-1.89715

>  <RMSD>
12.615

$$$$
1akx_lig
 OpenBabel11021811383D
libRbt.so/2013.1/901 2013/11/27
 11 10  0  0  0  0  0  0  0  0999 V2000
  -11.0856    6.4915    0.4645 N   0  0  0  0  0  0  0  0  0  0  0  0
  -11.8182    5.1990    0.3206 C   0  0  2  0  0  0  0  0  0  0  0  0
  -11.5542    4.3212    1.5504 C   0  0  0  0  0  0  0  0  0  0  0  0
  -11.9663    3.1790    1.5928 O   0  0  0  0  0  0  0  0  0  0  0  0
  -11.3396    4.4737   -0.9445 C   0  0  0  0  0  0  0  0  0  0  0  0
  -12.1513    4.9517   -2.1528 C   0  0  0  0  0  0  0  0  0  0  0  0
  -11.7453    4.1510   -3.3901 C   0  0  0  0  0  0  0  0  0  0  0  0
  -10.3070    4.4016   -3.6916 N   0  0  0  0  0  0  0  0  0  0  0  0
   -9.4093    3.4858   -3.4310 C   0  0  0  0  0  0  0  0  0  0  0  0
   -9.7374    2.2194   -3.4412 N   0  0  0  0  0  0  0  0  0  0  0  0
   -8.1798    3.8378   -3.1659 N   0  0  0  0  0  0  0  0  0  0  0  0
  2  1  1  1  0  0  0
  2  3  1  0  0  0  0
  2  5  1  0  0  0  0
  3  4  1  0  0  0  0
  5  6  1  0  0  0  0
  6  7  1  0  0  0  0
  7  8  1  0  0  0  0
  8  9  1  0  0  0  0
  9 10  1  0  0  0  0
  9 11  1  0  0  0  0
M  END
>  <CHROM.1>
-56.11608214,-173.98747165,-86.94354441,-175.71187236,-62.52357363,105.68235629
28.29085518,-140.64911494,-33.22966916,-10.80700878,4.25150335,-1.46537255
2.51493662,-1.04798049,2.17613988

>  <Name>
1akx_lig

>  <RI>
0

>  <Rbt.Current_Directory>
/home/afrankz/demos/rdock_decoys_rna/rnas/1akx

>  <Rbt.Executable>
rbdock ($Id: //depot/dev/client3/rdock/2013.1/src/exe/rbdock.cxx#4 $)

>  <Rbt.Library>
libRbt.so (2013.1, Build901 2013/11/27)

>  <Rbt.Parameter_File>
/export/apps/rDock/src/rDock_2013.1_src/data/scripts/dock_solv.prm

>  <Rbt.Receptor>
prm/blind_docking_20.prm

>  <SCORE>
-33.6241

>  <SCORE.INTER>
-27.1607

>  <SCORE.INTER.CONST>
1

>  <SCORE.INTER.POLAR>
-4.66194

>  <SCORE.INTER.ROT>
8

>  <SCORE.INTER.SOLV>
12.9837

>  <SCORE.INTER.VDW>
-15.8285

>  <SCORE.INTER.norm>
-2.46915

>  <SCORE.INTRA>
-6.6138

>  <SCORE.INTRA.DIHEDRAL>
-14.1092

>  <SCORE.INTRA.DIHEDRAL.0>
21.6454

>  <SCORE.INTRA.POLAR>
0

>  <SCORE.INTRA.POLAR.0>
0

>  <SCORE.INTRA.REPUL>
0

>  <SCORE.INTRA.REPUL.0>
0

>  <SCORE.INTRA.SOLV>
0.532428

>  <SCORE.INTRA.SOLV.lig_0>
-16.5947

>  <SCORE.INTRA.VDW>
0.174567

>  <SCORE.INTRA.VDW.0>
-0.691398

>  <SCORE.INTRA.norm>
-0.601254

>  <SCORE.RESTR>
0.150365

>  <SCORE.RESTR.CAVITY>
0.150365

>  <SCORE.RESTR.norm>
0.0136695

>  <SCORE.SYSTEM>
0

>  <SCORE.SYSTEM.CONST>
0

>  <SCORE.SYSTEM.DIHEDRAL>
0

>  <SCORE.SYSTEM.SOLV>
0

>  <SCORE.SYSTEM.norm>
0

>  <SCORE.heavy>
11

>  <SCORE.norm>
-3.05674

>  <RMSD>
12.629

>  <RMSD>
12.629

$$$$
1akx_lig
 OpenBabel11021811383D
libRbt.so/2013.1/901 2013/11/27
 11 10  0  0  0  0  0  0  0  0999 V2000
  -11.0856    6.4915    0.4645 N   0  0  0  0  0  0  0  0  0  0  0  0
  -11.8182    5.1990    0.3206 C   0  0  2  0  0  0  0  0  0  0  0  0
  -11.5542    4.3212    1.5504 C   0  0  0  0  0  0  0  0  0  0  0  0
  -11.9663    3.1790    1.5928 O   0  0  0  0  0  0  0  0  0  0  0  0
  -11.3396    4.4737   -0.9445 C   0  0  0  0  0  0  0  0  0  0  0  0
  -12.1513    4.9517   -2.1528 C   0  0  0  0  0  0  0  0  0  0  0  0
  -11.7453    4.1510   -3.3901 C   0  0  0  0  0  0  0  0  0  0  0  0
  -10.3070    4.4016   -3.6916 N   0  0  0  0  0  0  0  0  0  0  0  0
   -9.4093    3.4858   -3.4310 C   0  0  0  0  0  0  0  0  0  0  0  0
   -9.7374    2.2194   -3.4412 N   0  0  0  0  0  0  0  0  0  0  0  0
   -8.1798    3.8378   -3.1659 N   0  0  0  0  0  0  0  0  0  0  0  0
  2  1  1  1  0  0  0
  2  3  1  0  0  0  0
  2  5  1  0  0  0  0
  3  4  1  0  0  0  0
  5  6  1  0  0  0  0
  6  7  1  0  0  0  0
  7  8  1  0  0  0  0
  8  9  1  0  0  0  0
  9 10  1  0  0  0  0
  9 11  1  0  0  0  0
M  END
>  <CHROM.1>
-56.11608214,-173.98747165,-86.94354441,-175.71187236,-62.52357363,105.68235629
28.29085518,-140.64911494,-33.22966916,-10.80700878,4.25150335,-1.46537255
2.51493662,-1.04798049,2.17613988

>  <Name>
1akx_lig

>  <RI>
0

>  <Rbt.Current_Directory>
/home/afrankz/demos/rdock_decoys_rna/rnas/1akx

>  <Rbt.Executable>
rbdock ($Id: //depot/dev/client3/rdock/2013.1/src/exe/rbdock.cxx#4 $)

>  <Rbt.Library>
libRbt.so (2013.1, Build901 2013/11/27)

>  <Rbt.Parameter_File>
/export/apps/rDock/src/rDock_2013.1_src/data/scripts/dock_solv.prm

>  <Rbt.Receptor>
prm/blind_docking_20.prm

>  <SCORE>
-33.6241

>  <SCORE.INTER>
-27.1607

>  <SCORE.INTER.CONST>
1

>  <SCORE.INTER.POLAR>
-4.66194

>  <SCORE.INTER.ROT>
8

>  <SCORE.INTER.SOLV>
12.9837

>  <SCORE.INTER.VDW>
-15.8285

>  <SCORE.INTER.norm>
-2.46915

>  <SCORE.INTRA>
-6.6138

>  <SCORE.INTRA.DIHEDRAL>
-14.1092

>  <SCORE.INTRA.DIHEDRAL.0>
21.6454

>  <SCORE.INTRA.POLAR>
0

>  <SCORE.INTRA.POLAR.0>
0

>  <SCORE.INTRA.REPUL>
0

>  <SCORE.INTRA.REPUL.0>
0

>  <SCORE.INTRA.SOLV>
0.532428

>  <SCORE.INTRA.SOLV.lig_0>
-16.5947

>  <SCORE.INTRA.VDW>
0.174567

>  <SCORE.INTRA.VDW.0>
-0.691398

>  <SCORE.INTRA.norm>
-0.601254

>  <SCORE.RESTR>
0.150365

>  <SCORE.RESTR.CAVITY>
0.150365

>  <SCORE.RESTR.norm>
0.0136695

>  <SCORE.SYSTEM>
0

>  <SCORE.SYSTEM.CONST>
0

>  <SCORE.SYSTEM.DIHEDRAL>
0

>  <SCORE.SYSTEM.SOLV>
0

>  <SCORE.SYSTEM.norm>
0

>  <SCORE.heavy>
11

>  <SCORE.norm>
-3.05674

>  <RMSD>
12.629

>  <RMSD>
12.629

$$$$
1akx_lig
 OpenBabel11021811383D
libRbt.so/2013.1/901 2013/11/27
 11 10  0  0  0  0  0  0  0  0999 V2000
  -11.0998    6.5593    0.5836 N   0  0  0  0  0  0  0  0  0  0  0  0
  -12.0941    5.4489    0.6647 C   0  0  2  0  0  0  0  0  0  0  0  0
  -11.4778    4.2640    1.4190 C   0  0  0  0  0  0  0  0  0  0  0  0
  -12.0824    3.2150    1.5193 O   0  0  0  0  0  0  0  0  0  0  0  0
  -12.4924    5.0097   -0.7509 C   0  0  0  0  0  0  0  0  0  0  0  0
  -11.2394    4.8764   -1.6225 C   0  0  0  0  0  0  0  0  0  0  0  0
  -11.5714    4.0624   -2.8731 C   0  0  0  0  0  0  0  0  0  0  0  0
  -10.3708    3.9972   -3.7543 N   0  0  0  0  0  0  0  0  0  0  0  0
   -9.3728    3.2068   -3.4517 C   0  0  0  0  0  0  0  0  0  0  0  0
   -8.2183    3.7092   -3.0964 N   0  0  0  0  0  0  0  0  0  0  0  0
   -9.5324    1.9113   -3.4986 N   0  0  0  0  0  0  0  0  0  0  0  0
  2  1  1  6  0  0  0
  2  3  1  0  0  0  0
  2  5  1  0  0  0  0
  3  4  1  0  0  0  0
  5  6  1  0  0  0  0
  6  7  1  0  0  0  0
  7  8  1  0  0  0  0
  8  9  1  0  0  0  0
  9 10  1  0  0  0  0
  9 11  1  0  0  0  0
M  END
>  <CHROM.1>
166.56138213,-174.81737638,45.26518567,163.47166187,176.95080853,75.75505647
-112.00067350,149.29670481,132.74617736,-10.82765961,4.20433033,-1.34615313
-3.13507765,-1.10518026,2.75893609

>  <Name>
1akx_lig

>  <RI>
0

>  <Rbt.Current_Directory>
/home/afrankz/demos/rdock_decoys_rna/rnas/1akx

>  <Rbt.Executable>
rbdock ($Id: //depot/dev/client3/rdock/2013.1/src/exe/rbdock.cxx#4 $)

>  <Rbt.Library>
libRbt.so (2013.1, Build901 2013/11/27)

>  <Rbt.Parameter_File>
/export/apps/rDock/src/rDock_2013.1_src/data/scripts/dock_solv.prm

>  <Rbt.Receptor>
prm/blind_docking_20.prm

>  <SCORE>
-36.8279

>  <SCORE.INTER>
-31.6942

>  <SCORE.INTER.CONST>
1

>  <SCORE.INTER.POLAR>
-5.42994

>  <SCORE.INTER.ROT>
8

>  <SCORE.INTER.SOLV>
12.9414

>  <SCORE.INTER.VDW>
-16.2768

>  <SCORE.INTER.norm>
-2.88129

>  <SCORE.INTRA>
-5.64631

>  <SCORE.INTRA.DIHEDRAL>
-14.3708

>  <SCORE.INTRA.DIHEDRAL.0>
21.6454

>  <SCORE.INTRA.POLAR>
0

>  <SCORE.INTRA.POLAR.0>
0

>  <SCORE.INTRA.REPUL>
0

>  <SCORE.INTRA.REPUL.0>
0

>  <SCORE.INTRA.SOLV>
0.340761

>  <SCORE.INTRA.SOLV.lig_0>
-16.5947

>  <SCORE.INTRA.VDW>
1.36869

>  <SCORE.INTRA.VDW.0>
-0.691398

>  <SCORE.INTRA.norm>
-0.513301

>  <SCORE.RESTR>
0.512552

>  <SCORE.RESTR.CAVITY>
0.512552

>  <SCORE.RESTR.norm>
0.0465957

>  <SCORE.SYSTEM>
0

>  <SCORE.SYSTEM.CONST>
0

>  <SCORE.SYSTEM.DIHEDRAL>
0

>  <SCORE.SYSTEM.SOLV>
0

>  <SCORE.SYSTEM.norm>
0

>  <SCORE.heavy>
11

>  <SCORE.norm>
-3.34799

>  <RMSD>
12.636

>  <RMSD>
12.636

$$$$
1akx_lig
 OpenBabel11021811383D
libRbt.so/2013.1/901 2013/11/27
 11 10  0  0  0  0  0  0  0  0999 V2000
  -11.0998    6.5593    0.5836 N   0  0  0  0  0  0  0  0  0  0  0  0
  -12.0941    5.4489    0.6647 C   0  0  2  0  0  0  0  0  0  0  0  0
  -11.4778    4.2640    1.4190 C   0  0  0  0  0  0  0  0  0  0  0  0
  -12.0824    3.2150    1.5193 O   0  0  0  0  0  0  0  0  0  0  0  0
  -12.4924    5.0097   -0.7509 C   0  0  0  0  0  0  0  0  0  0  0  0
  -11.2394    4.8764   -1.6225 C   0  0  0  0  0  0  0  0  0  0  0  0
  -11.5714    4.0624   -2.8731 C   0  0  0  0  0  0  0  0  0  0  0  0
  -10.3708    3.9972   -3.7543 N   0  0  0  0  0  0  0  0  0  0  0  0
   -9.3728    3.2068   -3.4517 C   0  0  0  0  0  0  0  0  0  0  0  0
   -8.2183    3.7092   -3.0964 N   0  0  0  0  0  0  0  0  0  0  0  0
   -9.5324    1.9113   -3.4986 N   0  0  0  0  0  0  0  0  0  0  0  0
  2  1  1  6  0  0  0
  2  3  1  0  0  0  0
  2  5  1  0  0  0  0
  3  4  1  0  0  0  0
  5  6  1  0  0  0  0
  6  7  1  0  0  0  0
  7  8  1  0  0  0  0
  8  9  1  0  0  0  0
  9 10  1  0  0  0  0
  9 11  1  0  0  0  0
M  END
>  <CHROM.1>
166.56138213,-174.81737638,45.26518567,163.47166187,176.95080853,75.75505647
-112.00067350,149.29670481,132.74617736,-10.82765961,4.20433033,-1.34615313
-3.13507765,-1.10518026,2.75893609

>  <Name>
1akx_lig

>  <RI>
0

>  <Rbt.Current_Directory>
/home/afrankz/demos/rdock_decoys_rna/rnas/1akx

>  <Rbt.Executable>
rbdock ($Id: //depot/dev/client3/rdock/2013.1/src/exe/rbdock.cxx#4 $)

>  <Rbt.Library>
libRbt.so (2013.1, Build901 2013/11/27)

>  <Rbt.Parameter_File>
/export/apps/rDock/src/rDock_2013.1_src/data/scripts/dock_solv.prm

>  <Rbt.Receptor>
prm/blind_docking_20.prm

>  <SCORE>
-36.8279

>  <SCORE.INTER>
-31.6942

>  <SCORE.INTER.CONST>
1

>  <SCORE.INTER.POLAR>
-5.42994

>  <SCORE.INTER.ROT>
8

>  <SCORE.INTER.SOLV>
12.9414

>  <SCORE.INTER.VDW>
-16.2768

>  <SCORE.INTER.norm>
-2.88129

>  <SCORE.INTRA>
-5.64631

>  <SCORE.INTRA.DIHEDRAL>
-14.3708

>  <SCORE.INTRA.DIHEDRAL.0>
21.6454

>  <SCORE.INTRA.POLAR>
0

>  <SCORE.INTRA.POLAR.0>
0

>  <SCORE.INTRA.REPUL>
0

>  <SCORE.INTRA.REPUL.0>
0

>  <SCORE.INTRA.SOLV>
0.340761

>  <SCORE.INTRA.SOLV.lig_0>
-16.5947

>  <SCORE.INTRA.VDW>
1.36869

>  <SCORE.INTRA.VDW.0>
-0.691398

>  <SCORE.INTRA.norm>
-0.513301

>  <SCORE.RESTR>
0.512552

>  <SCORE.RESTR.CAVITY>
0.512552

>  <SCORE.RESTR.norm>
0.0465957

>  <SCORE.SYSTEM>
0

>  <SCORE.SYSTEM.CONST>
0

>  <SCORE.SYSTEM.DIHEDRAL>
0

>  <SCORE.SYSTEM.SOLV>
0

>  <SCORE.SYSTEM.norm>
0

>  <SCORE.heavy>
11

>  <SCORE.norm>
-3.34799

>  <RMSD>
12.636

>  <RMSD>
12.636

$$$$
1akx_lig
 OpenBabel11021811383D
libRbt.so/2013.1/901 2013/11/27
 11 10  0  0  0  0  0  0  0  0999 V2000
   -9.8324    6.7767    0.6394 N   0  0  0  0  0  0  0  0  0  0  0  0
  -10.9843    6.0256    0.0588 C   0  0  2  0  0  0  0  0  0  0  0  0
  -11.4138    4.9174    1.0283 C   0  0  0  0  0  0  0  0  0  0  0  0
  -12.2293    4.0831    0.6891 O   0  0  0  0  0  0  0  0  0  0  0  0
  -10.5716    5.4067   -1.2836 C   0  0  0  0  0  0  0  0  0  0  0  0
  -11.8061    5.2337   -2.1744 C   0  0  0  0  0  0  0  0  0  0  0  0
  -11.7423    3.8782   -2.8782 C   0  0  0  0  0  0  0  0  0  0  0  0
  -10.4991    3.8040   -3.6975 N   0  0  0  0  0  0  0  0  0  0  0  0
   -9.5858    2.9057   -3.4303 C   0  0  0  0  0  0  0  0  0  0  0  0
   -8.4816    3.2500   -2.8191 N   0  0  0  0  0  0  0  0  0  0  0  0
   -9.7809    1.6596   -3.7697 N   0  0  0  0  0  0  0  0  0  0  0  0
  2  1  1  1  0  0  0
  2  3  1  0  0  0  0
  2  5  1  0  0  0  0
  3  4  1  0  0  0  0
  5  6  1  0  0  0  0
  6  7  1  0  0  0  0
  7  8  1  0  0  0  0
  8  9  1  0  0  0  0
  9 10  1  0  0  0  0
  9 11  1  0  0  0  0
M  END
>  <CHROM.1>
-178.17682259,-171.22395476,-153.20468831,-137.94681991,-59.00828038,117.52330264
-103.97552434,151.24385006,-42.40009326,-10.59091474,4.35099929,-1.58813983
-1.82873518,-0.31680196,-2.27874815

>  <Name>
1akx_lig

>  <RI>
0

>  <Rbt.Current_Directory>
/home/itssahil/PROJECTS/Mol_Feturizer/New_Systems/rnas/1akx

>  <Rbt.Executable>
rbdock ($Id: //depot/dev/client3/rdock/2013.1/src/exe/rbdock.cxx#4 $)

>  <Rbt.Library>
libRbt.so (2013.1, Build901 2013/11/27)

>  <Rbt.Parameter_File>
/export/apps/rDock/src/rDock_2013.1_src/data/scripts/dock_solv.prm

>  <Rbt.Receptor>
prm/blind_docking_20.prm

>  <SCORE>
-39.559

>  <SCORE.INTER>
-36.2134

>  <SCORE.INTER.CONST>
1

>  <SCORE.INTER.POLAR>
-5.21582

>  <SCORE.INTER.ROT>
8

>  <SCORE.INTER.SOLV>
13.5698

>  <SCORE.INTER.VDW>
-20.2128

>  <SCORE.INTER.norm>
-3.29213

>  <SCORE.INTRA>
-4.55896

>  <SCORE.INTRA.DIHEDRAL>
-9.25002

>  <SCORE.INTRA.DIHEDRAL.0>
21.6454

>  <SCORE.INTRA.POLAR>
0

>  <SCORE.INTRA.POLAR.0>
0

>  <SCORE.INTRA.REPUL>
0

>  <SCORE.INTRA.REPUL.0>
0

>  <SCORE.INTRA.SOLV>
0.68371

>  <SCORE.INTRA.SOLV.lig_0>
-16.5947

>  <SCORE.INTRA.VDW>
-0.275806

>  <SCORE.INTRA.VDW.0>
-0.691398

>  <SCORE.INTRA.norm>
-0.414451

>  <SCORE.RESTR>
1.21338

>  <SCORE.RESTR.CAVITY>
1.21338

>  <SCORE.RESTR.norm>
0.110308

>  <SCORE.SYSTEM>
0

>  <SCORE.SYSTEM.CONST>
0

>  <SCORE.SYSTEM.DIHEDRAL>
0

>  <SCORE.SYSTEM.SOLV>
0

>  <SCORE.SYSTEM.norm>
0

>  <SCORE.heavy>
11

>  <SCORE.norm>
-3.59627

>  <RMSD>
12.637

$$$$
1akx_lig
 OpenBabel11021811383D
libRbt.so/2013.1/901 2013/11/27
 11 10  0  0  0  0  0  0  0  0999 V2000
  -12.0001    1.4969    0.9244 N   0  0  0  0  0  0  0  0  0  0  0  0
  -12.3661    2.9145    0.6338 C   0  0  2  0  0  0  0  0  0  0  0  0
  -12.6905    3.6388    1.9464 C   0  0  0  0  0  0  0  0  0  0  0  0
  -13.0386    4.8028    1.9388 O   0  0  0  0  0  0  0  0  0  0  0  0
  -13.5890    2.9513   -0.2927 C   0  0  0  0  0  0  0  0  0  0  0  0
  -13.1969    2.4499   -1.6864 C   0  0  0  0  0  0  0  0  0  0  0  0
  -12.4069    3.5361   -2.4165 C   0  0  0  0  0  0  0  0  0  0  0  0
  -10.9634    3.4205   -2.0627 N   0  0  0  0  0  0  0  0  0  0  0  0
  -10.0427    3.7211   -2.9427 C   0  0  0  0  0  0  0  0  0  0  0  0
  -10.2425    4.6870   -3.8020 N   0  0  0  0  0  0  0  0  0  0  0  0
   -8.9175    3.0578   -2.9584 N   0  0  0  0  0  0  0  0  0  0  0  0
  2  1  1  1  0  0  0
  2  3  1  0  0  0  0
  2  5  1  0  0  0  0
  3  4  1  0  0  0  0
  5  6  1  0  0  0  0
  6  7  1  0  0  0  0
  7  8  1  0  0  0  0
  8  9  1  0  0  0  0
  9 10  1  0  0  0  0
  9 11  1  0  0  0  0
M  END
>  <CHROM.1>
41.26859161,-178.64210701,-69.55383409,-75.70012610,86.54230449,146.65741120
34.49378876,79.29779052,-157.34286153,-11.72890467,3.32546680,-0.96467302
-2.51636460,0.85705699,-0.65956075

>  <Name>
1akx_lig

>  <RI>
0

>  <Rbt.Current_Directory>
/home/itssahil/PROJECTS/Mol_Feturizer/New_Systems/rnas/1akx

>  <Rbt.Executable>
rbdock ($Id: //depot/dev/client3/rdock/2013.1/src/exe/rbdock.cxx#4 $)

>  <Rbt.Library>
libRbt.so (2013.1, Build901 2013/11/27)

>  <Rbt.Parameter_File>
/export/apps/rDock/src/rDock_2013.1_src/data/scripts/dock_solv.prm

>  <Rbt.Receptor>
prm/blind_docking_40.prm

>  <SCORE>
-22.8322

>  <SCORE.INTER>
-17.8741

>  <SCORE.INTER.CONST>
1

>  <SCORE.INTER.POLAR>
-3.61327

>  <SCORE.INTER.ROT>
8

>  <SCORE.INTER.SOLV>
10.0453

>  <SCORE.INTER.VDW>
-12.1536

>  <SCORE.INTER.norm>
-1.62492

>  <SCORE.INTRA>
-4.95813

>  <SCORE.INTRA.DIHEDRAL>
-12.4406

>  <SCORE.INTRA.DIHEDRAL.0>
21.6454

>  <SCORE.INTRA.POLAR>
0

>  <SCORE.INTRA.POLAR.0>
0

>  <SCORE.INTRA.REPUL>
0

>  <SCORE.INTRA.REPUL.0>
0

>  <SCORE.INTRA.SOLV>
0.784039

>  <SCORE.INTRA.SOLV.lig_0>
-16.5947

>  <SCORE.INTRA.VDW>
0.870134

>  <SCORE.INTRA.VDW.0>
-0.691398

>  <SCORE.INTRA.norm>
-0.450739

>  <SCORE.RESTR>
0

>  <SCORE.RESTR.CAVITY>
0

>  <SCORE.RESTR.norm>
0

>  <SCORE.SYSTEM>
0

>  <SCORE.SYSTEM.CONST>
0

>  <SCORE.SYSTEM.DIHEDRAL>
0

>  <SCORE.SYSTEM.SOLV>
0

>  <SCORE.SYSTEM.norm>
0

>  <SCORE.heavy>
11

>  <SCORE.norm>
-2.07566

>  <RMSD>
12.642

$$$$
1akx_lig
 OpenBabel11021811383D
libRbt.so/2013.1/901 2013/11/27
 11 10  0  0  0  0  0  0  0  0999 V2000
   -9.3985    6.6844   -0.2005 N   0  0  0  0  0  0  0  0  0  0  0  0
  -10.8007    6.1726   -0.2023 C   0  0  2  0  0  0  0  0  0  0  0  0
  -11.2778    5.9814    1.2429 C   0  0  0  0  0  0  0  0  0  0  0  0
  -10.5481    5.4736    2.0711 O   0  0  0  0  0  0  0  0  0  0  0  0
  -10.8589    4.8321   -0.9475 C   0  0  0  0  0  0  0  0  0  0  0  0
  -11.9228    4.8982   -2.0480 C   0  0  0  0  0  0  0  0  0  0  0  0
  -11.7230    3.7371   -3.0220 C   0  0  0  0  0  0  0  0  0  0  0  0
  -10.4290    3.9116   -3.7413 N   0  0  0  0  0  0  0  0  0  0  0  0
   -9.3916    3.1820   -3.4186 C   0  0  0  0  0  0  0  0  0  0  0  0
   -8.2673    3.7526   -3.0701 N   0  0  0  0  0  0  0  0  0  0  0  0
   -9.4818    1.8791   -3.4388 N   0  0  0  0  0  0  0  0  0  0  0  0
  2  1  1  1  0  0  0
  2  3  1  0  0  0  0
  2  5  1  0  0  0  0
  3  4  1  0  0  0  0
  5  6  1  0  0  0  0
  6  7  1  0  0  0  0
  7  8  1  0  0  0  0
  8  9  1  0  0  0  0
  9 10  1  0  0  0  0
  9 11  1  0  0  0  0
M  END
>  <CHROM.1>
32.02077565,-43.30258156,-126.31321749,164.51853583,-65.96309308,104.40340974
-123.76698615,-25.40204587,-48.85267044,-10.31226152,4.59480795,-1.51218702
-1.74125305,0.04979675,-2.15003767

>  <Name>
1akx_lig

>  <RI>
0

>  <Rbt.Current_Directory>
/home/itssahil/PROJECTS/Mol_Feturizer/New_Systems/rnas/1akx

>  <Rbt.Executable>
rbdock ($Id: //depot/dev/client3/rdock/2013.1/src/exe/rbdock.cxx#4 $)

>  <Rbt.Library>
libRbt.so (2013.1, Build901 2013/11/27)

>  <Rbt.Parameter_File>
/export/apps/rDock/src/rDock_2013.1_src/data/scripts/dock_solv.prm

>  <Rbt.Receptor>
prm/blind_docking_20.prm

>  <SCORE>
-44.1326

>  <SCORE.INTER>
-41.4646

>  <SCORE.INTER.CONST>
1

>  <SCORE.INTER.POLAR>
-7.1171

>  <SCORE.INTER.ROT>
8

>  <SCORE.INTER.SOLV>
14.9821

>  <SCORE.INTER.VDW>
-17.8468

>  <SCORE.INTER.norm>
-3.76951

>  <SCORE.INTRA>
-3.35162

>  <SCORE.INTRA.DIHEDRAL>
-7.48598

>  <SCORE.INTRA.DIHEDRAL.0>
21.6454

>  <SCORE.INTRA.POLAR>
0

>  <SCORE.INTRA.POLAR.0>
0

>  <SCORE.INTRA.REPUL>
0

>  <SCORE.INTRA.REPUL.0>
0

>  <SCORE.INTRA.SOLV>
0.946886

>  <SCORE.INTRA.SOLV.lig_0>
-16.5947

>  <SCORE.INTRA.VDW>
-0.0820761

>  <SCORE.INTRA.VDW.0>
-0.691398

>  <SCORE.INTRA.norm>
-0.304693

>  <SCORE.RESTR>
0.68368

>  <SCORE.RESTR.CAVITY>
0.68368

>  <SCORE.RESTR.norm>
0.0621527

>  <SCORE.SYSTEM>
0

>  <SCORE.SYSTEM.CONST>
0

>  <SCORE.SYSTEM.DIHEDRAL>
0

>  <SCORE.SYSTEM.SOLV>
0

>  <SCORE.SYSTEM.norm>
0

>  <SCORE.heavy>
11

>  <SCORE.norm>
-4.01205

>  <RMSD>
12.649

$$$$
1akx_lig
 OpenBabel11021811383D
libRbt.so/2013.1/901 2013/11/27
 11 10  0  0  0  0  0  0  0  0999 V2000
  -10.0798    7.6012    1.2545 N   0  0  0  0  0  0  0  0  0  0  0  0
  -10.9079    6.5969    0.5239 C   0  0  2  0  0  0  0  0  0  0  0  0
  -11.5226    5.6130    1.5273 C   0  0  0  0  0  0  0  0  0  0  0  0
  -10.8552    5.1625    2.4372 O   0  0  0  0  0  0  0  0  0  0  0  0
  -10.0287    5.8337   -0.4760 C   0  0  0  0  0  0  0  0  0  0  0  0
  -10.9145    5.0580   -1.4563 C   0  0  0  0  0  0  0  0  0  0  0  0
  -10.0639    4.5474   -2.6193 C   0  0  0  0  0  0  0  0  0  0  0  0
  -10.8070    3.4769   -3.3433 N   0  0  0  0  0  0  0  0  0  0  0  0
  -10.3536    2.2494   -3.3514 C   0  0  0  0  0  0  0  0  0  0  0  0
  -11.1670    1.2450   -3.1489 N   0  0  0  0  0  0  0  0  0  0  0  0
   -9.0852    2.0265   -3.5689 N   0  0  0  0  0  0  0  0  0  0  0  0
  2  1  1  1  0  0  0
  2  3  1  0  0  0  0
  2  5  1  0  0  0  0
  3  4  1  0  0  0  0
  5  6  1  0  0  0  0
  6  7  1  0  0  0  0
  7  8  1  0  0  0  0
  8  9  1  0  0  0  0
  9 10  1  0  0  0  0
  9 11  1  0  0  0  0
M  END
>  <CHROM.1>
71.61067544,-43.29395124,-166.24047933,167.98883695,163.30124205,-114.93956568
135.50319834,-26.02135385,-144.61164453,-10.51168378,4.48189295,-1.08909944
-1.71794576,-1.14230236,-2.42594204

>  <Name>
1akx_lig

>  <RI>
0

>  <Rbt.Current_Directory>
/home/itssahil/PROJECTS/Mol_Feturizer/New_Systems/rnas/1akx

>  <Rbt.Executable>
rbdock ($Id: //depot/dev/client3/rdock/2013.1/src/exe/rbdock.cxx#4 $)

>  <Rbt.Library>
libRbt.so (2013.1, Build901 2013/11/27)

>  <Rbt.Parameter_File>
/export/apps/rDock/src/rDock_2013.1_src/data/scripts/dock_solv.prm

>  <Rbt.Receptor>
prm/blind_docking_40.prm

>  <SCORE>
-39.1517

>  <SCORE.INTER>
-33.3945

>  <SCORE.INTER.CONST>
1

>  <SCORE.INTER.POLAR>
-4.54699

>  <SCORE.INTER.ROT>
8

>  <SCORE.INTER.SOLV>
12.7905

>  <SCORE.INTER.VDW>
-20.3032

>  <SCORE.INTER.norm>
-3.03586

>  <SCORE.INTRA>
-5.75719

>  <SCORE.INTRA.DIHEDRAL>
-13.2791

>  <SCORE.INTRA.DIHEDRAL.0>
21.6454

>  <SCORE.INTRA.POLAR>
0

>  <SCORE.INTRA.POLAR.0>
0

>  <SCORE.INTRA.REPUL>
0

>  <SCORE.INTRA.REPUL.0>
0

>  <SCORE.INTRA.SOLV>
0.372895

>  <SCORE.INTRA.SOLV.lig_0>
-16.5947

>  <SCORE.INTRA.VDW>
0.695898

>  <SCORE.INTRA.VDW.0>
-0.691398

>  <SCORE.INTRA.norm>
-0.523381

>  <SCORE.RESTR>
0

>  <SCORE.RESTR.CAVITY>
0

>  <SCORE.RESTR.norm>
0

>  <SCORE.SYSTEM>
0

>  <SCORE.SYSTEM.CONST>
0

>  <SCORE.SYSTEM.DIHEDRAL>
0

>  <SCORE.SYSTEM.SOLV>
0

>  <SCORE.SYSTEM.norm>
0

>  <SCORE.heavy>
11

>  <SCORE.norm>
-3.55925

>  <RMSD>
12.655

$$$$
1akx_lig
 OpenBabel11021811383D
libRbt.so/2013.1/901 2013/11/27
 11 10  0  0  0  0  0  0  0  0999 V2000
   -9.9777    7.3970    1.1890 N   0  0  0  0  0  0  0  0  0  0  0  0
  -10.9077    6.3613    0.6500 C   0  0  2  0  0  0  0  0  0  0  0  0
  -10.9913    5.1869    1.6330 C   0  0  0  0  0  0  0  0  0  0  0  0
  -11.6886    4.2234    1.3849 O   0  0  0  0  0  0  0  0  0  0  0  0
  -10.3934    5.8635   -0.7076 C   0  0  0  0  0  0  0  0  0  0  0  0
  -11.4552    4.9799   -1.3703 C   0  0  0  0  0  0  0  0  0  0  0  0
  -11.2051    4.9238   -2.8774 C   0  0  0  0  0  0  0  0  0  0  0  0
   -9.7556    4.6838   -3.1299 N   0  0  0  0  0  0  0  0  0  0  0  0
   -9.2686    3.4705   -3.0743 C   0  0  0  0  0  0  0  0  0  0  0  0
   -8.2266    3.2121   -2.3267 N   0  0  0  0  0  0  0  0  0  0  0  0
   -9.8295    2.5129   -3.7631 N   0  0  0  0  0  0  0  0  0  0  0  0
  2  1  1  1  0  0  0
  2  3  1  0  0  0  0
  2  5  1  0  0  0  0
  3  4  1  0  0  0  0
  5  6  1  0  0  0  0
  6  7  1  0  0  0  0
  7  8  1  0  0  0  0
  8  9  1  0  0  0  0
  9 10  1  0  0  0  0
  9 11  1  0  0  0  0
M  END
>  <CHROM.1>
-65.18129132,-179.43217957,-170.62159422,158.59404054,45.90365419,81.93688864
-127.63522404,-26.03997574,34.08025732,-10.30343016,4.79593587,-1.11020469
-2.12079673,-1.07458999,-2.60918930

>  <Name>
1akx_lig

>  <RI>
0

>  <Rbt.Current_Directory>
/home/itssahil/PROJECTS/Mol_Feturizer/New_Systems/rnas/1akx

>  <Rbt.Executable>
rbdock ($Id: //depot/dev/client3/rdock/2013.1/src/exe/rbdock.cxx#4 $)

>  <Rbt.Library>
libRbt.so (2013.1, Build901 2013/11/27)

>  <Rbt.Parameter_File>
/export/apps/rDock/src/rDock_2013.1_src/data/scripts/dock_solv.prm

>  <Rbt.Receptor>
prm/blind_docking_20.prm

>  <SCORE>
-37.4329

>  <SCORE.INTER>
-33.6926

>  <SCORE.INTER.CONST>
1

>  <SCORE.INTER.POLAR>
-5.067

>  <SCORE.INTER.ROT>
8

>  <SCORE.INTER.SOLV>
14.1689

>  <SCORE.INTER.VDW>
-19.228

>  <SCORE.INTER.norm>
-3.06296

>  <SCORE.INTRA>
-5.22184

>  <SCORE.INTRA.DIHEDRAL>
-13.9808

>  <SCORE.INTRA.DIHEDRAL.0>
21.6454

>  <SCORE.INTRA.POLAR>
0

>  <SCORE.INTRA.POLAR.0>
0

>  <SCORE.INTRA.REPUL>
0

>  <SCORE.INTRA.REPUL.0>
0

>  <SCORE.INTRA.SOLV>
0.6892

>  <SCORE.INTRA.SOLV.lig_0>
-16.5947

>  <SCORE.INTRA.VDW>
1.42395

>  <SCORE.INTRA.VDW.0>
-0.691398

>  <SCORE.INTRA.norm>
-0.474713

>  <SCORE.RESTR>
1.48158

>  <SCORE.RESTR.CAVITY>
1.48158

>  <SCORE.RESTR.norm>
0.134689

>  <SCORE.SYSTEM>
0

>  <SCORE.SYSTEM.CONST>
0

>  <SCORE.SYSTEM.DIHEDRAL>
0

>  <SCORE.SYSTEM.SOLV>
0

>  <SCORE.SYSTEM.norm>
0

>  <SCORE.heavy>
11

>  <SCORE.norm>
-3.40299

>  <RMSD>
12.664

$$$$
1akx_lig
 OpenBabel11021811383D
libRbt.so/2013.1/901 2013/11/27
 11 10  0  0  0  0  0  0  0  0999 V2000
  -10.0004    7.4181    1.2413 N   0  0  0  0  0  0  0  0  0  0  0  0
  -10.9500    6.4593    0.6034 C   0  0  2  0  0  0  0  0  0  0  0  0
  -11.2689    5.3249    1.5853 C   0  0  0  0  0  0  0  0  0  0  0  0
  -10.5790    5.1493    2.5699 O   0  0  0  0  0  0  0  0  0  0  0  0
  -10.3187    5.8790   -0.6695 C   0  0  0  0  0  0  0  0  0  0  0  0
  -11.4198    5.4879   -1.6605 C   0  0  0  0  0  0  0  0  0  0  0  0
  -11.3246    3.9931   -1.9661 C   0  0  0  0  0  0  0  0  0  0  0  0
  -10.6238    3.7976   -3.2673 N   0  0  0  0  0  0  0  0  0  0  0  0
   -9.4973    3.1337   -3.3163 C   0  0  0  0  0  0  0  0  0  0  0  0
   -9.4729    1.9100   -3.7783 N   0  0  0  0  0  0  0  0  0  0  0  0
   -8.3922    3.6978   -2.9082 N   0  0  0  0  0  0  0  0  0  0  0  0
  2  1  1  1  0  0  0
  2  3  1  0  0  0  0
  2  5  1  0  0  0  0
  3  4  1  0  0  0  0
  5  6  1  0  0  0  0
  6  7  1  0  0  0  0
  7  8  1  0  0  0  0
  8  9  1  0  0  0  0
  9 10  1  0  0  0  0
  9 11  1  0  0  0  0
M  END
>  <CHROM.1>
61.13104597,-15.10186417,-152.19071600,-120.35306507,-99.66911493,118.59121567
104.41339815,175.39186230,138.03681288,-10.30734407,4.75340895,-1.03371494
2.03383120,-1.17925820,1.41901967

>  <Name>
1akx_lig

>  <RI>
0

>  <Rbt.Current_Directory>
/home/itssahil/PROJECTS/Mol_Feturizer/New_Systems/rnas/1akx

>  <Rbt.Executable>
rbdock ($Id: //depot/dev/client3/rdock/2013.1/src/exe/rbdock.cxx#4 $)

>  <Rbt.Library>
libRbt.so (2013.1, Build901 2013/11/27)

>  <Rbt.Parameter_File>
/export/apps/rDock/src/rDock_2013.1_src/data/scripts/dock_solv.prm

>  <Rbt.Receptor>
prm/blind_docking_80.prm

>  <SCORE>
-36.6992

>  <SCORE.INTER>
-37.9727

>  <SCORE.INTER.CONST>
1

>  <SCORE.INTER.POLAR>
-6.27358

>  <SCORE.INTER.ROT>
8

>  <SCORE.INTER.SOLV>
14.4958

>  <SCORE.INTER.VDW>
-18.1685

>  <SCORE.INTER.norm>
-3.45206

>  <SCORE.INTRA>
-0.124425

>  <SCORE.INTRA.DIHEDRAL>
0.475337

>  <SCORE.INTRA.DIHEDRAL.0>
21.6454

>  <SCORE.INTRA.POLAR>
0

>  <SCORE.INTRA.POLAR.0>
0

>  <SCORE.INTRA.REPUL>
0

>  <SCORE.INTRA.REPUL.0>
0

>  <SCORE.INTRA.SOLV>
0.601827

>  <SCORE.INTRA.SOLV.lig_0>
-16.5947

>  <SCORE.INTRA.VDW>
-0.663007

>  <SCORE.INTRA.VDW.0>
-0.691398

>  <SCORE.INTRA.norm>
-0.0113113

>  <SCORE.RESTR>
1.39787

>  <SCORE.RESTR.CAVITY>
1.39787

>  <SCORE.RESTR.norm>
0.127079

>  <SCORE.SYSTEM>
0

>  <SCORE.SYSTEM.CONST>
0

>  <SCORE.SYSTEM.DIHEDRAL>
0

>  <SCORE.SYSTEM.SOLV>
0

>  <SCORE.SYSTEM.norm>
0

>  <SCORE.heavy>
11

>  <SCORE.norm>
-3.33629

>  <RMSD>
12.665

$$$$
1akx_lig
 OpenBabel11021811383D
libRbt.so/2013.1/901 2013/11/27
 11 10  0  0  0  0  0  0  0  0999 V2000
   -9.6773    6.4699   -0.0438 N   0  0  0  0  0  0  0  0  0  0  0  0
  -11.0830    6.0442    0.2226 C   0  0  2  0  0  0  0  0  0  0  0  0
  -11.4124    6.2646    1.7044 C   0  0  0  0  0  0  0  0  0  0  0  0
  -10.7797    5.6912    2.5687 O   0  0  0  0  0  0  0  0  0  0  0  0
  -11.2468    4.5591   -0.1281 C   0  0  0  0  0  0  0  0  0  0  0  0
  -11.8302    4.4223   -1.5381 C   0  0  0  0  0  0  0  0  0  0  0  0
  -10.8485    5.0032   -2.5558 C   0  0  0  0  0  0  0  0  0  0  0  0
  -10.4905    3.9543   -3.5528 N   0  0  0  0  0  0  0  0  0  0  0  0
   -9.4400    3.1970   -3.3648 C   0  0  0  0  0  0  0  0  0  0  0  0
   -9.5326    1.8983   -3.4917 N   0  0  0  0  0  0  0  0  0  0  0  0
   -8.2935    3.7411   -3.0556 N   0  0  0  0  0  0  0  0  0  0  0  0
  2  1  1  1  0  0  0
  2  3  1  0  0  0  0
  2  5  1  0  0  0  0
  3  4  1  0  0  0  0
  5  6  1  0  0  0  0
  6  7  1  0  0  0  0
  7  8  1  0  0  0  0
  8  9  1  0  0  0  0
  9 10  1  0  0  0  0
  9 11  1  0  0  0  0
M  END
>  <CHROM.1>
-79.00589343,-60.63552669,-96.90108703,63.42415354,122.36920525,-92.29801432
131.30718349,138.73375793,146.79905318,-10.36947615,4.65316232,-1.20180509
-1.81318090,-0.10726377,-2.13304520

>  <Name>
1akx_lig

>  <RI>
0

>  <Rbt.Current_Directory>
/home/itssahil/PROJECTS/Mol_Feturizer/New_Systems/rnas/1akx

>  <Rbt.Executable>
rbdock ($Id: //depot/dev/client3/rdock/2013.1/src/exe/rbdock.cxx#4 $)

>  <Rbt.Library>
libRbt.so (2013.1, Build901 2013/11/27)

>  <Rbt.Parameter_File>
/export/apps/rDock/src/rDock_2013.1_src/data/scripts/dock_solv.prm

>  <Rbt.Receptor>
prm/blind_docking_100.prm

>  <SCORE>
-38.7117

>  <SCORE.INTER>
-36.8585

>  <SCORE.INTER.CONST>
1

>  <SCORE.INTER.POLAR>
-5.83488

>  <SCORE.INTER.ROT>
8

>  <SCORE.INTER.SOLV>
14.0359

>  <SCORE.INTER.VDW>
-18.7347

>  <SCORE.INTER.norm>
-3.35077

>  <SCORE.INTRA>
-1.87118

>  <SCORE.INTRA.DIHEDRAL>
-6.48728

>  <SCORE.INTRA.DIHEDRAL.0>
21.6454

>  <SCORE.INTRA.POLAR>
0

>  <SCORE.INTRA.POLAR.0>
0

>  <SCORE.INTRA.REPUL>
0

>  <SCORE.INTRA.REPUL.0>
0

>  <SCORE.INTRA.SOLV>
0.868869

>  <SCORE.INTRA.SOLV.lig_0>
-16.5947

>  <SCORE.INTRA.VDW>
0.938023

>  <SCORE.INTRA.VDW.0>
-0.691398

>  <SCORE.INTRA.norm>
-0.170107

>  <SCORE.RESTR>
0.0180014

>  <SCORE.RESTR.CAVITY>
0.0180014

>  <SCORE.RESTR.norm>
0.00163649

>  <SCORE.SYSTEM>
0

>  <SCORE.SYSTEM.CONST>
0

>  <SCORE.SYSTEM.DIHEDRAL>
0

>  <SCORE.SYSTEM.SOLV>
0

>  <SCORE.SYSTEM.norm>
0

>  <SCORE.heavy>
11

>  <SCORE.norm>
-3.51924

>  <RMSD>
12.681

$$$$
1akx_lig
 OpenBabel11021811383D
libRbt.so/2013.1/901 2013/11/27
 11 10  0  0  0  0  0  0  0  0999 V2000
   -9.9545    7.3731    1.1135 N   0  0  0  0  0  0  0  0  0  0  0  0
  -10.9658    6.4307    0.5500 C   0  0  2  0  0  0  0  0  0  0  0  0
  -11.3211    5.3723    1.6018 C   0  0  0  0  0  0  0  0  0  0  0  0
  -12.1208    4.4938    1.3470 O   0  0  0  0  0  0  0  0  0  0  0  0
  -10.3929    5.7467   -0.6987 C   0  0  0  0  0  0  0  0  0  0  0  0
  -11.5307    5.3907   -1.6610 C   0  0  0  0  0  0  0  0  0  0  0  0
  -10.9593    4.6762   -2.8857 C   0  0  0  0  0  0  0  0  0  0  0  0
  -10.2663    3.4294   -2.4527 N   0  0  0  0  0  0  0  0  0  0  0  0
   -9.4695    2.7978   -3.2765 C   0  0  0  0  0  0  0  0  0  0  0  0
   -9.8405    1.6637   -3.8128 N   0  0  0  0  0  0  0  0  0  0  0  0
   -8.3020    3.3053   -3.5687 N   0  0  0  0  0  0  0  0  0  0  0  0
  2  1  1  1  0  0  0
  2  3  1  0  0  0  0
  2  5  1  0  0  0  0
  3  4  1  0  0  0  0
  5  6  1  0  0  0  0
  6  7  1  0  0  0  0
  7  8  1  0  0  0  0
  8  9  1  0  0  0  0
  9 10  1  0  0  0  0
  9 11  1  0  0  0  0
M  END
>  <CHROM.1>
-178.07843373,-179.29124517,-150.74160957,-178.49258031,60.02008133,-165.90103803
-107.16900598,-164.45092369,-31.37660395,-10.43668193,4.59653238,-1.23589023
-1.93124800,-0.75874442,-2.46744446

>  <Name>
1akx_lig

>  <RI>
0

>  <Rbt.Current_Directory>
/home/afrankz/demos/rdock_decoys_rna/rnas/1akx

>  <Rbt.Executable>
rbdock ($Id: //depot/dev/client3/rdock/2013.1/src/exe/rbdock.cxx#4 $)

>  <Rbt.Library>
libRbt.so (2013.1, Build901 2013/11/27)

>  <Rbt.Parameter_File>
/export/apps/rDock/src/rDock_2013.1_src/data/scripts/dock_solv.prm

>  <Rbt.Receptor>
prm/blind_docking_40.prm

>  <SCORE>
-41.8406

>  <SCORE.INTER>
-35.0878

>  <SCORE.INTER.CONST>
1

>  <SCORE.INTER.POLAR>
-6.15587

>  <SCORE.INTER.ROT>
8

>  <SCORE.INTER.SOLV>
13.3992

>  <SCORE.INTER.VDW>
-16.272

>  <SCORE.INTER.norm>
-3.1898

>  <SCORE.INTRA>
-6.75275

>  <SCORE.INTRA.DIHEDRAL>
-14.0057

>  <SCORE.INTRA.DIHEDRAL.0>
21.6454

>  <SCORE.INTRA.POLAR>
0

>  <SCORE.INTRA.POLAR.0>
0

>  <SCORE.INTRA.REPUL>
0

>  <SCORE.INTRA.REPUL.0>
0

>  <SCORE.INTRA.SOLV>
0.346338

>  <SCORE.INTRA.SOLV.lig_0>
-16.5947

>  <SCORE.INTRA.VDW>
0.0769487

>  <SCORE.INTRA.VDW.0>
-0.691398

>  <SCORE.INTRA.norm>
-0.613887

>  <SCORE.RESTR>
0

>  <SCORE.RESTR.CAVITY>
0

>  <SCORE.RESTR.norm>
0

>  <SCORE.SYSTEM>
0

>  <SCORE.SYSTEM.CONST>
0

>  <SCORE.SYSTEM.DIHEDRAL>
0

>  <SCORE.SYSTEM.SOLV>
0

>  <SCORE.SYSTEM.norm>
0

>  <SCORE.heavy>
11

>  <SCORE.norm>
-3.80369

>  <RMSD>
12.682

>  <RMSD>
12.682

$$$$
1akx_lig
 OpenBabel11021811383D
libRbt.so/2013.1/901 2013/11/27
 11 10  0  0  0  0  0  0  0  0999 V2000
   -9.9545    7.3731    1.1135 N   0  0  0  0  0  0  0  0  0  0  0  0
  -10.9658    6.4307    0.5500 C   0  0  2  0  0  0  0  0  0  0  0  0
  -11.3211    5.3723    1.6018 C   0  0  0  0  0  0  0  0  0  0  0  0
  -12.1208    4.4938    1.3470 O   0  0  0  0  0  0  0  0  0  0  0  0
  -10.3929    5.7467   -0.6987 C   0  0  0  0  0  0  0  0  0  0  0  0
  -11.5307    5.3907   -1.6610 C   0  0  0  0  0  0  0  0  0  0  0  0
  -10.9593    4.6762   -2.8857 C   0  0  0  0  0  0  0  0  0  0  0  0
  -10.2663    3.4294   -2.4527 N   0  0  0  0  0  0  0  0  0  0  0  0
   -9.4695    2.7978   -3.2765 C   0  0  0  0  0  0  0  0  0  0  0  0
   -9.8405    1.6637   -3.8128 N   0  0  0  0  0  0  0  0  0  0  0  0
   -8.3020    3.3053   -3.5687 N   0  0  0  0  0  0  0  0  0  0  0  0
  2  1  1  1  0  0  0
  2  3  1  0  0  0  0
  2  5  1  0  0  0  0
  3  4  1  0  0  0  0
  5  6  1  0  0  0  0
  6  7  1  0  0  0  0
  7  8  1  0  0  0  0
  8  9  1  0  0  0  0
  9 10  1  0  0  0  0
  9 11  1  0  0  0  0
M  END
>  <CHROM.1>
-178.07843373,-179.29124517,-150.74160957,-178.49258031,60.02008133,-165.90103803
-107.16900598,-164.45092369,-31.37660395,-10.43668193,4.59653238,-1.23589023
-1.93124800,-0.75874442,-2.46744446

>  <Name>
1akx_lig

>  <RI>
0

>  <Rbt.Current_Directory>
/home/afrankz/demos/rdock_decoys_rna/rnas/1akx

>  <Rbt.Executable>
rbdock ($Id: //depot/dev/client3/rdock/2013.1/src/exe/rbdock.cxx#4 $)

>  <Rbt.Library>
libRbt.so (2013.1, Build901 2013/11/27)

>  <Rbt.Parameter_File>
/export/apps/rDock/src/rDock_2013.1_src/data/scripts/dock_solv.prm

>  <Rbt.Receptor>
prm/blind_docking_40.prm

>  <SCORE>
-41.8406

>  <SCORE.INTER>
-35.0878

>  <SCORE.INTER.CONST>
1

>  <SCORE.INTER.POLAR>
-6.15587

>  <SCORE.INTER.ROT>
8

>  <SCORE.INTER.SOLV>
13.3992

>  <SCORE.INTER.VDW>
-16.272

>  <SCORE.INTER.norm>
-3.1898

>  <SCORE.INTRA>
-6.75275

>  <SCORE.INTRA.DIHEDRAL>
-14.0057

>  <SCORE.INTRA.DIHEDRAL.0>
21.6454

>  <SCORE.INTRA.POLAR>
0

>  <SCORE.INTRA.POLAR.0>
0

>  <SCORE.INTRA.REPUL>
0

>  <SCORE.INTRA.REPUL.0>
0

>  <SCORE.INTRA.SOLV>
0.346338

>  <SCORE.INTRA.SOLV.lig_0>
-16.5947

>  <SCORE.INTRA.VDW>
0.0769487

>  <SCORE.INTRA.VDW.0>
-0.691398

>  <SCORE.INTRA.norm>
-0.613887

>  <SCORE.RESTR>
0

>  <SCORE.RESTR.CAVITY>
0

>  <SCORE.RESTR.norm>
0

>  <SCORE.SYSTEM>
0

>  <SCORE.SYSTEM.CONST>
0

>  <SCORE.SYSTEM.DIHEDRAL>
0

>  <SCORE.SYSTEM.SOLV>
0

>  <SCORE.SYSTEM.norm>
0

>  <SCORE.heavy>
11

>  <SCORE.norm>
-3.80369

>  <RMSD>
12.682

>  <RMSD>
12.682

$$$$
1akx_lig
 OpenBabel11021811383D
libRbt.so/2013.1/901 2013/11/27
 11 10  0  0  0  0  0  0  0  0999 V2000
   -9.5605    6.4098   -0.2725 N   0  0  0  0  0  0  0  0  0  0  0  0
  -10.9468    5.9237   -0.0078 C   0  0  2  0  0  0  0  0  0  0  0  0
  -11.2636    6.0685    1.4859 C   0  0  0  0  0  0  0  0  0  0  0  0
  -10.4907    5.6482    2.3239 O   0  0  0  0  0  0  0  0  0  0  0  0
  -11.0636    4.4501   -0.4205 C   0  0  0  0  0  0  0  0  0  0  0  0
  -11.9204    4.3338   -1.6853 C   0  0  0  0  0  0  0  0  0  0  0  0
  -11.2643    5.1192   -2.8209 C   0  0  0  0  0  0  0  0  0  0  0  0
  -10.5730    4.1729   -3.7422 N   0  0  0  0  0  0  0  0  0  0  0  0
   -9.8998    3.1586   -3.2622 C   0  0  0  0  0  0  0  0  0  0  0  0
  -10.4460    1.9711   -3.2084 N   0  0  0  0  0  0  0  0  0  0  0  0
   -8.6755    3.3319   -2.8414 N   0  0  0  0  0  0  0  0  0  0  0  0
  2  1  1  1  0  0  0
  2  3  1  0  0  0  0
  2  5  1  0  0  0  0
  3  4  1  0  0  0  0
  5  6  1  0  0  0  0
  6  7  1  0  0  0  0
  7  8  1  0  0  0  0
  8  9  1  0  0  0  0
  9 10  1  0  0  0  0
  9 11  1  0  0  0  0
M  END
>  <CHROM.1>
-76.83673978,-49.70282851,-108.71210975,60.34743127,102.21420723,-40.76010031
97.95573662,-170.38025970,174.87125320,-10.50405439,4.59351952,-1.30807741
-1.67647611,0.26090021,-2.08868300

>  <Name>
1akx_lig

>  <RI>
0

>  <Rbt.Current_Directory>
/home/itssahil/PROJECTS/Mol_Feturizer/New_Systems/rnas/1akx

>  <Rbt.Executable>
rbdock ($Id: //depot/dev/client3/rdock/2013.1/src/exe/rbdock.cxx#4 $)

>  <Rbt.Library>
libRbt.so (2013.1, Build901 2013/11/27)

>  <Rbt.Parameter_File>
/export/apps/rDock/src/rDock_2013.1_src/data/scripts/dock_solv.prm

>  <Rbt.Receptor>
prm/blind_docking_20.prm

>  <SCORE>
-27.1748

>  <SCORE.INTER>
-27.162

>  <SCORE.INTER.CONST>
1

>  <SCORE.INTER.POLAR>
-4.5767

>  <SCORE.INTER.ROT>
8

>  <SCORE.INTER.SOLV>
13.2028

>  <SCORE.INTER.VDW>
-16.1866

>  <SCORE.INTER.norm>
-2.46927

>  <SCORE.INTRA>
-0.87392

>  <SCORE.INTRA.DIHEDRAL>
-6.02335

>  <SCORE.INTRA.DIHEDRAL.0>
21.6454

>  <SCORE.INTRA.POLAR>
0

>  <SCORE.INTRA.POLAR.0>
0

>  <SCORE.INTRA.REPUL>
0

>  <SCORE.INTRA.REPUL.0>
0

>  <SCORE.INTRA.SOLV>
1.47089

>  <SCORE.INTRA.SOLV.lig_0>
-16.5947

>  <SCORE.INTRA.VDW>
1.40231

>  <SCORE.INTRA.VDW.0>
-0.691398

>  <SCORE.INTRA.norm>
-0.0794473

>  <SCORE.RESTR>
0.861158

>  <SCORE.RESTR.CAVITY>
0.861158

>  <SCORE.RESTR.norm>
0.0782871

>  <SCORE.SYSTEM>
0

>  <SCORE.SYSTEM.CONST>
0

>  <SCORE.SYSTEM.DIHEDRAL>
0

>  <SCORE.SYSTEM.SOLV>
0

>  <SCORE.SYSTEM.norm>
0

>  <SCORE.heavy>
11

>  <SCORE.norm>
-2.47043

>  <RMSD>
12.701

$$$$
1akx_lig
 OpenBabel11021811383D
libRbt.so/2013.1/901 2013/11/27
 11 10  0  0  0  0  0  0  0  0999 V2000
   -9.4570    6.3082   -0.3333 N   0  0  0  0  0  0  0  0  0  0  0  0
  -10.8549    5.9359    0.0347 C   0  0  2  0  0  0  0  0  0  0  0  0
  -11.0532    6.1203    1.5445 C   0  0  0  0  0  0  0  0  0  0  0  0
  -12.1390    5.9230    2.0525 O   0  0  0  0  0  0  0  0  0  0  0  0
  -11.1153    4.4721   -0.3459 C   0  0  0  0  0  0  0  0  0  0  0  0
  -11.8150    4.4085   -1.7074 C   0  0  0  0  0  0  0  0  0  0  0  0
  -10.8783    4.9471   -2.7888 C   0  0  0  0  0  0  0  0  0  0  0  0
  -10.4678    3.8315   -3.6884 N   0  0  0  0  0  0  0  0  0  0  0  0
   -9.4166    3.1066   -3.4026 C   0  0  0  0  0  0  0  0  0  0  0  0
   -8.2772    3.6820   -3.1162 N   0  0  0  0  0  0  0  0  0  0  0  0
   -9.5076    1.8036   -3.3972 N   0  0  0  0  0  0  0  0  0  0  0  0
  2  1  1  1  0  0  0
  2  3  1  0  0  0  0
  2  5  1  0  0  0  0
  3  4  1  0  0  0  0
  5  6  1  0  0  0  0
  6  7  1  0  0  0  0
  7  8  1  0  0  0  0
  8  9  1  0  0  0  0
  9 10  1  0  0  0  0
  9 11  1  0  0  0  0
M  END
>  <CHROM.1>
159.53971688,177.11580145,-96.84492612,64.83399705,111.83181297,-88.26044207
-50.42116880,-29.69070770,118.83182760,-10.41275836,4.59000966,-1.37778239
-1.90540419,-0.31885952,-2.24584849

>  <Name>
1akx_lig

>  <RI>
0

>  <Rbt.Current_Directory>
/home/itssahil/PROJECTS/Mol_Feturizer/New_Systems/rnas/1akx

>  <Rbt.Executable>
rbdock ($Id: //depot/dev/client3/rdock/2013.1/src/exe/rbdock.cxx#4 $)

>  <Rbt.Library>
libRbt.so (2013.1, Build901 2013/11/27)

>  <Rbt.Parameter_File>
/export/apps/rDock/src/rDock_2013.1_src/data/scripts/dock_solv.prm

>  <Rbt.Receptor>
prm/blind_docking_20.prm

>  <SCORE>
-32.6804

>  <SCORE.INTER>
-31.7242

>  <SCORE.INTER.CONST>
1

>  <SCORE.INTER.POLAR>
-5.38452

>  <SCORE.INTER.ROT>
8

>  <SCORE.INTER.SOLV>
13.5449

>  <SCORE.INTER.VDW>
-16.6493

>  <SCORE.INTER.norm>
-2.88401

>  <SCORE.INTRA>
-2.14688

>  <SCORE.INTRA.DIHEDRAL>
-6.53354

>  <SCORE.INTRA.DIHEDRAL.0>
21.6454

>  <SCORE.INTRA.POLAR>
0

>  <SCORE.INTRA.POLAR.0>
0

>  <SCORE.INTRA.REPUL>
0

>  <SCORE.INTRA.REPUL.0>
0

>  <SCORE.INTRA.SOLV>
0.859846

>  <SCORE.INTRA.SOLV.lig_0>
-16.5947

>  <SCORE.INTRA.VDW>
0.689961

>  <SCORE.INTRA.VDW.0>
-0.691398

>  <SCORE.INTRA.norm>
-0.195171

>  <SCORE.RESTR>
1.19064

>  <SCORE.RESTR.CAVITY>
1.19064

>  <SCORE.RESTR.norm>
0.10824

>  <SCORE.SYSTEM>
0

>  <SCORE.SYSTEM.CONST>
0

>  <SCORE.SYSTEM.DIHEDRAL>
0

>  <SCORE.SYSTEM.SOLV>
0

>  <SCORE.SYSTEM.norm>
0

>  <SCORE.heavy>
11

>  <SCORE.norm>
-2.97095

>  <RMSD>
12.706

$$$$
1akx_lig
 OpenBabel11021811383D
libRbt.so/2013.1/901 2013/11/27
 11 10  0  0  0  0  0  0  0  0999 V2000
   -9.8625    7.4624    1.1164 N   0  0  0  0  0  0  0  0  0  0  0  0
  -10.8669    6.5103    0.5569 C   0  0  2  0  0  0  0  0  0  0  0  0
  -11.3797    5.5924    1.6737 C   0  0  0  0  0  0  0  0  0  0  0  0
  -10.6436    5.2506    2.5778 O   0  0  0  0  0  0  0  0  0  0  0  0
  -10.2171    5.6666   -0.5482 C   0  0  0  0  0  0  0  0  0  0  0  0
  -11.2840    4.8140   -1.2426 C   0  0  0  0  0  0  0  0  0  0  0  0
  -11.1766    4.9947   -2.7567 C   0  0  0  0  0  0  0  0  0  0  0  0
   -9.7726    4.7384   -3.1873 N   0  0  0  0  0  0  0  0  0  0  0  0
   -9.3378    3.5116   -3.3224 C   0  0  0  0  0  0  0  0  0  0  0  0
  -10.1532    2.5613   -3.7011 N   0  0  0  0  0  0  0  0  0  0  0  0
   -8.0833    3.2368   -3.0843 N   0  0  0  0  0  0  0  0  0  0  0  0
  2  1  1  1  0  0  0
  2  3  1  0  0  0  0
  2  5  1  0  0  0  0
  3  4  1  0  0  0  0
  5  6  1  0  0  0  0
  6  7  1  0  0  0  0
  7  8  1  0  0  0  0
  8  9  1  0  0  0  0
  9 10  1  0  0  0  0
  9 11  1  0  0  0  0
M  END
>  <CHROM.1>
-168.68768308,-33.60014890,-172.97300008,129.57518411,52.57794144,79.21503303
32.04028853,-146.40896419,-136.34309341,-10.21085449,4.94110454,-1.06345439
-1.79913238,-0.52393717,-2.19885015

>  <Name>
1akx_lig

>  <RI>
0

>  <Rbt.Current_Directory>
/home/itssahil/PROJECTS/Mol_Feturizer/New_Systems/rnas/1akx

>  <Rbt.Executable>
rbdock ($Id: //depot/dev/client3/rdock/2013.1/src/exe/rbdock.cxx#4 $)

>  <Rbt.Library>
libRbt.so (2013.1, Build901 2013/11/27)

>  <Rbt.Parameter_File>
/export/apps/rDock/src/rDock_2013.1_src/data/scripts/dock_solv.prm

>  <Rbt.Receptor>
prm/blind_docking_20.prm

>  <SCORE>
-39.2962

>  <SCORE.INTER>
-38.6347

>  <SCORE.INTER.CONST>
1

>  <SCORE.INTER.POLAR>
-6.38395

>  <SCORE.INTER.ROT>
8

>  <SCORE.INTER.SOLV>
14.7847

>  <SCORE.INTER.VDW>
-18.3382

>  <SCORE.INTER.norm>
-3.51225

>  <SCORE.INTRA>
-2.29817

>  <SCORE.INTRA.DIHEDRAL>
-8.2553

>  <SCORE.INTRA.DIHEDRAL.0>
21.6454

>  <SCORE.INTRA.POLAR>
0

>  <SCORE.INTRA.POLAR.0>
0

>  <SCORE.INTRA.REPUL>
0

>  <SCORE.INTRA.REPUL.0>
0

>  <SCORE.INTRA.SOLV>
0.870859

>  <SCORE.INTRA.SOLV.lig_0>
-16.5947

>  <SCORE.INTRA.VDW>
1.39404

>  <SCORE.INTRA.VDW.0>
-0.691398

>  <SCORE.INTRA.norm>
-0.208925

>  <SCORE.RESTR>
1.63665

>  <SCORE.RESTR.CAVITY>
1.63665

>  <SCORE.RESTR.norm>
0.148786

>  <SCORE.SYSTEM>
0

>  <SCORE.SYSTEM.CONST>
0

>  <SCORE.SYSTEM.DIHEDRAL>
0

>  <SCORE.SYSTEM.SOLV>
0

>  <SCORE.SYSTEM.norm>
0

>  <SCORE.heavy>
11

>  <SCORE.norm>
-3.57239

>  <RMSD>
12.714

$$$$
1akx_lig
 OpenBabel11021811383D
libRbt.so/2013.1/901 2013/11/27
 11 10  0  0  0  0  0  0  0  0999 V2000
   -9.3300    6.3798   -0.4742 N   0  0  0  0  0  0  0  0  0  0  0  0
  -10.7569    5.9607   -0.6022 C   0  0  2  0  0  0  0  0  0  0  0  0
  -11.5522    6.4770    0.6035 C   0  0  0  0  0  0  0  0  0  0  0  0
  -10.9815    6.7988    1.6267 O   0  0  0  0  0  0  0  0  0  0  0  0
  -10.8409    4.4294   -0.6595 C   0  0  0  0  0  0  0  0  0  0  0  0
  -11.7584    4.0048   -1.8108 C   0  0  0  0  0  0  0  0  0  0  0  0
  -11.4554    2.5574   -2.1983 C   0  0  0  0  0  0  0  0  0  0  0  0
  -10.0567    2.4632   -2.7051 N   0  0  0  0  0  0  0  0  0  0  0  0
   -9.4893    3.4977   -3.2711 C   0  0  0  0  0  0  0  0  0  0  0  0
  -10.1745    4.2652   -4.0790 N   0  0  0  0  0  0  0  0  0  0  0  0
   -8.2357    3.7680   -3.0231 N   0  0  0  0  0  0  0  0  0  0  0  0
  2  1  1  1  0  0  0
  2  3  1  0  0  0  0
  2  5  1  0  0  0  0
  3  4  1  0  0  0  0
  5  6  1  0  0  0  0
  6  7  1  0  0  0  0
  7  8  1  0  0  0  0
  8  9  1  0  0  0  0
  9 10  1  0  0  0  0
  9 11  1  0  0  0  0
M  END
>  <CHROM.1>
-59.21431444,-19.62446316,-132.70746276,159.41698536,-63.27331377,-27.87579461
-39.88961716,-40.29582743,3.36891677,-10.36723740,4.63238322,-1.50495067
-1.79441181,-0.48355691,-2.36894807

>  <Name>
1akx_lig

>  <RI>
0

>  <Rbt.Current_Directory>
/home/itssahil/PROJECTS/Mol_Feturizer/New_Systems/rnas/1akx

>  <Rbt.Executable>
rbdock ($Id: //depot/dev/client3/rdock/2013.1/src/exe/rbdock.cxx#4 $)

>  <Rbt.Library>
libRbt.so (2013.1, Build901 2013/11/27)

>  <Rbt.Parameter_File>
/export/apps/rDock/src/rDock_2013.1_src/data/scripts/dock_solv.prm

>  <Rbt.Receptor>
prm/blind_docking_20.prm

>  <SCORE>
-25.3466

>  <SCORE.INTER>
-26.0087

>  <SCORE.INTER.CONST>
1

>  <SCORE.INTER.POLAR>
-4.95208

>  <SCORE.INTER.ROT>
8

>  <SCORE.INTER.SOLV>
13.0346

>  <SCORE.INTER.VDW>
-14.1104

>  <SCORE.INTER.norm>
-2.36442

>  <SCORE.INTRA>
0.568672

>  <SCORE.INTRA.DIHEDRAL>
-5.93776

>  <SCORE.INTRA.DIHEDRAL.0>
21.6454

>  <SCORE.INTRA.POLAR>
0

>  <SCORE.INTRA.POLAR.0>
0

>  <SCORE.INTRA.REPUL>
0

>  <SCORE.INTRA.REPUL.0>
0

>  <SCORE.INTRA.SOLV>
1.8

>  <SCORE.INTRA.SOLV.lig_0>
-16.5947

>  <SCORE.INTRA.VDW>
2.63756

>  <SCORE.INTRA.VDW.0>
-0.691398

>  <SCORE.INTRA.norm>
0.0516975

>  <SCORE.RESTR>
0.0934039

>  <SCORE.RESTR.CAVITY>
0.0934039

>  <SCORE.RESTR.norm>
0.00849127

>  <SCORE.SYSTEM>
0

>  <SCORE.SYSTEM.CONST>
0

>  <SCORE.SYSTEM.DIHEDRAL>
0

>  <SCORE.SYSTEM.SOLV>
0

>  <SCORE.SYSTEM.norm>
0

>  <SCORE.heavy>
11

>  <SCORE.norm>
-2.30424

>  <RMSD>
12.714

$$$$
1akx_lig
 OpenBabel11021811383D
libRbt.so/2013.1/901 2013/11/27
 11 10  0  0  0  0  0  0  0  0999 V2000
   -9.6480    7.0199    0.3185 N   0  0  0  0  0  0  0  0  0  0  0  0
  -11.0580    6.5497    0.4562 C   0  0  2  0  0  0  0  0  0  0  0  0
  -11.4028    6.3941    1.9427 C   0  0  0  0  0  0  0  0  0  0  0  0
  -10.7694    5.6326    2.6463 O   0  0  0  0  0  0  0  0  0  0  0  0
  -11.2231    5.2007   -0.2567 C   0  0  0  0  0  0  0  0  0  0  0  0
  -10.6124    5.2793   -1.6596 C   0  0  0  0  0  0  0  0  0  0  0  0
  -11.2983    4.2634   -2.5730 C   0  0  0  0  0  0  0  0  0  0  0  0
  -10.3389    3.8135   -3.6215 N   0  0  0  0  0  0  0  0  0  0  0  0
   -9.5312    2.8103   -3.3896 C   0  0  0  0  0  0  0  0  0  0  0  0
   -9.9816    1.5824   -3.4137 N   0  0  0  0  0  0  0  0  0  0  0  0
   -8.2693    3.0363   -3.1395 N   0  0  0  0  0  0  0  0  0  0  0  0
  2  1  1  1  0  0  0
  2  3  1  0  0  0  0
  2  5  1  0  0  0  0
  3  4  1  0  0  0  0
  5  6  1  0  0  0  0
  6  7  1  0  0  0  0
  7  8  1  0  0  0  0
  8  9  1  0  0  0  0
  9 10  1  0  0  0  0
  9 11  1  0  0  0  0
M  END
>  <CHROM.1>
159.60050139,-59.59702670,-48.25679480,-153.97051478,-150.54699427,87.14053835
76.09536427,-84.31642913,-117.38283967,-10.32691365,4.68031965,-1.14844426
-1.98430234,-1.08398923,-2.56869946

>  <Name>
1akx_lig

>  <RI>
0

>  <Rbt.Current_Directory>
/home/afrankz/demos/rdock_decoys_rna/rnas/1akx

>  <Rbt.Executable>
rbdock ($Id: //depot/dev/client3/rdock/2013.1/src/exe/rbdock.cxx#4 $)

>  <Rbt.Library>
libRbt.so (2013.1, Build901 2013/11/27)

>  <Rbt.Parameter_File>
/export/apps/rDock/src/rDock_2013.1_src/data/scripts/dock_solv.prm

>  <Rbt.Receptor>
prm/blind_docking_20.prm

>  <SCORE>
-24.2009

>  <SCORE.INTER>
-22.1445

>  <SCORE.INTER.CONST>
1

>  <SCORE.INTER.POLAR>
-3.52431

>  <SCORE.INTER.ROT>
8

>  <SCORE.INTER.SOLV>
14.7918

>  <SCORE.INTER.VDW>
-16.8793

>  <SCORE.INTER.norm>
-2.01314

>  <SCORE.INTRA>
-2.43903

>  <SCORE.INTRA.DIHEDRAL>
-10.261

>  <SCORE.INTRA.DIHEDRAL.0>
21.6454

>  <SCORE.INTRA.POLAR>
0

>  <SCORE.INTRA.POLAR.0>
0

>  <SCORE.INTRA.REPUL>
0

>  <SCORE.INTRA.REPUL.0>
0

>  <SCORE.INTRA.SOLV>
0.486618

>  <SCORE.INTRA.SOLV.lig_0>
-16.5947

>  <SCORE.INTRA.VDW>
2.44818

>  <SCORE.INTRA.VDW.0>
-0.691398

>  <SCORE.INTRA.norm>
-0.22173

>  <SCORE.RESTR>
0.382583

>  <SCORE.RESTR.CAVITY>
0.382583

>  <SCORE.RESTR.norm>
0.0347802

>  <SCORE.SYSTEM>
0

>  <SCORE.SYSTEM.CONST>
0

>  <SCORE.SYSTEM.DIHEDRAL>
0

>  <SCORE.SYSTEM.SOLV>
0

>  <SCORE.SYSTEM.norm>
0

>  <SCORE.heavy>
11

>  <SCORE.norm>
-2.20009

>  <RMSD>
12.724

>  <RMSD>
12.724

$$$$
1akx_lig
 OpenBabel11021811383D
libRbt.so/2013.1/901 2013/11/27
 11 10  0  0  0  0  0  0  0  0999 V2000
   -9.6480    7.0199    0.3185 N   0  0  0  0  0  0  0  0  0  0  0  0
  -11.0580    6.5497    0.4562 C   0  0  2  0  0  0  0  0  0  0  0  0
  -11.4028    6.3941    1.9427 C   0  0  0  0  0  0  0  0  0  0  0  0
  -10.7694    5.6326    2.6463 O   0  0  0  0  0  0  0  0  0  0  0  0
  -11.2231    5.2007   -0.2567 C   0  0  0  0  0  0  0  0  0  0  0  0
  -10.6124    5.2793   -1.6596 C   0  0  0  0  0  0  0  0  0  0  0  0
  -11.2983    4.2634   -2.5730 C   0  0  0  0  0  0  0  0  0  0  0  0
  -10.3389    3.8135   -3.6215 N   0  0  0  0  0  0  0  0  0  0  0  0
   -9.5312    2.8103   -3.3896 C   0  0  0  0  0  0  0  0  0  0  0  0
   -9.9816    1.5824   -3.4137 N   0  0  0  0  0  0  0  0  0  0  0  0
   -8.2693    3.0363   -3.1395 N   0  0  0  0  0  0  0  0  0  0  0  0
  2  1  1  1  0  0  0
  2  3  1  0  0  0  0
  2  5  1  0  0  0  0
  3  4  1  0  0  0  0
  5  6  1  0  0  0  0
  6  7  1  0  0  0  0
  7  8  1  0  0  0  0
  8  9  1  0  0  0  0
  9 10  1  0  0  0  0
  9 11  1  0  0  0  0
M  END
>  <CHROM.1>
159.60050139,-59.59702670,-48.25679480,-153.97051478,-150.54699427,87.14053835
76.09536427,-84.31642913,-117.38283967,-10.32691365,4.68031965,-1.14844426
-1.98430234,-1.08398923,-2.56869946

>  <Name>
1akx_lig

>  <RI>
0

>  <Rbt.Current_Directory>
/home/afrankz/demos/rdock_decoys_rna/rnas/1akx

>  <Rbt.Executable>
rbdock ($Id: //depot/dev/client3/rdock/2013.1/src/exe/rbdock.cxx#4 $)

>  <Rbt.Library>
libRbt.so (2013.1, Build901 2013/11/27)

>  <Rbt.Parameter_File>
/export/apps/rDock/src/rDock_2013.1_src/data/scripts/dock_solv.prm

>  <Rbt.Receptor>
prm/blind_docking_20.prm

>  <SCORE>
-24.2009

>  <SCORE.INTER>
-22.1445

>  <SCORE.INTER.CONST>
1

>  <SCORE.INTER.POLAR>
-3.52431

>  <SCORE.INTER.ROT>
8

>  <SCORE.INTER.SOLV>
14.7918

>  <SCORE.INTER.VDW>
-16.8793

>  <SCORE.INTER.norm>
-2.01314

>  <SCORE.INTRA>
-2.43903

>  <SCORE.INTRA.DIHEDRAL>
-10.261

>  <SCORE.INTRA.DIHEDRAL.0>
21.6454

>  <SCORE.INTRA.POLAR>
0

>  <SCORE.INTRA.POLAR.0>
0

>  <SCORE.INTRA.REPUL>
0

>  <SCORE.INTRA.REPUL.0>
0

>  <SCORE.INTRA.SOLV>
0.486618

>  <SCORE.INTRA.SOLV.lig_0>
-16.5947

>  <SCORE.INTRA.VDW>
2.44818

>  <SCORE.INTRA.VDW.0>
-0.691398

>  <SCORE.INTRA.norm>
-0.22173

>  <SCORE.RESTR>
0.382583

>  <SCORE.RESTR.CAVITY>
0.382583

>  <SCORE.RESTR.norm>
0.0347802

>  <SCORE.SYSTEM>
0

>  <SCORE.SYSTEM.CONST>
0

>  <SCORE.SYSTEM.DIHEDRAL>
0

>  <SCORE.SYSTEM.SOLV>
0

>  <SCORE.SYSTEM.norm>
0

>  <SCORE.heavy>
11

>  <SCORE.norm>
-2.20009

>  <RMSD>
12.724

>  <RMSD>
12.724

$$$$
1akx_lig
 OpenBabel11021811383D
libRbt.so/2013.1/901 2013/11/27
 11 10  0  0  0  0  0  0  0  0999 V2000
   -9.6778    6.7117    1.0203 N   0  0  0  0  0  0  0  0  0  0  0  0
  -10.8967    6.1887    0.3355 C   0  0  2  0  0  0  0  0  0  0  0  0
  -11.6436    5.2356    1.2771 C   0  0  0  0  0  0  0  0  0  0  0  0
  -12.5449    4.5363    0.8590 O   0  0  0  0  0  0  0  0  0  0  0  0
  -10.4894    5.4404   -0.9410 C   0  0  0  0  0  0  0  0  0  0  0  0
  -11.6627    5.4219   -1.9261 C   0  0  0  0  0  0  0  0  0  0  0  0
  -11.5215    4.2249   -2.8663 C   0  0  0  0  0  0  0  0  0  0  0  0
  -10.1552    4.2222   -3.4624 N   0  0  0  0  0  0  0  0  0  0  0  0
   -9.3495    3.2111   -3.2602 C   0  0  0  0  0  0  0  0  0  0  0  0
   -9.5386    2.0811   -3.8915 N   0  0  0  0  0  0  0  0  0  0  0  0
   -8.3490    3.3335   -2.4294 N   0  0  0  0  0  0  0  0  0  0  0  0
  2  1  1  1  0  0  0
  2  3  1  0  0  0  0
  2  5  1  0  0  0  0
  3  4  1  0  0  0  0
  5  6  1  0  0  0  0
  6  7  1  0  0  0  0
  7  8  1  0  0  0  0
  8  9  1  0  0  0  0
  9 10  1  0  0  0  0
  9 11  1  0  0  0  0
M  END
>  <CHROM.1>
179.02711285,-168.50072112,-156.18577422,-155.15734173,-51.31356022,119.36177888
75.09694813,-18.46341003,150.50079886,-10.49135908,4.59104536,-1.37236282
-1.88543349,-0.10092108,-2.17134205

>  <Name>
1akx_lig

>  <RI>
0

>  <Rbt.Current_Directory>
/home/itssahil/PROJECTS/Mol_Feturizer/New_Systems/rnas/1akx

>  <Rbt.Executable>
rbdock ($Id: //depot/dev/client3/rdock/2013.1/src/exe/rbdock.cxx#4 $)

>  <Rbt.Library>
libRbt.so (2013.1, Build901 2013/11/27)

>  <Rbt.Parameter_File>
/export/apps/rDock/src/rDock_2013.1_src/data/scripts/dock_solv.prm

>  <Rbt.Receptor>
prm/blind_docking_80.prm

>  <SCORE>
-35.289

>  <SCORE.INTER>
-30.9096

>  <SCORE.INTER.CONST>
1

>  <SCORE.INTER.POLAR>
-4.55894

>  <SCORE.INTER.ROT>
8

>  <SCORE.INTER.SOLV>
13.5265

>  <SCORE.INTER.VDW>
-18.8521

>  <SCORE.INTER.norm>
-2.80996

>  <SCORE.INTRA>
-5.42623

>  <SCORE.INTRA.DIHEDRAL>
-11.8501

>  <SCORE.INTRA.DIHEDRAL.0>
21.6454

>  <SCORE.INTRA.POLAR>
0

>  <SCORE.INTRA.POLAR.0>
0

>  <SCORE.INTRA.REPUL>
0

>  <SCORE.INTRA.REPUL.0>
0

>  <SCORE.INTRA.SOLV>
0.682428

>  <SCORE.INTRA.SOLV.lig_0>
-16.5947

>  <SCORE.INTRA.VDW>
0.15758

>  <SCORE.INTRA.VDW.0>
-0.691398

>  <SCORE.INTRA.norm>
-0.493294

>  <SCORE.RESTR>
1.04686

>  <SCORE.RESTR.CAVITY>
1.04686

>  <SCORE.RESTR.norm>
0.0951692

>  <SCORE.SYSTEM>
0

>  <SCORE.SYSTEM.CONST>
0

>  <SCORE.SYSTEM.DIHEDRAL>
0

>  <SCORE.SYSTEM.SOLV>
0

>  <SCORE.SYSTEM.norm>
0

>  <SCORE.heavy>
11

>  <SCORE.norm>
-3.20809

>  <RMSD>
12.725

$$$$
1akx_lig
 OpenBabel11021811383D
libRbt.so/2013.1/901 2013/11/27
 11 10  0  0  0  0  0  0  0  0999 V2000
   -9.6206    6.5823   -0.0943 N   0  0  0  0  0  0  0  0  0  0  0  0
  -11.0375    6.1486    0.0856 C   0  0  2  0  0  0  0  0  0  0  0  0
  -11.3161    5.9149    1.5757 C   0  0  0  0  0  0  0  0  0  0  0  0
  -10.4947    5.3583    2.2768 O   0  0  0  0  0  0  0  0  0  0  0  0
  -11.2821    4.8506   -0.6958 C   0  0  0  0  0  0  0  0  0  0  0  0
  -11.9780    5.1694   -2.0230 C   0  0  0  0  0  0  0  0  0  0  0  0
  -11.8553    3.9716   -2.9649 C   0  0  0  0  0  0  0  0  0  0  0  0
  -10.5063    3.9771   -3.5993 N   0  0  0  0  0  0  0  0  0  0  0  0
   -9.5813    3.1472   -3.1891 C   0  0  0  0  0  0  0  0  0  0  0  0
   -9.4697    1.9631   -3.7338 N   0  0  0  0  0  0  0  0  0  0  0  0
   -8.7627    3.5056   -2.2365 N   0  0  0  0  0  0  0  0  0  0  0  0
  2  1  1  1  0  0  0
  2  3  1  0  0  0  0
  2  5  1  0  0  0  0
  3  4  1  0  0  0  0
  5  6  1  0  0  0  0
  6  7  1  0  0  0  0
  7  8  1  0  0  0  0
  8  9  1  0  0  0  0
  9 10  1  0  0  0  0
  9 11  1  0  0  0  0
M  END
>  <CHROM.1>
-92.70458528,-41.47272426,-99.94013624,163.53977900,-80.11848124,103.71852352
89.78689979,145.82739603,-124.91369554,-10.47515119,4.59653776,-1.31569445
-1.73481920,0.42380780,-2.06589076

>  <Name>
1akx_lig

>  <RI>
0

>  <Rbt.Current_Directory>
/home/afrankz/demos/rdock_decoys_rna/rnas/1akx

>  <Rbt.Executable>
rbdock ($Id: //depot/dev/client3/rdock/2013.1/src/exe/rbdock.cxx#4 $)

>  <Rbt.Library>
libRbt.so (2013.1, Build901 2013/11/27)

>  <Rbt.Parameter_File>
/export/apps/rDock/src/rDock_2013.1_src/data/scripts/dock_solv.prm

>  <Rbt.Receptor>
prm/blind_docking_20.prm

>  <SCORE>
-38.2267

>  <SCORE.INTER>
-35.7636

>  <SCORE.INTER.CONST>
1

>  <SCORE.INTER.POLAR>
-5.60061

>  <SCORE.INTER.ROT>
8

>  <SCORE.INTER.SOLV>
14.0501

>  <SCORE.INTER.VDW>
-18.7904

>  <SCORE.INTER.norm>
-3.25124

>  <SCORE.INTRA>
-2.94041

>  <SCORE.INTRA.DIHEDRAL>
-6.77557

>  <SCORE.INTRA.DIHEDRAL.0>
21.6454

>  <SCORE.INTRA.POLAR>
0

>  <SCORE.INTRA.POLAR.0>
0

>  <SCORE.INTRA.REPUL>
0

>  <SCORE.INTRA.REPUL.0>
0

>  <SCORE.INTRA.SOLV>
1.17425

>  <SCORE.INTRA.SOLV.lig_0>
-16.5947

>  <SCORE.INTRA.VDW>
-0.139755

>  <SCORE.INTRA.VDW.0>
-0.691398

>  <SCORE.INTRA.norm>
-0.26731

>  <SCORE.RESTR>
0.477373

>  <SCORE.RESTR.CAVITY>
0.477373

>  <SCORE.RESTR.norm>
0.0433976

>  <SCORE.SYSTEM>
0

>  <SCORE.SYSTEM.CONST>
0

>  <SCORE.SYSTEM.DIHEDRAL>
0

>  <SCORE.SYSTEM.SOLV>
0

>  <SCORE.SYSTEM.norm>
0

>  <SCORE.heavy>
11

>  <SCORE.norm>
-3.47515

>  <RMSD>
12.734

>  <RMSD>
12.734

$$$$
1akx_lig
 OpenBabel11021811383D
libRbt.so/2013.1/901 2013/11/27
 11 10  0  0  0  0  0  0  0  0999 V2000
   -9.6206    6.5823   -0.0943 N   0  0  0  0  0  0  0  0  0  0  0  0
  -11.0375    6.1486    0.0856 C   0  0  2  0  0  0  0  0  0  0  0  0
  -11.3161    5.9149    1.5757 C   0  0  0  0  0  0  0  0  0  0  0  0
  -10.4947    5.3583    2.2768 O   0  0  0  0  0  0  0  0  0  0  0  0
  -11.2821    4.8506   -0.6958 C   0  0  0  0  0  0  0  0  0  0  0  0
  -11.9780    5.1694   -2.0230 C   0  0  0  0  0  0  0  0  0  0  0  0
  -11.8553    3.9716   -2.9649 C   0  0  0  0  0  0  0  0  0  0  0  0
  -10.5063    3.9771   -3.5993 N   0  0  0  0  0  0  0  0  0  0  0  0
   -9.5813    3.1472   -3.1891 C   0  0  0  0  0  0  0  0  0  0  0  0
   -9.4697    1.9631   -3.7338 N   0  0  0  0  0  0  0  0  0  0  0  0
   -8.7627    3.5056   -2.2365 N   0  0  0  0  0  0  0  0  0  0  0  0
  2  1  1  1  0  0  0
  2  3  1  0  0  0  0
  2  5  1  0  0  0  0
  3  4  1  0  0  0  0
  5  6  1  0  0  0  0
  6  7  1  0  0  0  0
  7  8  1  0  0  0  0
  8  9  1  0  0  0  0
  9 10  1  0  0  0  0
  9 11  1  0  0  0  0
M  END
>  <CHROM.1>
-92.70458528,-41.47272426,-99.94013624,163.53977900,-80.11848124,103.71852352
89.78689979,145.82739603,-124.91369554,-10.47515119,4.59653776,-1.31569445
-1.73481920,0.42380780,-2.06589076

>  <Name>
1akx_lig

>  <RI>
0

>  <Rbt.Current_Directory>
/home/afrankz/demos/rdock_decoys_rna/rnas/1akx

>  <Rbt.Executable>
rbdock ($Id: //depot/dev/client3/rdock/2013.1/src/exe/rbdock.cxx#4 $)

>  <Rbt.Library>
libRbt.so (2013.1, Build901 2013/11/27)

>  <Rbt.Parameter_File>
/export/apps/rDock/src/rDock_2013.1_src/data/scripts/dock_solv.prm

>  <Rbt.Receptor>
prm/blind_docking_20.prm

>  <SCORE>
-38.2267

>  <SCORE.INTER>
-35.7636

>  <SCORE.INTER.CONST>
1

>  <SCORE.INTER.POLAR>
-5.60061

>  <SCORE.INTER.ROT>
8

>  <SCORE.INTER.SOLV>
14.0501

>  <SCORE.INTER.VDW>
-18.7904

>  <SCORE.INTER.norm>
-3.25124

>  <SCORE.INTRA>
-2.94041

>  <SCORE.INTRA.DIHEDRAL>
-6.77557

>  <SCORE.INTRA.DIHEDRAL.0>
21.6454

>  <SCORE.INTRA.POLAR>
0

>  <SCORE.INTRA.POLAR.0>
0

>  <SCORE.INTRA.REPUL>
0

>  <SCORE.INTRA.REPUL.0>
0

>  <SCORE.INTRA.SOLV>
1.17425

>  <SCORE.INTRA.SOLV.lig_0>
-16.5947

>  <SCORE.INTRA.VDW>
-0.139755

>  <SCORE.INTRA.VDW.0>
-0.691398

>  <SCORE.INTRA.norm>
-0.26731

>  <SCORE.RESTR>
0.477373

>  <SCORE.RESTR.CAVITY>
0.477373

>  <SCORE.RESTR.norm>
0.0433976

>  <SCORE.SYSTEM>
0

>  <SCORE.SYSTEM.CONST>
0

>  <SCORE.SYSTEM.DIHEDRAL>
0

>  <SCORE.SYSTEM.SOLV>
0

>  <SCORE.SYSTEM.norm>
0

>  <SCORE.heavy>
11

>  <SCORE.norm>
-3.47515

>  <RMSD>
12.734

>  <RMSD>
12.734

$$$$
1akx_lig
 OpenBabel11021811383D
libRbt.so/2013.1/901 2013/11/27
 11 10  0  0  0  0  0  0  0  0999 V2000
   -9.9457    7.3801    0.8982 N   0  0  0  0  0  0  0  0  0  0  0  0
  -10.8908    6.3788    0.3218 C   0  0  2  0  0  0  0  0  0  0  0  0
  -11.5191    5.5569    1.4543 C   0  0  0  0  0  0  0  0  0  0  0  0
  -10.8534    5.2170    2.4122 O   0  0  0  0  0  0  0  0  0  0  0  0
  -10.1342    5.4472   -0.6347 C   0  0  0  0  0  0  0  0  0  0  0  0
  -11.0830    4.3657   -1.1614 C   0  0  0  0  0  0  0  0  0  0  0  0
  -11.5321    4.7257   -2.5776 C   0  0  0  0  0  0  0  0  0  0  0  0
  -10.3707    4.6219   -3.5064 N   0  0  0  0  0  0  0  0  0  0  0  0
   -9.6140    3.5543   -3.4993 C   0  0  0  0  0  0  0  0  0  0  0  0
   -8.3147    3.6680   -3.3980 N   0  0  0  0  0  0  0  0  0  0  0  0
  -10.1591    2.3706   -3.5875 N   0  0  0  0  0  0  0  0  0  0  0  0
  2  1  1  1  0  0  0
  2  3  1  0  0  0  0
  2  5  1  0  0  0  0
  3  4  1  0  0  0  0
  5  6  1  0  0  0  0
  6  7  1  0  0  0  0
  7  8  1  0  0  0  0
  8  9  1  0  0  0  0
  9 10  1  0  0  0  0
  9 11  1  0  0  0  0
M  END
>  <CHROM.1>
-166.77794547,-38.79131832,176.55040807,101.49992068,68.20615421,49.02109351
-128.60347943,-19.14717836,-12.21654663,-10.36268786,4.85173552,-1.19092024
-1.82901994,-0.79913167,-2.25691798

>  <Name>
1akx_lig

>  <RI>
0

>  <Rbt.Current_Directory>
/home/itssahil/PROJECTS/Mol_Feturizer/New_Systems/rnas/1akx

>  <Rbt.Executable>
rbdock ($Id: //depot/dev/client3/rdock/2013.1/src/exe/rbdock.cxx#4 $)

>  <Rbt.Library>
libRbt.so (2013.1, Build901 2013/11/27)

>  <Rbt.Parameter_File>
/export/apps/rDock/src/rDock_2013.1_src/data/scripts/dock_solv.prm

>  <Rbt.Receptor>
prm/blind_docking_100.prm

>  <SCORE>
-42.5023

>  <SCORE.INTER>
-40.8836

>  <SCORE.INTER.CONST>
1

>  <SCORE.INTER.POLAR>
-5.99209

>  <SCORE.INTER.ROT>
8

>  <SCORE.INTER.SOLV>
13.948

>  <SCORE.INTER.VDW>
-20.8648

>  <SCORE.INTER.norm>
-3.7167

>  <SCORE.INTRA>
-1.86999

>  <SCORE.INTRA.DIHEDRAL>
-9.87773

>  <SCORE.INTRA.DIHEDRAL.0>
21.6454

>  <SCORE.INTRA.POLAR>
0

>  <SCORE.INTRA.POLAR.0>
0

>  <SCORE.INTRA.REPUL>
0

>  <SCORE.INTRA.REPUL.0>
0

>  <SCORE.INTRA.SOLV>
1.05378

>  <SCORE.INTRA.SOLV.lig_0>
-16.5947

>  <SCORE.INTRA.VDW>
2.54198

>  <SCORE.INTRA.VDW.0>
-0.691398

>  <SCORE.INTRA.norm>
-0.169999

>  <SCORE.RESTR>
0.251356

>  <SCORE.RESTR.CAVITY>
0.251356

>  <SCORE.RESTR.norm>
0.0228506

>  <SCORE.SYSTEM>
0

>  <SCORE.SYSTEM.CONST>
0

>  <SCORE.SYSTEM.DIHEDRAL>
0

>  <SCORE.SYSTEM.SOLV>
0

>  <SCORE.SYSTEM.norm>
0

>  <SCORE.heavy>
11

>  <SCORE.norm>
-3.86384

>  <RMSD>
12.734

$$$$
1akx_lig
 OpenBabel11021811383D
libRbt.so/2013.1/901 2013/11/27
 11 10  0  0  0  0  0  0  0  0999 V2000
   -9.9637    6.9902    0.8325 N   0  0  0  0  0  0  0  0  0  0  0  0
  -11.1390    6.2306    0.3132 C   0  0  2  0  0  0  0  0  0  0  0  0
  -11.6911    5.3226    1.4193 C   0  0  0  0  0  0  0  0  0  0  0  0
  -10.9831    4.9772    2.3443 O   0  0  0  0  0  0  0  0  0  0  0  0
  -10.7112    5.3786   -0.8895 C   0  0  0  0  0  0  0  0  0  0  0  0
  -11.8920    5.2122   -1.8514 C   0  0  0  0  0  0  0  0  0  0  0  0
  -11.6126    4.0527   -2.8076 C   0  0  0  0  0  0  0  0  0  0  0  0
  -10.3226    4.2942   -3.5147 N   0  0  0  0  0  0  0  0  0  0  0  0
   -9.3686    3.3997   -3.4700 C   0  0  0  0  0  0  0  0  0  0  0  0
   -9.6203    2.1519   -3.7716 N   0  0  0  0  0  0  0  0  0  0  0  0
   -8.1591    3.7560   -3.1289 N   0  0  0  0  0  0  0  0  0  0  0  0
  2  1  1  1  0  0  0
  2  3  1  0  0  0  0
  2  5  1  0  0  0  0
  3  4  1  0  0  0  0
  5  6  1  0  0  0  0
  6  7  1  0  0  0  0
  7  8  1  0  0  0  0
  8  9  1  0  0  0  0
  9 10  1  0  0  0  0
  9 11  1  0  0  0  0
M  END
>  <CHROM.1>
-52.56630147,-22.85484520,-149.91665168,-163.22028989,-55.95735419,124.63652319
51.38754095,-12.86623639,135.60453105,-10.44459534,4.70882809,-1.29924039
-1.81839055,0.04966229,-2.05109988

>  <Name>
1akx_lig

>  <RI>
0

>  <Rbt.Current_Directory>
/home/itssahil/PROJECTS/Mol_Feturizer/New_Systems/rnas/1akx

>  <Rbt.Executable>
rbdock ($Id: //depot/dev/client3/rdock/2013.1/src/exe/rbdock.cxx#4 $)

>  <Rbt.Library>
libRbt.so (2013.1, Build901 2013/11/27)

>  <Rbt.Parameter_File>
/export/apps/rDock/src/rDock_2013.1_src/data/scripts/dock_solv.prm

>  <Rbt.Receptor>
prm/blind_docking_40.prm

>  <SCORE>
-46.0197

>  <SCORE.INTER>
-42.2664

>  <SCORE.INTER.CONST>
1

>  <SCORE.INTER.POLAR>
-6.71416

>  <SCORE.INTER.ROT>
8

>  <SCORE.INTER.SOLV>
14.3326

>  <SCORE.INTER.VDW>
-19.508

>  <SCORE.INTER.norm>
-3.8424

>  <SCORE.INTRA>
-3.94917

>  <SCORE.INTRA.DIHEDRAL>
-8.9877

>  <SCORE.INTRA.DIHEDRAL.0>
21.6454

>  <SCORE.INTRA.POLAR>
0

>  <SCORE.INTRA.POLAR.0>
0

>  <SCORE.INTRA.REPUL>
0

>  <SCORE.INTRA.REPUL.0>
0

>  <SCORE.INTRA.SOLV>
0.713658

>  <SCORE.INTRA.SOLV.lig_0>
-16.5947

>  <SCORE.INTRA.VDW>
0.187855

>  <SCORE.INTRA.VDW.0>
-0.691398

>  <SCORE.INTRA.norm>
-0.359015

>  <SCORE.RESTR>
0.195901

>  <SCORE.RESTR.CAVITY>
0.195901

>  <SCORE.RESTR.norm>
0.0178092

>  <SCORE.SYSTEM>
0

>  <SCORE.SYSTEM.CONST>
0

>  <SCORE.SYSTEM.DIHEDRAL>
0

>  <SCORE.SYSTEM.SOLV>
0

>  <SCORE.SYSTEM.norm>
0

>  <SCORE.heavy>
11

>  <SCORE.norm>
-4.18361

>  <RMSD>
12.746

$$$$
1akx_lig
 OpenBabel11021811383D
libRbt.so/2013.1/901 2013/11/27
 11 10  0  0  0  0  0  0  0  0999 V2000
   -9.7331    7.0740    0.1800 N   0  0  0  0  0  0  0  0  0  0  0  0
  -10.9072    6.1559    0.0975 C   0  0  2  0  0  0  0  0  0  0  0  0
  -10.7890    5.0754    1.1797 C   0  0  0  0  0  0  0  0  0  0  0  0
  -11.6603    4.2393    1.3141 O   0  0  0  0  0  0  0  0  0  0  0  0
  -10.9499    5.4974   -1.2881 C   0  0  0  0  0  0  0  0  0  0  0  0
  -12.1784    4.5877   -1.3904 C   0  0  0  0  0  0  0  0  0  0  0  0
  -12.1453    3.8320   -2.7188 C   0  0  0  0  0  0  0  0  0  0  0  0
  -10.9142    2.9936   -2.7807 N   0  0  0  0  0  0  0  0  0  0  0  0
   -9.7432    3.5530   -2.9486 C   0  0  0  0  0  0  0  0  0  0  0  0
   -8.6712    3.0039   -2.4380 N   0  0  0  0  0  0  0  0  0  0  0  0
   -9.6442    4.6603   -3.6342 N   0  0  0  0  0  0  0  0  0  0  0  0
  2  1  1  6  0  0  0
  2  3  1  0  0  0  0
  2  5  1  0  0  0  0
  3  4  1  0  0  0  0
  5  6  1  0  0  0  0
  6  7  1  0  0  0  0
  7  8  1  0  0  0  0
  8  9  1  0  0  0  0
  9 10  1  0  0  0  0
  9 11  1  0  0  0  0
M  END
>  <CHROM.1>
102.14894722,178.11853327,-178.25995344,-174.61060152,60.59936242,-72.30411587
149.47024531,-141.27153450,-36.89838214,-10.62011042,4.61645785,-1.30191980
-1.78610480,-0.58187818,-2.21963115

>  <Name>
1akx_lig

>  <RI>
0

>  <Rbt.Current_Directory>
/home/itssahil/PROJECTS/Mol_Feturizer/New_Systems/rnas/1akx

>  <Rbt.Executable>
rbdock ($Id: //depot/dev/client3/rdock/2013.1/src/exe/rbdock.cxx#4 $)

>  <Rbt.Library>
libRbt.so (2013.1, Build901 2013/11/27)

>  <Rbt.Parameter_File>
/export/apps/rDock/src/rDock_2013.1_src/data/scripts/dock_solv.prm

>  <Rbt.Receptor>
prm/blind_docking_20.prm

>  <SCORE>
-26.0659

>  <SCORE.INTER>
-25.8113

>  <SCORE.INTER.CONST>
1

>  <SCORE.INTER.POLAR>
-4.10168

>  <SCORE.INTER.ROT>
8

>  <SCORE.INTER.SOLV>
12.4194

>  <SCORE.INTER.VDW>
-16.6084

>  <SCORE.INTER.norm>
-2.34648

>  <SCORE.INTRA>
-1.36182

>  <SCORE.INTRA.DIHEDRAL>
-13.8352

>  <SCORE.INTRA.DIHEDRAL.0>
21.6454

>  <SCORE.INTRA.POLAR>
0

>  <SCORE.INTRA.POLAR.0>
0

>  <SCORE.INTRA.REPUL>
0

>  <SCORE.INTRA.REPUL.0>
0

>  <SCORE.INTRA.SOLV>
1.22334

>  <SCORE.INTRA.SOLV.lig_0>
-16.5947

>  <SCORE.INTRA.VDW>
4.94409

>  <SCORE.INTRA.VDW.0>
-0.691398

>  <SCORE.INTRA.norm>
-0.123802

>  <SCORE.RESTR>
1.10722

>  <SCORE.RESTR.CAVITY>
1.10722

>  <SCORE.RESTR.norm>
0.100657

>  <SCORE.SYSTEM>
0

>  <SCORE.SYSTEM.CONST>
0

>  <SCORE.SYSTEM.DIHEDRAL>
0

>  <SCORE.SYSTEM.SOLV>
0

>  <SCORE.SYSTEM.norm>
0

>  <SCORE.heavy>
11

>  <SCORE.norm>
-2.36962

>  <RMSD>
12.754

$$$$
1akx_lig
 OpenBabel11021811383D
libRbt.so/2013.1/901 2013/11/27
 11 10  0  0  0  0  0  0  0  0999 V2000
   -9.4139    5.4175   -0.6357 N   0  0  0  0  0  0  0  0  0  0  0  0
  -10.7938    5.9367   -0.4020 C   0  0  2  0  0  0  0  0  0  0  0  0
  -10.9810    6.2395    1.0899 C   0  0  0  0  0  0  0  0  0  0  0  0
  -10.5038    5.5059    1.9327 O   0  0  0  0  0  0  0  0  0  0  0  0
  -11.8213    4.8882   -0.8496 C   0  0  0  0  0  0  0  0  0  0  0  0
  -12.3161    5.2191   -2.2614 C   0  0  0  0  0  0  0  0  0  0  0  0
  -11.8320    4.1463   -3.2369 C   0  0  0  0  0  0  0  0  0  0  0  0
  -10.3958    4.3823   -3.5592 N   0  0  0  0  0  0  0  0  0  0  0  0
   -9.4991    3.4707   -3.2812 C   0  0  0  0  0  0  0  0  0  0  0  0
   -8.2600    3.8160   -3.0430 N   0  0  0  0  0  0  0  0  0  0  0  0
   -9.8446    2.2119   -3.2354 N   0  0  0  0  0  0  0  0  0  0  0  0
  2  1  1  1  0  0  0
  2  3  1  0  0  0  0
  2  5  1  0  0  0  0
  3  4  1  0  0  0  0
  5  6  1  0  0  0  0
  6  7  1  0  0  0  0
  7  8  1  0  0  0  0
  8  9  1  0  0  0  0
  9 10  1  0  0  0  0
  9 11  1  0  0  0  0
M  END
>  <CHROM.1>
90.24734449,-38.69754772,-97.52751060,112.58463823,-77.74944542,119.64763911
-152.37505739,149.77784594,-55.55522721,-10.45010128,4.63797885,-1.57810224
-1.77234852,0.26187087,-2.02902529

>  <Name>
1akx_lig

>  <RI>
0

>  <Rbt.Current_Directory>
/home/itssahil/PROJECTS/Mol_Feturizer/New_Systems/rnas/1akx

>  <Rbt.Executable>
rbdock ($Id: //depot/dev/client3/rdock/2013.1/src/exe/rbdock.cxx#4 $)

>  <Rbt.Library>
libRbt.so (2013.1, Build901 2013/11/27)

>  <Rbt.Parameter_File>
/export/apps/rDock/src/rDock_2013.1_src/data/scripts/dock_solv.prm

>  <Rbt.Receptor>
prm/blind_docking_20.prm

>  <SCORE>
-33.6082

>  <SCORE.INTER>
-33.3705

>  <SCORE.INTER.CONST>
1

>  <SCORE.INTER.POLAR>
-5.24904

>  <SCORE.INTER.ROT>
8

>  <SCORE.INTER.SOLV>
13.4183

>  <SCORE.INTER.VDW>
-18.1563

>  <SCORE.INTER.norm>
-3.03368

>  <SCORE.INTRA>
-0.572233

>  <SCORE.INTRA.DIHEDRAL>
-2.47554

>  <SCORE.INTRA.DIHEDRAL.0>
21.6454

>  <SCORE.INTRA.POLAR>
-0.00825073

>  <SCORE.INTRA.POLAR.0>
0

>  <SCORE.INTRA.REPUL>
0

>  <SCORE.INTRA.REPUL.0>
0

>  <SCORE.INTRA.SOLV>
2.33031

>  <SCORE.INTRA.SOLV.lig_0>
-16.5947

>  <SCORE.INTRA.VDW>
-0.471562

>  <SCORE.INTRA.VDW.0>
-0.691398

>  <SCORE.INTRA.norm>
-0.0520211

>  <SCORE.RESTR>
0.334577

>  <SCORE.RESTR.CAVITY>
0.334577

>  <SCORE.RESTR.norm>
0.0304161

>  <SCORE.SYSTEM>
0

>  <SCORE.SYSTEM.CONST>
0

>  <SCORE.SYSTEM.DIHEDRAL>
0

>  <SCORE.SYSTEM.SOLV>
0

>  <SCORE.SYSTEM.norm>
0

>  <SCORE.heavy>
11

>  <SCORE.norm>
-3.05529

>  <RMSD>
12.755

$$$$
1akx_lig
 OpenBabel11021811383D
libRbt.so/2013.1/901 2013/11/27
 11 10  0  0  0  0  0  0  0  0999 V2000
  -10.5164    7.9857    1.1030 N   0  0  0  0  0  0  0  0  0  0  0  0
  -10.8996    6.6870    0.4749 C   0  0  2  0  0  0  0  0  0  0  0  0
  -11.3985    5.7220    1.5578 C   0  0  0  0  0  0  0  0  0  0  0  0
  -11.8067    4.6174    1.2589 O   0  0  0  0  0  0  0  0  0  0  0  0
   -9.6829    6.0804   -0.2373 C   0  0  0  0  0  0  0  0  0  0  0  0
  -10.0685    4.7378   -0.8665 C   0  0  0  0  0  0  0  0  0  0  0  0
  -10.8574    4.9841   -2.1526 C   0  0  0  0  0  0  0  0  0  0  0  0
  -10.0154    4.6188   -3.3273 N   0  0  0  0  0  0  0  0  0  0  0  0
   -9.4415    3.4443   -3.3876 C   0  0  0  0  0  0  0  0  0  0  0  0
   -8.1508    3.3313   -3.2069 N   0  0  0  0  0  0  0  0  0  0  0  0
  -10.1618    2.3804   -3.6229 N   0  0  0  0  0  0  0  0  0  0  0  0
  2  1  1  1  0  0  0
  2  3  1  0  0  0  0
  2  5  1  0  0  0  0
  3  4  1  0  0  0  0
  5  6  1  0  0  0  0
  6  7  1  0  0  0  0
  7  8  1  0  0  0  0
  8  9  1  0  0  0  0
  9 10  1  0  0  0  0
  9 11  1  0  0  0  0
M  END
>  <CHROM.1>
172.16749747,177.45486823,179.22079392,77.29557401,108.71340691,52.19467729
-106.80175226,36.27480955,-15.87995667,-10.26295827,4.96325506,-1.12521189
-1.98792367,-0.86074274,-2.52025563

>  <Name>
1akx_lig

>  <RI>
0

>  <Rbt.Current_Directory>
/home/itssahil/PROJECTS/Mol_Feturizer/New_Systems/rnas/1akx

>  <Rbt.Executable>
rbdock ($Id: //depot/dev/client3/rdock/2013.1/src/exe/rbdock.cxx#4 $)

>  <Rbt.Library>
libRbt.so (2013.1, Build901 2013/11/27)

>  <Rbt.Parameter_File>
/export/apps/rDock/src/rDock_2013.1_src/data/scripts/dock_solv.prm

>  <Rbt.Receptor>
prm/blind_docking_20.prm

>  <SCORE>
-28.5718

>  <SCORE.INTER>
-28.0322

>  <SCORE.INTER.CONST>
1

>  <SCORE.INTER.POLAR>
-4.17856

>  <SCORE.INTER.ROT>
8

>  <SCORE.INTER.SOLV>
13.5398

>  <SCORE.INTER.VDW>
-18.2062

>  <SCORE.INTER.norm>
-2.54838

>  <SCORE.INTRA>
-2.14939

>  <SCORE.INTRA.DIHEDRAL>
-10.4468

>  <SCORE.INTRA.DIHEDRAL.0>
21.6454

>  <SCORE.INTRA.POLAR>
0

>  <SCORE.INTRA.POLAR.0>
0

>  <SCORE.INTRA.REPUL>
0

>  <SCORE.INTRA.REPUL.0>
0

>  <SCORE.INTRA.SOLV>
0.715936

>  <SCORE.INTRA.SOLV.lig_0>
-16.5947

>  <SCORE.INTRA.VDW>
2.71604

>  <SCORE.INTRA.VDW.0>
-0.691398

>  <SCORE.INTRA.norm>
-0.195399

>  <SCORE.RESTR>
1.60974

>  <SCORE.RESTR.CAVITY>
1.60974

>  <SCORE.RESTR.norm>
0.14634

>  <SCORE.SYSTEM>
0

>  <SCORE.SYSTEM.CONST>
0

>  <SCORE.SYSTEM.DIHEDRAL>
0

>  <SCORE.SYSTEM.SOLV>
0

>  <SCORE.SYSTEM.norm>
0

>  <SCORE.heavy>
11

>  <SCORE.norm>
-2.59744

>  <RMSD>
12.764

$$$$
1akx_lig
 OpenBabel11021811383D
libRbt.so/2013.1/901 2013/11/27
 11 10  0  0  0  0  0  0  0  0999 V2000
   -9.6570    6.5129   -0.1756 N   0  0  0  0  0  0  0  0  0  0  0  0
  -11.0547    6.0907    0.1345 C   0  0  2  0  0  0  0  0  0  0  0  0
  -11.2820    6.1464    1.6504 C   0  0  0  0  0  0  0  0  0  0  0  0
  -10.5574    5.5294    2.4057 O   0  0  0  0  0  0  0  0  0  0  0  0
  -11.2846    4.6597   -0.3704 C   0  0  0  0  0  0  0  0  0  0  0  0
  -11.9861    4.6984   -1.7319 C   0  0  0  0  0  0  0  0  0  0  0  0
  -11.8818    3.3272   -2.3995 C   0  0  0  0  0  0  0  0  0  0  0  0
  -10.7280    3.3228   -3.3435 N   0  0  0  0  0  0  0  0  0  0  0  0
   -9.5444    3.7081   -2.9399 C   0  0  0  0  0  0  0  0  0  0  0  0
   -9.2259    4.9769   -2.9479 N   0  0  0  0  0  0  0  0  0  0  0  0
   -8.6802    2.8224   -2.5216 N   0  0  0  0  0  0  0  0  0  0  0  0
  2  1  1  1  0  0  0
  2  3  1  0  0  0  0
  2  5  1  0  0  0  0
  3  4  1  0  0  0  0
  5  6  1  0  0  0  0
  6  7  1  0  0  0  0
  7  8  1  0  0  0  0
  8  9  1  0  0  0  0
  9 10  1  0  0  0  0
  9 11  1  0  0  0  0
M  END
>  <CHROM.1>
38.16125707,-55.92459041,-98.02275121,165.00898417,-96.28503854,51.75624032
-85.04180399,-4.91491347,14.68254554,-10.47304912,4.72313045,-1.10763327
-1.73688071,-0.22132895,-2.12360329

>  <Name>
1akx_lig

>  <RI>
0

>  <Rbt.Current_Directory>
/home/afrankz/demos/rdock_decoys_rna/rnas/1akx

>  <Rbt.Executable>
rbdock ($Id: //depot/dev/client3/rdock/2013.1/src/exe/rbdock.cxx#4 $)

>  <Rbt.Library>
libRbt.so (2013.1, Build901 2013/11/27)

>  <Rbt.Parameter_File>
/export/apps/rDock/src/rDock_2013.1_src/data/scripts/dock_solv.prm

>  <Rbt.Receptor>
prm/blind_docking_80.prm

>  <SCORE>
-37.3077

>  <SCORE.INTER>
-31.4613

>  <SCORE.INTER.CONST>
1

>  <SCORE.INTER.POLAR>
-5.08586

>  <SCORE.INTER.ROT>
8

>  <SCORE.INTER.SOLV>
12.7939

>  <SCORE.INTER.VDW>
-17.2193

>  <SCORE.INTER.norm>
-2.86012

>  <SCORE.INTRA>
-5.87759

>  <SCORE.INTRA.DIHEDRAL>
-7.03858

>  <SCORE.INTRA.DIHEDRAL.0>
21.6454

>  <SCORE.INTRA.POLAR>
-0.983642

>  <SCORE.INTRA.POLAR.0>
0

>  <SCORE.INTRA.REPUL>
0

>  <SCORE.INTRA.REPUL.0>
0

>  <SCORE.INTRA.SOLV>
1.80034

>  <SCORE.INTRA.SOLV.lig_0>
-16.5947

>  <SCORE.INTRA.VDW>
0.0859071

>  <SCORE.INTRA.VDW.0>
-0.691398

>  <SCORE.INTRA.norm>
-0.534327

>  <SCORE.RESTR>
0.0312006

>  <SCORE.RESTR.CAVITY>
0.0312006

>  <SCORE.RESTR.norm>
0.00283642

>  <SCORE.SYSTEM>
0

>  <SCORE.SYSTEM.CONST>
0

>  <SCORE.SYSTEM.DIHEDRAL>
0

>  <SCORE.SYSTEM.SOLV>
0

>  <SCORE.SYSTEM.norm>
0

>  <SCORE.heavy>
11

>  <SCORE.norm>
-3.39161

>  <RMSD>
12.769

>  <RMSD>
12.769

$$$$
1akx_lig
 OpenBabel11021811383D
libRbt.so/2013.1/901 2013/11/27
 11 10  0  0  0  0  0  0  0  0999 V2000
   -9.6570    6.5129   -0.1756 N   0  0  0  0  0  0  0  0  0  0  0  0
  -11.0547    6.0907    0.1345 C   0  0  2  0  0  0  0  0  0  0  0  0
  -11.2820    6.1464    1.6504 C   0  0  0  0  0  0  0  0  0  0  0  0
  -10.5574    5.5294    2.4057 O   0  0  0  0  0  0  0  0  0  0  0  0
  -11.2846    4.6597   -0.3704 C   0  0  0  0  0  0  0  0  0  0  0  0
  -11.9861    4.6984   -1.7319 C   0  0  0  0  0  0  0  0  0  0  0  0
  -11.8818    3.3272   -2.3995 C   0  0  0  0  0  0  0  0  0  0  0  0
  -10.7280    3.3228   -3.3435 N   0  0  0  0  0  0  0  0  0  0  0  0
   -9.5444    3.7081   -2.9399 C   0  0  0  0  0  0  0  0  0  0  0  0
   -9.2259    4.9769   -2.9479 N   0  0  0  0  0  0  0  0  0  0  0  0
   -8.6802    2.8224   -2.5216 N   0  0  0  0  0  0  0  0  0  0  0  0
  2  1  1  1  0  0  0
  2  3  1  0  0  0  0
  2  5  1  0  0  0  0
  3  4  1  0  0  0  0
  5  6  1  0  0  0  0
  6  7  1  0  0  0  0
  7  8  1  0  0  0  0
  8  9  1  0  0  0  0
  9 10  1  0  0  0  0
  9 11  1  0  0  0  0
M  END
>  <CHROM.1>
38.16125707,-55.92459041,-98.02275121,165.00898417,-96.28503854,51.75624032
-85.04180399,-4.91491347,14.68254554,-10.47304912,4.72313045,-1.10763327
-1.73688071,-0.22132895,-2.12360329

>  <Name>
1akx_lig

>  <RI>
0

>  <Rbt.Current_Directory>
/home/afrankz/demos/rdock_decoys_rna/rnas/1akx

>  <Rbt.Executable>
rbdock ($Id: //depot/dev/client3/rdock/2013.1/src/exe/rbdock.cxx#4 $)

>  <Rbt.Library>
libRbt.so (2013.1, Build901 2013/11/27)

>  <Rbt.Parameter_File>
/export/apps/rDock/src/rDock_2013.1_src/data/scripts/dock_solv.prm

>  <Rbt.Receptor>
prm/blind_docking_80.prm

>  <SCORE>
-37.3077

>  <SCORE.INTER>
-31.4613

>  <SCORE.INTER.CONST>
1

>  <SCORE.INTER.POLAR>
-5.08586

>  <SCORE.INTER.ROT>
8

>  <SCORE.INTER.SOLV>
12.7939

>  <SCORE.INTER.VDW>
-17.2193

>  <SCORE.INTER.norm>
-2.86012

>  <SCORE.INTRA>
-5.87759

>  <SCORE.INTRA.DIHEDRAL>
-7.03858

>  <SCORE.INTRA.DIHEDRAL.0>
21.6454

>  <SCORE.INTRA.POLAR>
-0.983642

>  <SCORE.INTRA.POLAR.0>
0

>  <SCORE.INTRA.REPUL>
0

>  <SCORE.INTRA.REPUL.0>
0

>  <SCORE.INTRA.SOLV>
1.80034

>  <SCORE.INTRA.SOLV.lig_0>
-16.5947

>  <SCORE.INTRA.VDW>
0.0859071

>  <SCORE.INTRA.VDW.0>
-0.691398

>  <SCORE.INTRA.norm>
-0.534327

>  <SCORE.RESTR>
0.0312006

>  <SCORE.RESTR.CAVITY>
0.0312006

>  <SCORE.RESTR.norm>
0.00283642

>  <SCORE.SYSTEM>
0

>  <SCORE.SYSTEM.CONST>
0

>  <SCORE.SYSTEM.DIHEDRAL>
0

>  <SCORE.SYSTEM.SOLV>
0

>  <SCORE.SYSTEM.norm>
0

>  <SCORE.heavy>
11

>  <SCORE.norm>
-3.39161

>  <RMSD>
12.769

>  <RMSD>
12.769

$$$$
1akx_lig
 OpenBabel11021811383D
libRbt.so/2013.1/901 2013/11/27
 11 10  0  0  0  0  0  0  0  0999 V2000
   -9.6984    7.0532    0.2657 N   0  0  0  0  0  0  0  0  0  0  0  0
  -11.1500    6.7376    0.4120 C   0  0  2  0  0  0  0  0  0  0  0  0
  -11.4087    6.1523    1.8060 C   0  0  0  0  0  0  0  0  0  0  0  0
  -10.5877    5.4280    2.3329 O   0  0  0  0  0  0  0  0  0  0  0  0
  -11.5671    5.7220   -0.6605 C   0  0  0  0  0  0  0  0  0  0  0  0
  -10.5758    4.5539   -0.6796 C   0  0  0  0  0  0  0  0  0  0  0  0
   -9.5858    4.7429   -1.8289 C   0  0  0  0  0  0  0  0  0  0  0  0
   -9.3622    3.4356   -2.5095 N   0  0  0  0  0  0  0  0  0  0  0  0
  -10.2538    2.9657   -3.3442 C   0  0  0  0  0  0  0  0  0  0  0  0
  -10.4094    1.6743   -3.4844 N   0  0  0  0  0  0  0  0  0  0  0  0
  -10.9952    3.7897   -4.0351 N   0  0  0  0  0  0  0  0  0  0  0  0
  2  1  1  1  0  0  0
  2  3  1  0  0  0  0
  2  5  1  0  0  0  0
  3  4  1  0  0  0  0
  5  6  1  0  0  0  0
  6  7  1  0  0  0  0
  7  8  1  0  0  0  0
  8  9  1  0  0  0  0
  9 10  1  0  0  0  0
  9 11  1  0  0  0  0
M  END
>  <CHROM.1>
17.80854123,-35.89406246,48.94255266,-100.05238787,-137.97153970,77.71523062
-149.49688861,-75.54473318,-103.02596422,-10.48275104,4.73843806,-1.07354953
-2.45470841,-1.46786958,-3.08352647

>  <Name>
1akx_lig

>  <RI>
0

>  <Rbt.Current_Directory>
/home/itssahil/PROJECTS/Mol_Feturizer/New_Systems/rnas/1akx

>  <Rbt.Executable>
rbdock ($Id: //depot/dev/client3/rdock/2013.1/src/exe/rbdock.cxx#4 $)

>  <Rbt.Library>
libRbt.so (2013.1, Build901 2013/11/27)

>  <Rbt.Parameter_File>
/export/apps/rDock/src/rDock_2013.1_src/data/scripts/dock_solv.prm

>  <Rbt.Receptor>
prm/blind_docking_100.prm

>  <SCORE>
-19.2805

>  <SCORE.INTER>
-22.1926

>  <SCORE.INTER.CONST>
1

>  <SCORE.INTER.POLAR>
-2.93801

>  <SCORE.INTER.ROT>
8

>  <SCORE.INTER.SOLV>
13.4604

>  <SCORE.INTER.VDW>
-18.4218

>  <SCORE.INTER.norm>
-2.01751

>  <SCORE.INTRA>
2.91207

>  <SCORE.INTRA.DIHEDRAL>
-2.66729

>  <SCORE.INTRA.DIHEDRAL.0>
21.6454

>  <SCORE.INTRA.POLAR>
0

>  <SCORE.INTRA.POLAR.0>
0

>  <SCORE.INTRA.REPUL>
0

>  <SCORE.INTRA.REPUL.0>
0

>  <SCORE.INTRA.SOLV>
1.05992

>  <SCORE.INTRA.SOLV.lig_0>
-16.5947

>  <SCORE.INTRA.VDW>
3.71576

>  <SCORE.INTRA.VDW.0>
-0.691398

>  <SCORE.INTRA.norm>
0.264734

>  <SCORE.RESTR>
0

>  <SCORE.RESTR.CAVITY>
0

>  <SCORE.RESTR.norm>
0

>  <SCORE.SYSTEM>
0

>  <SCORE.SYSTEM.CONST>
0

>  <SCORE.SYSTEM.DIHEDRAL>
0

>  <SCORE.SYSTEM.SOLV>
0

>  <SCORE.SYSTEM.norm>
0

>  <SCORE.heavy>
11

>  <SCORE.norm>
-1.75277

>  <RMSD>
12.775

$$$$
1akx_lig
 OpenBabel11021811383D
libRbt.so/2013.1/901 2013/11/27
 11 10  0  0  0  0  0  0  0  0999 V2000
  -11.9137    5.6408    2.1532 N   0  0  0  0  0  0  0  0  0  0  0  0
  -10.9128    5.4533    1.0619 C   0  0  2  0  0  0  0  0  0  0  0  0
  -10.0368    6.7074    0.9497 C   0  0  0  0  0  0  0  0  0  0  0  0
  -10.5387    7.7931    0.7361 O   0  0  0  0  0  0  0  0  0  0  0  0
  -11.6397    5.2098   -0.2676 C   0  0  0  0  0  0  0  0  0  0  0  0
  -10.6192    4.8810   -1.3621 C   0  0  0  0  0  0  0  0  0  0  0  0
  -11.3478    4.3527   -2.5978 C   0  0  0  0  0  0  0  0  0  0  0  0
  -10.3548    4.0605   -3.6706 N   0  0  0  0  0  0  0  0  0  0  0  0
   -9.3634    3.2368   -3.4449 C   0  0  0  0  0  0  0  0  0  0  0  0
   -9.5369    1.9463   -3.5708 N   0  0  0  0  0  0  0  0  0  0  0  0
   -8.1946    3.7060   -3.0988 N   0  0  0  0  0  0  0  0  0  0  0  0
  2  1  1  1  0  0  0
  2  3  1  0  0  0  0
  2  5  1  0  0  0  0
  3  4  1  0  0  0  0
  5  6  1  0  0  0  0
  6  7  1  0  0  0  0
  7  8  1  0  0  0  0
  8  9  1  0  0  0  0
  9 10  1  0  0  0  0
  9 11  1  0  0  0  0
M  END
>  <CHROM.1>
-178.45718791,-58.02657672,-174.47949780,168.07445902,178.82984222,56.45119064
83.86926036,143.44564180,149.95696060,-10.40013385,4.82034186,-1.17410485
1.89801914,0.58842505,0.78072164

>  <Name>
1akx_lig

>  <RI>
0

>  <Rbt.Current_Directory>
/home/itssahil/PROJECTS/Mol_Feturizer/New_Systems/rnas/1akx

>  <Rbt.Executable>
rbdock ($Id: //depot/dev/client3/rdock/2013.1/src/exe/rbdock.cxx#4 $)

>  <Rbt.Library>
libRbt.so (2013.1, Build901 2013/11/27)

>  <Rbt.Parameter_File>
/export/apps/rDock/src/rDock_2013.1_src/data/scripts/dock_solv.prm

>  <Rbt.Receptor>
prm/blind_docking_20.prm

>  <SCORE>
-34.9293

>  <SCORE.INTER>
-29.6254

>  <SCORE.INTER.CONST>
1

>  <SCORE.INTER.POLAR>
-4.46282

>  <SCORE.INTER.ROT>
8

>  <SCORE.INTER.SOLV>
13.6832

>  <SCORE.INTER.VDW>
-18.3686

>  <SCORE.INTER.norm>
-2.69322

>  <SCORE.INTRA>
-6.61834

>  <SCORE.INTRA.DIHEDRAL>
-16.1166

>  <SCORE.INTRA.DIHEDRAL.0>
21.6454

>  <SCORE.INTRA.POLAR>
0

>  <SCORE.INTRA.POLAR.0>
0

>  <SCORE.INTRA.REPUL>
0

>  <SCORE.INTRA.REPUL.0>
0

>  <SCORE.INTRA.SOLV>
0.564868

>  <SCORE.INTRA.SOLV.lig_0>
-16.5947

>  <SCORE.INTRA.VDW>
1.15753

>  <SCORE.INTRA.VDW.0>
-0.691398

>  <SCORE.INTRA.norm>
-0.601667

>  <SCORE.RESTR>
1.31442

>  <SCORE.RESTR.CAVITY>
1.31442

>  <SCORE.RESTR.norm>
0.119493

>  <SCORE.SYSTEM>
0

>  <SCORE.SYSTEM.CONST>
0

>  <SCORE.SYSTEM.DIHEDRAL>
0

>  <SCORE.SYSTEM.SOLV>
0

>  <SCORE.SYSTEM.norm>
0

>  <SCORE.heavy>
11

>  <SCORE.norm>
-3.17539

>  <RMSD>
12.788

$$$$
1akx_lig
 OpenBabel11021811383D
libRbt.so/2013.1/901 2013/11/27
 11 10  0  0  0  0  0  0  0  0999 V2000
   -9.5401    6.6832   -0.1733 N   0  0  0  0  0  0  0  0  0  0  0  0
  -10.9581    6.2602    0.0227 C   0  0  2  0  0  0  0  0  0  0  0  0
  -11.2403    6.0938    1.5212 C   0  0  0  0  0  0  0  0  0  0  0  0
  -10.4568    5.4986    2.2339 O   0  0  0  0  0  0  0  0  0  0  0  0
  -11.2031    4.9288   -0.7004 C   0  0  0  0  0  0  0  0  0  0  0  0
  -12.0786    5.1647   -1.9353 C   0  0  0  0  0  0  0  0  0  0  0  0
  -11.7420    4.1268   -3.0060 C   0  0  0  0  0  0  0  0  0  0  0  0
  -10.3608    4.3682   -3.5124 N   0  0  0  0  0  0  0  0  0  0  0  0
   -9.4420    3.4448   -3.3878 C   0  0  0  0  0  0  0  0  0  0  0  0
   -8.2049    3.7775   -3.1229 N   0  0  0  0  0  0  0  0  0  0  0  0
   -9.7633    2.1860   -3.5224 N   0  0  0  0  0  0  0  0  0  0  0  0
  2  1  1  1  0  0  0
  2  3  1  0  0  0  0
  2  5  1  0  0  0  0
  3  4  1  0  0  0  0
  5  6  1  0  0  0  0
  6  7  1  0  0  0  0
  7  8  1  0  0  0  0
  8  9  1  0  0  0  0
  9 10  1  0  0  0  0
  9 11  1  0  0  0  0
M  END
>  <CHROM.1>
30.48508951,-45.81001940,-108.41509552,150.34683969,-67.40055775,119.38252618
-142.84793874,-37.27428530,-134.78722520,-10.39133486,4.77497867,-1.40843507
-1.75347005,0.13591038,-2.07648303

>  <Name>
1akx_lig

>  <RI>
0

>  <Rbt.Current_Directory>
/home/itssahil/PROJECTS/Mol_Feturizer/New_Systems/rnas/1akx

>  <Rbt.Executable>
rbdock ($Id: //depot/dev/client3/rdock/2013.1/src/exe/rbdock.cxx#4 $)

>  <Rbt.Library>
libRbt.so (2013.1, Build901 2013/11/27)

>  <Rbt.Parameter_File>
/export/apps/rDock/src/rDock_2013.1_src/data/scripts/dock_solv.prm

>  <Rbt.Receptor>
prm/blind_docking_20.prm

>  <SCORE>
-39.1742

>  <SCORE.INTER>
-37.6025

>  <SCORE.INTER.CONST>
1

>  <SCORE.INTER.POLAR>
-6.17608

>  <SCORE.INTER.ROT>
8

>  <SCORE.INTER.SOLV>
14.5189

>  <SCORE.INTER.VDW>
-18.2543

>  <SCORE.INTER.norm>
-3.41841

>  <SCORE.INTRA>
-2.3616

>  <SCORE.INTRA.DIHEDRAL>
-5.8316

>  <SCORE.INTRA.DIHEDRAL.0>
21.6454

>  <SCORE.INTRA.POLAR>
0

>  <SCORE.INTRA.POLAR.0>
0

>  <SCORE.INTRA.REPUL>
0

>  <SCORE.INTRA.REPUL.0>
0

>  <SCORE.INTRA.SOLV>
0.955908

>  <SCORE.INTRA.SOLV.lig_0>
-16.5947

>  <SCORE.INTRA.VDW>
0.0762414

>  <SCORE.INTRA.VDW.0>
-0.691398

>  <SCORE.INTRA.norm>
-0.214691

>  <SCORE.RESTR>
0.789876

>  <SCORE.RESTR.CAVITY>
0.789876

>  <SCORE.RESTR.norm>
0.0718069

>  <SCORE.SYSTEM>
0

>  <SCORE.SYSTEM.CONST>
0

>  <SCORE.SYSTEM.DIHEDRAL>
0

>  <SCORE.SYSTEM.SOLV>
0

>  <SCORE.SYSTEM.norm>
0

>  <SCORE.heavy>
11

>  <SCORE.norm>
-3.56129

>  <RMSD>
12.791

$$$$
1akx_lig
 OpenBabel11021811383D
libRbt.so/2013.1/901 2013/11/27
 11 10  0  0  0  0  0  0  0  0999 V2000
   -9.6223    6.5162   -0.0650 N   0  0  0  0  0  0  0  0  0  0  0  0
  -11.0179    6.0482    0.1831 C   0  0  2  0  0  0  0  0  0  0  0  0
  -11.2029    5.7594    1.6781 C   0  0  0  0  0  0  0  0  0  0  0  0
  -11.1452    6.6598    2.4919 O   0  0  0  0  0  0  0  0  0  0  0  0
  -11.2850    4.7722   -0.6268 C   0  0  0  0  0  0  0  0  0  0  0  0
  -11.7232    5.1436   -2.0471 C   0  0  0  0  0  0  0  0  0  0  0  0
  -11.6627    3.9048   -2.9408 C   0  0  0  0  0  0  0  0  0  0  0  0
  -10.3994    3.9265   -3.7320 N   0  0  0  0  0  0  0  0  0  0  0  0
   -9.3871    3.1763   -3.3788 C   0  0  0  0  0  0  0  0  0  0  0  0
   -9.4928    1.8726   -3.4034 N   0  0  0  0  0  0  0  0  0  0  0  0
   -8.2652    3.7318   -3.0065 N   0  0  0  0  0  0  0  0  0  0  0  0
  2  1  1  1  0  0  0
  2  3  1  0  0  0  0
  2  5  1  0  0  0  0
  3  4  1  0  0  0  0
  5  6  1  0  0  0  0
  6  7  1  0  0  0  0
  7  8  1  0  0  0  0
  8  9  1  0  0  0  0
  9 10  1  0  0  0  0
  9 11  1  0  0  0  0
M  END
>  <CHROM.1>
24.72804974,65.65583155,-85.08752846,166.46554034,-99.20772256,102.05191431
64.01667697,-55.32066636,-24.71662956,-10.41784583,4.69292816,-1.34061828
-1.79043450,0.07097340,-2.13985596

>  <Name>
1akx_lig

>  <RI>
0

>  <Rbt.Current_Directory>
/home/itssahil/PROJECTS/Mol_Feturizer/New_Systems/rnas/1akx

>  <Rbt.Executable>
rbdock ($Id: //depot/dev/client3/rdock/2013.1/src/exe/rbdock.cxx#4 $)

>  <Rbt.Library>
libRbt.so (2013.1, Build901 2013/11/27)

>  <Rbt.Parameter_File>
/export/apps/rDock/src/rDock_2013.1_src/data/scripts/dock_solv.prm

>  <Rbt.Receptor>
prm/blind_docking_100.prm

>  <SCORE>
-44.6173

>  <SCORE.INTER>
-40.9404

>  <SCORE.INTER.CONST>
1

>  <SCORE.INTER.POLAR>
-6.39922

>  <SCORE.INTER.ROT>
8

>  <SCORE.INTER.SOLV>
14.0421

>  <SCORE.INTER.VDW>
-19.5769

>  <SCORE.INTER.norm>
-3.72185

>  <SCORE.INTRA>
-3.70429

>  <SCORE.INTRA.DIHEDRAL>
-7.4706

>  <SCORE.INTRA.DIHEDRAL.0>
21.6454

>  <SCORE.INTRA.POLAR>
0

>  <SCORE.INTRA.POLAR.0>
0

>  <SCORE.INTRA.REPUL>
0

>  <SCORE.INTRA.REPUL.0>
0

>  <SCORE.INTRA.SOLV>
0.620338

>  <SCORE.INTRA.SOLV.lig_0>
-16.5947

>  <SCORE.INTRA.VDW>
-0.27916

>  <SCORE.INTRA.VDW.0>
-0.691398

>  <SCORE.INTRA.norm>
-0.336754

>  <SCORE.RESTR>
0.0273499

>  <SCORE.RESTR.CAVITY>
0.0273499

>  <SCORE.RESTR.norm>
0.00248635

>  <SCORE.SYSTEM>
0

>  <SCORE.SYSTEM.CONST>
0

>  <SCORE.SYSTEM.DIHEDRAL>
0

>  <SCORE.SYSTEM.SOLV>
0

>  <SCORE.SYSTEM.norm>
0

>  <SCORE.heavy>
11

>  <SCORE.norm>
-4.05612

>  <RMSD>
12.798

$$$$
1akx_lig
 OpenBabel11021811383D
libRbt.so/2013.1/901 2013/11/27
 11 10  0  0  0  0  0  0  0  0999 V2000
  -13.5487    5.0459   -2.3098 N   0  0  0  0  0  0  0  0  0  0  0  0
  -12.1957    4.4956   -2.0019 C   0  0  2  0  0  0  0  0  0  0  0  0
  -12.2217    2.9678   -2.1364 C   0  0  0  0  0  0  0  0  0  0  0  0
  -13.0131    2.3057   -1.4949 O   0  0  0  0  0  0  0  0  0  0  0  0
  -11.7958    4.8818   -0.5714 C   0  0  0  0  0  0  0  0  0  0  0  0
  -10.5817    5.8156   -0.6084 C   0  0  0  0  0  0  0  0  0  0  0  0
   -9.3734    5.0608   -1.1625 C   0  0  0  0  0  0  0  0  0  0  0  0
   -9.4932    4.9546   -2.6446 N   0  0  0  0  0  0  0  0  0  0  0  0
   -9.1921    3.8353   -3.2520 C   0  0  0  0  0  0  0  0  0  0  0  0
   -8.0605    3.2306   -2.9966 N   0  0  0  0  0  0  0  0  0  0  0  0
  -10.0278    3.3172   -4.1117 N   0  0  0  0  0  0  0  0  0  0  0  0
  2  1  1  1  0  0  0
  2  3  1  0  0  0  0
  2  5  1  0  0  0  0
  3  4  1  0  0  0  0
  5  6  1  0  0  0  0
  6  7  1  0  0  0  0
  7  8  1  0  0  0  0
  8  9  1  0  0  0  0
  9 10  1  0  0  0  0
  9 11  1  0  0  0  0
M  END
>  <CHROM.1>
-53.30766336,-56.36402372,-115.03905209,-65.43232712,77.38872143,-137.96890961
-49.49686675,20.02846284,50.72826221,-10.89517333,4.15170366,-2.15297456
2.90523616,0.21539793,0.69495314

>  <Name>
1akx_lig

>  <RI>
0

>  <Rbt.Current_Directory>
/home/itssahil/PROJECTS/Mol_Feturizer/New_Systems/rnas/1akx

>  <Rbt.Executable>
rbdock ($Id: //depot/dev/client3/rdock/2013.1/src/exe/rbdock.cxx#4 $)

>  <Rbt.Library>
libRbt.so (2013.1, Build901 2013/11/27)

>  <Rbt.Parameter_File>
/export/apps/rDock/src/rDock_2013.1_src/data/scripts/dock_solv.prm

>  <Rbt.Receptor>
prm/blind_docking_20.prm

>  <SCORE>
-25.1646

>  <SCORE.INTER>
-21.2898

>  <SCORE.INTER.CONST>
1

>  <SCORE.INTER.POLAR>
-3.6019

>  <SCORE.INTER.ROT>
8

>  <SCORE.INTER.SOLV>
12.2184

>  <SCORE.INTER.VDW>
-15.193

>  <SCORE.INTER.norm>
-1.93543

>  <SCORE.INTRA>
-3.87481

>  <SCORE.INTRA.DIHEDRAL>
-9.71458

>  <SCORE.INTRA.DIHEDRAL.0>
21.6454

>  <SCORE.INTRA.POLAR>
0

>  <SCORE.INTRA.POLAR.0>
0

>  <SCORE.INTRA.REPUL>
0

>  <SCORE.INTRA.REPUL.0>
0

>  <SCORE.INTRA.SOLV>
1.86899

>  <SCORE.INTRA.SOLV.lig_0>
-16.5947

>  <SCORE.INTRA.VDW>
0.0479829

>  <SCORE.INTRA.VDW.0>
-0.691398

>  <SCORE.INTRA.norm>
-0.352255

>  <SCORE.RESTR>
0

>  <SCORE.RESTR.CAVITY>
0

>  <SCORE.RESTR.norm>
0

>  <SCORE.SYSTEM>
0

>  <SCORE.SYSTEM.CONST>
0

>  <SCORE.SYSTEM.DIHEDRAL>
0

>  <SCORE.SYSTEM.SOLV>
0

>  <SCORE.SYSTEM.norm>
0

>  <SCORE.heavy>
11

>  <SCORE.norm>
-2.28769

>  <RMSD>
12.798

$$$$
1akx_lig
 OpenBabel11021811383D
libRbt.so/2013.1/901 2013/11/27
 11 10  0  0  0  0  0  0  0  0999 V2000
  -11.2731    4.4700    1.3720 N   0  0  0  0  0  0  0  0  0  0  0  0
  -10.4908    5.5536    0.7071 C   0  0  2  0  0  0  0  0  0  0  0  0
  -10.6029    6.8439    1.5288 C   0  0  0  0  0  0  0  0  0  0  0  0
   -9.7802    7.7290    1.4024 O   0  0  0  0  0  0  0  0  0  0  0  0
  -11.0391    5.7916   -0.7065 C   0  0  0  0  0  0  0  0  0  0  0  0
  -11.4954    4.4615   -1.3147 C   0  0  0  0  0  0  0  0  0  0  0  0
  -11.7760    4.6510   -2.8054 C   0  0  0  0  0  0  0  0  0  0  0  0
  -10.5630    4.2801   -3.5884 N   0  0  0  0  0  0  0  0  0  0  0  0
   -9.6724    3.4676   -3.0793 C   0  0  0  0  0  0  0  0  0  0  0  0
   -8.4695    3.8994   -2.8002 N   0  0  0  0  0  0  0  0  0  0  0  0
   -9.9884    2.2224   -2.8432 N   0  0  0  0  0  0  0  0  0  0  0  0
  2  1  1  1  0  0  0
  2  3  1  0  0  0  0
  2  5  1  0  0  0  0
  3  4  1  0  0  0  0
  5  6  1  0  0  0  0
  6  7  1  0  0  0  0
  7  8  1  0  0  0  0
  8  9  1  0  0  0  0
  9 10  1  0  0  0  0
  9 11  1  0  0  0  0
M  END
>  <CHROM.1>
-162.21138513,159.46392840,-35.41204006,-168.75775553,94.59631690,23.24824976
-113.72214149,-15.08026335,-18.83075456,-10.44805310,4.83015903,-1.08288578
1.68832734,0.59658095,0.89695884

>  <Name>
1akx_lig

>  <RI>
0

>  <Rbt.Current_Directory>
/home/itssahil/PROJECTS/Mol_Feturizer/New_Systems/rnas/1akx

>  <Rbt.Executable>
rbdock ($Id: //depot/dev/client3/rdock/2013.1/src/exe/rbdock.cxx#4 $)

>  <Rbt.Library>
libRbt.so (2013.1, Build901 2013/11/27)

>  <Rbt.Parameter_File>
/export/apps/rDock/src/rDock_2013.1_src/data/scripts/dock_solv.prm

>  <Rbt.Receptor>
prm/blind_docking_20.prm

>  <SCORE>
-32.3241

>  <SCORE.INTER>
-32.8357

>  <SCORE.INTER.CONST>
1

>  <SCORE.INTER.POLAR>
-5.0775

>  <SCORE.INTER.ROT>
8

>  <SCORE.INTER.SOLV>
13.4961

>  <SCORE.INTER.VDW>
-18.3975

>  <SCORE.INTER.norm>
-2.98506

>  <SCORE.INTRA>
-0.35152

>  <SCORE.INTRA.DIHEDRAL>
-8.69033

>  <SCORE.INTRA.DIHEDRAL.0>
21.6454

>  <SCORE.INTRA.POLAR>
0

>  <SCORE.INTRA.POLAR.0>
0

>  <SCORE.INTRA.REPUL>
0

>  <SCORE.INTRA.REPUL.0>
0

>  <SCORE.INTRA.SOLV>
0.707164

>  <SCORE.INTRA.SOLV.lig_0>
-16.5947

>  <SCORE.INTRA.VDW>
3.64006

>  <SCORE.INTRA.VDW.0>
-0.691398

>  <SCORE.INTRA.norm>
-0.0319563

>  <SCORE.RESTR>
0.863073

>  <SCORE.RESTR.CAVITY>
0.863073

>  <SCORE.RESTR.norm>
0.0784612

>  <SCORE.SYSTEM>
0

>  <SCORE.SYSTEM.CONST>
0

>  <SCORE.SYSTEM.DIHEDRAL>
0

>  <SCORE.SYSTEM.SOLV>
0

>  <SCORE.SYSTEM.norm>
0

>  <SCORE.heavy>
11

>  <SCORE.norm>
-2.93856

>  <RMSD>
12.802

$$$$
1akx_lig
 OpenBabel11021811383D
libRbt.so/2013.1/901 2013/11/27
 11 10  0  0  0  0  0  0  0  0999 V2000
   -9.5551    6.4424   -0.2999 N   0  0  0  0  0  0  0  0  0  0  0  0
  -10.9484    5.9979   -0.0012 C   0  0  2  0  0  0  0  0  0  0  0  0
  -11.2075    6.1043    1.5068 C   0  0  0  0  0  0  0  0  0  0  0  0
  -10.5192    5.4880    2.2958 O   0  0  0  0  0  0  0  0  0  0  0  0
  -11.1340    4.5440   -0.4563 C   0  0  0  0  0  0  0  0  0  0  0  0
  -12.2071    4.4769   -1.5478 C   0  0  0  0  0  0  0  0  0  0  0  0
  -12.2825    3.0548   -2.1034 C   0  0  0  0  0  0  0  0  0  0  0  0
  -10.9615    2.6793   -2.6834 N   0  0  0  0  0  0  0  0  0  0  0  0
  -10.2448    3.5688   -3.3217 C   0  0  0  0  0  0  0  0  0  0  0  0
  -10.8250    4.4555   -4.0888 N   0  0  0  0  0  0  0  0  0  0  0  0
   -8.9456    3.5748   -3.1869 N   0  0  0  0  0  0  0  0  0  0  0  0
  2  1  1  1  0  0  0
  2  3  1  0  0  0  0
  2  5  1  0  0  0  0
  3  4  1  0  0  0  0
  5  6  1  0  0  0  0
  6  7  1  0  0  0  0
  7  8  1  0  0  0  0
  8  9  1  0  0  0  0
  9 10  1  0  0  0  0
  9 11  1  0  0  0  0
M  END
>  <CHROM.1>
-79.66859245,-59.08691645,-117.61289284,173.95027881,-60.08624000,-37.14785966
-37.80721876,162.11493899,27.87795824,-10.74564139,4.59856601,-1.26722590
-1.58957512,-0.51681078,-2.06671881

>  <Name>
1akx_lig

>  <RI>
0

>  <Rbt.Current_Directory>
/home/itssahil/PROJECTS/Mol_Feturizer/New_Systems/rnas/1akx

>  <Rbt.Executable>
rbdock ($Id: //depot/dev/client3/rdock/2013.1/src/exe/rbdock.cxx#4 $)

>  <Rbt.Library>
libRbt.so (2013.1, Build901 2013/11/27)

>  <Rbt.Parameter_File>
/export/apps/rDock/src/rDock_2013.1_src/data/scripts/dock_solv.prm

>  <Rbt.Receptor>
prm/blind_docking_20.prm

>  <SCORE>
-33.4257

>  <SCORE.INTER>
-32.2514

>  <SCORE.INTER.CONST>
1

>  <SCORE.INTER.POLAR>
-5.09968

>  <SCORE.INTER.ROT>
8

>  <SCORE.INTER.SOLV>
12.5727

>  <SCORE.INTER.VDW>
-17.6262

>  <SCORE.INTER.norm>
-2.93195

>  <SCORE.INTRA>
-1.99242

>  <SCORE.INTRA.DIHEDRAL>
-9.95255

>  <SCORE.INTRA.DIHEDRAL.0>
21.6454

>  <SCORE.INTRA.POLAR>
0

>  <SCORE.INTRA.POLAR.0>
0

>  <SCORE.INTRA.REPUL>
0

>  <SCORE.INTRA.REPUL.0>
0

>  <SCORE.INTRA.SOLV>
1.40007

>  <SCORE.INTRA.SOLV.lig_0>
-16.5947

>  <SCORE.INTRA.VDW>
2.28382

>  <SCORE.INTRA.VDW.0>
-0.691398

>  <SCORE.INTRA.norm>
-0.181129

>  <SCORE.RESTR>
0.818114

>  <SCORE.RESTR.CAVITY>
0.818114

>  <SCORE.RESTR.norm>
0.074374

>  <SCORE.SYSTEM>
0

>  <SCORE.SYSTEM.CONST>
0

>  <SCORE.SYSTEM.DIHEDRAL>
0

>  <SCORE.SYSTEM.SOLV>
0

>  <SCORE.SYSTEM.norm>
0

>  <SCORE.heavy>
11

>  <SCORE.norm>
-3.0387

>  <RMSD>
12.809

$$$$
1akx_lig
 OpenBabel11021811383D
libRbt.so/2013.1/901 2013/11/27
 11 10  0  0  0  0  0  0  0  0999 V2000
  -10.9452    4.6513    1.2696 N   0  0  0  0  0  0  0  0  0  0  0  0
  -10.4752    5.6526    0.2673 C   0  0  2  0  0  0  0  0  0  0  0  0
  -10.6276    7.0654    0.8447 C   0  0  0  0  0  0  0  0  0  0  0  0
  -11.7129    7.4662    1.2158 O   0  0  0  0  0  0  0  0  0  0  0  0
  -11.3072    5.5262   -1.0162 C   0  0  0  0  0  0  0  0  0  0  0  0
  -11.2971    4.0717   -1.4977 C   0  0  0  0  0  0  0  0  0  0  0  0
  -11.6569    4.0227   -2.9826 C   0  0  0  0  0  0  0  0  0  0  0  0
  -10.4068    4.0065   -3.7945 N   0  0  0  0  0  0  0  0  0  0  0  0
   -9.4055    3.2385   -3.4482 C   0  0  0  0  0  0  0  0  0  0  0  0
   -9.5185    1.9370   -3.5171 N   0  0  0  0  0  0  0  0  0  0  0  0
   -8.2870    3.7742   -3.0384 N   0  0  0  0  0  0  0  0  0  0  0  0
  2  1  1  1  0  0  0
  2  3  1  0  0  0  0
  2  5  1  0  0  0  0
  3  4  1  0  0  0  0
  5  6  1  0  0  0  0
  6  7  1  0  0  0  0
  7  8  1  0  0  0  0
  8  9  1  0  0  0  0
  9 10  1  0  0  0  0
  9 11  1  0  0  0  0
M  END
>  <CHROM.1>
-54.81768522,-57.65718882,-52.73653034,-159.27574217,94.90501424,44.04757867
67.38341038,133.55636643,153.93087120,-10.49898461,4.65696143,-1.40188270
-1.86747580,0.42022846,-2.09924334

>  <Name>
1akx_lig

>  <RI>
0

>  <Rbt.Current_Directory>
/home/itssahil/PROJECTS/Mol_Feturizer/New_Systems/rnas/1akx

>  <Rbt.Executable>
rbdock ($Id: //depot/dev/client3/rdock/2013.1/src/exe/rbdock.cxx#4 $)

>  <Rbt.Library>
libRbt.so (2013.1, Build901 2013/11/27)

>  <Rbt.Parameter_File>
/export/apps/rDock/src/rDock_2013.1_src/data/scripts/dock_solv.prm

>  <Rbt.Receptor>
prm/blind_docking_40.prm

>  <SCORE>
-39.3106

>  <SCORE.INTER>
-35.5606

>  <SCORE.INTER.CONST>
1

>  <SCORE.INTER.POLAR>
-5.67946

>  <SCORE.INTER.ROT>
8

>  <SCORE.INTER.SOLV>
13.5942

>  <SCORE.INTER.VDW>
-18.2403

>  <SCORE.INTER.norm>
-3.23278

>  <SCORE.INTRA>
-3.85401

>  <SCORE.INTRA.DIHEDRAL>
-11.4539

>  <SCORE.INTRA.DIHEDRAL.0>
21.6454

>  <SCORE.INTRA.POLAR>
0

>  <SCORE.INTRA.POLAR.0>
0

>  <SCORE.INTRA.REPUL>
0

>  <SCORE.INTRA.REPUL.0>
0

>  <SCORE.INTRA.SOLV>
0.89026

>  <SCORE.INTRA.SOLV.lig_0>
-16.5947

>  <SCORE.INTRA.VDW>
1.42782

>  <SCORE.INTRA.VDW.0>
-0.691398

>  <SCORE.INTRA.norm>
-0.350365

>  <SCORE.RESTR>
0.104027

>  <SCORE.RESTR.CAVITY>
0.104027

>  <SCORE.RESTR.norm>
0.00945704

>  <SCORE.SYSTEM>
0

>  <SCORE.SYSTEM.CONST>
0

>  <SCORE.SYSTEM.DIHEDRAL>
0

>  <SCORE.SYSTEM.SOLV>
0

>  <SCORE.SYSTEM.norm>
0

>  <SCORE.heavy>
11

>  <SCORE.norm>
-3.57369

>  <RMSD>
12.811

$$$$
1akx_lig
 OpenBabel11021811383D
libRbt.so/2013.1/901 2013/11/27
 11 10  0  0  0  0  0  0  0  0999 V2000
   -9.5196    6.5938   -0.2493 N   0  0  0  0  0  0  0  0  0  0  0  0
  -10.9273    6.1287   -0.0754 C   0  0  2  0  0  0  0  0  0  0  0  0
  -11.2301    5.9610    1.4189 C   0  0  0  0  0  0  0  0  0  0  0  0
  -11.0822    6.8912    2.1863 O   0  0  0  0  0  0  0  0  0  0  0  0
  -11.1194    4.7871   -0.7956 C   0  0  0  0  0  0  0  0  0  0  0  0
  -11.9019    5.0051   -2.0946 C   0  0  0  0  0  0  0  0  0  0  0  0
  -11.7012    3.8047   -3.0195 C   0  0  0  0  0  0  0  0  0  0  0  0
  -10.4001    3.9423   -3.7339 N   0  0  0  0  0  0  0  0  0  0  0  0
   -9.3802    3.1950   -3.3965 C   0  0  0  0  0  0  0  0  0  0  0  0
   -8.2541    3.7463   -3.0231 N   0  0  0  0  0  0  0  0  0  0  0  0
   -9.4898    1.8939   -3.4268 N   0  0  0  0  0  0  0  0  0  0  0  0
  2  1  1  1  0  0  0
  2  3  1  0  0  0  0
  2  5  1  0  0  0  0
  3  4  1  0  0  0  0
  5  6  1  0  0  0  0
  6  7  1  0  0  0  0
  7  8  1  0  0  0  0
  8  9  1  0  0  0  0
  9 10  1  0  0  0  0
  9 11  1  0  0  0  0
M  END
>  <CHROM.1>
-87.44619536,56.42631637,-104.72180564,161.46248741,-81.11404856,106.21366209
-122.38256007,-23.47059877,127.18537227,-10.39832265,4.73534200,-1.46360384
-1.78009732,0.01584368,-2.20281727

>  <Name>
1akx_lig

>  <RI>
0

>  <Rbt.Current_Directory>
/home/itssahil/PROJECTS/Mol_Feturizer/New_Systems/rnas/1akx

>  <Rbt.Executable>
rbdock ($Id: //depot/dev/client3/rdock/2013.1/src/exe/rbdock.cxx#4 $)

>  <Rbt.Library>
libRbt.so (2013.1, Build901 2013/11/27)

>  <Rbt.Parameter_File>
/export/apps/rDock/src/rDock_2013.1_src/data/scripts/dock_solv.prm

>  <Rbt.Receptor>
prm/blind_docking_20.prm

>  <SCORE>
-42.4301

>  <SCORE.INTER>
-39.434

>  <SCORE.INTER.CONST>
1

>  <SCORE.INTER.POLAR>
-6.44583

>  <SCORE.INTER.ROT>
8

>  <SCORE.INTER.SOLV>
14.1245

>  <SCORE.INTER.VDW>
-18.4447

>  <SCORE.INTER.norm>
-3.58491

>  <SCORE.INTRA>
-3.76498

>  <SCORE.INTRA.DIHEDRAL>
-7.39212

>  <SCORE.INTRA.DIHEDRAL.0>
21.6454

>  <SCORE.INTRA.POLAR>
0

>  <SCORE.INTRA.POLAR.0>
0

>  <SCORE.INTRA.REPUL>
0

>  <SCORE.INTRA.REPUL.0>
0

>  <SCORE.INTRA.SOLV>
0.775663

>  <SCORE.INTRA.SOLV.lig_0>
-16.5947

>  <SCORE.INTRA.VDW>
-0.456758

>  <SCORE.INTRA.VDW.0>
-0.691398

>  <SCORE.INTRA.norm>
-0.342271

>  <SCORE.RESTR>
0.768935

>  <SCORE.RESTR.CAVITY>
0.768935

>  <SCORE.RESTR.norm>
0.0699032

>  <SCORE.SYSTEM>
0

>  <SCORE.SYSTEM.CONST>
0

>  <SCORE.SYSTEM.DIHEDRAL>
0

>  <SCORE.SYSTEM.SOLV>
0

>  <SCORE.SYSTEM.norm>
0

>  <SCORE.heavy>
11

>  <SCORE.norm>
-3.85728

>  <RMSD>
12.842

$$$$
1akx_lig
 OpenBabel11021811383D
libRbt.so/2013.1/901 2013/11/27
 11 10  0  0  0  0  0  0  0  0999 V2000
  -10.1100    7.4078    1.1973 N   0  0  0  0  0  0  0  0  0  0  0  0
  -11.1379    6.3794    0.8600 C   0  0  2  0  0  0  0  0  0  0  0  0
  -11.9162    5.9991    2.1259 C   0  0  0  0  0  0  0  0  0  0  0  0
  -11.3539    5.4551    3.0555 O   0  0  0  0  0  0  0  0  0  0  0  0
  -10.4509    5.1346    0.2821 C   0  0  0  0  0  0  0  0  0  0  0  0
   -9.9237    5.4408   -1.1235 C   0  0  0  0  0  0  0  0  0  0  0  0
  -10.9600    5.0121   -2.1624 C   0  0  0  0  0  0  0  0  0  0  0  0
  -10.2675    4.6495   -3.4317 N   0  0  0  0  0  0  0  0  0  0  0  0
   -9.5701    3.5450   -3.5102 C   0  0  0  0  0  0  0  0  0  0  0  0
   -8.2630    3.5915   -3.5398 N   0  0  0  0  0  0  0  0  0  0  0  0
  -10.1818    2.3918   -3.5527 N   0  0  0  0  0  0  0  0  0  0  0  0
  2  1  1  1  0  0  0
  2  3  1  0  0  0  0
  2  5  1  0  0  0  0
  3  4  1  0  0  0  0
  5  6  1  0  0  0  0
  6  7  1  0  0  0  0
  7  8  1  0  0  0  0
  8  9  1  0  0  0  0
  9 10  1  0  0  0  0
  9 11  1  0  0  0  0
M  END
>  <CHROM.1>
-153.66259180,-64.27956207,-71.55189176,-94.34518124,-151.51958632,72.05096760
-107.21949539,-9.65154823,177.09956967,-10.34676256,5.00250974,-0.88328761
-2.02682127,-0.97995513,-2.41894431

>  <Name>
1akx_lig

>  <RI>
0

>  <Rbt.Current_Directory>
/home/afrankz/demos/rdock_decoys_rna/rnas/1akx

>  <Rbt.Executable>
rbdock ($Id: //depot/dev/client3/rdock/2013.1/src/exe/rbdock.cxx#4 $)

>  <Rbt.Library>
libRbt.so (2013.1, Build901 2013/11/27)

>  <Rbt.Parameter_File>
/export/apps/rDock/src/rDock_2013.1_src/data/scripts/dock_solv.prm

>  <Rbt.Receptor>
prm/blind_docking_60.prm

>  <SCORE>
-38.5895

>  <SCORE.INTER>
-35.2828

>  <SCORE.INTER.CONST>
1

>  <SCORE.INTER.POLAR>
-5.44488

>  <SCORE.INTER.ROT>
8

>  <SCORE.INTER.SOLV>
13.6634

>  <SCORE.INTER.VDW>
-18.8601

>  <SCORE.INTER.norm>
-3.20753

>  <SCORE.INTRA>
-3.68731

>  <SCORE.INTRA.DIHEDRAL>
-8.51044

>  <SCORE.INTRA.DIHEDRAL.0>
21.6454

>  <SCORE.INTRA.POLAR>
0

>  <SCORE.INTRA.POLAR.0>
0

>  <SCORE.INTRA.REPUL>
0

>  <SCORE.INTRA.REPUL.0>
0

>  <SCORE.INTRA.SOLV>
0.555292

>  <SCORE.INTRA.SOLV.lig_0>
-16.5947

>  <SCORE.INTRA.VDW>
0.290263

>  <SCORE.INTRA.VDW.0>
-0.691398

>  <SCORE.INTRA.norm>
-0.33521

>  <SCORE.RESTR>
0.380566

>  <SCORE.RESTR.CAVITY>
0.380566

>  <SCORE.RESTR.norm>
0.0345969

>  <SCORE.SYSTEM>
0

>  <SCORE.SYSTEM.CONST>
0

>  <SCORE.SYSTEM.DIHEDRAL>
0

>  <SCORE.SYSTEM.SOLV>
0

>  <SCORE.SYSTEM.norm>
0

>  <SCORE.heavy>
11

>  <SCORE.norm>
-3.50814

>  <RMSD>
12.843

>  <RMSD>
12.843

$$$$
1akx_lig
 OpenBabel11021811383D
libRbt.so/2013.1/901 2013/11/27
 11 10  0  0  0  0  0  0  0  0999 V2000
  -10.1100    7.4078    1.1973 N   0  0  0  0  0  0  0  0  0  0  0  0
  -11.1379    6.3794    0.8600 C   0  0  2  0  0  0  0  0  0  0  0  0
  -11.9162    5.9991    2.1259 C   0  0  0  0  0  0  0  0  0  0  0  0
  -11.3539    5.4551    3.0555 O   0  0  0  0  0  0  0  0  0  0  0  0
  -10.4509    5.1346    0.2821 C   0  0  0  0  0  0  0  0  0  0  0  0
   -9.9237    5.4408   -1.1235 C   0  0  0  0  0  0  0  0  0  0  0  0
  -10.9600    5.0121   -2.1624 C   0  0  0  0  0  0  0  0  0  0  0  0
  -10.2675    4.6495   -3.4317 N   0  0  0  0  0  0  0  0  0  0  0  0
   -9.5701    3.5450   -3.5102 C   0  0  0  0  0  0  0  0  0  0  0  0
   -8.2630    3.5915   -3.5398 N   0  0  0  0  0  0  0  0  0  0  0  0
  -10.1818    2.3918   -3.5527 N   0  0  0  0  0  0  0  0  0  0  0  0
  2  1  1  1  0  0  0
  2  3  1  0  0  0  0
  2  5  1  0  0  0  0
  3  4  1  0  0  0  0
  5  6  1  0  0  0  0
  6  7  1  0  0  0  0
  7  8  1  0  0  0  0
  8  9  1  0  0  0  0
  9 10  1  0  0  0  0
  9 11  1  0  0  0  0
M  END
>  <CHROM.1>
-153.66259180,-64.27956207,-71.55189176,-94.34518124,-151.51958632,72.05096760
-107.21949539,-9.65154823,177.09956967,-10.34676256,5.00250974,-0.88328761
-2.02682127,-0.97995513,-2.41894431

>  <Name>
1akx_lig

>  <RI>
0

>  <Rbt.Current_Directory>
/home/afrankz/demos/rdock_decoys_rna/rnas/1akx

>  <Rbt.Executable>
rbdock ($Id: //depot/dev/client3/rdock/2013.1/src/exe/rbdock.cxx#4 $)

>  <Rbt.Library>
libRbt.so (2013.1, Build901 2013/11/27)

>  <Rbt.Parameter_File>
/export/apps/rDock/src/rDock_2013.1_src/data/scripts/dock_solv.prm

>  <Rbt.Receptor>
prm/blind_docking_60.prm

>  <SCORE>
-38.5895

>  <SCORE.INTER>
-35.2828

>  <SCORE.INTER.CONST>
1

>  <SCORE.INTER.POLAR>
-5.44488

>  <SCORE.INTER.ROT>
8

>  <SCORE.INTER.SOLV>
13.6634

>  <SCORE.INTER.VDW>
-18.8601

>  <SCORE.INTER.norm>
-3.20753

>  <SCORE.INTRA>
-3.68731

>  <SCORE.INTRA.DIHEDRAL>
-8.51044

>  <SCORE.INTRA.DIHEDRAL.0>
21.6454

>  <SCORE.INTRA.POLAR>
0

>  <SCORE.INTRA.POLAR.0>
0

>  <SCORE.INTRA.REPUL>
0

>  <SCORE.INTRA.REPUL.0>
0

>  <SCORE.INTRA.SOLV>
0.555292

>  <SCORE.INTRA.SOLV.lig_0>
-16.5947

>  <SCORE.INTRA.VDW>
0.290263

>  <SCORE.INTRA.VDW.0>
-0.691398

>  <SCORE.INTRA.norm>
-0.33521

>  <SCORE.RESTR>
0.380566

>  <SCORE.RESTR.CAVITY>
0.380566

>  <SCORE.RESTR.norm>
0.0345969

>  <SCORE.SYSTEM>
0

>  <SCORE.SYSTEM.CONST>
0

>  <SCORE.SYSTEM.DIHEDRAL>
0

>  <SCORE.SYSTEM.SOLV>
0

>  <SCORE.SYSTEM.norm>
0

>  <SCORE.heavy>
11

>  <SCORE.norm>
-3.50814

>  <RMSD>
12.843

>  <RMSD>
12.843

$$$$
1akx_lig
 OpenBabel11021811383D
libRbt.so/2013.1/901 2013/11/27
 11 10  0  0  0  0  0  0  0  0999 V2000
  -10.0810    7.1541    0.8208 N   0  0  0  0  0  0  0  0  0  0  0  0
  -11.3273    6.3374    0.7322 C   0  0  2  0  0  0  0  0  0  0  0  0
  -11.7304    5.8648    2.1347 C   0  0  0  0  0  0  0  0  0  0  0  0
  -10.9035    5.3873    2.8860 O   0  0  0  0  0  0  0  0  0  0  0  0
  -11.0835    5.1220   -0.1726 C   0  0  0  0  0  0  0  0  0  0  0  0
  -10.9818    5.5764   -1.6323 C   0  0  0  0  0  0  0  0  0  0  0  0
  -11.4782    4.4597   -2.5507 C   0  0  0  0  0  0  0  0  0  0  0  0
  -10.4582    4.1962   -3.6054 N   0  0  0  0  0  0  0  0  0  0  0  0
   -9.4682    3.3723   -3.3742 C   0  0  0  0  0  0  0  0  0  0  0  0
   -9.6623    2.0794   -3.4200 N   0  0  0  0  0  0  0  0  0  0  0  0
   -8.2805    3.8433   -3.1030 N   0  0  0  0  0  0  0  0  0  0  0  0
  2  1  1  1  0  0  0
  2  3  1  0  0  0  0
  2  5  1  0  0  0  0
  3  4  1  0  0  0  0
  5  6  1  0  0  0  0
  6  7  1  0  0  0  0
  7  8  1  0  0  0  0
  8  9  1  0  0  0  0
  9 10  1  0  0  0  0
  9 11  1  0  0  0  0
M  END
>  <CHROM.1>
-46.64593007,-46.47443057,-71.97449967,-149.99770871,-128.71910534,85.83328763
77.93339833,46.76460751,146.33504769,-10.44689964,4.85478035,-1.01513375
2.11544749,-1.10207275,1.57540283

>  <Name>
1akx_lig

>  <RI>
0

>  <Rbt.Current_Directory>
/home/itssahil/PROJECTS/Mol_Feturizer/New_Systems/rnas/1akx

>  <Rbt.Executable>
rbdock ($Id: //depot/dev/client3/rdock/2013.1/src/exe/rbdock.cxx#4 $)

>  <Rbt.Library>
libRbt.so (2013.1, Build901 2013/11/27)

>  <Rbt.Parameter_File>
/export/apps/rDock/src/rDock_2013.1_src/data/scripts/dock_solv.prm

>  <Rbt.Receptor>
prm/blind_docking_100.prm

>  <SCORE>
-33.6763

>  <SCORE.INTER>
-30.157

>  <SCORE.INTER.CONST>
1

>  <SCORE.INTER.POLAR>
-5.32148

>  <SCORE.INTER.ROT>
8

>  <SCORE.INTER.SOLV>
14.1915

>  <SCORE.INTER.VDW>
-16.0302

>  <SCORE.INTER.norm>
-2.74154

>  <SCORE.INTRA>
-3.66242

>  <SCORE.INTRA.DIHEDRAL>
-6.92807

>  <SCORE.INTRA.DIHEDRAL.0>
21.6454

>  <SCORE.INTRA.POLAR>
0

>  <SCORE.INTRA.POLAR.0>
0

>  <SCORE.INTRA.REPUL>
0

>  <SCORE.INTRA.REPUL.0>
0

>  <SCORE.INTRA.SOLV>
0.562213

>  <SCORE.INTRA.SOLV.lig_0>
-16.5947

>  <SCORE.INTRA.VDW>
-0.479493

>  <SCORE.INTRA.VDW.0>
-0.691398

>  <SCORE.INTRA.norm>
-0.332947

>  <SCORE.RESTR>
0.14307

>  <SCORE.RESTR.CAVITY>
0.14307

>  <SCORE.RESTR.norm>
0.0130064

>  <SCORE.SYSTEM>
0

>  <SCORE.SYSTEM.CONST>
0

>  <SCORE.SYSTEM.DIHEDRAL>
0

>  <SCORE.SYSTEM.SOLV>
0

>  <SCORE.SYSTEM.norm>
0

>  <SCORE.heavy>
11

>  <SCORE.norm>
-3.06148

>  <RMSD>
12.848

$$$$
1akx_lig
 OpenBabel11021811383D
libRbt.so/2013.1/901 2013/11/27
 11 10  0  0  0  0  0  0  0  0999 V2000
   -9.5047    6.2677   -0.4459 N   0  0  0  0  0  0  0  0  0  0  0  0
  -10.9200    5.9894   -0.0616 C   0  0  2  0  0  0  0  0  0  0  0  0
  -11.1114    6.2801    1.4323 C   0  0  0  0  0  0  0  0  0  0  0  0
  -10.5003    5.6438    2.2676 O   0  0  0  0  0  0  0  0  0  0  0  0
  -11.2521    4.5188   -0.3487 C   0  0  0  0  0  0  0  0  0  0  0  0
  -12.5062    4.4336   -1.2246 C   0  0  0  0  0  0  0  0  0  0  0  0
  -12.1113    4.5599   -2.6960 C   0  0  0  0  0  0  0  0  0  0  0  0
  -11.2827    3.3845   -3.0887 N   0  0  0  0  0  0  0  0  0  0  0  0
   -9.9828    3.4975   -3.1877 C   0  0  0  0  0  0  0  0  0  0  0  0
   -9.2311    2.4287   -3.2499 N   0  0  0  0  0  0  0  0  0  0  0  0
   -9.4349    4.6824   -3.2309 N   0  0  0  0  0  0  0  0  0  0  0  0
  2  1  1  1  0  0  0
  2  3  1  0  0  0  0
  2  5  1  0  0  0  0
  3  4  1  0  0  0  0
  5  6  1  0  0  0  0
  6  7  1  0  0  0  0
  7  8  1  0  0  0  0
  8  9  1  0  0  0  0
  9 10  1  0  0  0  0
  9 11  1  0  0  0  0
M  END
>  <CHROM.1>
166.14576647,-62.77233578,-126.38474917,85.62193466,65.30240263,-101.99537468
165.46345371,-121.17514673,167.70364598,-10.65068056,4.69904042,-1.25845183
-1.67438687,-0.12646846,-2.10278838

>  <Name>
1akx_lig

>  <RI>
0

>  <Rbt.Current_Directory>
/home/itssahil/PROJECTS/Mol_Feturizer/New_Systems/rnas/1akx

>  <Rbt.Executable>
rbdock ($Id: //depot/dev/client3/rdock/2013.1/src/exe/rbdock.cxx#4 $)

>  <Rbt.Library>
libRbt.so (2013.1, Build901 2013/11/27)

>  <Rbt.Parameter_File>
/export/apps/rDock/src/rDock_2013.1_src/data/scripts/dock_solv.prm

>  <Rbt.Receptor>
prm/blind_docking_20.prm

>  <SCORE>
-34.4263

>  <SCORE.INTER>
-29.293

>  <SCORE.INTER.CONST>
1

>  <SCORE.INTER.POLAR>
-4.56696

>  <SCORE.INTER.ROT>
8

>  <SCORE.INTER.SOLV>
12.1329

>  <SCORE.INTER.VDW>
-17.2831

>  <SCORE.INTER.norm>
-2.663

>  <SCORE.INTRA>
-5.79178

>  <SCORE.INTRA.DIHEDRAL>
-8.17314

>  <SCORE.INTRA.DIHEDRAL.0>
21.6454

>  <SCORE.INTRA.POLAR>
-0.994697

>  <SCORE.INTRA.POLAR.0>
0

>  <SCORE.INTRA.REPUL>
0

>  <SCORE.INTRA.REPUL.0>
0

>  <SCORE.INTRA.SOLV>
1.8097

>  <SCORE.INTRA.SOLV.lig_0>
-16.5947

>  <SCORE.INTRA.VDW>
0.771909

>  <SCORE.INTRA.VDW.0>
-0.691398

>  <SCORE.INTRA.norm>
-0.526525

>  <SCORE.RESTR>
0.658453

>  <SCORE.RESTR.CAVITY>
0.658453

>  <SCORE.RESTR.norm>
0.0598594

>  <SCORE.SYSTEM>
0

>  <SCORE.SYSTEM.CONST>
0

>  <SCORE.SYSTEM.DIHEDRAL>
0

>  <SCORE.SYSTEM.SOLV>
0

>  <SCORE.SYSTEM.norm>
0

>  <SCORE.heavy>
11

>  <SCORE.norm>
-3.12966

>  <RMSD>
12.853

$$$$
1akx_lig
 OpenBabel11021811383D
libRbt.so/2013.1/901 2013/11/27
 11 10  0  0  0  0  0  0  0  0999 V2000
  -10.8808    4.5980    1.2644 N   0  0  0  0  0  0  0  0  0  0  0  0
  -10.6854    5.2747   -0.0517 C   0  0  2  0  0  0  0  0  0  0  0  0
  -10.3933    6.7631    0.1763 C   0  0  0  0  0  0  0  0  0  0  0  0
  -11.0654    7.4114    0.9536 O   0  0  0  0  0  0  0  0  0  0  0  0
  -11.9531    5.1211   -0.9031 C   0  0  0  0  0  0  0  0  0  0  0  0
  -11.6132    5.3413   -2.3807 C   0  0  0  0  0  0  0  0  0  0  0  0
  -11.9022    4.0628   -3.1673 C   0  0  0  0  0  0  0  0  0  0  0  0
  -10.6729    3.6434   -3.8989 N   0  0  0  0  0  0  0  0  0  0  0  0
   -9.8909    2.7206   -3.3995 C   0  0  0  0  0  0  0  0  0  0  0  0
   -9.0405    3.0196   -2.4515 N   0  0  0  0  0  0  0  0  0  0  0  0
   -9.9647    1.4951   -3.8454 N   0  0  0  0  0  0  0  0  0  0  0  0
  2  1  1  1  0  0  0
  2  3  1  0  0  0  0
  2  5  1  0  0  0  0
  3  4  1  0  0  0  0
  5  6  1  0  0  0  0
  6  7  1  0  0  0  0
  7  8  1  0  0  0  0
  8  9  1  0  0  0  0
  9 10  1  0  0  0  0
  9 11  1  0  0  0  0
M  END
>  <CHROM.1>
-46.54443990,-46.02401110,-159.62586138,117.70591181,-124.59783740,97.98145829
-79.36071902,-164.27265433,-56.26301604,-10.71040292,4.47410796,-1.57268334
-1.80047616,0.87194563,-2.11260485

>  <Name>
1akx_lig

>  <RI>
0

>  <Rbt.Current_Directory>
/home/itssahil/PROJECTS/Mol_Feturizer/New_Systems/rnas/1akx

>  <Rbt.Executable>
rbdock ($Id: //depot/dev/client3/rdock/2013.1/src/exe/rbdock.cxx#4 $)

>  <Rbt.Library>
libRbt.so (2013.1, Build901 2013/11/27)

>  <Rbt.Parameter_File>
/export/apps/rDock/src/rDock_2013.1_src/data/scripts/dock_solv.prm

>  <Rbt.Receptor>
prm/blind_docking_20.prm

>  <SCORE>
-26.6812

>  <SCORE.INTER>
-25.6482

>  <SCORE.INTER.CONST>
1

>  <SCORE.INTER.POLAR>
-4.04789

>  <SCORE.INTER.ROT>
8

>  <SCORE.INTER.SOLV>
13.4623

>  <SCORE.INTER.VDW>
-17.0266

>  <SCORE.INTER.norm>
-2.33165

>  <SCORE.INTRA>
-1.58768

>  <SCORE.INTRA.DIHEDRAL>
-2.68861

>  <SCORE.INTRA.DIHEDRAL.0>
21.6454

>  <SCORE.INTRA.POLAR>
0

>  <SCORE.INTRA.POLAR.0>
0

>  <SCORE.INTRA.REPUL>
0

>  <SCORE.INTRA.REPUL.0>
0

>  <SCORE.INTRA.SOLV>
0.855497

>  <SCORE.INTRA.SOLV.lig_0>
-16.5947

>  <SCORE.INTRA.VDW>
-0.67112

>  <SCORE.INTRA.VDW.0>
-0.691398

>  <SCORE.INTRA.norm>
-0.144334

>  <SCORE.RESTR>
0.55465

>  <SCORE.RESTR.CAVITY>
0.55465

>  <SCORE.RESTR.norm>
0.0504227

>  <SCORE.SYSTEM>
0

>  <SCORE.SYSTEM.CONST>
0

>  <SCORE.SYSTEM.DIHEDRAL>
0

>  <SCORE.SYSTEM.SOLV>
0

>  <SCORE.SYSTEM.norm>
0

>  <SCORE.heavy>
11

>  <SCORE.norm>
-2.42556

>  <RMSD>
12.854

$$$$
1akx_lig
 OpenBabel11021811383D
libRbt.so/2013.1/901 2013/11/27
 11 10  0  0  0  0  0  0  0  0999 V2000
   -9.5144    6.5096   -0.3042 N   0  0  0  0  0  0  0  0  0  0  0  0
  -10.9330    6.1618    0.0036 C   0  0  2  0  0  0  0  0  0  0  0  0
  -11.1049    6.0080    1.5200 C   0  0  0  0  0  0  0  0  0  0  0  0
  -10.8814    6.9423    2.2639 O   0  0  0  0  0  0  0  0  0  0  0  0
  -11.3041    4.8465   -0.6948 C   0  0  0  0  0  0  0  0  0  0  0  0
  -11.8469    5.1410   -2.0969 C   0  0  0  0  0  0  0  0  0  0  0  0
  -11.6894    3.9007   -2.9766 C   0  0  0  0  0  0  0  0  0  0  0  0
  -10.4145    3.9964   -3.7432 N   0  0  0  0  0  0  0  0  0  0  0  0
   -9.3991    3.2317   -3.4323 C   0  0  0  0  0  0  0  0  0  0  0  0
   -9.5090    1.9300   -3.5008 N   0  0  0  0  0  0  0  0  0  0  0  0
   -8.2698    3.7711   -3.0584 N   0  0  0  0  0  0  0  0  0  0  0  0
  2  1  1  1  0  0  0
  2  3  1  0  0  0  0
  2  5  1  0  0  0  0
  3  4  1  0  0  0  0
  5  6  1  0  0  0  0
  6  7  1  0  0  0  0
  7  8  1  0  0  0  0
  8  9  1  0  0  0  0
  9 10  1  0  0  0  0
  9 11  1  0  0  0  0
M  END
>  <CHROM.1>
-88.60673113,60.73045494,-89.35372498,157.46333397,-94.45047998,107.87533577
60.90781271,137.18660179,-24.09602453,-10.38409780,4.77679477,-1.44977517
-1.76364286,0.05258294,-2.18078491

>  <Name>
1akx_lig

>  <RI>
0

>  <Rbt.Current_Directory>
/home/itssahil/PROJECTS/Mol_Feturizer/New_Systems/rnas/1akx

>  <Rbt.Executable>
rbdock ($Id: //depot/dev/client3/rdock/2013.1/src/exe/rbdock.cxx#4 $)

>  <Rbt.Library>
libRbt.so (2013.1, Build901 2013/11/27)

>  <Rbt.Parameter_File>
/export/apps/rDock/src/rDock_2013.1_src/data/scripts/dock_solv.prm

>  <Rbt.Receptor>
prm/blind_docking_20.prm

>  <SCORE>
-42.2026

>  <SCORE.INTER>
-39.2253

>  <SCORE.INTER.CONST>
1

>  <SCORE.INTER.POLAR>
-6.40393

>  <SCORE.INTER.ROT>
8

>  <SCORE.INTER.SOLV>
14.2169

>  <SCORE.INTER.VDW>
-18.4761

>  <SCORE.INTER.norm>
-3.56594

>  <SCORE.INTRA>
-3.64461

>  <SCORE.INTRA.DIHEDRAL>
-7.03977

>  <SCORE.INTRA.DIHEDRAL.0>
21.6454

>  <SCORE.INTRA.POLAR>
0

>  <SCORE.INTRA.POLAR.0>
0

>  <SCORE.INTRA.REPUL>
0

>  <SCORE.INTRA.REPUL.0>
0

>  <SCORE.INTRA.SOLV>
0.764977

>  <SCORE.INTRA.SOLV.lig_0>
-16.5947

>  <SCORE.INTRA.VDW>
-0.507213

>  <SCORE.INTRA.VDW.0>
-0.691398

>  <SCORE.INTRA.norm>
-0.331328

>  <SCORE.RESTR>
0.667273

>  <SCORE.RESTR.CAVITY>
0.667273

>  <SCORE.RESTR.norm>
0.0606612

>  <SCORE.SYSTEM>
0

>  <SCORE.SYSTEM.CONST>
0

>  <SCORE.SYSTEM.DIHEDRAL>
0

>  <SCORE.SYSTEM.SOLV>
0

>  <SCORE.SYSTEM.norm>
0

>  <SCORE.heavy>
11

>  <SCORE.norm>
-3.8366

>  <RMSD>
12.854

$$$$
1akx_lig
 OpenBabel11021811383D
libRbt.so/2013.1/901 2013/11/27
 11 10  0  0  0  0  0  0  0  0999 V2000
  -10.0355    7.4651    1.3248 N   0  0  0  0  0  0  0  0  0  0  0  0
  -11.0408    6.5454    0.7150 C   0  0  2  0  0  0  0  0  0  0  0  0
  -11.3623    5.4135    1.6989 C   0  0  0  0  0  0  0  0  0  0  0  0
  -12.1604    5.5865    2.5985 O   0  0  0  0  0  0  0  0  0  0  0  0
  -10.4776    5.9558   -0.5852 C   0  0  0  0  0  0  0  0  0  0  0  0
  -11.6169    5.3604   -1.4188 C   0  0  0  0  0  0  0  0  0  0  0  0
  -11.0455    4.7319   -2.6898 C   0  0  0  0  0  0  0  0  0  0  0  0
  -10.3798    3.4425   -2.3482 N   0  0  0  0  0  0  0  0  0  0  0  0
   -9.3775    3.0068   -3.0679 C   0  0  0  0  0  0  0  0  0  0  0  0
   -8.2315    3.6375   -3.0520 N   0  0  0  0  0  0  0  0  0  0  0  0
   -9.5207    1.9345   -3.7998 N   0  0  0  0  0  0  0  0  0  0  0  0
  2  1  1  1  0  0  0
  2  3  1  0  0  0  0
  2  5  1  0  0  0  0
  3  4  1  0  0  0  0
  5  6  1  0  0  0  0
  6  7  1  0  0  0  0
  7  8  1  0  0  0  0
  8  9  1  0  0  0  0
  9 10  1  0  0  0  0
  9 11  1  0  0  0  0
M  END
>  <CHROM.1>
-58.32140157,81.70547362,-163.27321579,-178.06759163,74.90534037,-151.08091662
68.21424513,95.18448288,-146.19896291,-10.44558213,4.82416463,-0.94239403
-1.93386824,-0.63988776,-2.39876847

>  <Name>
1akx_lig

>  <RI>
0

>  <Rbt.Current_Directory>
/home/itssahil/PROJECTS/Mol_Feturizer/New_Systems/rnas/1akx

>  <Rbt.Executable>
rbdock ($Id: //depot/dev/client3/rdock/2013.1/src/exe/rbdock.cxx#4 $)

>  <Rbt.Library>
libRbt.so (2013.1, Build901 2013/11/27)

>  <Rbt.Parameter_File>
/export/apps/rDock/src/rDock_2013.1_src/data/scripts/dock_solv.prm

>  <Rbt.Receptor>
prm/blind_docking_40.prm

>  <SCORE>
-44.712

>  <SCORE.INTER>
-38.2069

>  <SCORE.INTER.CONST>
1

>  <SCORE.INTER.POLAR>
-6.28993

>  <SCORE.INTER.ROT>
8

>  <SCORE.INTER.SOLV>
13.1845

>  <SCORE.INTER.VDW>
-17.833

>  <SCORE.INTER.norm>
-3.47335

>  <SCORE.INTRA>
-6.66601

>  <SCORE.INTRA.DIHEDRAL>
-13.4456

>  <SCORE.INTRA.DIHEDRAL.0>
21.6454

>  <SCORE.INTRA.POLAR>
0

>  <SCORE.INTRA.POLAR.0>
0

>  <SCORE.INTRA.REPUL>
0

>  <SCORE.INTRA.REPUL.0>
0

>  <SCORE.INTRA.SOLV>
0.308655

>  <SCORE.INTRA.SOLV.lig_0>
-16.5947

>  <SCORE.INTRA.VDW>
-0.0975264

>  <SCORE.INTRA.VDW.0>
-0.691398

>  <SCORE.INTRA.norm>
-0.606001

>  <SCORE.RESTR>
0.160855

>  <SCORE.RESTR.CAVITY>
0.160855

>  <SCORE.RESTR.norm>
0.0146232

>  <SCORE.SYSTEM>
0

>  <SCORE.SYSTEM.CONST>
0

>  <SCORE.SYSTEM.DIHEDRAL>
0

>  <SCORE.SYSTEM.SOLV>
0

>  <SCORE.SYSTEM.norm>
0

>  <SCORE.heavy>
11

>  <SCORE.norm>
-4.06473

>  <RMSD>
12.854

$$$$
1akx_lig
 OpenBabel11021811383D
libRbt.so/2013.1/901 2013/11/27
 11 10  0  0  0  0  0  0  0  0999 V2000
   -9.9448    6.8961    0.7750 N   0  0  0  0  0  0  0  0  0  0  0  0
  -11.1329    6.0960    0.3552 C   0  0  2  0  0  0  0  0  0  0  0  0
  -11.3280    4.9226    1.3236 C   0  0  0  0  0  0  0  0  0  0  0  0
  -10.9067    4.9855    2.4615 O   0  0  0  0  0  0  0  0  0  0  0  0
  -10.9178    5.5619   -1.0674 C   0  0  0  0  0  0  0  0  0  0  0  0
  -12.2186    4.9434   -1.5895 C   0  0  0  0  0  0  0  0  0  0  0  0
  -12.0346    4.5215   -3.0473 C   0  0  0  0  0  0  0  0  0  0  0  0
  -11.0966    3.3648   -3.1131 N   0  0  0  0  0  0  0  0  0  0  0  0
   -9.8320    3.5561   -3.3902 C   0  0  0  0  0  0  0  0  0  0  0  0
   -9.3520    4.7702   -3.4740 N   0  0  0  0  0  0  0  0  0  0  0  0
   -9.0453    2.5305   -3.5774 N   0  0  0  0  0  0  0  0  0  0  0  0
  2  1  1  1  0  0  0
  2  3  1  0  0  0  0
  2  5  1  0  0  0  0
  3  4  1  0  0  0  0
  5  6  1  0  0  0  0
  6  7  1  0  0  0  0
  7  8  1  0  0  0  0
  8  9  1  0  0  0  0
  9 10  1  0  0  0  0
  9 11  1  0  0  0  0
M  END
>  <CHROM.1>
177.11333844,24.92819142,-170.59079177,175.17761810,69.12021178,-97.80094924
7.13967660,147.95183443,25.98120903,-10.65704604,4.74612475,-1.28117113,-1.72187623
0.02086931,-1.99784685

>  <Name>
1akx_lig

>  <RI>
0

>  <Rbt.Current_Directory>
/home/itssahil/PROJECTS/Mol_Feturizer/New_Systems/rnas/1akx

>  <Rbt.Executable>
rbdock ($Id: //depot/dev/client3/rdock/2013.1/src/exe/rbdock.cxx#4 $)

>  <Rbt.Library>
libRbt.so (2013.1, Build901 2013/11/27)

>  <Rbt.Parameter_File>
/export/apps/rDock/src/rDock_2013.1_src/data/scripts/dock_solv.prm

>  <Rbt.Receptor>
prm/blind_docking_20.prm

>  <SCORE>
-35.8957

>  <SCORE.INTER>
-33.4875

>  <SCORE.INTER.CONST>
1

>  <SCORE.INTER.POLAR>
-4.92494

>  <SCORE.INTER.ROT>
8

>  <SCORE.INTER.SOLV>
13.0776

>  <SCORE.INTER.VDW>
-19.2011

>  <SCORE.INTER.norm>
-3.04432

>  <SCORE.INTRA>
-4.10873

>  <SCORE.INTRA.DIHEDRAL>
-12.7304

>  <SCORE.INTRA.DIHEDRAL.0>
21.6454

>  <SCORE.INTRA.POLAR>
0

>  <SCORE.INTRA.POLAR.0>
0

>  <SCORE.INTRA.REPUL>
0

>  <SCORE.INTRA.REPUL.0>
0

>  <SCORE.INTRA.SOLV>
0.915811

>  <SCORE.INTRA.SOLV.lig_0>
-16.5947

>  <SCORE.INTRA.VDW>
1.79858

>  <SCORE.INTRA.VDW.0>
-0.691398

>  <SCORE.INTRA.norm>
-0.373521

>  <SCORE.RESTR>
1.70055

>  <SCORE.RESTR.CAVITY>
1.70055

>  <SCORE.RESTR.norm>
0.154596

>  <SCORE.SYSTEM>
0

>  <SCORE.SYSTEM.CONST>
0

>  <SCORE.SYSTEM.DIHEDRAL>
0

>  <SCORE.SYSTEM.SOLV>
0

>  <SCORE.SYSTEM.norm>
0

>  <SCORE.heavy>
11

>  <SCORE.norm>
-3.26324

>  <RMSD>
12.856

$$$$
1akx_lig
 OpenBabel11021811383D
libRbt.so/2013.1/901 2013/11/27
 11 10  0  0  0  0  0  0  0  0999 V2000
   -9.5398    6.2527   -0.5905 N   0  0  0  0  0  0  0  0  0  0  0  0
  -10.9802    6.3004   -0.2016 C   0  0  2  0  0  0  0  0  0  0  0  0
  -11.0993    6.2600    1.3271 C   0  0  0  0  0  0  0  0  0  0  0  0
  -10.4730    5.4436    1.9731 O   0  0  0  0  0  0  0  0  0  0  0  0
  -11.7179    5.0998   -0.8096 C   0  0  0  0  0  0  0  0  0  0  0  0
  -12.2017    5.4506   -2.2203 C   0  0  0  0  0  0  0  0  0  0  0  0
  -11.6379    4.4405   -3.2196 C   0  0  0  0  0  0  0  0  0  0  0  0
  -10.1487    4.5048   -3.2015 N   0  0  0  0  0  0  0  0  0  0  0  0
   -9.4437    3.4158   -3.0302 C   0  0  0  0  0  0  0  0  0  0  0  0
   -8.1384    3.4567   -3.1072 N   0  0  0  0  0  0  0  0  0  0  0  0
  -10.0459    2.2851   -2.7750 N   0  0  0  0  0  0  0  0  0  0  0  0
  2  1  1  1  0  0  0
  2  3  1  0  0  0  0
  2  5  1  0  0  0  0
  3  4  1  0  0  0  0
  5  6  1  0  0  0  0
  6  7  1  0  0  0  0
  7  8  1  0  0  0  0
  8  9  1  0  0  0  0
  9 10  1  0  0  0  0
  9 11  1  0  0  0  0
M  END
>  <CHROM.1>
156.90165830,-47.39591716,-87.34430341,123.20226908,-61.24136554,127.47495940
175.21859792,52.48332291,137.28870653,-10.42989696,4.79422331,-1.43108573
-1.82935934,0.37927583,-2.04467504

>  <Name>
1akx_lig

>  <RI>
0

>  <Rbt.Current_Directory>
/home/itssahil/PROJECTS/Mol_Feturizer/New_Systems/rnas/1akx

>  <Rbt.Executable>
rbdock ($Id: //depot/dev/client3/rdock/2013.1/src/exe/rbdock.cxx#4 $)

>  <Rbt.Library>
libRbt.so (2013.1, Build901 2013/11/27)

>  <Rbt.Parameter_File>
/export/apps/rDock/src/rDock_2013.1_src/data/scripts/dock_solv.prm

>  <Rbt.Receptor>
prm/blind_docking_20.prm

>  <SCORE>
-30.63

>  <SCORE.INTER>
-26.5367

>  <SCORE.INTER.CONST>
1

>  <SCORE.INTER.POLAR>
-4.70997

>  <SCORE.INTER.ROT>
8

>  <SCORE.INTER.SOLV>
13.4735

>  <SCORE.INTER.VDW>
-15.4157

>  <SCORE.INTER.norm>
-2.41243

>  <SCORE.INTRA>
-4.49153

>  <SCORE.INTRA.DIHEDRAL>
-6.50479

>  <SCORE.INTRA.DIHEDRAL.0>
21.6454

>  <SCORE.INTRA.POLAR>
-0.835962

>  <SCORE.INTRA.POLAR.0>
0

>  <SCORE.INTRA.REPUL>
0

>  <SCORE.INTRA.REPUL.0>
0

>  <SCORE.INTRA.SOLV>
1.73827

>  <SCORE.INTRA.SOLV.lig_0>
-16.5947

>  <SCORE.INTRA.VDW>
0.734003

>  <SCORE.INTRA.VDW.0>
-0.691398

>  <SCORE.INTRA.norm>
-0.408321

>  <SCORE.RESTR>
0.398235

>  <SCORE.RESTR.CAVITY>
0.398235

>  <SCORE.RESTR.norm>
0.0362032

>  <SCORE.SYSTEM>
0

>  <SCORE.SYSTEM.CONST>
0

>  <SCORE.SYSTEM.DIHEDRAL>
0

>  <SCORE.SYSTEM.SOLV>
0

>  <SCORE.SYSTEM.norm>
0

>  <SCORE.heavy>
11

>  <SCORE.norm>
-2.78455

>  <RMSD>
12.858

$$$$
1akx_lig
 OpenBabel11021811383D
libRbt.so/2013.1/901 2013/11/27
 11 10  0  0  0  0  0  0  0  0999 V2000
   -9.5256    6.4301   -0.3721 N   0  0  0  0  0  0  0  0  0  0  0  0
  -10.8877    5.9538    0.0100 C   0  0  2  0  0  0  0  0  0  0  0  0
  -11.1217    6.2164    1.5030 C   0  0  0  0  0  0  0  0  0  0  0  0
  -12.1831    5.9305    2.0205 O   0  0  0  0  0  0  0  0  0  0  0  0
  -11.0066    4.4506   -0.2753 C   0  0  0  0  0  0  0  0  0  0  0  0
  -11.9219    4.2244   -1.4829 C   0  0  0  0  0  0  0  0  0  0  0  0
  -11.4434    5.0821   -2.6543 C   0  0  0  0  0  0  0  0  0  0  0  0
  -10.0120    4.7778   -2.9384 N   0  0  0  0  0  0  0  0  0  0  0  0
   -9.5927    3.5383   -2.9583 C   0  0  0  0  0  0  0  0  0  0  0  0
  -10.2771    2.6212   -3.5923 N   0  0  0  0  0  0  0  0  0  0  0  0
   -8.4834    3.2176   -2.3481 N   0  0  0  0  0  0  0  0  0  0  0  0
  2  1  1  1  0  0  0
  2  3  1  0  0  0  0
  2  5  1  0  0  0  0
  3  4  1  0  0  0  0
  5  6  1  0  0  0  0
  6  7  1  0  0  0  0
  7  8  1  0  0  0  0
  8  9  1  0  0  0  0
  9 10  1  0  0  0  0
  9 11  1  0  0  0  0
M  END
>  <CHROM.1>
167.50131383,178.41481971,-108.21894566,52.17275925,55.44164489,43.93189396
45.73888501,-11.83066373,-14.12049722,-10.54585348,4.76806919,-1.18938409
-1.88257261,-0.21067758,-2.19146817

>  <Name>
1akx_lig

>  <RI>
0

>  <Rbt.Current_Directory>
/home/itssahil/PROJECTS/Mol_Feturizer/New_Systems/rnas/1akx

>  <Rbt.Executable>
rbdock ($Id: //depot/dev/client3/rdock/2013.1/src/exe/rbdock.cxx#4 $)

>  <Rbt.Library>
libRbt.so (2013.1, Build901 2013/11/27)

>  <Rbt.Parameter_File>
/export/apps/rDock/src/rDock_2013.1_src/data/scripts/dock_solv.prm

>  <Rbt.Receptor>
prm/blind_docking_20.prm

>  <SCORE>
-27.1081

>  <SCORE.INTER>
-24.3716

>  <SCORE.INTER.CONST>
1

>  <SCORE.INTER.POLAR>
-4.14928

>  <SCORE.INTER.ROT>
8

>  <SCORE.INTER.SOLV>
11.5665

>  <SCORE.INTER.VDW>
-15.2056

>  <SCORE.INTER.norm>
-2.2156

>  <SCORE.INTRA>
-3.9726

>  <SCORE.INTRA.DIHEDRAL>
-10.7944

>  <SCORE.INTRA.DIHEDRAL.0>
21.6454

>  <SCORE.INTRA.POLAR>
-0.72458

>  <SCORE.INTRA.POLAR.0>
0

>  <SCORE.INTRA.REPUL>
0

>  <SCORE.INTRA.REPUL.0>
0

>  <SCORE.INTRA.SOLV>
2.06123

>  <SCORE.INTRA.SOLV.lig_0>
-16.5947

>  <SCORE.INTRA.VDW>
2.85754

>  <SCORE.INTRA.VDW.0>
-0.691398

>  <SCORE.INTRA.norm>
-0.361146

>  <SCORE.RESTR>
1.23609

>  <SCORE.RESTR.CAVITY>
1.23609

>  <SCORE.RESTR.norm>
0.112371

>  <SCORE.SYSTEM>
0

>  <SCORE.SYSTEM.CONST>
0

>  <SCORE.SYSTEM.DIHEDRAL>
0

>  <SCORE.SYSTEM.SOLV>
0

>  <SCORE.SYSTEM.norm>
0

>  <SCORE.heavy>
11

>  <SCORE.norm>
-2.46437

>  <RMSD>
12.859

$$$$
1akx_lig
 OpenBabel11021811383D
libRbt.so/2013.1/901 2013/11/27
 11 10  0  0  0  0  0  0  0  0999 V2000
  -10.0333    7.6053    1.2555 N   0  0  0  0  0  0  0  0  0  0  0  0
  -10.9866    6.6486    0.6200 C   0  0  2  0  0  0  0  0  0  0  0  0
  -11.6939    5.8316    1.7086 C   0  0  0  0  0  0  0  0  0  0  0  0
  -11.0514    5.2684    2.5724 O   0  0  0  0  0  0  0  0  0  0  0  0
  -10.2214    5.7058   -0.3187 C   0  0  0  0  0  0  0  0  0  0  0  0
  -11.2116    4.8183   -1.0797 C   0  0  0  0  0  0  0  0  0  0  0  0
  -11.1549    5.1516   -2.5705 C   0  0  0  0  0  0  0  0  0  0  0  0
   -9.8049    4.8106   -3.1030 N   0  0  0  0  0  0  0  0  0  0  0  0
   -9.4501    3.5595   -3.2483 C   0  0  0  0  0  0  0  0  0  0  0  0
  -10.0920    2.7852   -4.0848 N   0  0  0  0  0  0  0  0  0  0  0  0
   -8.4470    3.0843   -2.5599 N   0  0  0  0  0  0  0  0  0  0  0  0
  2  1  1  1  0  0  0
  2  3  1  0  0  0  0
  2  5  1  0  0  0  0
  3  4  1  0  0  0  0
  5  6  1  0  0  0  0
  6  7  1  0  0  0  0
  7  8  1  0  0  0  0
  8  9  1  0  0  0  0
  9 10  1  0  0  0  0
  9 11  1  0  0  0  0
M  END
>  <CHROM.1>
78.60700298,-50.85622239,-174.25818239,114.52143309,64.24581137,71.58375997
63.36095158,-150.82573188,150.91734603,-10.34032893,5.02419358,-0.96374701
3.10362288,-1.35692494,2.57893038

>  <Name>
1akx_lig

>  <RI>
0

>  <Rbt.Current_Directory>
/home/itssahil/PROJECTS/Mol_Feturizer/New_Systems/rnas/1akx

>  <Rbt.Executable>
rbdock ($Id: //depot/dev/client3/rdock/2013.1/src/exe/rbdock.cxx#4 $)

>  <Rbt.Library>
libRbt.so (2013.1, Build901 2013/11/27)

>  <Rbt.Parameter_File>
/export/apps/rDock/src/rDock_2013.1_src/data/scripts/dock_solv.prm

>  <Rbt.Receptor>
prm/blind_docking_40.prm

>  <SCORE>
-41.2223

>  <SCORE.INTER>
-38.0994

>  <SCORE.INTER.CONST>
1

>  <SCORE.INTER.POLAR>
-5.84411

>  <SCORE.INTER.ROT>
8

>  <SCORE.INTER.SOLV>
14.2215

>  <SCORE.INTER.VDW>
-19.5931

>  <SCORE.INTER.norm>
-3.46359

>  <SCORE.INTRA>
-3.41907

>  <SCORE.INTRA.DIHEDRAL>
-9.56569

>  <SCORE.INTRA.DIHEDRAL.0>
21.6454

>  <SCORE.INTRA.POLAR>
0

>  <SCORE.INTRA.POLAR.0>
0

>  <SCORE.INTRA.REPUL>
0

>  <SCORE.INTRA.REPUL.0>
0

>  <SCORE.INTRA.SOLV>
0.850967

>  <SCORE.INTRA.SOLV.lig_0>
-16.5947

>  <SCORE.INTRA.VDW>
0.938289

>  <SCORE.INTRA.VDW.0>
-0.691398

>  <SCORE.INTRA.norm>
-0.310825

>  <SCORE.RESTR>
0.296243

>  <SCORE.RESTR.CAVITY>
0.296243

>  <SCORE.RESTR.norm>
0.0269312

>  <SCORE.SYSTEM>
0

>  <SCORE.SYSTEM.CONST>
0

>  <SCORE.SYSTEM.DIHEDRAL>
0

>  <SCORE.SYSTEM.SOLV>
0

>  <SCORE.SYSTEM.norm>
0

>  <SCORE.heavy>
11

>  <SCORE.norm>
-3.74748

>  <RMSD>
12.861

$$$$
1akx_lig
 OpenBabel11021811383D
libRbt.so/2013.1/901 2013/11/27
 11 10  0  0  0  0  0  0  0  0999 V2000
   -9.9147    6.9190    0.8661 N   0  0  0  0  0  0  0  0  0  0  0  0
  -11.0789    6.1176    0.3857 C   0  0  2  0  0  0  0  0  0  0  0  0
  -11.4841    5.1058    1.4650 C   0  0  0  0  0  0  0  0  0  0  0  0
  -11.9040    5.4857    2.5399 O   0  0  0  0  0  0  0  0  0  0  0  0
  -10.6969    5.3749   -0.9018 C   0  0  0  0  0  0  0  0  0  0  0  0
  -11.8830    5.3779   -1.8716 C   0  0  0  0  0  0  0  0  0  0  0  0
  -11.7102    4.2541   -2.8934 C   0  0  0  0  0  0  0  0  0  0  0  0
  -10.3882    4.3967   -3.5673 N   0  0  0  0  0  0  0  0  0  0  0  0
   -9.4565    3.4953   -3.3890 C   0  0  0  0  0  0  0  0  0  0  0  0
   -8.2207    3.8604   -3.1635 N   0  0  0  0  0  0  0  0  0  0  0  0
   -9.7634    2.2264   -3.4303 N   0  0  0  0  0  0  0  0  0  0  0  0
  2  1  1  1  0  0  0
  2  3  1  0  0  0  0
  2  5  1  0  0  0  0
  3  4  1  0  0  0  0
  5  6  1  0  0  0  0
  6  7  1  0  0  0  0
  7  8  1  0  0  0  0
  8  9  1  0  0  0  0
  9 10  1  0  0  0  0
  9 11  1  0  0  0  0
M  END
>  <CHROM.1>
66.59055486,64.28124170,-141.41622734,-159.65718075,-54.90210330,113.77895998
-135.55559655,141.11114007,42.57853736,-10.54729983,4.78970316,-1.24492526
-1.84910792,-0.14499967,-2.07831408

>  <Name>
1akx_lig

>  <RI>
0

>  <Rbt.Current_Directory>
/home/itssahil/PROJECTS/Mol_Feturizer/New_Systems/rnas/1akx

>  <Rbt.Executable>
rbdock ($Id: //depot/dev/client3/rdock/2013.1/src/exe/rbdock.cxx#4 $)

>  <Rbt.Library>
libRbt.so (2013.1, Build901 2013/11/27)

>  <Rbt.Parameter_File>
/export/apps/rDock/src/rDock_2013.1_src/data/scripts/dock_solv.prm

>  <Rbt.Receptor>
prm/blind_docking_40.prm

>  <SCORE>
-40.5777

>  <SCORE.INTER>
-35.5369

>  <SCORE.INTER.CONST>
1

>  <SCORE.INTER.POLAR>
-5.40327

>  <SCORE.INTER.ROT>
8

>  <SCORE.INTER.SOLV>
13.453

>  <SCORE.INTER.VDW>
-19.098

>  <SCORE.INTER.norm>
-3.23063

>  <SCORE.INTRA>
-5.15428

>  <SCORE.INTRA.DIHEDRAL>
-10.7795

>  <SCORE.INTRA.DIHEDRAL.0>
21.6454

>  <SCORE.INTRA.POLAR>
0

>  <SCORE.INTRA.POLAR.0>
0

>  <SCORE.INTRA.REPUL>
0

>  <SCORE.INTRA.REPUL.0>
0

>  <SCORE.INTRA.SOLV>
0.610019

>  <SCORE.INTRA.SOLV.lig_0>
-16.5947

>  <SCORE.INTRA.VDW>
-0.069543

>  <SCORE.INTRA.VDW.0>
-0.691398

>  <SCORE.INTRA.norm>
-0.468571

>  <SCORE.RESTR>
0.113466

>  <SCORE.RESTR.CAVITY>
0.113466

>  <SCORE.RESTR.norm>
0.0103151

>  <SCORE.SYSTEM>
0

>  <SCORE.SYSTEM.CONST>
0

>  <SCORE.SYSTEM.DIHEDRAL>
0

>  <SCORE.SYSTEM.SOLV>
0

>  <SCORE.SYSTEM.norm>
0

>  <SCORE.heavy>
11

>  <SCORE.norm>
-3.68888

>  <RMSD>
12.867

$$$$
1akx_lig
 OpenBabel11021811383D
libRbt.so/2013.1/901 2013/11/27
 11 10  0  0  0  0  0  0  0  0999 V2000
   -9.9373    7.6198    1.0754 N   0  0  0  0  0  0  0  0  0  0  0  0
  -10.8439    6.5524    0.5586 C   0  0  2  0  0  0  0  0  0  0  0  0
  -11.3881    5.7299    1.7333 C   0  0  0  0  0  0  0  0  0  0  0  0
  -12.2267    4.8705    1.5483 O   0  0  0  0  0  0  0  0  0  0  0  0
  -10.0684    5.6367   -0.3983 C   0  0  0  0  0  0  0  0  0  0  0  0
  -11.0223    4.6106   -1.0184 C   0  0  0  0  0  0  0  0  0  0  0  0
  -11.3862    5.0443   -2.4384 C   0  0  0  0  0  0  0  0  0  0  0  0
  -10.9419    3.9992   -3.4042 N   0  0  0  0  0  0  0  0  0  0  0  0
   -9.7595    3.4514   -3.2853 C   0  0  0  0  0  0  0  0  0  0  0  0
   -8.6851    4.1272   -3.6020 N   0  0  0  0  0  0  0  0  0  0  0  0
   -9.6520    2.2272   -2.8427 N   0  0  0  0  0  0  0  0  0  0  0  0
  2  1  1  1  0  0  0
  2  3  1  0  0  0  0
  2  5  1  0  0  0  0
  3  4  1  0  0  0  0
  5  6  1  0  0  0  0
  6  7  1  0  0  0  0
  7  8  1  0  0  0  0
  8  9  1  0  0  0  0
  9 10  1  0  0  0  0
  9 11  1  0  0  0  0
M  END
>  <CHROM.1>
-171.81331228,174.39854967,-175.40320119,101.49943292,119.30918324,-44.05166452
-73.29917659,47.04050691,11.62287021,-10.51269195,4.89846606,-1.08991391
-1.88195038,-0.76203986,-2.34998333

>  <Name>
1akx_lig

>  <RI>
0

>  <Rbt.Current_Directory>
/home/itssahil/PROJECTS/Mol_Feturizer/New_Systems/rnas/1akx

>  <Rbt.Executable>
rbdock ($Id: //depot/dev/client3/rdock/2013.1/src/exe/rbdock.cxx#4 $)

>  <Rbt.Library>
libRbt.so (2013.1, Build901 2013/11/27)

>  <Rbt.Parameter_File>
/export/apps/rDock/src/rDock_2013.1_src/data/scripts/dock_solv.prm

>  <Rbt.Receptor>
prm/blind_docking_80.prm

>  <SCORE>
-26.8373

>  <SCORE.INTER>
-27.4225

>  <SCORE.INTER.CONST>
1

>  <SCORE.INTER.POLAR>
-4.05679

>  <SCORE.INTER.ROT>
8

>  <SCORE.INTER.SOLV>
12.801

>  <SCORE.INTER.VDW>
-17.9593

>  <SCORE.INTER.norm>
-2.49295

>  <SCORE.INTRA>
-0.687708

>  <SCORE.INTRA.DIHEDRAL>
-6.17143

>  <SCORE.INTRA.DIHEDRAL.0>
21.6454

>  <SCORE.INTRA.POLAR>
0

>  <SCORE.INTRA.POLAR.0>
0

>  <SCORE.INTRA.REPUL>
0

>  <SCORE.INTRA.REPUL.0>
0

>  <SCORE.INTRA.SOLV>
0.731995

>  <SCORE.INTRA.SOLV.lig_0>
-16.5947

>  <SCORE.INTRA.VDW>
2.03201

>  <SCORE.INTRA.VDW.0>
-0.691398

>  <SCORE.INTRA.norm>
-0.0625189

>  <SCORE.RESTR>
1.27289

>  <SCORE.RESTR.CAVITY>
1.27289

>  <SCORE.RESTR.norm>
0.115717

>  <SCORE.SYSTEM>
0

>  <SCORE.SYSTEM.CONST>
0

>  <SCORE.SYSTEM.DIHEDRAL>
0

>  <SCORE.SYSTEM.SOLV>
0

>  <SCORE.SYSTEM.norm>
0

>  <SCORE.heavy>
11

>  <SCORE.norm>
-2.43975

>  <RMSD>
12.874

$$$$
1akx_lig
 OpenBabel11021811383D
libRbt.so/2013.1/901 2013/11/27
 11 10  0  0  0  0  0  0  0  0999 V2000
   -9.9519    7.4832    0.9812 N   0  0  0  0  0  0  0  0  0  0  0  0
  -11.0456    6.5931    0.4914 C   0  0  2  0  0  0  0  0  0  0  0  0
  -11.5237    5.6919    1.6368 C   0  0  0  0  0  0  0  0  0  0  0  0
  -10.7325    5.2533    2.4479 O   0  0  0  0  0  0  0  0  0  0  0  0
  -10.5266    5.7278   -0.6650 C   0  0  0  0  0  0  0  0  0  0  0  0
  -11.7091    5.1464   -1.4466 C   0  0  0  0  0  0  0  0  0  0  0  0
  -11.5724    3.6258   -1.5236 C   0  0  0  0  0  0  0  0  0  0  0  0
  -10.7726    3.2611   -2.7276 N   0  0  0  0  0  0  0  0  0  0  0  0
   -9.5759    3.7614   -2.9007 C   0  0  0  0  0  0  0  0  0  0  0  0
   -9.4169    4.8734   -3.5712 N   0  0  0  0  0  0  0  0  0  0  0  0
   -8.5371    3.1509   -2.3963 N   0  0  0  0  0  0  0  0  0  0  0  0
  2  1  1  1  0  0  0
  2  3  1  0  0  0  0
  2  5  1  0  0  0  0
  3  4  1  0  0  0  0
  5  6  1  0  0  0  0
  6  7  1  0  0  0  0
  7  8  1  0  0  0  0
  8  9  1  0  0  0  0
  9 10  1  0  0  0  0
  9 11  1  0  0  0  0
M  END
>  <CHROM.1>
67.34964135,-36.81444459,-162.54313579,-125.58287177,-88.70241341,55.70154010
-91.32879460,-34.51041399,38.57079100,-10.43934490,4.97706270,-0.86633229
-1.86225351,-0.79864581,-2.31264521

>  <Name>
1akx_lig

>  <RI>
0

>  <Rbt.Current_Directory>
/home/itssahil/PROJECTS/Mol_Feturizer/New_Systems/rnas/1akx

>  <Rbt.Executable>
rbdock ($Id: //depot/dev/client3/rdock/2013.1/src/exe/rbdock.cxx#4 $)

>  <Rbt.Library>
libRbt.so (2013.1, Build901 2013/11/27)

>  <Rbt.Parameter_File>
/export/apps/rDock/src/rDock_2013.1_src/data/scripts/dock_solv.prm

>  <Rbt.Receptor>
prm/blind_docking_20.prm

>  <SCORE>
-38.3055

>  <SCORE.INTER>
-38.2804

>  <SCORE.INTER.CONST>
1

>  <SCORE.INTER.POLAR>
-6.18228

>  <SCORE.INTER.ROT>
8

>  <SCORE.INTER.SOLV>
12.7367

>  <SCORE.INTER.VDW>
-18.0916

>  <SCORE.INTER.norm>
-3.48004

>  <SCORE.INTRA>
-1.58788

>  <SCORE.INTRA.DIHEDRAL>
-5.29013

>  <SCORE.INTRA.DIHEDRAL.0>
21.6454

>  <SCORE.INTRA.POLAR>
0

>  <SCORE.INTRA.POLAR.0>
0

>  <SCORE.INTRA.REPUL>
0

>  <SCORE.INTRA.REPUL.0>
0

>  <SCORE.INTRA.SOLV>
1.09556

>  <SCORE.INTRA.SOLV.lig_0>
-16.5947

>  <SCORE.INTRA.VDW>
0.509408

>  <SCORE.INTRA.VDW.0>
-0.691398

>  <SCORE.INTRA.norm>
-0.144353

>  <SCORE.RESTR>
1.56279

>  <SCORE.RESTR.CAVITY>
1.56279

>  <SCORE.RESTR.norm>
0.142072

>  <SCORE.SYSTEM>
0

>  <SCORE.SYSTEM.CONST>
0

>  <SCORE.SYSTEM.DIHEDRAL>
0

>  <SCORE.SYSTEM.SOLV>
0

>  <SCORE.SYSTEM.norm>
0

>  <SCORE.heavy>
11

>  <SCORE.norm>
-3.48232

>  <RMSD>
12.876

$$$$
1akx_lig
 OpenBabel11021811383D
libRbt.so/2013.1/901 2013/11/27
 11 10  0  0  0  0  0  0  0  0999 V2000
   -9.4911    6.6136   -0.1882 N   0  0  0  0  0  0  0  0  0  0  0  0
  -10.9685    6.4010   -0.2032 C   0  0  2  0  0  0  0  0  0  0  0  0
  -11.6007    7.1150    0.9982 C   0  0  0  0  0  0  0  0  0  0  0  0
  -11.1025    7.0228    2.1025 O   0  0  0  0  0  0  0  0  0  0  0  0
  -11.2736    4.8986   -0.1309 C   0  0  0  0  0  0  0  0  0  0  0  0
  -10.5656    4.1716   -1.2787 C   0  0  0  0  0  0  0  0  0  0  0  0
  -11.1819    4.5982   -2.6110 C   0  0  0  0  0  0  0  0  0  0  0  0
  -10.3180    4.1252   -3.7300 N   0  0  0  0  0  0  0  0  0  0  0  0
   -9.3370    3.2906   -3.4984 C   0  0  0  0  0  0  0  0  0  0  0  0
   -8.1686    3.7369   -3.1151 N   0  0  0  0  0  0  0  0  0  0  0  0
   -9.5278    2.0068   -3.6445 N   0  0  0  0  0  0  0  0  0  0  0  0
  2  1  1  1  0  0  0
  2  3  1  0  0  0  0
  2  5  1  0  0  0  0
  3  4  1  0  0  0  0
  5  6  1  0  0  0  0
  6  7  1  0  0  0  0
  7  8  1  0  0  0  0
  8  9  1  0  0  0  0
  9 10  1  0  0  0  0
  9 11  1  0  0  0  0
M  END
>  <CHROM.1>
-57.59866180,-45.07158004,-56.02794301,-66.98511852,168.04983181,10.24180728
-85.04807077,145.01510275,149.02781508,-10.27130763,4.90940788,-1.38800740
-1.84009207,-0.18045180,-2.29590089

>  <Name>
1akx_lig

>  <RI>
0

>  <Rbt.Current_Directory>
/home/itssahil/PROJECTS/Mol_Feturizer/New_Systems/rnas/1akx

>  <Rbt.Executable>
rbdock ($Id: //depot/dev/client3/rdock/2013.1/src/exe/rbdock.cxx#4 $)

>  <Rbt.Library>
libRbt.so (2013.1, Build901 2013/11/27)

>  <Rbt.Parameter_File>
/export/apps/rDock/src/rDock_2013.1_src/data/scripts/dock_solv.prm

>  <Rbt.Receptor>
prm/blind_docking_80.prm

>  <SCORE>
-34.6135

>  <SCORE.INTER>
-31.5023

>  <SCORE.INTER.CONST>
1

>  <SCORE.INTER.POLAR>
-5.85267

>  <SCORE.INTER.ROT>
8

>  <SCORE.INTER.SOLV>
14.112

>  <SCORE.INTER.VDW>
-15.13

>  <SCORE.INTER.norm>
-2.86385

>  <SCORE.INTRA>
-3.34512

>  <SCORE.INTRA.DIHEDRAL>
-15.2733

>  <SCORE.INTRA.DIHEDRAL.0>
21.6454

>  <SCORE.INTRA.POLAR>
0

>  <SCORE.INTRA.POLAR.0>
0

>  <SCORE.INTRA.REPUL>
0

>  <SCORE.INTRA.REPUL.0>
0

>  <SCORE.INTRA.SOLV>
1.03741

>  <SCORE.INTRA.SOLV.lig_0>
-16.5947

>  <SCORE.INTRA.VDW>
3.77283

>  <SCORE.INTRA.VDW.0>
-0.691398

>  <SCORE.INTRA.norm>
-0.304101

>  <SCORE.RESTR>
0.233915

>  <SCORE.RESTR.CAVITY>
0.233915

>  <SCORE.RESTR.norm>
0.021265

>  <SCORE.SYSTEM>
0

>  <SCORE.SYSTEM.CONST>
0

>  <SCORE.SYSTEM.DIHEDRAL>
0

>  <SCORE.SYSTEM.SOLV>
0

>  <SCORE.SYSTEM.norm>
0

>  <SCORE.heavy>
11

>  <SCORE.norm>
-3.14668

>  <RMSD>
12.891

$$$$
1akx_lig
 OpenBabel11021811383D
libRbt.so/2013.1/901 2013/11/27
 11 10  0  0  0  0  0  0  0  0999 V2000
   -9.8584    7.2399    0.9006 N   0  0  0  0  0  0  0  0  0  0  0  0
  -11.0336    6.4684    0.3989 C   0  0  2  0  0  0  0  0  0  0  0  0
  -11.5923    5.5944    1.5288 C   0  0  0  0  0  0  0  0  0  0  0  0
  -12.5667    4.8931    1.3418 O   0  0  0  0  0  0  0  0  0  0  0  0
  -10.6032    5.5806   -0.7767 C   0  0  0  0  0  0  0  0  0  0  0  0
  -11.8165    5.2651   -1.6575 C   0  0  0  0  0  0  0  0  0  0  0  0
  -11.5272    4.0224   -2.4994 C   0  0  0  0  0  0  0  0  0  0  0  0
  -10.3328    4.2718   -3.3557 N   0  0  0  0  0  0  0  0  0  0  0  0
   -9.3709    3.3869   -3.4198 C   0  0  0  0  0  0  0  0  0  0  0  0
   -9.6293    2.1578   -3.7857 N   0  0  0  0  0  0  0  0  0  0  0  0
   -8.1473    3.7344   -3.1232 N   0  0  0  0  0  0  0  0  0  0  0  0
  2  1  1  1  0  0  0
  2  3  1  0  0  0  0
  2  5  1  0  0  0  0
  3  4  1  0  0  0  0
  5  6  1  0  0  0  0
  6  7  1  0  0  0  0
  7  8  1  0  0  0  0
  8  9  1  0  0  0  0
  9 10  1  0  0  0  0
  9 11  1  0  0  0  0
M  END
>  <CHROM.1>
-51.82383303,179.04779560,-155.96727040,-159.75379908,-59.61482590,132.31329768
56.78259157,-4.60327862,-47.18235463,-10.55073659,4.78422798,-1.30418081
-1.93086119,-0.39074760,-2.28092115

>  <Name>
1akx_lig

>  <RI>
0

>  <Rbt.Current_Directory>
/home/itssahil/PROJECTS/Mol_Feturizer/New_Systems/rnas/1akx

>  <Rbt.Executable>
rbdock ($Id: //depot/dev/client3/rdock/2013.1/src/exe/rbdock.cxx#4 $)

>  <Rbt.Library>
libRbt.so (2013.1, Build901 2013/11/27)

>  <Rbt.Parameter_File>
/export/apps/rDock/src/rDock_2013.1_src/data/scripts/dock_solv.prm

>  <Rbt.Receptor>
prm/blind_docking_100.prm

>  <SCORE>
-43.025

>  <SCORE.INTER>
-37.3589

>  <SCORE.INTER.CONST>
1

>  <SCORE.INTER.POLAR>
-5.76078

>  <SCORE.INTER.ROT>
8

>  <SCORE.INTER.SOLV>
13.2552

>  <SCORE.INTER.VDW>
-19.0551

>  <SCORE.INTER.norm>
-3.39626

>  <SCORE.INTRA>
-6.13865

>  <SCORE.INTRA.DIHEDRAL>
-13.0839

>  <SCORE.INTRA.DIHEDRAL.0>
21.6454

>  <SCORE.INTRA.POLAR>
0

>  <SCORE.INTRA.POLAR.0>
0

>  <SCORE.INTRA.REPUL>
0

>  <SCORE.INTRA.REPUL.0>
0

>  <SCORE.INTRA.SOLV>
0.474567

>  <SCORE.INTRA.SOLV.lig_0>
-16.5947

>  <SCORE.INTRA.VDW>
0.166023

>  <SCORE.INTRA.VDW.0>
-0.691398

>  <SCORE.INTRA.norm>
-0.558059

>  <SCORE.RESTR>
0.472531

>  <SCORE.RESTR.CAVITY>
0.472531

>  <SCORE.RESTR.norm>
0.0429573

>  <SCORE.SYSTEM>
0

>  <SCORE.SYSTEM.CONST>
0

>  <SCORE.SYSTEM.DIHEDRAL>
0

>  <SCORE.SYSTEM.SOLV>
0

>  <SCORE.SYSTEM.norm>
0

>  <SCORE.heavy>
11

>  <SCORE.norm>
-3.91137

>  <RMSD>
12.894

$$$$
1akx_lig
 OpenBabel11021811383D
libRbt.so/2013.1/901 2013/11/27
 11 10  0  0  0  0  0  0  0  0999 V2000
   -9.6358    6.5221   -0.0866 N   0  0  0  0  0  0  0  0  0  0  0  0
  -11.0253    6.0467    0.1808 C   0  0  2  0  0  0  0  0  0  0  0  0
  -11.1467    5.6199    1.6490 C   0  0  0  0  0  0  0  0  0  0  0  0
  -12.2011    5.2019    2.0846 O   0  0  0  0  0  0  0  0  0  0  0  0
  -11.3469    4.8557   -0.7321 C   0  0  0  0  0  0  0  0  0  0  0  0
  -12.0388    5.3525   -2.0056 C   0  0  0  0  0  0  0  0  0  0  0  0
  -11.8433    4.3302   -3.1252 C   0  0  0  0  0  0  0  0  0  0  0  0
  -10.4513    4.4301   -3.6491 N   0  0  0  0  0  0  0  0  0  0  0  0
   -9.6062    3.4476   -3.4674 C   0  0  0  0  0  0  0  0  0  0  0  0
  -10.0291    2.2098   -3.4470 N   0  0  0  0  0  0  0  0  0  0  0  0
   -8.3350    3.7041   -3.3123 N   0  0  0  0  0  0  0  0  0  0  0  0
  2  1  1  1  0  0  0
  2  3  1  0  0  0  0
  2  5  1  0  0  0  0
  3  4  1  0  0  0  0
  5  6  1  0  0  0  0
  6  7  1  0  0  0  0
  7  8  1  0  0  0  0
  8  9  1  0  0  0  0
  9 10  1  0  0  0  0
  9 11  1  0  0  0  0
M  END
>  <CHROM.1>
-102.63233498,179.76098191,-93.55413414,156.73525165,-75.75447350,112.79755720
33.15739525,133.59331189,164.26080634,-10.64908842,4.69887476,-1.44020593
-1.86426379,-0.14560192,-2.06997505

>  <Name>
1akx_lig

>  <RI>
0

>  <Rbt.Current_Directory>
/home/itssahil/PROJECTS/Mol_Feturizer/New_Systems/rnas/1akx

>  <Rbt.Executable>
rbdock ($Id: //depot/dev/client3/rdock/2013.1/src/exe/rbdock.cxx#4 $)

>  <Rbt.Library>
libRbt.so (2013.1, Build901 2013/11/27)

>  <Rbt.Parameter_File>
/export/apps/rDock/src/rDock_2013.1_src/data/scripts/dock_solv.prm

>  <Rbt.Receptor>
prm/blind_docking_40.prm

>  <SCORE>
-36.9603

>  <SCORE.INTER>
-34.3337

>  <SCORE.INTER.CONST>
1

>  <SCORE.INTER.POLAR>
-4.88656

>  <SCORE.INTER.ROT>
8

>  <SCORE.INTER.SOLV>
13.0914

>  <SCORE.INTER.VDW>
-19.8978

>  <SCORE.INTER.norm>
-3.12125

>  <SCORE.INTRA>
-2.64958

>  <SCORE.INTRA.DIHEDRAL>
-7.55748

>  <SCORE.INTRA.DIHEDRAL.0>
21.6454

>  <SCORE.INTRA.POLAR>
0

>  <SCORE.INTRA.POLAR.0>
0

>  <SCORE.INTRA.REPUL>
0

>  <SCORE.INTRA.REPUL.0>
0

>  <SCORE.INTRA.SOLV>
0.654301

>  <SCORE.INTRA.SOLV.lig_0>
-16.5947

>  <SCORE.INTRA.VDW>
0.80201

>  <SCORE.INTRA.VDW.0>
-0.691398

>  <SCORE.INTRA.norm>
-0.240871

>  <SCORE.RESTR>
0.0229671

>  <SCORE.RESTR.CAVITY>
0.0229671

>  <SCORE.RESTR.norm>
0.00208792

>  <SCORE.SYSTEM>
0

>  <SCORE.SYSTEM.CONST>
0

>  <SCORE.SYSTEM.DIHEDRAL>
0

>  <SCORE.SYSTEM.SOLV>
0

>  <SCORE.SYSTEM.norm>
0

>  <SCORE.heavy>
11

>  <SCORE.norm>
-3.36003

>  <RMSD>
12.897

$$$$
1akx_lig
 OpenBabel11021811383D
libRbt.so/2013.1/901 2013/11/27
 11 10  0  0  0  0  0  0  0  0999 V2000
   -9.9220    7.4274    1.1949 N   0  0  0  0  0  0  0  0  0  0  0  0
  -11.0040    6.5852    0.6049 C   0  0  2  0  0  0  0  0  0  0  0  0
  -11.4667    5.5492    1.6371 C   0  0  0  0  0  0  0  0  0  0  0  0
  -12.0438    5.9002    2.6471 O   0  0  0  0  0  0  0  0  0  0  0  0
  -10.4753    5.8688   -0.6452 C   0  0  0  0  0  0  0  0  0  0  0  0
  -11.6510    5.4057   -1.5116 C   0  0  0  0  0  0  0  0  0  0  0  0
  -11.1194    4.7007   -2.7595 C   0  0  0  0  0  0  0  0  0  0  0  0
  -10.3651    3.4802   -2.3549 N   0  0  0  0  0  0  0  0  0  0  0  0
   -9.3631    3.0536   -3.0804 C   0  0  0  0  0  0  0  0  0  0  0  0
   -8.2116    3.6733   -3.0432 N   0  0  0  0  0  0  0  0  0  0  0  0
   -9.5120    2.0011   -3.8394 N   0  0  0  0  0  0  0  0  0  0  0  0
  2  1  1  1  0  0  0
  2  3  1  0  0  0  0
  2  5  1  0  0  0  0
  3  4  1  0  0  0  0
  5  6  1  0  0  0  0
  6  7  1  0  0  0  0
  7  8  1  0  0  0  0
  8  9  1  0  0  0  0
  9 10  1  0  0  0  0
  9 11  1  0  0  0  0
M  END
>  <CHROM.1>
69.36968478,67.05421279,-160.72683467,179.64794748,62.88388103,-149.48346445
75.35511192,93.48153036,-144.50513195,-10.43136533,4.87710580,-0.98916024
-1.88770936,-0.45354923,-2.32413740

>  <Name>
1akx_lig

>  <RI>
0

>  <Rbt.Current_Directory>
/home/itssahil/PROJECTS/Mol_Feturizer/New_Systems/rnas/1akx

>  <Rbt.Executable>
rbdock ($Id: //depot/dev/client3/rdock/2013.1/src/exe/rbdock.cxx#4 $)

>  <Rbt.Library>
libRbt.so (2013.1, Build901 2013/11/27)

>  <Rbt.Parameter_File>
/export/apps/rDock/src/rDock_2013.1_src/data/scripts/dock_solv.prm

>  <Rbt.Receptor>
prm/blind_docking_40.prm

>  <SCORE>
-45.9166

>  <SCORE.INTER>
-38.7514

>  <SCORE.INTER.CONST>
1

>  <SCORE.INTER.POLAR>
-6.42597

>  <SCORE.INTER.ROT>
8

>  <SCORE.INTER.SOLV>
13.2823

>  <SCORE.INTER.VDW>
-17.7751

>  <SCORE.INTER.norm>
-3.52286

>  <SCORE.INTRA>
-7.39203

>  <SCORE.INTRA.DIHEDRAL>
-15.0569

>  <SCORE.INTRA.DIHEDRAL.0>
21.6454

>  <SCORE.INTRA.POLAR>
0

>  <SCORE.INTRA.POLAR.0>
0

>  <SCORE.INTRA.REPUL>
0

>  <SCORE.INTRA.REPUL.0>
0

>  <SCORE.INTRA.SOLV>
0.388772

>  <SCORE.INTRA.SOLV.lig_0>
-16.5947

>  <SCORE.INTRA.VDW>
-0.0579464

>  <SCORE.INTRA.VDW.0>
-0.691398

>  <SCORE.INTRA.norm>
-0.672003

>  <SCORE.RESTR>
0.226859

>  <SCORE.RESTR.CAVITY>
0.226859

>  <SCORE.RESTR.norm>
0.0206235

>  <SCORE.SYSTEM>
0

>  <SCORE.SYSTEM.CONST>
0

>  <SCORE.SYSTEM.DIHEDRAL>
0

>  <SCORE.SYSTEM.SOLV>
0

>  <SCORE.SYSTEM.norm>
0

>  <SCORE.heavy>
11

>  <SCORE.norm>
-4.17423

>  <RMSD>
12.897

$$$$
1akx_lig
 OpenBabel11021811383D
libRbt.so/2013.1/901 2013/11/27
 11 10  0  0  0  0  0  0  0  0999 V2000
   -9.9429    7.5494    1.1311 N   0  0  0  0  0  0  0  0  0  0  0  0
  -11.0882    6.7206    0.6520 C   0  0  2  0  0  0  0  0  0  0  0  0
  -11.6531    5.9037    1.8208 C   0  0  0  0  0  0  0  0  0  0  0  0
  -10.9085    5.4012    2.6389 O   0  0  0  0  0  0  0  0  0  0  0  0
  -10.6103    5.7737   -0.4572 C   0  0  0  0  0  0  0  0  0  0  0  0
  -11.8050    5.3275   -1.3063 C   0  0  0  0  0  0  0  0  0  0  0  0
  -11.4349    4.0657   -2.0859 C   0  0  0  0  0  0  0  0  0  0  0  0
  -10.3377    4.3804   -3.0447 N   0  0  0  0  0  0  0  0  0  0  0  0
   -9.4006    3.4997   -3.2866 C   0  0  0  0  0  0  0  0  0  0  0  0
   -9.7162    2.2924   -3.6793 N   0  0  0  0  0  0  0  0  0  0  0  0
   -8.1453    3.8299   -3.1412 N   0  0  0  0  0  0  0  0  0  0  0  0
  2  1  1  1  0  0  0
  2  3  1  0  0  0  0
  2  5  1  0  0  0  0
  3  4  1  0  0  0  0
  5  6  1  0  0  0  0
  6  7  1  0  0  0  0
  7  8  1  0  0  0  0
  8  9  1  0  0  0  0
  9 10  1  0  0  0  0
  9 11  1  0  0  0  0
M  END
>  <CHROM.1>
74.49593084,-39.56608737,-158.42415986,-161.31852436,-63.98836673,143.60909192
54.51173115,-179.14977163,127.36534116,-10.40910710,4.98196758,-0.96514024
-1.82314962,-0.37586972,-2.22148874

>  <Name>
1akx_lig

>  <RI>
0

>  <Rbt.Current_Directory>
/home/itssahil/PROJECTS/Mol_Feturizer/New_Systems/rnas/1akx

>  <Rbt.Executable>
rbdock ($Id: //depot/dev/client3/rdock/2013.1/src/exe/rbdock.cxx#4 $)

>  <Rbt.Library>
libRbt.so (2013.1, Build901 2013/11/27)

>  <Rbt.Parameter_File>
/export/apps/rDock/src/rDock_2013.1_src/data/scripts/dock_solv.prm

>  <Rbt.Receptor>
prm/blind_docking_100.prm

>  <SCORE>
-44.2244

>  <SCORE.INTER>
-38.9226

>  <SCORE.INTER.CONST>
1

>  <SCORE.INTER.POLAR>
-6.31712

>  <SCORE.INTER.ROT>
8

>  <SCORE.INTER.SOLV>
13.7287

>  <SCORE.INTER.VDW>
-18.4009

>  <SCORE.INTER.norm>
-3.53841

>  <SCORE.INTRA>
-5.39741

>  <SCORE.INTRA.DIHEDRAL>
-11.8876

>  <SCORE.INTRA.DIHEDRAL.0>
21.6454

>  <SCORE.INTRA.POLAR>
0

>  <SCORE.INTRA.POLAR.0>
0

>  <SCORE.INTRA.REPUL>
0

>  <SCORE.INTRA.REPUL.0>
0

>  <SCORE.INTRA.SOLV>
0.556698

>  <SCORE.INTRA.SOLV.lig_0>
-16.5947

>  <SCORE.INTRA.VDW>
0.268042

>  <SCORE.INTRA.VDW.0>
-0.691398

>  <SCORE.INTRA.norm>
-0.490674

>  <SCORE.RESTR>
0.095601

>  <SCORE.RESTR.CAVITY>
0.095601

>  <SCORE.RESTR.norm>
0.008691

>  <SCORE.SYSTEM>
0

>  <SCORE.SYSTEM.CONST>
0

>  <SCORE.SYSTEM.DIHEDRAL>
0

>  <SCORE.SYSTEM.SOLV>
0

>  <SCORE.SYSTEM.norm>
0

>  <SCORE.heavy>
11

>  <SCORE.norm>
-4.0204

>  <RMSD>
12.901

$$$$
1akx_lig
 OpenBabel11021811383D
libRbt.so/2013.1/901 2013/11/27
 11 10  0  0  0  0  0  0  0  0999 V2000
   -9.4554    6.4972   -0.2030 N   0  0  0  0  0  0  0  0  0  0  0  0
  -10.8676    6.4307    0.2760 C   0  0  2  0  0  0  0  0  0  0  0  0
  -10.9686    7.0775    1.6631 C   0  0  0  0  0  0  0  0  0  0  0  0
  -10.3054    8.0582    1.9361 O   0  0  0  0  0  0  0  0  0  0  0  0
  -11.3163    4.9652    0.3550 C   0  0  0  0  0  0  0  0  0  0  0  0
  -11.7842    4.4927   -1.0252 C   0  0  0  0  0  0  0  0  0  0  0  0
  -10.5692    4.2425   -1.9186 C   0  0  0  0  0  0  0  0  0  0  0  0
  -10.9794    3.4220   -3.0936 N   0  0  0  0  0  0  0  0  0  0  0  0
  -10.4598    2.2361   -3.2835 C   0  0  0  0  0  0  0  0  0  0  0  0
  -11.2048    1.1658   -3.1796 N   0  0  0  0  0  0  0  0  0  0  0  0
   -9.1939    2.1218   -3.5842 N   0  0  0  0  0  0  0  0  0  0  0  0
  2  1  1  1  0  0  0
  2  3  1  0  0  0  0
  2  5  1  0  0  0  0
  3  4  1  0  0  0  0
  5  6  1  0  0  0  0
  6  7  1  0  0  0  0
  7  8  1  0  0  0  0
  8  9  1  0  0  0  0
  9 10  1  0  0  0  0
  9 11  1  0  0  0  0
M  END
>  <CHROM.1>
57.47221775,36.87789497,-83.54678959,75.70989809,163.62067761,-117.90933718
112.91570734,-20.00983165,-155.56639659,-10.60601661,4.60692535,-1.11307468
-1.57978971,-0.41608730,-2.41615551

>  <Name>
1akx_lig

>  <RI>
0

>  <Rbt.Current_Directory>
/home/itssahil/PROJECTS/Mol_Feturizer/New_Systems/rnas/1akx

>  <Rbt.Executable>
rbdock ($Id: //depot/dev/client3/rdock/2013.1/src/exe/rbdock.cxx#4 $)

>  <Rbt.Library>
libRbt.so (2013.1, Build901 2013/11/27)

>  <Rbt.Parameter_File>
/export/apps/rDock/src/rDock_2013.1_src/data/scripts/dock_solv.prm

>  <Rbt.Receptor>
prm/blind_docking_20.prm

>  <SCORE>
-31.5915

>  <SCORE.INTER>
-28.5614

>  <SCORE.INTER.CONST>
1

>  <SCORE.INTER.POLAR>
-4.35327

>  <SCORE.INTER.ROT>
8

>  <SCORE.INTER.SOLV>
11.9632

>  <SCORE.INTER.VDW>
-17.4511

>  <SCORE.INTER.norm>
-2.59649

>  <SCORE.INTRA>
-3.78177

>  <SCORE.INTRA.DIHEDRAL>
-11.2218

>  <SCORE.INTRA.DIHEDRAL.0>
21.6454

>  <SCORE.INTRA.POLAR>
0

>  <SCORE.INTRA.POLAR.0>
0

>  <SCORE.INTRA.REPUL>
0

>  <SCORE.INTRA.REPUL.0>
0

>  <SCORE.INTRA.SOLV>
0.524456

>  <SCORE.INTRA.SOLV.lig_0>
-16.5947

>  <SCORE.INTRA.VDW>
1.56689

>  <SCORE.INTRA.VDW.0>
-0.691398

>  <SCORE.INTRA.norm>
-0.343797

>  <SCORE.RESTR>
0.751666

>  <SCORE.RESTR.CAVITY>
0.751666

>  <SCORE.RESTR.norm>
0.0683333

>  <SCORE.SYSTEM>
0

>  <SCORE.SYSTEM.CONST>
0

>  <SCORE.SYSTEM.DIHEDRAL>
0

>  <SCORE.SYSTEM.SOLV>
0

>  <SCORE.SYSTEM.norm>
0

>  <SCORE.heavy>
11

>  <SCORE.norm>
-2.87195

>  <RMSD>
12.909

$$$$
1akx_lig
 OpenBabel11021811383D
libRbt.so/2013.1/901 2013/11/27
 11 10  0  0  0  0  0  0  0  0999 V2000
  -10.0505    7.4268    1.1226 N   0  0  0  0  0  0  0  0  0  0  0  0
  -11.2006    6.6083    0.6375 C   0  0  2  0  0  0  0  0  0  0  0  0
  -11.7645    5.7792    1.7982 C   0  0  0  0  0  0  0  0  0  0  0  0
  -11.0190    5.2656    2.6085 O   0  0  0  0  0  0  0  0  0  0  0  0
  -10.7303    5.6734   -0.4850 C   0  0  0  0  0  0  0  0  0  0  0  0
  -11.9045    5.3505   -1.4148 C   0  0  0  0  0  0  0  0  0  0  0  0
  -11.5692    4.1155   -2.2511 C   0  0  0  0  0  0  0  0  0  0  0  0
  -10.3590    4.3906   -3.0769 N   0  0  0  0  0  0  0  0  0  0  0  0
   -9.4424    3.4695   -3.2309 C   0  0  0  0  0  0  0  0  0  0  0  0
   -8.1774    3.7668   -3.0803 N   0  0  0  0  0  0  0  0  0  0  0  0
   -9.7930    2.2474   -3.5300 N   0  0  0  0  0  0  0  0  0  0  0  0
  2  1  1  1  0  0  0
  2  3  1  0  0  0  0
  2  5  1  0  0  0  0
  3  4  1  0  0  0  0
  5  6  1  0  0  0  0
  6  7  1  0  0  0  0
  7  8  1  0  0  0  0
  8  9  1  0  0  0  0
  9 10  1  0  0  0  0
  9 11  1  0  0  0  0
M  END
>  <CHROM.1>
-48.52529326,-39.44844044,-152.99031867,-162.61804876,-60.64636858,139.48121659
-133.04706560,132.52997652,-111.38216391,-10.49619531,4.92113520,-0.97531137
-1.82694216,-0.25828625,-2.18390525

>  <Name>
1akx_lig

>  <RI>
0

>  <Rbt.Current_Directory>
/home/afrankz/demos/rdock_decoys_rna/rnas/1akx

>  <Rbt.Executable>
rbdock ($Id: //depot/dev/client3/rdock/2013.1/src/exe/rbdock.cxx#4 $)

>  <Rbt.Library>
libRbt.so (2013.1, Build901 2013/11/27)

>  <Rbt.Parameter_File>
/export/apps/rDock/src/rDock_2013.1_src/data/scripts/dock_solv.prm

>  <Rbt.Receptor>
prm/blind_docking_100.prm

>  <SCORE>
-43.7253

>  <SCORE.INTER>
-38.4737

>  <SCORE.INTER.CONST>
1

>  <SCORE.INTER.POLAR>
-5.99215

>  <SCORE.INTER.ROT>
8

>  <SCORE.INTER.SOLV>
13.4644

>  <SCORE.INTER.VDW>
-19.0968

>  <SCORE.INTER.norm>
-3.49761

>  <SCORE.INTRA>
-5.25157

>  <SCORE.INTRA.DIHEDRAL>
-11.4814

>  <SCORE.INTRA.DIHEDRAL.0>
21.6454

>  <SCORE.INTRA.POLAR>
0

>  <SCORE.INTRA.POLAR.0>
0

>  <SCORE.INTRA.REPUL>
0

>  <SCORE.INTRA.REPUL.0>
0

>  <SCORE.INTRA.SOLV>
0.566458

>  <SCORE.INTRA.SOLV.lig_0>
-16.5947

>  <SCORE.INTRA.VDW>
0.205888

>  <SCORE.INTRA.VDW.0>
-0.691398

>  <SCORE.INTRA.norm>
-0.477416

>  <SCORE.RESTR>
0

>  <SCORE.RESTR.CAVITY>
0

>  <SCORE.RESTR.norm>
0

>  <SCORE.SYSTEM>
0

>  <SCORE.SYSTEM.CONST>
0

>  <SCORE.SYSTEM.DIHEDRAL>
0

>  <SCORE.SYSTEM.SOLV>
0

>  <SCORE.SYSTEM.norm>
0

>  <SCORE.heavy>
11

>  <SCORE.norm>
-3.97502

>  <RMSD>
12.915

>  <RMSD>
12.915

$$$$
1akx_lig
 OpenBabel11021811383D
libRbt.so/2013.1/901 2013/11/27
 11 10  0  0  0  0  0  0  0  0999 V2000
  -10.0505    7.4268    1.1226 N   0  0  0  0  0  0  0  0  0  0  0  0
  -11.2006    6.6083    0.6375 C   0  0  2  0  0  0  0  0  0  0  0  0
  -11.7645    5.7792    1.7982 C   0  0  0  0  0  0  0  0  0  0  0  0
  -11.0190    5.2656    2.6085 O   0  0  0  0  0  0  0  0  0  0  0  0
  -10.7303    5.6734   -0.4850 C   0  0  0  0  0  0  0  0  0  0  0  0
  -11.9045    5.3505   -1.4148 C   0  0  0  0  0  0  0  0  0  0  0  0
  -11.5692    4.1155   -2.2511 C   0  0  0  0  0  0  0  0  0  0  0  0
  -10.3590    4.3906   -3.0769 N   0  0  0  0  0  0  0  0  0  0  0  0
   -9.4424    3.4695   -3.2309 C   0  0  0  0  0  0  0  0  0  0  0  0
   -8.1774    3.7668   -3.0803 N   0  0  0  0  0  0  0  0  0  0  0  0
   -9.7930    2.2474   -3.5300 N   0  0  0  0  0  0  0  0  0  0  0  0
  2  1  1  1  0  0  0
  2  3  1  0  0  0  0
  2  5  1  0  0  0  0
  3  4  1  0  0  0  0
  5  6  1  0  0  0  0
  6  7  1  0  0  0  0
  7  8  1  0  0  0  0
  8  9  1  0  0  0  0
  9 10  1  0  0  0  0
  9 11  1  0  0  0  0
M  END
>  <CHROM.1>
-48.52529326,-39.44844044,-152.99031867,-162.61804876,-60.64636858,139.48121659
-133.04706560,132.52997652,-111.38216391,-10.49619531,4.92113520,-0.97531137
-1.82694216,-0.25828625,-2.18390525

>  <Name>
1akx_lig

>  <RI>
0

>  <Rbt.Current_Directory>
/home/afrankz/demos/rdock_decoys_rna/rnas/1akx

>  <Rbt.Executable>
rbdock ($Id: //depot/dev/client3/rdock/2013.1/src/exe/rbdock.cxx#4 $)

>  <Rbt.Library>
libRbt.so (2013.1, Build901 2013/11/27)

>  <Rbt.Parameter_File>
/export/apps/rDock/src/rDock_2013.1_src/data/scripts/dock_solv.prm

>  <Rbt.Receptor>
prm/blind_docking_100.prm

>  <SCORE>
-43.7253

>  <SCORE.INTER>
-38.4737

>  <SCORE.INTER.CONST>
1

>  <SCORE.INTER.POLAR>
-5.99215

>  <SCORE.INTER.ROT>
8

>  <SCORE.INTER.SOLV>
13.4644

>  <SCORE.INTER.VDW>
-19.0968

>  <SCORE.INTER.norm>
-3.49761

>  <SCORE.INTRA>
-5.25157

>  <SCORE.INTRA.DIHEDRAL>
-11.4814

>  <SCORE.INTRA.DIHEDRAL.0>
21.6454

>  <SCORE.INTRA.POLAR>
0

>  <SCORE.INTRA.POLAR.0>
0

>  <SCORE.INTRA.REPUL>
0

>  <SCORE.INTRA.REPUL.0>
0

>  <SCORE.INTRA.SOLV>
0.566458

>  <SCORE.INTRA.SOLV.lig_0>
-16.5947

>  <SCORE.INTRA.VDW>
0.205888

>  <SCORE.INTRA.VDW.0>
-0.691398

>  <SCORE.INTRA.norm>
-0.477416

>  <SCORE.RESTR>
0

>  <SCORE.RESTR.CAVITY>
0

>  <SCORE.RESTR.norm>
0

>  <SCORE.SYSTEM>
0

>  <SCORE.SYSTEM.CONST>
0

>  <SCORE.SYSTEM.DIHEDRAL>
0

>  <SCORE.SYSTEM.SOLV>
0

>  <SCORE.SYSTEM.norm>
0

>  <SCORE.heavy>
11

>  <SCORE.norm>
-3.97502

>  <RMSD>
12.915

>  <RMSD>
12.915

$$$$
1akx_lig
 OpenBabel11021811383D
libRbt.so/2013.1/901 2013/11/27
 11 10  0  0  0  0  0  0  0  0999 V2000
  -11.6296    6.5257    0.8821 N   0  0  0  0  0  0  0  0  0  0  0  0
  -12.5840    5.3895    0.7202 C   0  0  2  0  0  0  0  0  0  0  0  0
  -12.0133    4.1403    1.4033 C   0  0  0  0  0  0  0  0  0  0  0  0
  -11.9508    4.0742    2.6149 O   0  0  0  0  0  0  0  0  0  0  0  0
  -12.8017    5.1083   -0.7728 C   0  0  0  0  0  0  0  0  0  0  0  0
  -11.4484    4.9196   -1.4660 C   0  0  0  0  0  0  0  0  0  0  0  0
  -11.6679    4.3584   -2.8709 C   0  0  0  0  0  0  0  0  0  0  0  0
  -10.3823    4.3943   -3.6246 N   0  0  0  0  0  0  0  0  0  0  0  0
   -9.4574    3.4978   -3.3940 C   0  0  0  0  0  0  0  0  0  0  0  0
   -8.2245    3.8678   -3.1604 N   0  0  0  0  0  0  0  0  0  0  0  0
   -9.7683    2.2292   -3.3910 N   0  0  0  0  0  0  0  0  0  0  0  0
  2  1  1  6  0  0  0
  2  3  1  0  0  0  0
  2  5  1  0  0  0  0
  3  4  1  0  0  0  0
  5  6  1  0  0  0  0
  6  7  1  0  0  0  0
  7  8  1  0  0  0  0
  8  9  1  0  0  0  0
  9 10  1  0  0  0  0
  9 11  1  0  0  0  0
M  END
>  <CHROM.1>
-73.47967638,70.65848377,52.87875941,168.32436985,170.38937128,77.29278242
-129.57731824,-36.90540216,38.01874409,-11.04064461,4.41564470,-1.16940346
2.31794978,-0.83223429,1.85997510

>  <Name>
1akx_lig

>  <RI>
0

>  <Rbt.Current_Directory>
/home/itssahil/PROJECTS/Mol_Feturizer/New_Systems/rnas/1akx

>  <Rbt.Executable>
rbdock ($Id: //depot/dev/client3/rdock/2013.1/src/exe/rbdock.cxx#4 $)

>  <Rbt.Library>
libRbt.so (2013.1, Build901 2013/11/27)

>  <Rbt.Parameter_File>
/export/apps/rDock/src/rDock_2013.1_src/data/scripts/dock_solv.prm

>  <Rbt.Receptor>
prm/blind_docking_40.prm

>  <SCORE>
-31.1132

>  <SCORE.INTER>
-25.2516

>  <SCORE.INTER.CONST>
1

>  <SCORE.INTER.POLAR>
-4.47917

>  <SCORE.INTER.ROT>
8

>  <SCORE.INTER.SOLV>
11.7282

>  <SCORE.INTER.VDW>
-14.7466

>  <SCORE.INTER.norm>
-2.2956

>  <SCORE.INTRA>
-5.98689

>  <SCORE.INTRA.DIHEDRAL>
-14.9118

>  <SCORE.INTRA.DIHEDRAL.0>
21.6454

>  <SCORE.INTRA.POLAR>
0

>  <SCORE.INTRA.POLAR.0>
0

>  <SCORE.INTRA.REPUL>
0

>  <SCORE.INTRA.REPUL.0>
0

>  <SCORE.INTRA.SOLV>
0.416436

>  <SCORE.INTRA.SOLV.lig_0>
-16.5947

>  <SCORE.INTRA.VDW>
1.2608

>  <SCORE.INTRA.VDW.0>
-0.691398

>  <SCORE.INTRA.norm>
-0.544263

>  <SCORE.RESTR>
0.125333

>  <SCORE.RESTR.CAVITY>
0.125333

>  <SCORE.RESTR.norm>
0.0113939

>  <SCORE.SYSTEM>
0

>  <SCORE.SYSTEM.CONST>
0

>  <SCORE.SYSTEM.DIHEDRAL>
0

>  <SCORE.SYSTEM.SOLV>
0

>  <SCORE.SYSTEM.norm>
0

>  <SCORE.heavy>
11

>  <SCORE.norm>
-2.82847

>  <RMSD>
12.917

$$$$
1akx_lig
 OpenBabel11021811383D
libRbt.so/2013.1/901 2013/11/27
 11 10  0  0  0  0  0  0  0  0999 V2000
   -9.9648    7.5750    0.9503 N   0  0  0  0  0  0  0  0  0  0  0  0
  -11.0138    6.5898    0.5539 C   0  0  2  0  0  0  0  0  0  0  0  0
  -11.5343    5.8661    1.8021 C   0  0  0  0  0  0  0  0  0  0  0  0
  -10.7593    5.3684    2.5945 O   0  0  0  0  0  0  0  0  0  0  0  0
  -10.4179    5.5687   -0.4248 C   0  0  0  0  0  0  0  0  0  0  0  0
  -11.4809    4.5311   -0.8001 C   0  0  0  0  0  0  0  0  0  0  0  0
  -11.8691    4.7054   -2.2683 C   0  0  0  0  0  0  0  0  0  0  0  0
  -11.2179    3.6397   -3.0823 N   0  0  0  0  0  0  0  0  0  0  0  0
   -9.9135    3.5409   -3.1171 C   0  0  0  0  0  0  0  0  0  0  0  0
   -9.1832    4.5722   -3.4555 N   0  0  0  0  0  0  0  0  0  0  0  0
   -9.3388    2.4098   -2.8067 N   0  0  0  0  0  0  0  0  0  0  0  0
  2  1  1  1  0  0  0
  2  3  1  0  0  0  0
  2  5  1  0  0  0  0
  3  4  1  0  0  0  0
  5  6  1  0  0  0  0
  6  7  1  0  0  0  0
  7  8  1  0  0  0  0
  8  9  1  0  0  0  0
  9 10  1  0  0  0  0
  9 11  1  0  0  0  0
M  END
>  <CHROM.1>
70.53868333,-50.15178827,178.27817988,111.50998330,103.25687391,-60.32040690
-54.58046603,-16.15782791,29.53306620,-10.56342849,4.95109911,-0.90162495
-1.77763799,-0.87562372,-2.27419917

>  <Name>
1akx_lig

>  <RI>
0

>  <Rbt.Current_Directory>
/home/itssahil/PROJECTS/Mol_Feturizer/New_Systems/rnas/1akx

>  <Rbt.Executable>
rbdock ($Id: //depot/dev/client3/rdock/2013.1/src/exe/rbdock.cxx#4 $)

>  <Rbt.Library>
libRbt.so (2013.1, Build901 2013/11/27)

>  <Rbt.Parameter_File>
/export/apps/rDock/src/rDock_2013.1_src/data/scripts/dock_solv.prm

>  <Rbt.Receptor>
prm/blind_docking_20.prm

>  <SCORE>
-33.703

>  <SCORE.INTER>
-34.3746

>  <SCORE.INTER.CONST>
1

>  <SCORE.INTER.POLAR>
-5.1529

>  <SCORE.INTER.ROT>
8

>  <SCORE.INTER.SOLV>
12.836

>  <SCORE.INTER.VDW>
-18.9521

>  <SCORE.INTER.norm>
-3.12497

>  <SCORE.INTRA>
-1.01047

>  <SCORE.INTRA.DIHEDRAL>
-5.87352

>  <SCORE.INTRA.DIHEDRAL.0>
21.6454

>  <SCORE.INTRA.POLAR>
0

>  <SCORE.INTRA.POLAR.0>
0

>  <SCORE.INTRA.REPUL>
0

>  <SCORE.INTRA.REPUL.0>
0

>  <SCORE.INTRA.SOLV>
0.945947

>  <SCORE.INTRA.SOLV.lig_0>
-16.5947

>  <SCORE.INTRA.VDW>
1.45332

>  <SCORE.INTRA.VDW.0>
-0.691398

>  <SCORE.INTRA.norm>
-0.0918607

>  <SCORE.RESTR>
1.68215

>  <SCORE.RESTR.CAVITY>
1.68215

>  <SCORE.RESTR.norm>
0.152923

>  <SCORE.SYSTEM>
0

>  <SCORE.SYSTEM.CONST>
0

>  <SCORE.SYSTEM.DIHEDRAL>
0

>  <SCORE.SYSTEM.SOLV>
0

>  <SCORE.SYSTEM.norm>
0

>  <SCORE.heavy>
11

>  <SCORE.norm>
-3.06391

>  <RMSD>
12.928

$$$$
1akx_lig
 OpenBabel11021811383D
libRbt.so/2013.1/901 2013/11/27
 11 10  0  0  0  0  0  0  0  0999 V2000
   -9.5625    6.6480   -0.1328 N   0  0  0  0  0  0  0  0  0  0  0  0
  -10.9931    6.2260   -0.0737 C   0  0  2  0  0  0  0  0  0  0  0  0
  -11.4333    6.1128    1.3912 C   0  0  0  0  0  0  0  0  0  0  0  0
  -11.4899    7.1007    2.0963 O   0  0  0  0  0  0  0  0  0  0  0  0
  -11.1588    4.8682   -0.7697 C   0  0  0  0  0  0  0  0  0  0  0  0
  -11.9076    5.0537   -2.0934 C   0  0  0  0  0  0  0  0  0  0  0  0
  -11.7080    3.8180   -2.9708 C   0  0  0  0  0  0  0  0  0  0  0  0
  -10.4162    3.9360   -3.7054 N   0  0  0  0  0  0  0  0  0  0  0  0
   -9.3950    3.1907   -3.3676 C   0  0  0  0  0  0  0  0  0  0  0  0
   -9.4877    1.8866   -3.4113 N   0  0  0  0  0  0  0  0  0  0  0  0
   -8.2771    3.7519   -2.9914 N   0  0  0  0  0  0  0  0  0  0  0  0
  2  1  1  1  0  0  0
  2  3  1  0  0  0  0
  2  5  1  0  0  0  0
  3  4  1  0  0  0  0
  5  6  1  0  0  0  0
  6  7  1  0  0  0  0
  7  8  1  0  0  0  0
  8  9  1  0  0  0  0
  9 10  1  0  0  0  0
  9 11  1  0  0  0  0
M  END
>  <CHROM.1>
-86.00771884,65.89427639,-108.86321637,163.03107963,-83.59797067,107.63448103
59.58060363,126.13652468,152.74542962,-10.47498751,4.79363482,-1.44602376
-1.81896267,0.00263730,-2.23298866

>  <Name>
1akx_lig

>  <RI>
0

>  <Rbt.Current_Directory>
/home/itssahil/PROJECTS/Mol_Feturizer/New_Systems/rnas/1akx

>  <Rbt.Executable>
rbdock ($Id: //depot/dev/client3/rdock/2013.1/src/exe/rbdock.cxx#4 $)

>  <Rbt.Library>
libRbt.so (2013.1, Build901 2013/11/27)

>  <Rbt.Parameter_File>
/export/apps/rDock/src/rDock_2013.1_src/data/scripts/dock_solv.prm

>  <Rbt.Receptor>
prm/blind_docking_80.prm

>  <SCORE>
-43.1223

>  <SCORE.INTER>
-39.5696

>  <SCORE.INTER.CONST>
1

>  <SCORE.INTER.POLAR>
-6.23034

>  <SCORE.INTER.ROT>
8

>  <SCORE.INTER.SOLV>
13.764

>  <SCORE.INTER.VDW>
-19.1332

>  <SCORE.INTER.norm>
-3.59723

>  <SCORE.INTRA>
-3.67792

>  <SCORE.INTRA.DIHEDRAL>
-6.90998

>  <SCORE.INTRA.DIHEDRAL.0>
21.6454

>  <SCORE.INTRA.POLAR>
0

>  <SCORE.INTRA.POLAR.0>
0

>  <SCORE.INTRA.REPUL>
0

>  <SCORE.INTRA.REPUL.0>
0

>  <SCORE.INTRA.SOLV>
0.643922

>  <SCORE.INTRA.SOLV.lig_0>
-16.5947

>  <SCORE.INTRA.VDW>
-0.54489

>  <SCORE.INTRA.VDW.0>
-0.691398

>  <SCORE.INTRA.norm>
-0.334356

>  <SCORE.RESTR>
0.125219

>  <SCORE.RESTR.CAVITY>
0.125219

>  <SCORE.RESTR.norm>
0.0113835

>  <SCORE.SYSTEM>
0

>  <SCORE.SYSTEM.CONST>
0

>  <SCORE.SYSTEM.DIHEDRAL>
0

>  <SCORE.SYSTEM.SOLV>
0

>  <SCORE.SYSTEM.norm>
0

>  <SCORE.heavy>
11

>  <SCORE.norm>
-3.9202

>  <RMSD>
12.952

$$$$
1akx_lig
 OpenBabel11021811383D
libRbt.so/2013.1/901 2013/11/27
 11 10  0  0  0  0  0  0  0  0999 V2000
   -9.9395    7.4522    0.9459 N   0  0  0  0  0  0  0  0  0  0  0  0
  -11.1269    6.6850    0.4668 C   0  0  2  0  0  0  0  0  0  0  0  0
  -11.7153    5.8742    1.6283 C   0  0  0  0  0  0  0  0  0  0  0  0
  -10.9852    5.3154    2.4225 O   0  0  0  0  0  0  0  0  0  0  0  0
  -10.7057    5.7370   -0.6642 C   0  0  0  0  0  0  0  0  0  0  0  0
  -11.9176    5.4092   -1.5423 C   0  0  0  0  0  0  0  0  0  0  0  0
  -11.6247    4.1583   -2.3709 C   0  0  0  0  0  0  0  0  0  0  0  0
  -10.3874    4.3749   -3.1736 N   0  0  0  0  0  0  0  0  0  0  0  0
   -9.5950    3.3703   -3.4479 C   0  0  0  0  0  0  0  0  0  0  0  0
  -10.0896    2.1753   -3.6447 N   0  0  0  0  0  0  0  0  0  0  0  0
   -8.3059    3.5634   -3.5315 N   0  0  0  0  0  0  0  0  0  0  0  0
  2  1  1  1  0  0  0
  2  3  1  0  0  0  0
  2  5  1  0  0  0  0
  3  4  1  0  0  0  0
  5  6  1  0  0  0  0
  6  7  1  0  0  0  0
  7  8  1  0  0  0  0
  8  9  1  0  0  0  0
  9 10  1  0  0  0  0
  9 11  1  0  0  0  0
M  END
>  <CHROM.1>
-168.03919236,-40.13886952,-155.98189287,-162.18617103,-56.55459446,147.93928739
33.87689008,-2.56940007,-21.60218377,-10.53140298,4.92034694,-1.15969221
-1.79950454,-0.37773060,-2.22466600

>  <Name>
1akx_lig

>  <RI>
0

>  <Rbt.Current_Directory>
/home/itssahil/PROJECTS/Mol_Feturizer/New_Systems/rnas/1akx

>  <Rbt.Executable>
rbdock ($Id: //depot/dev/client3/rdock/2013.1/src/exe/rbdock.cxx#4 $)

>  <Rbt.Library>
libRbt.so (2013.1, Build901 2013/11/27)

>  <Rbt.Parameter_File>
/export/apps/rDock/src/rDock_2013.1_src/data/scripts/dock_solv.prm

>  <Rbt.Receptor>
prm/blind_docking_80.prm

>  <SCORE>
-39.869

>  <SCORE.INTER>
-36.5601

>  <SCORE.INTER.CONST>
1

>  <SCORE.INTER.POLAR>
-5.69253

>  <SCORE.INTER.ROT>
8

>  <SCORE.INTER.SOLV>
13.6156

>  <SCORE.INTER.VDW>
-18.8702

>  <SCORE.INTER.norm>
-3.32365

>  <SCORE.INTRA>
-4.59167

>  <SCORE.INTRA.DIHEDRAL>
-11.893

>  <SCORE.INTRA.DIHEDRAL.0>
21.6454

>  <SCORE.INTRA.POLAR>
0

>  <SCORE.INTRA.POLAR.0>
0

>  <SCORE.INTRA.REPUL>
0

>  <SCORE.INTRA.REPUL.0>
0

>  <SCORE.INTRA.SOLV>
0.565288

>  <SCORE.INTRA.SOLV.lig_0>
-16.5947

>  <SCORE.INTRA.VDW>
1.07218

>  <SCORE.INTRA.VDW.0>
-0.691398

>  <SCORE.INTRA.norm>
-0.417425

>  <SCORE.RESTR>
1.28277

>  <SCORE.RESTR.CAVITY>
1.28277

>  <SCORE.RESTR.norm>
0.116615

>  <SCORE.SYSTEM>
0

>  <SCORE.SYSTEM.CONST>
0

>  <SCORE.SYSTEM.DIHEDRAL>
0

>  <SCORE.SYSTEM.SOLV>
0

>  <SCORE.SYSTEM.norm>
0

>  <SCORE.heavy>
11

>  <SCORE.norm>
-3.62446

>  <RMSD>
12.953

$$$$
1akx_lig
 OpenBabel11021811383D
libRbt.so/2013.1/901 2013/11/27
 11 10  0  0  0  0  0  0  0  0999 V2000
  -10.1850    7.4528    0.7093 N   0  0  0  0  0  0  0  0  0  0  0  0
  -11.2414    6.4643    0.3420 C   0  0  2  0  0  0  0  0  0  0  0  0
  -11.4787    5.5081    1.5177 C   0  0  0  0  0  0  0  0  0  0  0  0
  -10.5862    5.2663    2.3058 O   0  0  0  0  0  0  0  0  0  0  0  0
  -10.7946    5.6668   -0.8908 C   0  0  0  0  0  0  0  0  0  0  0  0
  -11.9607    5.5428   -1.8768 C   0  0  0  0  0  0  0  0  0  0  0  0
  -11.6695    4.4212   -2.8738 C   0  0  0  0  0  0  0  0  0  0  0  0
  -10.2655    4.5431   -3.3598 N   0  0  0  0  0  0  0  0  0  0  0  0
   -9.3351    3.7497   -2.8936 C   0  0  0  0  0  0  0  0  0  0  0  0
   -8.9157    2.7359   -3.6061 N   0  0  0  0  0  0  0  0  0  0  0  0
   -8.8192    3.9753   -1.7151 N   0  0  0  0  0  0  0  0  0  0  0  0
  2  1  1  1  0  0  0
  2  3  1  0  0  0  0
  2  5  1  0  0  0  0
  3  4  1  0  0  0  0
  5  6  1  0  0  0  0
  6  7  1  0  0  0  0
  7  8  1  0  0  0  0
  8  9  1  0  0  0  0
  9 10  1  0  0  0  0
  9 11  1  0  0  0  0
M  END
>  <CHROM.1>
60.70839827,-28.00143781,-135.95415579,-162.86100218,-45.36774269,102.80697500
102.56090082,-43.01379407,-110.89322073,-10.42434882,5.03710385,-1.09627701
1.86117304,-0.62618906,1.22418554

>  <Name>
1akx_lig

>  <RI>
0

>  <Rbt.Current_Directory>
/home/itssahil/PROJECTS/Mol_Feturizer/New_Systems/rnas/1akx

>  <Rbt.Executable>
rbdock ($Id: //depot/dev/client3/rdock/2013.1/src/exe/rbdock.cxx#4 $)

>  <Rbt.Library>
libRbt.so (2013.1, Build901 2013/11/27)

>  <Rbt.Parameter_File>
/export/apps/rDock/src/rDock_2013.1_src/data/scripts/dock_solv.prm

>  <Rbt.Receptor>
prm/blind_docking_20.prm

>  <SCORE>
-30.9805

>  <SCORE.INTER>
-31.8413

>  <SCORE.INTER.CONST>
1

>  <SCORE.INTER.POLAR>
-5.54568

>  <SCORE.INTER.ROT>
8

>  <SCORE.INTER.SOLV>
13.9894

>  <SCORE.INTER.VDW>
-16.3384

>  <SCORE.INTER.norm>
-2.89466

>  <SCORE.INTRA>
-0.631867

>  <SCORE.INTRA.DIHEDRAL>
-7.09592

>  <SCORE.INTRA.DIHEDRAL.0>
21.6454

>  <SCORE.INTRA.POLAR>
0

>  <SCORE.INTRA.POLAR.0>
0

>  <SCORE.INTRA.REPUL>
0

>  <SCORE.INTRA.REPUL.0>
0

>  <SCORE.INTRA.SOLV>
1.11855

>  <SCORE.INTRA.SOLV.lig_0>
-16.5947

>  <SCORE.INTRA.VDW>
2.35682

>  <SCORE.INTRA.VDW.0>
-0.691398

>  <SCORE.INTRA.norm>
-0.0574424

>  <SCORE.RESTR>
1.49264

>  <SCORE.RESTR.CAVITY>
1.49264

>  <SCORE.RESTR.norm>
0.135695

>  <SCORE.SYSTEM>
0

>  <SCORE.SYSTEM.CONST>
0

>  <SCORE.SYSTEM.DIHEDRAL>
0

>  <SCORE.SYSTEM.SOLV>
0

>  <SCORE.SYSTEM.norm>
0

>  <SCORE.heavy>
11

>  <SCORE.norm>
-2.81641

>  <RMSD>
12.960

$$$$
1akx_lig
 OpenBabel11021811383D
libRbt.so/2013.1/901 2013/11/27
 11 10  0  0  0  0  0  0  0  0999 V2000
   -9.9373    7.2675    1.1359 N   0  0  0  0  0  0  0  0  0  0  0  0
  -11.1056    6.4375    0.7184 C   0  0  2  0  0  0  0  0  0  0  0  0
  -11.6428    5.6640    1.9291 C   0  0  0  0  0  0  0  0  0  0  0  0
  -12.5900    4.9125    1.8101 O   0  0  0  0  0  0  0  0  0  0  0  0
  -10.6723    5.4510   -0.3745 C   0  0  0  0  0  0  0  0  0  0  0  0
  -11.9087    4.8910   -1.0851 C   0  0  0  0  0  0  0  0  0  0  0  0
  -11.6590    3.4334   -1.4724 C   0  0  0  0  0  0  0  0  0  0  0  0
  -10.9433    3.3841   -2.7792 N   0  0  0  0  0  0  0  0  0  0  0  0
   -9.6985    3.7785   -2.8646 C   0  0  0  0  0  0  0  0  0  0  0  0
   -9.4093    4.9367   -3.3996 N   0  0  0  0  0  0  0  0  0  0  0  0
   -8.7422    3.0151   -2.4079 N   0  0  0  0  0  0  0  0  0  0  0  0
  2  1  1  1  0  0  0
  2  3  1  0  0  0  0
  2  5  1  0  0  0  0
  3  4  1  0  0  0  0
  5  6  1  0  0  0  0
  6  7  1  0  0  0  0
  7  8  1  0  0  0  0
  8  9  1  0  0  0  0
  9 10  1  0  0  0  0
  9 11  1  0  0  0  0
M  END
>  <CHROM.1>
-49.28607888,-179.28224441,-163.75477503,-144.98778127,-84.85518290,69.69613726
-104.08181823,6.81541414,45.16300573,-10.71859026,4.84985364,-0.79549581
-1.96495144,-0.61265363,-2.30604020

>  <Name>
1akx_lig

>  <RI>
0

>  <Rbt.Current_Directory>
/home/afrankz/demos/rdock_decoys_rna/rnas/1akx

>  <Rbt.Executable>
rbdock ($Id: //depot/dev/client3/rdock/2013.1/src/exe/rbdock.cxx#4 $)

>  <Rbt.Library>
libRbt.so (2013.1, Build901 2013/11/27)

>  <Rbt.Parameter_File>
/export/apps/rDock/src/rDock_2013.1_src/data/scripts/dock_solv.prm

>  <Rbt.Receptor>
prm/blind_docking_40.prm

>  <SCORE>
-38.8693

>  <SCORE.INTER>
-34.8123

>  <SCORE.INTER.CONST>
1

>  <SCORE.INTER.POLAR>
-5.37046

>  <SCORE.INTER.ROT>
8

>  <SCORE.INTER.SOLV>
11.193

>  <SCORE.INTER.VDW>
-17.971

>  <SCORE.INTER.norm>
-3.16475

>  <SCORE.INTRA>
-4.05703

>  <SCORE.INTRA.DIHEDRAL>
-9.68707

>  <SCORE.INTRA.DIHEDRAL.0>
21.6454

>  <SCORE.INTRA.POLAR>
0

>  <SCORE.INTRA.POLAR.0>
0

>  <SCORE.INTRA.REPUL>
0

>  <SCORE.INTRA.REPUL.0>
0

>  <SCORE.INTRA.SOLV>
0.891727

>  <SCORE.INTRA.SOLV.lig_0>
-16.5947

>  <SCORE.INTRA.VDW>
0.340641

>  <SCORE.INTRA.VDW.0>
-0.691398

>  <SCORE.INTRA.norm>
-0.368821

>  <SCORE.RESTR>
0

>  <SCORE.RESTR.CAVITY>
0

>  <SCORE.RESTR.norm>
0

>  <SCORE.SYSTEM>
0

>  <SCORE.SYSTEM.CONST>
0

>  <SCORE.SYSTEM.DIHEDRAL>
0

>  <SCORE.SYSTEM.SOLV>
0

>  <SCORE.SYSTEM.norm>
0

>  <SCORE.heavy>
11

>  <SCORE.norm>
-3.53357

>  <RMSD>
12.967

>  <RMSD>
12.967

$$$$
1akx_lig
 OpenBabel11021811383D
libRbt.so/2013.1/901 2013/11/27
 11 10  0  0  0  0  0  0  0  0999 V2000
   -9.9373    7.2675    1.1359 N   0  0  0  0  0  0  0  0  0  0  0  0
  -11.1056    6.4375    0.7184 C   0  0  2  0  0  0  0  0  0  0  0  0
  -11.6428    5.6640    1.9291 C   0  0  0  0  0  0  0  0  0  0  0  0
  -12.5900    4.9125    1.8101 O   0  0  0  0  0  0  0  0  0  0  0  0
  -10.6723    5.4510   -0.3745 C   0  0  0  0  0  0  0  0  0  0  0  0
  -11.9087    4.8910   -1.0851 C   0  0  0  0  0  0  0  0  0  0  0  0
  -11.6590    3.4334   -1.4724 C   0  0  0  0  0  0  0  0  0  0  0  0
  -10.9433    3.3841   -2.7792 N   0  0  0  0  0  0  0  0  0  0  0  0
   -9.6985    3.7785   -2.8646 C   0  0  0  0  0  0  0  0  0  0  0  0
   -9.4093    4.9367   -3.3996 N   0  0  0  0  0  0  0  0  0  0  0  0
   -8.7422    3.0151   -2.4079 N   0  0  0  0  0  0  0  0  0  0  0  0
  2  1  1  1  0  0  0
  2  3  1  0  0  0  0
  2  5  1  0  0  0  0
  3  4  1  0  0  0  0
  5  6  1  0  0  0  0
  6  7  1  0  0  0  0
  7  8  1  0  0  0  0
  8  9  1  0  0  0  0
  9 10  1  0  0  0  0
  9 11  1  0  0  0  0
M  END
>  <CHROM.1>
-49.28607888,-179.28224441,-163.75477503,-144.98778127,-84.85518290,69.69613726
-104.08181823,6.81541414,45.16300573,-10.71859026,4.84985364,-0.79549581
-1.96495144,-0.61265363,-2.30604020

>  <Name>
1akx_lig

>  <RI>
0

>  <Rbt.Current_Directory>
/home/afrankz/demos/rdock_decoys_rna/rnas/1akx

>  <Rbt.Executable>
rbdock ($Id: //depot/dev/client3/rdock/2013.1/src/exe/rbdock.cxx#4 $)

>  <Rbt.Library>
libRbt.so (2013.1, Build901 2013/11/27)

>  <Rbt.Parameter_File>
/export/apps/rDock/src/rDock_2013.1_src/data/scripts/dock_solv.prm

>  <Rbt.Receptor>
prm/blind_docking_40.prm

>  <SCORE>
-38.8693

>  <SCORE.INTER>
-34.8123

>  <SCORE.INTER.CONST>
1

>  <SCORE.INTER.POLAR>
-5.37046

>  <SCORE.INTER.ROT>
8

>  <SCORE.INTER.SOLV>
11.193

>  <SCORE.INTER.VDW>
-17.971

>  <SCORE.INTER.norm>
-3.16475

>  <SCORE.INTRA>
-4.05703

>  <SCORE.INTRA.DIHEDRAL>
-9.68707

>  <SCORE.INTRA.DIHEDRAL.0>
21.6454

>  <SCORE.INTRA.POLAR>
0

>  <SCORE.INTRA.POLAR.0>
0

>  <SCORE.INTRA.REPUL>
0

>  <SCORE.INTRA.REPUL.0>
0

>  <SCORE.INTRA.SOLV>
0.891727

>  <SCORE.INTRA.SOLV.lig_0>
-16.5947

>  <SCORE.INTRA.VDW>
0.340641

>  <SCORE.INTRA.VDW.0>
-0.691398

>  <SCORE.INTRA.norm>
-0.368821

>  <SCORE.RESTR>
0

>  <SCORE.RESTR.CAVITY>
0

>  <SCORE.RESTR.norm>
0

>  <SCORE.SYSTEM>
0

>  <SCORE.SYSTEM.CONST>
0

>  <SCORE.SYSTEM.DIHEDRAL>
0

>  <SCORE.SYSTEM.SOLV>
0

>  <SCORE.SYSTEM.norm>
0

>  <SCORE.heavy>
11

>  <SCORE.norm>
-3.53357

>  <RMSD>
12.967

>  <RMSD>
12.967

$$$$
1akx_lig
 OpenBabel11021811383D
libRbt.so/2013.1/901 2013/11/27
 11 10  0  0  0  0  0  0  0  0999 V2000
  -10.0211    7.5320    1.0429 N   0  0  0  0  0  0  0  0  0  0  0  0
  -11.1165    6.5687    0.7260 C   0  0  2  0  0  0  0  0  0  0  0  0
  -12.0066    6.3813    1.9611 C   0  0  0  0  0  0  0  0  0  0  0  0
  -11.5420    5.9452    2.9956 O   0  0  0  0  0  0  0  0  0  0  0  0
  -10.5127    5.2192    0.3144 C   0  0  0  0  0  0  0  0  0  0  0  0
   -9.8906    5.3353   -1.0809 C   0  0  0  0  0  0  0  0  0  0  0  0
  -10.9472    5.0189   -2.1393 C   0  0  0  0  0  0  0  0  0  0  0  0
  -10.2733    4.6613   -3.4200 N   0  0  0  0  0  0  0  0  0  0  0  0
   -9.5895    3.5499   -3.5175 C   0  0  0  0  0  0  0  0  0  0  0  0
  -10.2084    2.4002   -3.5992 N   0  0  0  0  0  0  0  0  0  0  0  0
   -8.2842    3.5897   -3.5395 N   0  0  0  0  0  0  0  0  0  0  0  0
  2  1  1  1  0  0  0
  2  3  1  0  0  0  0
  2  5  1  0  0  0  0
  3  4  1  0  0  0  0
  5  6  1  0  0  0  0
  6  7  1  0  0  0  0
  7  8  1  0  0  0  0
  8  9  1  0  0  0  0
  9 10  1  0  0  0  0
  9 11  1  0  0  0  0
M  END
>  <CHROM.1>
-149.54066972,-60.57167853,-72.48912143,-88.89971174,-160.26777050,68.30419326
74.18849867,-5.78987904,169.26295159,-10.37002617,5.11278379,-0.92628430
-1.93918809,-0.79895838,-2.35294080

>  <Name>
1akx_lig

>  <RI>
0

>  <Rbt.Current_Directory>
/home/itssahil/PROJECTS/Mol_Feturizer/New_Systems/rnas/1akx

>  <Rbt.Executable>
rbdock ($Id: //depot/dev/client3/rdock/2013.1/src/exe/rbdock.cxx#4 $)

>  <Rbt.Library>
libRbt.so (2013.1, Build901 2013/11/27)

>  <Rbt.Parameter_File>
/export/apps/rDock/src/rDock_2013.1_src/data/scripts/dock_solv.prm

>  <Rbt.Receptor>
prm/blind_docking_100.prm

>  <SCORE>
-38.5455

>  <SCORE.INTER>
-34.3502

>  <SCORE.INTER.CONST>
1

>  <SCORE.INTER.POLAR>
-5.04886

>  <SCORE.INTER.ROT>
8

>  <SCORE.INTER.SOLV>
13.528

>  <SCORE.INTER.VDW>
-19.5133

>  <SCORE.INTER.norm>
-3.12274

>  <SCORE.INTRA>
-4.32072

>  <SCORE.INTRA.DIHEDRAL>
-10.1631

>  <SCORE.INTRA.DIHEDRAL.0>
21.6454

>  <SCORE.INTRA.POLAR>
0

>  <SCORE.INTRA.POLAR.0>
0

>  <SCORE.INTRA.REPUL>
0

>  <SCORE.INTRA.REPUL.0>
0

>  <SCORE.INTRA.SOLV>
0.567144

>  <SCORE.INTRA.SOLV.lig_0>
-16.5947

>  <SCORE.INTRA.VDW>
0.477271

>  <SCORE.INTRA.VDW.0>
-0.691398

>  <SCORE.INTRA.norm>
-0.392793

>  <SCORE.RESTR>
0.125369

>  <SCORE.RESTR.CAVITY>
0.125369

>  <SCORE.RESTR.norm>
0.0113972

>  <SCORE.SYSTEM>
0

>  <SCORE.SYSTEM.CONST>
0

>  <SCORE.SYSTEM.DIHEDRAL>
0

>  <SCORE.SYSTEM.SOLV>
0

>  <SCORE.SYSTEM.norm>
0

>  <SCORE.heavy>
11

>  <SCORE.norm>
-3.50414

>  <RMSD>
12.971

$$$$
1akx_lig
 OpenBabel11021811383D
libRbt.so/2013.1/901 2013/11/27
 11 10  0  0  0  0  0  0  0  0999 V2000
  -10.9552    4.6150   -3.9714 N   0  0  0  0  0  0  0  0  0  0  0  0
  -10.2597    3.3822   -3.4976 C   0  0  2  0  0  0  0  0  0  0  0  0
  -11.2613    2.4772   -2.7693 C   0  0  0  0  0  0  0  0  0  0  0  0
  -10.8800    1.4891   -2.1739 O   0  0  0  0  0  0  0  0  0  0  0  0
   -9.1217    3.7674   -2.5426 C   0  0  0  0  0  0  0  0  0  0  0  0
   -9.4764    5.0676   -1.8138 C   0  0  0  0  0  0  0  0  0  0  0  0
  -10.6770    4.8289   -0.8983 C   0  0  0  0  0  0  0  0  0  0  0  0
  -11.0621    6.1111   -0.2425 N   0  0  0  0  0  0  0  0  0  0  0  0
  -10.5480    6.4401    0.9150 C   0  0  0  0  0  0  0  0  0  0  0  0
  -10.0752    7.6446    1.1077 N   0  0  0  0  0  0  0  0  0  0  0  0
  -10.5128    5.5641    1.8832 N   0  0  0  0  0  0  0  0  0  0  0  0
  2  1  1  1  0  0  0
  2  3  1  0  0  0  0
  2  5  1  0  0  0  0
  3  4  1  0  0  0  0
  5  6  1  0  0  0  0
  6  7  1  0  0  0  0
  7  8  1  0  0  0  0
  8  9  1  0  0  0  0
  9 10  1  0  0  0  0
  9 11  1  0  0  0  0
M  END
>  <CHROM.1>
51.10881727,-171.87155674,29.60027698,65.94447131,-177.19717669,-91.02789695
133.06565276,-90.05025424,96.05594686,-10.45918020,4.69582787,-1.25861300
-1.75590311,1.38960843,1.03234810

>  <Name>
1akx_lig

>  <RI>
0

>  <Rbt.Current_Directory>
/home/itssahil/PROJECTS/Mol_Feturizer/New_Systems/rnas/1akx

>  <Rbt.Executable>
rbdock ($Id: //depot/dev/client3/rdock/2013.1/src/exe/rbdock.cxx#4 $)

>  <Rbt.Library>
libRbt.so (2013.1, Build901 2013/11/27)

>  <Rbt.Parameter_File>
/export/apps/rDock/src/rDock_2013.1_src/data/scripts/dock_solv.prm

>  <Rbt.Receptor>
prm/blind_docking_20.prm

>  <SCORE>
-36.6316

>  <SCORE.INTER>
-34.9628

>  <SCORE.INTER.CONST>
1

>  <SCORE.INTER.POLAR>
-5.35889

>  <SCORE.INTER.ROT>
8

>  <SCORE.INTER.SOLV>
12.8819

>  <SCORE.INTER.VDW>
-18.6729

>  <SCORE.INTER.norm>
-3.17843

>  <SCORE.INTRA>
-2.01117

>  <SCORE.INTRA.DIHEDRAL>
-13.2395

>  <SCORE.INTRA.DIHEDRAL.0>
21.6454

>  <SCORE.INTRA.POLAR>
0

>  <SCORE.INTRA.POLAR.0>
0

>  <SCORE.INTRA.REPUL>
0

>  <SCORE.INTRA.REPUL.0>
0

>  <SCORE.INTRA.SOLV>
0.8206

>  <SCORE.INTRA.SOLV.lig_0>
-16.5947

>  <SCORE.INTRA.VDW>
4.19829

>  <SCORE.INTRA.VDW.0>
-0.691398

>  <SCORE.INTRA.norm>
-0.182834

>  <SCORE.RESTR>
0.342369

>  <SCORE.RESTR.CAVITY>
0.342369

>  <SCORE.RESTR.norm>
0.0311244

>  <SCORE.SYSTEM>
0

>  <SCORE.SYSTEM.CONST>
0

>  <SCORE.SYSTEM.DIHEDRAL>
0

>  <SCORE.SYSTEM.SOLV>
0

>  <SCORE.SYSTEM.norm>
0

>  <SCORE.heavy>
11

>  <SCORE.norm>
-3.33014

>  <RMSD>
12.973

$$$$
1akx_lig
 OpenBabel11021811383D
libRbt.so/2013.1/901 2013/11/27
 11 10  0  0  0  0  0  0  0  0999 V2000
  -10.0909    7.3592    0.8308 N   0  0  0  0  0  0  0  0  0  0  0  0
  -11.1829    6.3498    0.7011 C   0  0  2  0  0  0  0  0  0  0  0  0
  -11.3745    5.6280    2.0409 C   0  0  0  0  0  0  0  0  0  0  0  0
  -11.5430    6.2613    3.0640 O   0  0  0  0  0  0  0  0  0  0  0  0
  -10.8165    5.3314   -0.3870 C   0  0  0  0  0  0  0  0  0  0  0  0
  -11.8595    5.3752   -1.5084 C   0  0  0  0  0  0  0  0  0  0  0  0
  -11.6412    4.1952   -2.4554 C   0  0  0  0  0  0  0  0  0  0  0  0
  -10.3929    4.4148   -3.2401 N   0  0  0  0  0  0  0  0  0  0  0  0
   -9.4639    3.4938   -3.2728 C   0  0  0  0  0  0  0  0  0  0  0  0
   -8.2097    3.8157   -3.0866 N   0  0  0  0  0  0  0  0  0  0  0  0
   -9.7916    2.2475   -3.4859 N   0  0  0  0  0  0  0  0  0  0  0  0
  2  1  1  1  0  0  0
  2  3  1  0  0  0  0
  2  5  1  0  0  0  0
  3  4  1  0  0  0  0
  5  6  1  0  0  0  0
  6  7  1  0  0  0  0
  7  8  1  0  0  0  0
  8  9  1  0  0  0  0
  9 10  1  0  0  0  0
  9 11  1  0  0  0  0
M  END
>  <CHROM.1>
-57.41636732,52.57638784,-118.93500454,-169.64200351,-70.85711837,127.21869279
-133.14986978,-43.32996955,78.26904825,-10.53473367,4.96751650,-0.96831420
-1.82287332,-0.20982876,-2.15306256

>  <Name>
1akx_lig

>  <RI>
0

>  <Rbt.Current_Directory>
/home/itssahil/PROJECTS/Mol_Feturizer/New_Systems/rnas/1akx

>  <Rbt.Executable>
rbdock ($Id: //depot/dev/client3/rdock/2013.1/src/exe/rbdock.cxx#4 $)

>  <Rbt.Library>
libRbt.so (2013.1, Build901 2013/11/27)

>  <Rbt.Parameter_File>
/export/apps/rDock/src/rDock_2013.1_src/data/scripts/dock_solv.prm

>  <Rbt.Receptor>
prm/blind_docking_100.prm

>  <SCORE>
-37.9385

>  <SCORE.INTER>
-32.8211

>  <SCORE.INTER.CONST>
1

>  <SCORE.INTER.POLAR>
-4.99079

>  <SCORE.INTER.ROT>
8

>  <SCORE.INTER.SOLV>
13.1855

>  <SCORE.INTER.VDW>
-18.5733

>  <SCORE.INTER.norm>
-2.98374

>  <SCORE.INTRA>
-5.15983

>  <SCORE.INTRA.DIHEDRAL>
-9.88645

>  <SCORE.INTRA.DIHEDRAL.0>
21.6454

>  <SCORE.INTRA.POLAR>
0

>  <SCORE.INTRA.POLAR.0>
0

>  <SCORE.INTRA.REPUL>
0

>  <SCORE.INTRA.REPUL.0>
0

>  <SCORE.INTRA.SOLV>
0.43935

>  <SCORE.INTRA.SOLV.lig_0>
-16.5947

>  <SCORE.INTRA.VDW>
-0.436281

>  <SCORE.INTRA.VDW.0>
-0.691398

>  <SCORE.INTRA.norm>
-0.469076

>  <SCORE.RESTR>
0.0425079

>  <SCORE.RESTR.CAVITY>
0.0425079

>  <SCORE.RESTR.norm>
0.00386435

>  <SCORE.SYSTEM>
0

>  <SCORE.SYSTEM.CONST>
0

>  <SCORE.SYSTEM.DIHEDRAL>
0

>  <SCORE.SYSTEM.SOLV>
0

>  <SCORE.SYSTEM.norm>
0

>  <SCORE.heavy>
11

>  <SCORE.norm>
-3.44895

>  <RMSD>
12.988

$$$$
1akx_lig
 OpenBabel11021811383D
libRbt.so/2013.1/901 2013/11/27
 11 10  0  0  0  0  0  0  0  0999 V2000
   -9.3809    6.4680   -0.3794 N   0  0  0  0  0  0  0  0  0  0  0  0
  -10.7798    5.9542   -0.4640 C   0  0  2  0  0  0  0  0  0  0  0  0
  -11.4762    6.1402    0.8900 C   0  0  0  0  0  0  0  0  0  0  0  0
  -11.3327    7.1683    1.5212 O   0  0  0  0  0  0  0  0  0  0  0  0
  -10.7602    4.4652   -0.8350 C   0  0  0  0  0  0  0  0  0  0  0  0
  -12.0238    4.1130   -1.6266 C   0  0  0  0  0  0  0  0  0  0  0  0
  -11.9473    4.7424   -3.0175 C   0  0  0  0  0  0  0  0  0  0  0  0
  -10.5910    4.5114   -3.5914 N   0  0  0  0  0  0  0  0  0  0  0  0
   -9.9728    3.3764   -3.3864 C   0  0  0  0  0  0  0  0  0  0  0  0
   -8.7456    3.3667   -2.9333 N   0  0  0  0  0  0  0  0  0  0  0  0
  -10.5862    2.2491   -3.6292 N   0  0  0  0  0  0  0  0  0  0  0  0
  2  1  1  1  0  0  0
  2  3  1  0  0  0  0
  2  5  1  0  0  0  0
  3  4  1  0  0  0  0
  5  6  1  0  0  0  0
  6  7  1  0  0  0  0
  7  8  1  0  0  0  0
  8  9  1  0  0  0  0
  9 10  1  0  0  0  0
  9 11  1  0  0  0  0
M  END
>  <CHROM.1>
170.17376437,42.29359366,-150.02022864,70.80883083,45.16840143,37.84698772
-128.79237177,-18.50694819,-42.90054173,-10.64059309,4.79059526,-1.57802168
-1.70374920,-0.07732530,-2.25923141

>  <Name>
1akx_lig

>  <RI>
0

>  <Rbt.Current_Directory>
/home/itssahil/PROJECTS/Mol_Feturizer/New_Systems/rnas/1akx

>  <Rbt.Executable>
rbdock ($Id: //depot/dev/client3/rdock/2013.1/src/exe/rbdock.cxx#4 $)

>  <Rbt.Library>
libRbt.so (2013.1, Build901 2013/11/27)

>  <Rbt.Parameter_File>
/export/apps/rDock/src/rDock_2013.1_src/data/scripts/dock_solv.prm

>  <Rbt.Receptor>
prm/blind_docking_20.prm

>  <SCORE>
-28.3492

>  <SCORE.INTER>
-27.8032

>  <SCORE.INTER.CONST>
1

>  <SCORE.INTER.POLAR>
-4.12629

>  <SCORE.INTER.ROT>
8

>  <SCORE.INTER.SOLV>
12.073

>  <SCORE.INTER.VDW>
-17.7388

>  <SCORE.INTER.norm>
-2.52756

>  <SCORE.INTRA>
-1.2394

>  <SCORE.INTRA.DIHEDRAL>
-11.3544

>  <SCORE.INTRA.DIHEDRAL.0>
21.6454

>  <SCORE.INTRA.POLAR>
0

>  <SCORE.INTRA.POLAR.0>
0

>  <SCORE.INTRA.REPUL>
0

>  <SCORE.INTRA.REPUL.0>
0

>  <SCORE.INTRA.SOLV>
1.79745

>  <SCORE.INTRA.SOLV.lig_0>
-16.5947

>  <SCORE.INTRA.VDW>
3.53907

>  <SCORE.INTRA.VDW.0>
-0.691398

>  <SCORE.INTRA.norm>
-0.112673

>  <SCORE.RESTR>
0.693337

>  <SCORE.RESTR.CAVITY>
0.693337

>  <SCORE.RESTR.norm>
0.0630307

>  <SCORE.SYSTEM>
0

>  <SCORE.SYSTEM.CONST>
0

>  <SCORE.SYSTEM.DIHEDRAL>
0

>  <SCORE.SYSTEM.SOLV>
0

>  <SCORE.SYSTEM.norm>
0

>  <SCORE.heavy>
11

>  <SCORE.norm>
-2.5772

>  <RMSD>
12.990

$$$$
1akx_lig
 OpenBabel11021811383D
libRbt.so/2013.1/901 2013/11/27
 11 10  0  0  0  0  0  0  0  0999 V2000
   -9.5865    6.3769   -0.0771 N   0  0  0  0  0  0  0  0  0  0  0  0
  -11.0233    6.5736    0.2767 C   0  0  2  0  0  0  0  0  0  0  0  0
  -11.1432    6.8920    1.7724 C   0  0  0  0  0  0  0  0  0  0  0  0
  -10.7180    6.1152    2.6043 O   0  0  0  0  0  0  0  0  0  0  0  0
  -11.8125    5.2973   -0.0450 C   0  0  0  0  0  0  0  0  0  0  0  0
  -11.7891    5.0421   -1.5556 C   0  0  0  0  0  0  0  0  0  0  0  0
  -11.7929    3.5363   -1.8193 C   0  0  0  0  0  0  0  0  0  0  0  0
  -10.8777    3.2307   -2.9557 N   0  0  0  0  0  0  0  0  0  0  0  0
   -9.6432    3.6647   -2.9433 C   0  0  0  0  0  0  0  0  0  0  0  0
   -9.3527    4.8398   -3.4395 N   0  0  0  0  0  0  0  0  0  0  0  0
   -8.6990    2.9240   -2.4277 N   0  0  0  0  0  0  0  0  0  0  0  0
  2  1  1  1  0  0  0
  2  3  1  0  0  0  0
  2  5  1  0  0  0  0
  3  4  1  0  0  0  0
  5  6  1  0  0  0  0
  6  7  1  0  0  0  0
  7  8  1  0  0  0  0
  8  9  1  0  0  0  0
  9 10  1  0  0  0  0
  9 11  1  0  0  0  0
M  END
>  <CHROM.1>
61.12337350,-58.17975367,-64.36842125,146.96725594,-140.30688122,52.32451744
-89.02968549,10.15885487,-138.89403504,-10.52487687,4.95334966,-0.96683252
-1.76592683,-0.21191718,-2.18546508

>  <Name>
1akx_lig

>  <RI>
0

>  <Rbt.Current_Directory>
/home/afrankz/demos/rdock_decoys_rna/rnas/1akx

>  <Rbt.Executable>
rbdock ($Id: //depot/dev/client3/rdock/2013.1/src/exe/rbdock.cxx#4 $)

>  <Rbt.Library>
libRbt.so (2013.1, Build901 2013/11/27)

>  <Rbt.Parameter_File>
/export/apps/rDock/src/rDock_2013.1_src/data/scripts/dock_solv.prm

>  <Rbt.Receptor>
prm/blind_docking_60.prm

>  <SCORE>
-34.8083

>  <SCORE.INTER>
-31.1131

>  <SCORE.INTER.CONST>
1

>  <SCORE.INTER.POLAR>
-5.28029

>  <SCORE.INTER.ROT>
8

>  <SCORE.INTER.SOLV>
12.3276

>  <SCORE.INTER.VDW>
-16.1836

>  <SCORE.INTER.norm>
-2.82846

>  <SCORE.INTRA>
-3.73018

>  <SCORE.INTRA.DIHEDRAL>
-9.11029

>  <SCORE.INTRA.DIHEDRAL.0>
21.6454

>  <SCORE.INTRA.POLAR>
0

>  <SCORE.INTRA.POLAR.0>
0

>  <SCORE.INTRA.REPUL>
0

>  <SCORE.INTRA.REPUL.0>
0

>  <SCORE.INTRA.SOLV>
1.22513

>  <SCORE.INTRA.SOLV.lig_0>
-16.5947

>  <SCORE.INTRA.VDW>
0.2124

>  <SCORE.INTRA.VDW.0>
-0.691398

>  <SCORE.INTRA.norm>
-0.339107

>  <SCORE.RESTR>
0.034936

>  <SCORE.RESTR.CAVITY>
0.034936

>  <SCORE.RESTR.norm>
0.003176

>  <SCORE.SYSTEM>
0

>  <SCORE.SYSTEM.CONST>
0

>  <SCORE.SYSTEM.DIHEDRAL>
0

>  <SCORE.SYSTEM.SOLV>
0

>  <SCORE.SYSTEM.norm>
0

>  <SCORE.heavy>
11

>  <SCORE.norm>
-3.16439

>  <RMSD>
12.992

>  <RMSD>
12.992

$$$$
1akx_lig
 OpenBabel11021811383D
libRbt.so/2013.1/901 2013/11/27
 11 10  0  0  0  0  0  0  0  0999 V2000
   -9.5865    6.3769   -0.0771 N   0  0  0  0  0  0  0  0  0  0  0  0
  -11.0233    6.5736    0.2767 C   0  0  2  0  0  0  0  0  0  0  0  0
  -11.1432    6.8920    1.7724 C   0  0  0  0  0  0  0  0  0  0  0  0
  -10.7180    6.1152    2.6043 O   0  0  0  0  0  0  0  0  0  0  0  0
  -11.8125    5.2973   -0.0450 C   0  0  0  0  0  0  0  0  0  0  0  0
  -11.7891    5.0421   -1.5556 C   0  0  0  0  0  0  0  0  0  0  0  0
  -11.7929    3.5363   -1.8193 C   0  0  0  0  0  0  0  0  0  0  0  0
  -10.8777    3.2307   -2.9557 N   0  0  0  0  0  0  0  0  0  0  0  0
   -9.6432    3.6647   -2.9433 C   0  0  0  0  0  0  0  0  0  0  0  0
   -9.3527    4.8398   -3.4395 N   0  0  0  0  0  0  0  0  0  0  0  0
   -8.6990    2.9240   -2.4277 N   0  0  0  0  0  0  0  0  0  0  0  0
  2  1  1  1  0  0  0
  2  3  1  0  0  0  0
  2  5  1  0  0  0  0
  3  4  1  0  0  0  0
  5  6  1  0  0  0  0
  6  7  1  0  0  0  0
  7  8  1  0  0  0  0
  8  9  1  0  0  0  0
  9 10  1  0  0  0  0
  9 11  1  0  0  0  0
M  END
>  <CHROM.1>
61.12337350,-58.17975367,-64.36842125,146.96725594,-140.30688122,52.32451744
-89.02968549,10.15885487,-138.89403504,-10.52487687,4.95334966,-0.96683252
-1.76592683,-0.21191718,-2.18546508

>  <Name>
1akx_lig

>  <RI>
0

>  <Rbt.Current_Directory>
/home/afrankz/demos/rdock_decoys_rna/rnas/1akx

>  <Rbt.Executable>
rbdock ($Id: //depot/dev/client3/rdock/2013.1/src/exe/rbdock.cxx#4 $)

>  <Rbt.Library>
libRbt.so (2013.1, Build901 2013/11/27)

>  <Rbt.Parameter_File>
/export/apps/rDock/src/rDock_2013.1_src/data/scripts/dock_solv.prm

>  <Rbt.Receptor>
prm/blind_docking_60.prm

>  <SCORE>
-34.8083

>  <SCORE.INTER>
-31.1131

>  <SCORE.INTER.CONST>
1

>  <SCORE.INTER.POLAR>
-5.28029

>  <SCORE.INTER.ROT>
8

>  <SCORE.INTER.SOLV>
12.3276

>  <SCORE.INTER.VDW>
-16.1836

>  <SCORE.INTER.norm>
-2.82846

>  <SCORE.INTRA>
-3.73018

>  <SCORE.INTRA.DIHEDRAL>
-9.11029

>  <SCORE.INTRA.DIHEDRAL.0>
21.6454

>  <SCORE.INTRA.POLAR>
0

>  <SCORE.INTRA.POLAR.0>
0

>  <SCORE.INTRA.REPUL>
0

>  <SCORE.INTRA.REPUL.0>
0

>  <SCORE.INTRA.SOLV>
1.22513

>  <SCORE.INTRA.SOLV.lig_0>
-16.5947

>  <SCORE.INTRA.VDW>
0.2124

>  <SCORE.INTRA.VDW.0>
-0.691398

>  <SCORE.INTRA.norm>
-0.339107

>  <SCORE.RESTR>
0.034936

>  <SCORE.RESTR.CAVITY>
0.034936

>  <SCORE.RESTR.norm>
0.003176

>  <SCORE.SYSTEM>
0

>  <SCORE.SYSTEM.CONST>
0

>  <SCORE.SYSTEM.DIHEDRAL>
0

>  <SCORE.SYSTEM.SOLV>
0

>  <SCORE.SYSTEM.norm>
0

>  <SCORE.heavy>
11

>  <SCORE.norm>
-3.16439

>  <RMSD>
12.992

>  <RMSD>
12.992

$$$$
1akx_lig
 OpenBabel11021811383D
libRbt.so/2013.1/901 2013/11/27
 11 10  0  0  0  0  0  0  0  0999 V2000
  -10.0541    7.5170    1.0984 N   0  0  0  0  0  0  0  0  0  0  0  0
  -11.1698    6.6251    0.6650 C   0  0  2  0  0  0  0  0  0  0  0  0
  -11.4825    5.6183    1.7791 C   0  0  0  0  0  0  0  0  0  0  0  0
  -10.6237    5.2913    2.5738 O   0  0  0  0  0  0  0  0  0  0  0  0
  -10.7636    5.8748   -0.6107 C   0  0  0  0  0  0  0  0  0  0  0  0
  -11.9545    5.0672   -1.1368 C   0  0  0  0  0  0  0  0  0  0  0  0
  -11.8028    4.8556   -2.6432 C   0  0  0  0  0  0  0  0  0  0  0  0
  -11.1280    3.5503   -2.8941 N   0  0  0  0  0  0  0  0  0  0  0  0
   -9.8665    3.5158   -3.2402 C   0  0  0  0  0  0  0  0  0  0  0  0
   -9.2303    4.6232   -3.5238 N   0  0  0  0  0  0  0  0  0  0  0  0
   -9.2390    2.3716   -3.2964 N   0  0  0  0  0  0  0  0  0  0  0  0
  2  1  1  1  0  0  0
  2  3  1  0  0  0  0
  2  5  1  0  0  0  0
  3  4  1  0  0  0  0
  5  6  1  0  0  0  0
  6  7  1  0  0  0  0
  7  8  1  0  0  0  0
  8  9  1  0  0  0  0
  9 10  1  0  0  0  0
  9 11  1  0  0  0  0
M  END
>  <CHROM.1>
177.51321625,-26.49776329,-174.33471124,154.41906971,93.65006479,-103.67602782
-8.16761147,-30.96346923,-106.55361923,-10.61492650,4.99418204,-1.00384954
3.02286109,-1.42353475,2.49662472

>  <Name>
1akx_lig

>  <RI>
0

>  <Rbt.Current_Directory>
/home/itssahil/PROJECTS/Mol_Feturizer/New_Systems/rnas/1akx

>  <Rbt.Executable>
rbdock ($Id: //depot/dev/client3/rdock/2013.1/src/exe/rbdock.cxx#4 $)

>  <Rbt.Library>
libRbt.so (2013.1, Build901 2013/11/27)

>  <Rbt.Parameter_File>
/export/apps/rDock/src/rDock_2013.1_src/data/scripts/dock_solv.prm

>  <Rbt.Receptor>
prm/blind_docking_20.prm

>  <SCORE>
-34.0824

>  <SCORE.INTER>
-33.6238

>  <SCORE.INTER.CONST>
1

>  <SCORE.INTER.POLAR>
-5.20756

>  <SCORE.INTER.ROT>
8

>  <SCORE.INTER.SOLV>
13.0373

>  <SCORE.INTER.VDW>
-18.3365

>  <SCORE.INTER.norm>
-3.05671

>  <SCORE.INTRA>
-2.15172

>  <SCORE.INTRA.DIHEDRAL>
-7.93848

>  <SCORE.INTRA.DIHEDRAL.0>
21.6454

>  <SCORE.INTRA.POLAR>
0

>  <SCORE.INTRA.POLAR.0>
0

>  <SCORE.INTRA.REPUL>
0

>  <SCORE.INTRA.REPUL.0>
0

>  <SCORE.INTRA.SOLV>
0.711695

>  <SCORE.INTRA.SOLV.lig_0>
-16.5947

>  <SCORE.INTRA.VDW>
1.46167

>  <SCORE.INTRA.VDW.0>
-0.691398

>  <SCORE.INTRA.norm>
-0.195611

>  <SCORE.RESTR>
1.69319

>  <SCORE.RESTR.CAVITY>
1.69319

>  <SCORE.RESTR.norm>
0.153926

>  <SCORE.SYSTEM>
0

>  <SCORE.SYSTEM.CONST>
0

>  <SCORE.SYSTEM.DIHEDRAL>
0

>  <SCORE.SYSTEM.SOLV>
0

>  <SCORE.SYSTEM.norm>
0

>  <SCORE.heavy>
11

>  <SCORE.norm>
-3.0984

>  <RMSD>
13.003

$$$$
1akx_lig
 OpenBabel11021811383D
libRbt.so/2013.1/901 2013/11/27
 11 10  0  0  0  0  0  0  0  0999 V2000
  -13.0821    5.4919   -2.3187 N   0  0  0  0  0  0  0  0  0  0  0  0
  -12.2305    4.3307   -1.9254 C   0  0  2  0  0  0  0  0  0  0  0  0
  -13.0742    3.0498   -1.9378 C   0  0  0  0  0  0  0  0  0  0  0  0
  -14.0559    2.9510   -1.2289 O   0  0  0  0  0  0  0  0  0  0  0  0
  -11.6622    4.5618   -0.5186 C   0  0  0  0  0  0  0  0  0  0  0  0
  -10.6772    5.7350   -0.5452 C   0  0  0  0  0  0  0  0  0  0  0  0
   -9.3613    5.2829   -1.1783 C   0  0  0  0  0  0  0  0  0  0  0  0
   -9.5835    4.9840   -2.6218 N   0  0  0  0  0  0  0  0  0  0  0  0
   -9.4664    3.7592   -3.0672 C   0  0  0  0  0  0  0  0  0  0  0  0
  -10.2317    3.3356   -4.0400 N   0  0  0  0  0  0  0  0  0  0  0  0
   -8.5775    2.9589   -2.5424 N   0  0  0  0  0  0  0  0  0  0  0  0
  2  1  1  1  0  0  0
  2  3  1  0  0  0  0
  2  5  1  0  0  0  0
  3  4  1  0  0  0  0
  5  6  1  0  0  0  0
  6  7  1  0  0  0  0
  7  8  1  0  0  0  0
  8  9  1  0  0  0  0
  9 10  1  0  0  0  0
  9 11  1  0  0  0  0
M  END
>  <CHROM.1>
57.21887076,-59.40741756,-66.98016979,-75.76970026,67.27540771,-113.70089413
145.95763733,-135.94645868,156.24776380,-11.12093188,4.21409451,-2.02706168
-2.98406074,-0.20715853,-2.43701281

>  <Name>
1akx_lig

>  <RI>
0

>  <Rbt.Current_Directory>
/home/afrankz/demos/rdock_decoys_rna/rnas/1akx

>  <Rbt.Executable>
rbdock ($Id: //depot/dev/client3/rdock/2013.1/src/exe/rbdock.cxx#4 $)

>  <Rbt.Library>
libRbt.so (2013.1, Build901 2013/11/27)

>  <Rbt.Parameter_File>
/export/apps/rDock/src/rDock_2013.1_src/data/scripts/dock_solv.prm

>  <Rbt.Receptor>
prm/blind_docking_40.prm

>  <SCORE>
-34.003

>  <SCORE.INTER>
-27.5587

>  <SCORE.INTER.CONST>
1

>  <SCORE.INTER.POLAR>
-4.2456

>  <SCORE.INTER.ROT>
8

>  <SCORE.INTER.SOLV>
11.6249

>  <SCORE.INTER.VDW>
-17.0288

>  <SCORE.INTER.norm>
-2.50534

>  <SCORE.INTRA>
-6.44422

>  <SCORE.INTRA.DIHEDRAL>
-15.4433

>  <SCORE.INTRA.DIHEDRAL.0>
21.6454

>  <SCORE.INTRA.POLAR>
0

>  <SCORE.INTRA.POLAR.0>
0

>  <SCORE.INTRA.REPUL>
0

>  <SCORE.INTRA.REPUL.0>
0

>  <SCORE.INTRA.SOLV>
2.23523

>  <SCORE.INTRA.SOLV.lig_0>
-16.5947

>  <SCORE.INTRA.VDW>
0.159838

>  <SCORE.INTRA.VDW.0>
-0.691398

>  <SCORE.INTRA.norm>
-0.585838

>  <SCORE.RESTR>
0

>  <SCORE.RESTR.CAVITY>
0

>  <SCORE.RESTR.norm>
0

>  <SCORE.SYSTEM>
0

>  <SCORE.SYSTEM.CONST>
0

>  <SCORE.SYSTEM.DIHEDRAL>
0

>  <SCORE.SYSTEM.SOLV>
0

>  <SCORE.SYSTEM.norm>
0

>  <SCORE.heavy>
11

>  <SCORE.norm>
-3.09118

>  <RMSD>
13.011

>  <RMSD>
13.011

$$$$
1akx_lig
 OpenBabel11021811383D
libRbt.so/2013.1/901 2013/11/27
 11 10  0  0  0  0  0  0  0  0999 V2000
  -13.0821    5.4919   -2.3187 N   0  0  0  0  0  0  0  0  0  0  0  0
  -12.2305    4.3307   -1.9254 C   0  0  2  0  0  0  0  0  0  0  0  0
  -13.0742    3.0498   -1.9378 C   0  0  0  0  0  0  0  0  0  0  0  0
  -14.0559    2.9510   -1.2289 O   0  0  0  0  0  0  0  0  0  0  0  0
  -11.6622    4.5618   -0.5186 C   0  0  0  0  0  0  0  0  0  0  0  0
  -10.6772    5.7350   -0.5452 C   0  0  0  0  0  0  0  0  0  0  0  0
   -9.3613    5.2829   -1.1783 C   0  0  0  0  0  0  0  0  0  0  0  0
   -9.5835    4.9840   -2.6218 N   0  0  0  0  0  0  0  0  0  0  0  0
   -9.4664    3.7592   -3.0672 C   0  0  0  0  0  0  0  0  0  0  0  0
  -10.2317    3.3356   -4.0400 N   0  0  0  0  0  0  0  0  0  0  0  0
   -8.5775    2.9589   -2.5424 N   0  0  0  0  0  0  0  0  0  0  0  0
  2  1  1  1  0  0  0
  2  3  1  0  0  0  0
  2  5  1  0  0  0  0
  3  4  1  0  0  0  0
  5  6  1  0  0  0  0
  6  7  1  0  0  0  0
  7  8  1  0  0  0  0
  8  9  1  0  0  0  0
  9 10  1  0  0  0  0
  9 11  1  0  0  0  0
M  END
>  <CHROM.1>
57.21887076,-59.40741756,-66.98016979,-75.76970026,67.27540771,-113.70089413
145.95763733,-135.94645868,156.24776380,-11.12093188,4.21409451,-2.02706168
-2.98406074,-0.20715853,-2.43701281

>  <Name>
1akx_lig

>  <RI>
0

>  <Rbt.Current_Directory>
/home/afrankz/demos/rdock_decoys_rna/rnas/1akx

>  <Rbt.Executable>
rbdock ($Id: //depot/dev/client3/rdock/2013.1/src/exe/rbdock.cxx#4 $)

>  <Rbt.Library>
libRbt.so (2013.1, Build901 2013/11/27)

>  <Rbt.Parameter_File>
/export/apps/rDock/src/rDock_2013.1_src/data/scripts/dock_solv.prm

>  <Rbt.Receptor>
prm/blind_docking_40.prm

>  <SCORE>
-34.003

>  <SCORE.INTER>
-27.5587

>  <SCORE.INTER.CONST>
1

>  <SCORE.INTER.POLAR>
-4.2456

>  <SCORE.INTER.ROT>
8

>  <SCORE.INTER.SOLV>
11.6249

>  <SCORE.INTER.VDW>
-17.0288

>  <SCORE.INTER.norm>
-2.50534

>  <SCORE.INTRA>
-6.44422

>  <SCORE.INTRA.DIHEDRAL>
-15.4433

>  <SCORE.INTRA.DIHEDRAL.0>
21.6454

>  <SCORE.INTRA.POLAR>
0

>  <SCORE.INTRA.POLAR.0>
0

>  <SCORE.INTRA.REPUL>
0

>  <SCORE.INTRA.REPUL.0>
0

>  <SCORE.INTRA.SOLV>
2.23523

>  <SCORE.INTRA.SOLV.lig_0>
-16.5947

>  <SCORE.INTRA.VDW>
0.159838

>  <SCORE.INTRA.VDW.0>
-0.691398

>  <SCORE.INTRA.norm>
-0.585838

>  <SCORE.RESTR>
0

>  <SCORE.RESTR.CAVITY>
0

>  <SCORE.RESTR.norm>
0

>  <SCORE.SYSTEM>
0

>  <SCORE.SYSTEM.CONST>
0

>  <SCORE.SYSTEM.DIHEDRAL>
0

>  <SCORE.SYSTEM.SOLV>
0

>  <SCORE.SYSTEM.norm>
0

>  <SCORE.heavy>
11

>  <SCORE.norm>
-3.09118

>  <RMSD>
13.011

>  <RMSD>
13.011

$$$$
1akx_lig
 OpenBabel11021811383D
libRbt.so/2013.1/901 2013/11/27
 11 10  0  0  0  0  0  0  0  0999 V2000
   -9.5723    6.9860    1.4998 N   0  0  0  0  0  0  0  0  0  0  0  0
  -11.0514    6.9238    1.3089 C   0  0  2  0  0  0  0  0  0  0  0  0
  -11.7414    6.8472    2.6766 C   0  0  0  0  0  0  0  0  0  0  0  0
  -11.5382    5.9063    3.4180 O   0  0  0  0  0  0  0  0  0  0  0  0
  -11.4119    5.6848    0.4779 C   0  0  0  0  0  0  0  0  0  0  0  0
  -10.5814    5.6663   -0.8094 C   0  0  0  0  0  0  0  0  0  0  0  0
  -11.0901    4.5566   -1.7296 C   0  0  0  0  0  0  0  0  0  0  0  0
  -10.2324    4.4912   -2.9471 N   0  0  0  0  0  0  0  0  0  0  0  0
   -9.5132    3.4255   -3.1906 C   0  0  0  0  0  0  0  0  0  0  0  0
  -10.0884    2.2578   -3.3215 N   0  0  0  0  0  0  0  0  0  0  0  0
   -8.2167    3.5297   -3.3097 N   0  0  0  0  0  0  0  0  0  0  0  0
  2  1  1  1  0  0  0
  2  3  1  0  0  0  0
  2  5  1  0  0  0  0
  3  4  1  0  0  0  0
  5  6  1  0  0  0  0
  6  7  1  0  0  0  0
  7  8  1  0  0  0  0
  8  9  1  0  0  0  0
  9 10  1  0  0  0  0
  9 11  1  0  0  0  0
M  END
>  <CHROM.1>
-32.72757872,-62.03723180,-52.29060803,-171.42162421,-176.86347084,115.67548227
58.83820667,126.28956694,-80.79761488,-10.41334042,5.10089983,-0.53513836
-1.85114682,-0.49615570,-2.23326235

>  <Name>
1akx_lig

>  <RI>
0

>  <Rbt.Current_Directory>
/home/itssahil/PROJECTS/Mol_Feturizer/New_Systems/rnas/1akx

>  <Rbt.Executable>
rbdock ($Id: //depot/dev/client3/rdock/2013.1/src/exe/rbdock.cxx#4 $)

>  <Rbt.Library>
libRbt.so (2013.1, Build901 2013/11/27)

>  <Rbt.Parameter_File>
/export/apps/rDock/src/rDock_2013.1_src/data/scripts/dock_solv.prm

>  <Rbt.Receptor>
prm/blind_docking_100.prm

>  <SCORE>
-35.141

>  <SCORE.INTER>
-29.3686

>  <SCORE.INTER.CONST>
1

>  <SCORE.INTER.POLAR>
-4.87607

>  <SCORE.INTER.ROT>
8

>  <SCORE.INTER.SOLV>
13.2531

>  <SCORE.INTER.VDW>
-16.6765

>  <SCORE.INTER.norm>
-2.66987

>  <SCORE.INTRA>
-6.47471

>  <SCORE.INTRA.DIHEDRAL>
-14.709

>  <SCORE.INTRA.DIHEDRAL.0>
21.6454

>  <SCORE.INTRA.POLAR>
0

>  <SCORE.INTRA.POLAR.0>
0

>  <SCORE.INTRA.REPUL>
0

>  <SCORE.INTRA.REPUL.0>
0

>  <SCORE.INTRA.SOLV>
0.363842

>  <SCORE.INTRA.SOLV.lig_0>
-16.5947

>  <SCORE.INTRA.VDW>
0.69785

>  <SCORE.INTRA.VDW.0>
-0.691398

>  <SCORE.INTRA.norm>
-0.58861

>  <SCORE.RESTR>
0.702341

>  <SCORE.RESTR.CAVITY>
0.702341

>  <SCORE.RESTR.norm>
0.0638492

>  <SCORE.SYSTEM>
0

>  <SCORE.SYSTEM.CONST>
0

>  <SCORE.SYSTEM.DIHEDRAL>
0

>  <SCORE.SYSTEM.SOLV>
0

>  <SCORE.SYSTEM.norm>
0

>  <SCORE.heavy>
11

>  <SCORE.norm>
-3.19463

>  <RMSD>
13.012

$$$$
1akx_lig
 OpenBabel11021811383D
libRbt.so/2013.1/901 2013/11/27
 11 10  0  0  0  0  0  0  0  0999 V2000
   -9.5138    6.0507    1.1485 N   0  0  0  0  0  0  0  0  0  0  0  0
  -10.6455    6.8040    0.5320 C   0  0  2  0  0  0  0  0  0  0  0  0
  -11.3269    7.6687    1.6000 C   0  0  0  0  0  0  0  0  0  0  0  0
  -11.0897    7.4938    2.7787 O   0  0  0  0  0  0  0  0  0  0  0  0
  -11.6608    5.8161   -0.0584 C   0  0  0  0  0  0  0  0  0  0  0  0
  -10.9270    4.7441   -0.8705 C   0  0  0  0  0  0  0  0  0  0  0  0
   -9.8161    5.3973   -1.6927 C   0  0  0  0  0  0  0  0  0  0  0  0
   -9.7560    4.7593   -3.0386 N   0  0  0  0  0  0  0  0  0  0  0  0
   -9.3310    3.5283   -3.1665 C   0  0  0  0  0  0  0  0  0  0  0  0
   -8.0623    3.2496   -3.0115 N   0  0  0  0  0  0  0  0  0  0  0  0
  -10.1783    2.5737   -3.4438 N   0  0  0  0  0  0  0  0  0  0  0  0
  2  1  1  1  0  0  0
  2  3  1  0  0  0  0
  2  5  1  0  0  0  0
  3  4  1  0  0  0  0
  5  6  1  0  0  0  0
  6  7  1  0  0  0  0
  7  8  1  0  0  0  0
  8  9  1  0  0  0  0
  9 10  1  0  0  0  0
  9 11  1  0  0  0  0
M  END
>  <CHROM.1>
71.06677739,-13.20893851,-46.48601409,-41.77104304,-140.54202194,-69.84587111
-71.99397536,-136.39500202,50.16592981,-10.17553799,5.25563800,-0.82676748
-1.82709215,0.12934858,-2.18464522

>  <Name>
1akx_lig

>  <RI>
0

>  <Rbt.Current_Directory>
/home/afrankz/demos/rdock_decoys_rna/rnas/1akx

>  <Rbt.Executable>
rbdock ($Id: //depot/dev/client3/rdock/2013.1/src/exe/rbdock.cxx#4 $)

>  <Rbt.Library>
libRbt.so (2013.1, Build901 2013/11/27)

>  <Rbt.Parameter_File>
/export/apps/rDock/src/rDock_2013.1_src/data/scripts/dock_solv.prm

>  <Rbt.Receptor>
prm/blind_docking_20.prm

>  <SCORE>
-17.6076

>  <SCORE.INTER>
-20.8725

>  <SCORE.INTER.CONST>
1

>  <SCORE.INTER.POLAR>
-3.54743

>  <SCORE.INTER.ROT>
8

>  <SCORE.INTER.SOLV>
13.7106

>  <SCORE.INTER.VDW>
-15.5938

>  <SCORE.INTER.norm>
-1.8975

>  <SCORE.INTRA>
2.70212

>  <SCORE.INTRA.DIHEDRAL>
-5.81278

>  <SCORE.INTRA.DIHEDRAL.0>
21.6454

>  <SCORE.INTRA.POLAR>
0

>  <SCORE.INTRA.POLAR.0>
0

>  <SCORE.INTRA.REPUL>
0

>  <SCORE.INTRA.REPUL.0>
0

>  <SCORE.INTRA.SOLV>
0.89833

>  <SCORE.INTRA.SOLV.lig_0>
-16.5947

>  <SCORE.INTRA.VDW>
5.15935

>  <SCORE.INTRA.VDW.0>
-0.691398

>  <SCORE.INTRA.norm>
0.245647

>  <SCORE.RESTR>
0.562864

>  <SCORE.RESTR.CAVITY>
0.562864

>  <SCORE.RESTR.norm>
0.0511694

>  <SCORE.SYSTEM>
0

>  <SCORE.SYSTEM.CONST>
0

>  <SCORE.SYSTEM.DIHEDRAL>
0

>  <SCORE.SYSTEM.SOLV>
0

>  <SCORE.SYSTEM.norm>
0

>  <SCORE.heavy>
11

>  <SCORE.norm>
-1.60069

>  <RMSD>
13.016

>  <RMSD>
13.016

$$$$
1akx_lig
 OpenBabel11021811383D
libRbt.so/2013.1/901 2013/11/27
 11 10  0  0  0  0  0  0  0  0999 V2000
   -9.5138    6.0507    1.1485 N   0  0  0  0  0  0  0  0  0  0  0  0
  -10.6455    6.8040    0.5320 C   0  0  2  0  0  0  0  0  0  0  0  0
  -11.3269    7.6687    1.6000 C   0  0  0  0  0  0  0  0  0  0  0  0
  -11.0897    7.4938    2.7787 O   0  0  0  0  0  0  0  0  0  0  0  0
  -11.6608    5.8161   -0.0584 C   0  0  0  0  0  0  0  0  0  0  0  0
  -10.9270    4.7441   -0.8705 C   0  0  0  0  0  0  0  0  0  0  0  0
   -9.8161    5.3973   -1.6927 C   0  0  0  0  0  0  0  0  0  0  0  0
   -9.7560    4.7593   -3.0386 N   0  0  0  0  0  0  0  0  0  0  0  0
   -9.3310    3.5283   -3.1665 C   0  0  0  0  0  0  0  0  0  0  0  0
   -8.0623    3.2496   -3.0115 N   0  0  0  0  0  0  0  0  0  0  0  0
  -10.1783    2.5737   -3.4438 N   0  0  0  0  0  0  0  0  0  0  0  0
  2  1  1  1  0  0  0
  2  3  1  0  0  0  0
  2  5  1  0  0  0  0
  3  4  1  0  0  0  0
  5  6  1  0  0  0  0
  6  7  1  0  0  0  0
  7  8  1  0  0  0  0
  8  9  1  0  0  0  0
  9 10  1  0  0  0  0
  9 11  1  0  0  0  0
M  END
>  <CHROM.1>
71.06677739,-13.20893851,-46.48601409,-41.77104304,-140.54202194,-69.84587111
-71.99397536,-136.39500202,50.16592981,-10.17553799,5.25563800,-0.82676748
-1.82709215,0.12934858,-2.18464522

>  <Name>
1akx_lig

>  <RI>
0

>  <Rbt.Current_Directory>
/home/afrankz/demos/rdock_decoys_rna/rnas/1akx

>  <Rbt.Executable>
rbdock ($Id: //depot/dev/client3/rdock/2013.1/src/exe/rbdock.cxx#4 $)

>  <Rbt.Library>
libRbt.so (2013.1, Build901 2013/11/27)

>  <Rbt.Parameter_File>
/export/apps/rDock/src/rDock_2013.1_src/data/scripts/dock_solv.prm

>  <Rbt.Receptor>
prm/blind_docking_20.prm

>  <SCORE>
-17.6076

>  <SCORE.INTER>
-20.8725

>  <SCORE.INTER.CONST>
1

>  <SCORE.INTER.POLAR>
-3.54743

>  <SCORE.INTER.ROT>
8

>  <SCORE.INTER.SOLV>
13.7106

>  <SCORE.INTER.VDW>
-15.5938

>  <SCORE.INTER.norm>
-1.8975

>  <SCORE.INTRA>
2.70212

>  <SCORE.INTRA.DIHEDRAL>
-5.81278

>  <SCORE.INTRA.DIHEDRAL.0>
21.6454

>  <SCORE.INTRA.POLAR>
0

>  <SCORE.INTRA.POLAR.0>
0

>  <SCORE.INTRA.REPUL>
0

>  <SCORE.INTRA.REPUL.0>
0

>  <SCORE.INTRA.SOLV>
0.89833

>  <SCORE.INTRA.SOLV.lig_0>
-16.5947

>  <SCORE.INTRA.VDW>
5.15935

>  <SCORE.INTRA.VDW.0>
-0.691398

>  <SCORE.INTRA.norm>
0.245647

>  <SCORE.RESTR>
0.562864

>  <SCORE.RESTR.CAVITY>
0.562864

>  <SCORE.RESTR.norm>
0.0511694

>  <SCORE.SYSTEM>
0

>  <SCORE.SYSTEM.CONST>
0

>  <SCORE.SYSTEM.DIHEDRAL>
0

>  <SCORE.SYSTEM.SOLV>
0

>  <SCORE.SYSTEM.norm>
0

>  <SCORE.heavy>
11

>  <SCORE.norm>
-1.60069

>  <RMSD>
13.016

>  <RMSD>
13.016

$$$$
1akx_lig
 OpenBabel11021811383D
libRbt.so/2013.1/901 2013/11/27
 11 10  0  0  0  0  0  0  0  0999 V2000
   -9.7602    6.7755    0.0257 N   0  0  0  0  0  0  0  0  0  0  0  0
  -11.1547    6.4720    0.4634 C   0  0  2  0  0  0  0  0  0  0  0  0
  -11.2584    6.6269    1.9859 C   0  0  0  0  0  0  0  0  0  0  0  0
  -11.0488    7.7018    2.5121 O   0  0  0  0  0  0  0  0  0  0  0  0
  -11.5189    5.0356    0.0640 C   0  0  0  0  0  0  0  0  0  0  0  0
  -12.0805    5.0222   -1.3615 C   0  0  0  0  0  0  0  0  0  0  0  0
  -10.9365    4.8431   -2.3595 C   0  0  0  0  0  0  0  0  0  0  0  0
  -10.3628    3.4748   -2.2145 N   0  0  0  0  0  0  0  0  0  0  0  0
   -9.3463    3.1045   -2.9507 C   0  0  0  0  0  0  0  0  0  0  0  0
   -9.4584    2.0868   -3.7651 N   0  0  0  0  0  0  0  0  0  0  0  0
   -8.2178    3.7578   -2.8764 N   0  0  0  0  0  0  0  0  0  0  0  0
  2  1  1  1  0  0  0
  2  3  1  0  0  0  0
  2  5  1  0  0  0  0
  3  4  1  0  0  0  0
  5  6  1  0  0  0  0
  6  7  1  0  0  0  0
  7  8  1  0  0  0  0
  8  9  1  0  0  0  0
  9 10  1  0  0  0  0
  9 11  1  0  0  0  0
M  END
>  <CHROM.1>
37.32789246,61.83515563,-87.29092986,89.30264693,67.90302029,-178.48711689
-119.42579743,40.36400135,96.11723435,-10.41499632,4.99509188,-0.95594177
-1.83384974,-0.15142284,-2.30927841

>  <Name>
1akx_lig

>  <RI>
0

>  <Rbt.Current_Directory>
/home/itssahil/PROJECTS/Mol_Feturizer/New_Systems/rnas/1akx

>  <Rbt.Executable>
rbdock ($Id: //depot/dev/client3/rdock/2013.1/src/exe/rbdock.cxx#4 $)

>  <Rbt.Library>
libRbt.so (2013.1, Build901 2013/11/27)

>  <Rbt.Parameter_File>
/export/apps/rDock/src/rDock_2013.1_src/data/scripts/dock_solv.prm

>  <Rbt.Receptor>
prm/blind_docking_100.prm

>  <SCORE>
-39.4191

>  <SCORE.INTER>
-35.3119

>  <SCORE.INTER.CONST>
1

>  <SCORE.INTER.POLAR>
-5.93682

>  <SCORE.INTER.ROT>
8

>  <SCORE.INTER.SOLV>
12.8777

>  <SCORE.INTER.VDW>
-16.9777

>  <SCORE.INTER.norm>
-3.21017

>  <SCORE.INTRA>
-4.17986

>  <SCORE.INTRA.DIHEDRAL>
-9.99903

>  <SCORE.INTRA.DIHEDRAL.0>
21.6454

>  <SCORE.INTRA.POLAR>
0

>  <SCORE.INTRA.POLAR.0>
0

>  <SCORE.INTRA.REPUL>
0

>  <SCORE.INTRA.REPUL.0>
0

>  <SCORE.INTRA.SOLV>
0.689244

>  <SCORE.INTRA.SOLV.lig_0>
-16.5947

>  <SCORE.INTRA.VDW>
0.475027

>  <SCORE.INTRA.VDW.0>
-0.691398

>  <SCORE.INTRA.norm>
-0.379988

>  <SCORE.RESTR>
0.0726715

>  <SCORE.RESTR.CAVITY>
0.0726715

>  <SCORE.RESTR.norm>
0.0066065

>  <SCORE.SYSTEM>
0

>  <SCORE.SYSTEM.CONST>
0

>  <SCORE.SYSTEM.DIHEDRAL>
0

>  <SCORE.SYSTEM.SOLV>
0

>  <SCORE.SYSTEM.norm>
0

>  <SCORE.heavy>
11

>  <SCORE.norm>
-3.58355

>  <RMSD>
13.026

$$$$
1akx_lig
 OpenBabel11021811383D
libRbt.so/2013.1/901 2013/11/27
 11 10  0  0  0  0  0  0  0  0999 V2000
   -9.5285    6.1868    1.0427 N   0  0  0  0  0  0  0  0  0  0  0  0
  -10.8254    6.7063    0.5171 C   0  0  2  0  0  0  0  0  0  0  0  0
  -11.7539    7.0457    1.6899 C   0  0  0  0  0  0  0  0  0  0  0  0
  -11.4139    7.8528    2.5321 O   0  0  0  0  0  0  0  0  0  0  0  0
  -11.4838    5.6430   -0.3725 C   0  0  0  0  0  0  0  0  0  0  0  0
  -10.5237    5.2438   -1.4977 C   0  0  0  0  0  0  0  0  0  0  0  0
  -11.2503    4.3380   -2.4919 C   0  0  0  0  0  0  0  0  0  0  0  0
  -10.2936    3.8896   -3.5435 N   0  0  0  0  0  0  0  0  0  0  0  0
   -9.5057    2.8677   -3.3259 C   0  0  0  0  0  0  0  0  0  0  0  0
   -9.9898    1.6525   -3.3162 N   0  0  0  0  0  0  0  0  0  0  0  0
   -8.2300    3.0621   -3.1238 N   0  0  0  0  0  0  0  0  0  0  0  0
  2  1  1  1  0  0  0
  2  3  1  0  0  0  0
  2  5  1  0  0  0  0
  3  4  1  0  0  0  0
  5  6  1  0  0  0  0
  6  7  1  0  0  0  0
  7  8  1  0  0  0  0
  8  9  1  0  0  0  0
  9 10  1  0  0  0  0
  9 11  1  0  0  0  0
M  END
>  <CHROM.1>
170.63861145,58.41715820,-56.46718658,-172.01840685,-176.85535753,83.02500236
73.07816241,-68.40063304,-116.72249401,-10.39155179,4.93917494,-1.06328346
-1.80361567,0.23294927,-2.22973288

>  <Name>
1akx_lig

>  <RI>
0

>  <Rbt.Current_Directory>
/home/itssahil/PROJECTS/Mol_Feturizer/New_Systems/rnas/1akx

>  <Rbt.Executable>
rbdock ($Id: //depot/dev/client3/rdock/2013.1/src/exe/rbdock.cxx#4 $)

>  <Rbt.Library>
libRbt.so (2013.1, Build901 2013/11/27)

>  <Rbt.Parameter_File>
/export/apps/rDock/src/rDock_2013.1_src/data/scripts/dock_solv.prm

>  <Rbt.Receptor>
prm/blind_docking_20.prm

>  <SCORE>
-25.6127

>  <SCORE.INTER>
-20.1988

>  <SCORE.INTER.CONST>
1

>  <SCORE.INTER.POLAR>
-3.13886

>  <SCORE.INTER.ROT>
8

>  <SCORE.INTER.SOLV>
13.7229

>  <SCORE.INTER.VDW>
-16.5106

>  <SCORE.INTER.norm>
-1.83625

>  <SCORE.INTRA>
-7.4488

>  <SCORE.INTRA.DIHEDRAL>
-16.2707

>  <SCORE.INTRA.DIHEDRAL.0>
21.6454

>  <SCORE.INTRA.POLAR>
0

>  <SCORE.INTRA.POLAR.0>
0

>  <SCORE.INTRA.REPUL>
0

>  <SCORE.INTRA.REPUL.0>
0

>  <SCORE.INTRA.SOLV>
0.354492

>  <SCORE.INTRA.SOLV.lig_0>
-16.5947

>  <SCORE.INTRA.VDW>
0.509332

>  <SCORE.INTRA.VDW.0>
-0.691398

>  <SCORE.INTRA.norm>
-0.677163

>  <SCORE.RESTR>
2.03486

>  <SCORE.RESTR.CAVITY>
2.03486

>  <SCORE.RESTR.norm>
0.184987

>  <SCORE.SYSTEM>
0

>  <SCORE.SYSTEM.CONST>
0

>  <SCORE.SYSTEM.DIHEDRAL>
0

>  <SCORE.SYSTEM.SOLV>
0

>  <SCORE.SYSTEM.norm>
0

>  <SCORE.heavy>
11

>  <SCORE.norm>
-2.32843

>  <RMSD>
13.026

$$$$
1akx_lig
 OpenBabel11021811383D
libRbt.so/2013.1/901 2013/11/27
 11 10  0  0  0  0  0  0  0  0999 V2000
  -10.7740    4.6583    1.2969 N   0  0  0  0  0  0  0  0  0  0  0  0
  -10.9143    5.5055    0.0759 C   0  0  2  0  0  0  0  0  0  0  0  0
  -11.0959    6.9717    0.4883 C   0  0  0  0  0  0  0  0  0  0  0  0
  -10.2522    7.5328    1.1588 O   0  0  0  0  0  0  0  0  0  0  0  0
  -12.1318    5.0421   -0.7355 C   0  0  0  0  0  0  0  0  0  0  0  0
  -11.9774    5.4808   -2.1953 C   0  0  0  0  0  0  0  0  0  0  0  0
  -11.9864    4.2502   -3.1022 C   0  0  0  0  0  0  0  0  0  0  0  0
  -10.6504    4.1002   -3.7463 N   0  0  0  0  0  0  0  0  0  0  0  0
   -9.6811    3.4845   -3.1187 C   0  0  0  0  0  0  0  0  0  0  0  0
   -8.5845    4.1266   -2.8081 N   0  0  0  0  0  0  0  0  0  0  0  0
   -9.8124    2.2257   -2.7959 N   0  0  0  0  0  0  0  0  0  0  0  0
  2  1  1  1  0  0  0
  2  3  1  0  0  0  0
  2  5  1  0  0  0  0
  3  4  1  0  0  0  0
  5  6  1  0  0  0  0
  6  7  1  0  0  0  0
  7  8  1  0  0  0  0
  8  9  1  0  0  0  0
  9 10  1  0  0  0  0
  9 11  1  0  0  0  0
M  END
>  <CHROM.1>
179.11554331,58.53489770,-157.48278151,120.37413955,-114.04464201,84.55009837
-117.58187794,168.74584643,155.10957449,-10.67139509,4.83585412,-1.37055340
-1.74634309,0.47261821,-2.12377861

>  <Name>
1akx_lig

>  <RI>
0

>  <Rbt.Current_Directory>
/home/itssahil/PROJECTS/Mol_Feturizer/New_Systems/rnas/1akx

>  <Rbt.Executable>
rbdock ($Id: //depot/dev/client3/rdock/2013.1/src/exe/rbdock.cxx#4 $)

>  <Rbt.Library>
libRbt.so (2013.1, Build901 2013/11/27)

>  <Rbt.Parameter_File>
/export/apps/rDock/src/rDock_2013.1_src/data/scripts/dock_solv.prm

>  <Rbt.Receptor>
prm/blind_docking_20.prm

>  <SCORE>
-28.7873

>  <SCORE.INTER>
-27.289

>  <SCORE.INTER.CONST>
1

>  <SCORE.INTER.POLAR>
-5.05754

>  <SCORE.INTER.ROT>
8

>  <SCORE.INTER.SOLV>
13.5853

>  <SCORE.INTER.VDW>
-14.796

>  <SCORE.INTER.norm>
-2.48082

>  <SCORE.INTRA>
-2.01832

>  <SCORE.INTRA.DIHEDRAL>
-3.50909

>  <SCORE.INTRA.DIHEDRAL.0>
21.6454

>  <SCORE.INTRA.POLAR>
0

>  <SCORE.INTRA.POLAR.0>
0

>  <SCORE.INTRA.REPUL>
0

>  <SCORE.INTRA.REPUL.0>
0

>  <SCORE.INTRA.SOLV>
0.740205

>  <SCORE.INTRA.SOLV.lig_0>
-16.5947

>  <SCORE.INTRA.VDW>
-0.63388

>  <SCORE.INTRA.VDW.0>
-0.691398

>  <SCORE.INTRA.norm>
-0.183484

>  <SCORE.RESTR>
0.520073

>  <SCORE.RESTR.CAVITY>
0.520073

>  <SCORE.RESTR.norm>
0.0472793

>  <SCORE.SYSTEM>
0

>  <SCORE.SYSTEM.CONST>
0

>  <SCORE.SYSTEM.DIHEDRAL>
0

>  <SCORE.SYSTEM.SOLV>
0

>  <SCORE.SYSTEM.norm>
0

>  <SCORE.heavy>
11

>  <SCORE.norm>
-2.61702

>  <RMSD>
13.028

$$$$
1akx_lig
 OpenBabel11021811383D
libRbt.so/2013.1/901 2013/11/27
 11 10  0  0  0  0  0  0  0  0999 V2000
  -10.1823    7.5725    1.4755 N   0  0  0  0  0  0  0  0  0  0  0  0
  -11.1812    6.5309    1.0941 C   0  0  2  0  0  0  0  0  0  0  0  0
  -10.9539    5.2703    1.9377 C   0  0  0  0  0  0  0  0  0  0  0  0
  -11.7513    4.3542    1.9050 O   0  0  0  0  0  0  0  0  0  0  0  0
  -11.0283    6.1912   -0.3947 C   0  0  0  0  0  0  0  0  0  0  0  0
  -12.2780    5.4548   -0.8880 C   0  0  0  0  0  0  0  0  0  0  0  0
  -11.9627    4.7350   -2.1992 C   0  0  0  0  0  0  0  0  0  0  0  0
  -10.8815    3.7351   -1.9673 N   0  0  0  0  0  0  0  0  0  0  0  0
   -9.8443    3.6887   -2.7638 C   0  0  0  0  0  0  0  0  0  0  0  0
   -8.7296    3.1339   -2.3627 N   0  0  0  0  0  0  0  0  0  0  0  0
   -9.9250    4.1929   -3.9660 N   0  0  0  0  0  0  0  0  0  0  0  0
  2  1  1  1  0  0  0
  2  3  1  0  0  0  0
  2  5  1  0  0  0  0
  3  4  1  0  0  0  0
  5  6  1  0  0  0  0
  6  7  1  0  0  0  0
  7  8  1  0  0  0  0
  8  9  1  0  0  0  0
  9 10  1  0  0  0  0
  9 11  1  0  0  0  0
M  END
>  <CHROM.1>
-78.49830692,171.27779262,-163.50270984,-162.06495255,61.05640840,-131.04322204
158.93674936,87.24043494,83.91582204,-10.75200669,4.98605186,-0.72933138
-2.61762968,-1.32439901,-3.09694571

>  <Name>
1akx_lig

>  <RI>
0

>  <Rbt.Current_Directory>
/home/afrankz/demos/rdock_decoys_rna/rnas/1akx

>  <Rbt.Executable>
rbdock ($Id: //depot/dev/client3/rdock/2013.1/src/exe/rbdock.cxx#4 $)

>  <Rbt.Library>
libRbt.so (2013.1, Build901 2013/11/27)

>  <Rbt.Parameter_File>
/export/apps/rDock/src/rDock_2013.1_src/data/scripts/dock_solv.prm

>  <Rbt.Receptor>
prm/blind_docking_40.prm

>  <SCORE>
-32.6927

>  <SCORE.INTER>
-27.1936

>  <SCORE.INTER.CONST>
1

>  <SCORE.INTER.POLAR>
-5.34717

>  <SCORE.INTER.ROT>
8

>  <SCORE.INTER.SOLV>
12.4183

>  <SCORE.INTER.VDW>
-13.3779

>  <SCORE.INTER.norm>
-2.47214

>  <SCORE.INTRA>
-5.49911

>  <SCORE.INTRA.DIHEDRAL>
-13.5097

>  <SCORE.INTRA.DIHEDRAL.0>
21.6454

>  <SCORE.INTRA.POLAR>
0

>  <SCORE.INTRA.POLAR.0>
0

>  <SCORE.INTRA.REPUL>
0

>  <SCORE.INTRA.REPUL.0>
0

>  <SCORE.INTRA.SOLV>
0.694656

>  <SCORE.INTRA.SOLV.lig_0>
-16.5947

>  <SCORE.INTRA.VDW>
0.90842

>  <SCORE.INTRA.VDW.0>
-0.691398

>  <SCORE.INTRA.norm>
-0.499919

>  <SCORE.RESTR>
0

>  <SCORE.RESTR.CAVITY>
0

>  <SCORE.RESTR.norm>
0

>  <SCORE.SYSTEM>
0

>  <SCORE.SYSTEM.CONST>
0

>  <SCORE.SYSTEM.DIHEDRAL>
0

>  <SCORE.SYSTEM.SOLV>
0

>  <SCORE.SYSTEM.norm>
0

>  <SCORE.heavy>
11

>  <SCORE.norm>
-2.97206

>  <RMSD>
13.031

>  <RMSD>
13.031

$$$$
1akx_lig
 OpenBabel11021811383D
libRbt.so/2013.1/901 2013/11/27
 11 10  0  0  0  0  0  0  0  0999 V2000
  -10.1823    7.5725    1.4755 N   0  0  0  0  0  0  0  0  0  0  0  0
  -11.1812    6.5309    1.0941 C   0  0  2  0  0  0  0  0  0  0  0  0
  -10.9539    5.2703    1.9377 C   0  0  0  0  0  0  0  0  0  0  0  0
  -11.7513    4.3542    1.9050 O   0  0  0  0  0  0  0  0  0  0  0  0
  -11.0283    6.1912   -0.3947 C   0  0  0  0  0  0  0  0  0  0  0  0
  -12.2780    5.4548   -0.8880 C   0  0  0  0  0  0  0  0  0  0  0  0
  -11.9627    4.7350   -2.1992 C   0  0  0  0  0  0  0  0  0  0  0  0
  -10.8815    3.7351   -1.9673 N   0  0  0  0  0  0  0  0  0  0  0  0
   -9.8443    3.6887   -2.7638 C   0  0  0  0  0  0  0  0  0  0  0  0
   -8.7296    3.1339   -2.3627 N   0  0  0  0  0  0  0  0  0  0  0  0
   -9.9250    4.1929   -3.9660 N   0  0  0  0  0  0  0  0  0  0  0  0
  2  1  1  1  0  0  0
  2  3  1  0  0  0  0
  2  5  1  0  0  0  0
  3  4  1  0  0  0  0
  5  6  1  0  0  0  0
  6  7  1  0  0  0  0
  7  8  1  0  0  0  0
  8  9  1  0  0  0  0
  9 10  1  0  0  0  0
  9 11  1  0  0  0  0
M  END
>  <CHROM.1>
-78.49830692,171.27779262,-163.50270984,-162.06495255,61.05640840,-131.04322204
158.93674936,87.24043494,83.91582204,-10.75200669,4.98605186,-0.72933138
-2.61762968,-1.32439901,-3.09694571

>  <Name>
1akx_lig

>  <RI>
0

>  <Rbt.Current_Directory>
/home/afrankz/demos/rdock_decoys_rna/rnas/1akx

>  <Rbt.Executable>
rbdock ($Id: //depot/dev/client3/rdock/2013.1/src/exe/rbdock.cxx#4 $)

>  <Rbt.Library>
libRbt.so (2013.1, Build901 2013/11/27)

>  <Rbt.Parameter_File>
/export/apps/rDock/src/rDock_2013.1_src/data/scripts/dock_solv.prm

>  <Rbt.Receptor>
prm/blind_docking_40.prm

>  <SCORE>
-32.6927

>  <SCORE.INTER>
-27.1936

>  <SCORE.INTER.CONST>
1

>  <SCORE.INTER.POLAR>
-5.34717

>  <SCORE.INTER.ROT>
8

>  <SCORE.INTER.SOLV>
12.4183

>  <SCORE.INTER.VDW>
-13.3779

>  <SCORE.INTER.norm>
-2.47214

>  <SCORE.INTRA>
-5.49911

>  <SCORE.INTRA.DIHEDRAL>
-13.5097

>  <SCORE.INTRA.DIHEDRAL.0>
21.6454

>  <SCORE.INTRA.POLAR>
0

>  <SCORE.INTRA.POLAR.0>
0

>  <SCORE.INTRA.REPUL>
0

>  <SCORE.INTRA.REPUL.0>
0

>  <SCORE.INTRA.SOLV>
0.694656

>  <SCORE.INTRA.SOLV.lig_0>
-16.5947

>  <SCORE.INTRA.VDW>
0.90842

>  <SCORE.INTRA.VDW.0>
-0.691398

>  <SCORE.INTRA.norm>
-0.499919

>  <SCORE.RESTR>
0

>  <SCORE.RESTR.CAVITY>
0

>  <SCORE.RESTR.norm>
0

>  <SCORE.SYSTEM>
0

>  <SCORE.SYSTEM.CONST>
0

>  <SCORE.SYSTEM.DIHEDRAL>
0

>  <SCORE.SYSTEM.SOLV>
0

>  <SCORE.SYSTEM.norm>
0

>  <SCORE.heavy>
11

>  <SCORE.norm>
-2.97206

>  <RMSD>
13.031

>  <RMSD>
13.031

$$$$
1akx_lig
 OpenBabel11021811383D
libRbt.so/2013.1/901 2013/11/27
 11 10  0  0  0  0  0  0  0  0999 V2000
   -9.8495    7.1474    0.7603 N   0  0  0  0  0  0  0  0  0  0  0  0
  -11.0816    6.5240    0.1934 C   0  0  2  0  0  0  0  0  0  0  0  0
  -11.8901    5.8706    1.3214 C   0  0  0  0  0  0  0  0  0  0  0  0
  -13.0220    5.4771    1.1208 O   0  0  0  0  0  0  0  0  0  0  0  0
  -10.6913    5.4629   -0.8444 C   0  0  0  0  0  0  0  0  0  0  0  0
  -11.8753    5.1935   -1.7787 C   0  0  0  0  0  0  0  0  0  0  0  0
  -11.5660    3.9828   -2.6593 C   0  0  0  0  0  0  0  0  0  0  0  0
  -10.3313    4.2492   -3.4509 N   0  0  0  0  0  0  0  0  0  0  0  0
   -9.3547    3.3783   -3.4625 C   0  0  0  0  0  0  0  0  0  0  0  0
   -8.1432    3.7420   -3.1286 N   0  0  0  0  0  0  0  0  0  0  0  0
   -9.5923    2.1398   -3.8027 N   0  0  0  0  0  0  0  0  0  0  0  0
  2  1  1  1  0  0  0
  2  3  1  0  0  0  0
  2  5  1  0  0  0  0
  3  4  1  0  0  0  0
  5  6  1  0  0  0  0
  6  7  1  0  0  0  0
  7  8  1  0  0  0  0
  8  9  1  0  0  0  0
  9 10  1  0  0  0  0
  9 11  1  0  0  0  0
M  END
>  <CHROM.1>
-42.00253147,169.09479204,-159.32948342,-170.79795680,-58.94339859,129.28408217
-124.93678294,133.59362378,173.05680357,-10.63449249,4.83616870,-1.41912803
-1.96703682,-0.24579200,-2.27761798

>  <Name>
1akx_lig

>  <RI>
0

>  <Rbt.Current_Directory>
/home/afrankz/demos/rdock_decoys_rna/rnas/1akx

>  <Rbt.Executable>
rbdock ($Id: //depot/dev/client3/rdock/2013.1/src/exe/rbdock.cxx#4 $)

>  <Rbt.Library>
libRbt.so (2013.1, Build901 2013/11/27)

>  <Rbt.Parameter_File>
/export/apps/rDock/src/rDock_2013.1_src/data/scripts/dock_solv.prm

>  <Rbt.Receptor>
prm/blind_docking_100.prm

>  <SCORE>
-42.0718

>  <SCORE.INTER>
-35.8823

>  <SCORE.INTER.CONST>
1

>  <SCORE.INTER.POLAR>
-5.69094

>  <SCORE.INTER.ROT>
8

>  <SCORE.INTER.SOLV>
13.3051

>  <SCORE.INTER.VDW>
-18.3201

>  <SCORE.INTER.norm>
-3.26203

>  <SCORE.INTRA>
-6.24823

>  <SCORE.INTRA.DIHEDRAL>
-13.7727

>  <SCORE.INTRA.DIHEDRAL.0>
21.6454

>  <SCORE.INTRA.POLAR>
0

>  <SCORE.INTRA.POLAR.0>
0

>  <SCORE.INTRA.REPUL>
0

>  <SCORE.INTRA.REPUL.0>
0

>  <SCORE.INTRA.SOLV>
0.471565

>  <SCORE.INTRA.SOLV.lig_0>
-16.5947

>  <SCORE.INTRA.VDW>
0.402345

>  <SCORE.INTRA.VDW.0>
-0.691398

>  <SCORE.INTRA.norm>
-0.568021

>  <SCORE.RESTR>
0.0588054

>  <SCORE.RESTR.CAVITY>
0.0588054

>  <SCORE.RESTR.norm>
0.00534594

>  <SCORE.SYSTEM>
0

>  <SCORE.SYSTEM.CONST>
0

>  <SCORE.SYSTEM.DIHEDRAL>
0

>  <SCORE.SYSTEM.SOLV>
0

>  <SCORE.SYSTEM.norm>
0

>  <SCORE.heavy>
11

>  <SCORE.norm>
-3.82471

>  <RMSD>
13.039

>  <RMSD>
13.039

$$$$
1akx_lig
 OpenBabel11021811383D
libRbt.so/2013.1/901 2013/11/27
 11 10  0  0  0  0  0  0  0  0999 V2000
   -9.8495    7.1474    0.7603 N   0  0  0  0  0  0  0  0  0  0  0  0
  -11.0816    6.5240    0.1934 C   0  0  2  0  0  0  0  0  0  0  0  0
  -11.8901    5.8706    1.3214 C   0  0  0  0  0  0  0  0  0  0  0  0
  -13.0220    5.4771    1.1208 O   0  0  0  0  0  0  0  0  0  0  0  0
  -10.6913    5.4629   -0.8444 C   0  0  0  0  0  0  0  0  0  0  0  0
  -11.8753    5.1935   -1.7787 C   0  0  0  0  0  0  0  0  0  0  0  0
  -11.5660    3.9828   -2.6593 C   0  0  0  0  0  0  0  0  0  0  0  0
  -10.3313    4.2492   -3.4509 N   0  0  0  0  0  0  0  0  0  0  0  0
   -9.3547    3.3783   -3.4625 C   0  0  0  0  0  0  0  0  0  0  0  0
   -8.1432    3.7420   -3.1286 N   0  0  0  0  0  0  0  0  0  0  0  0
   -9.5923    2.1398   -3.8027 N   0  0  0  0  0  0  0  0  0  0  0  0
  2  1  1  1  0  0  0
  2  3  1  0  0  0  0
  2  5  1  0  0  0  0
  3  4  1  0  0  0  0
  5  6  1  0  0  0  0
  6  7  1  0  0  0  0
  7  8  1  0  0  0  0
  8  9  1  0  0  0  0
  9 10  1  0  0  0  0
  9 11  1  0  0  0  0
M  END
>  <CHROM.1>
-42.00253147,169.09479204,-159.32948342,-170.79795680,-58.94339859,129.28408217
-124.93678294,133.59362378,173.05680357,-10.63449249,4.83616870,-1.41912803
-1.96703682,-0.24579200,-2.27761798

>  <Name>
1akx_lig

>  <RI>
0

>  <Rbt.Current_Directory>
/home/afrankz/demos/rdock_decoys_rna/rnas/1akx

>  <Rbt.Executable>
rbdock ($Id: //depot/dev/client3/rdock/2013.1/src/exe/rbdock.cxx#4 $)

>  <Rbt.Library>
libRbt.so (2013.1, Build901 2013/11/27)

>  <Rbt.Parameter_File>
/export/apps/rDock/src/rDock_2013.1_src/data/scripts/dock_solv.prm

>  <Rbt.Receptor>
prm/blind_docking_100.prm

>  <SCORE>
-42.0718

>  <SCORE.INTER>
-35.8823

>  <SCORE.INTER.CONST>
1

>  <SCORE.INTER.POLAR>
-5.69094

>  <SCORE.INTER.ROT>
8

>  <SCORE.INTER.SOLV>
13.3051

>  <SCORE.INTER.VDW>
-18.3201

>  <SCORE.INTER.norm>
-3.26203

>  <SCORE.INTRA>
-6.24823

>  <SCORE.INTRA.DIHEDRAL>
-13.7727

>  <SCORE.INTRA.DIHEDRAL.0>
21.6454

>  <SCORE.INTRA.POLAR>
0

>  <SCORE.INTRA.POLAR.0>
0

>  <SCORE.INTRA.REPUL>
0

>  <SCORE.INTRA.REPUL.0>
0

>  <SCORE.INTRA.SOLV>
0.471565

>  <SCORE.INTRA.SOLV.lig_0>
-16.5947

>  <SCORE.INTRA.VDW>
0.402345

>  <SCORE.INTRA.VDW.0>
-0.691398

>  <SCORE.INTRA.norm>
-0.568021

>  <SCORE.RESTR>
0.0588054

>  <SCORE.RESTR.CAVITY>
0.0588054

>  <SCORE.RESTR.norm>
0.00534594

>  <SCORE.SYSTEM>
0

>  <SCORE.SYSTEM.CONST>
0

>  <SCORE.SYSTEM.DIHEDRAL>
0

>  <SCORE.SYSTEM.SOLV>
0

>  <SCORE.SYSTEM.norm>
0

>  <SCORE.heavy>
11

>  <SCORE.norm>
-3.82471

>  <RMSD>
13.039

>  <RMSD>
13.039

$$$$
1akx_lig
 OpenBabel11021811383D
libRbt.so/2013.1/901 2013/11/27
 11 10  0  0  0  0  0  0  0  0999 V2000
  -11.6877    5.4955    2.1447 N   0  0  0  0  0  0  0  0  0  0  0  0
  -10.5623    6.3517    1.6667 C   0  0  2  0  0  0  0  0  0  0  0  0
  -10.7252    7.7706    2.2260 C   0  0  0  0  0  0  0  0  0  0  0  0
  -11.7493    8.3954    2.0338 O   0  0  0  0  0  0  0  0  0  0  0  0
  -10.5654    6.3973    0.1326 C   0  0  0  0  0  0  0  0  0  0  0  0
  -10.5011    4.9725   -0.4270 C   0  0  0  0  0  0  0  0  0  0  0  0
  -10.3565    5.0271   -1.9479 C   0  0  0  0  0  0  0  0  0  0  0  0
  -10.4238    3.6445   -2.5014 N   0  0  0  0  0  0  0  0  0  0  0  0
   -9.3735    3.1102   -3.0704 C   0  0  0  0  0  0  0  0  0  0  0  0
   -9.4913    2.0132   -3.7734 N   0  0  0  0  0  0  0  0  0  0  0  0
   -8.2046    3.6782   -2.9408 N   0  0  0  0  0  0  0  0  0  0  0  0
  2  1  1  6  0  0  0
  2  3  1  0  0  0  0
  2  5  1  0  0  0  0
  3  4  1  0  0  0  0
  5  6  1  0  0  0  0
  6  7  1  0  0  0  0
  7  8  1  0  0  0  0
  8  9  1  0  0  0  0
  9 10  1  0  0  0  0
  9 11  1  0  0  0  0
M  END
>  <CHROM.1>
-53.18902655,-55.57124112,-55.83457677,-174.10836783,-174.68890467,-113.63503006
-167.12441464,-152.18954192,-74.54364341,-10.34702947,5.14363795,-0.58318465
1.99191639,0.83221874,0.56582245

>  <Name>
1akx_lig

>  <RI>
0

>  <Rbt.Current_Directory>
/home/afrankz/demos/rdock_decoys_rna/rnas/1akx

>  <Rbt.Executable>
rbdock ($Id: //depot/dev/client3/rdock/2013.1/src/exe/rbdock.cxx#4 $)

>  <Rbt.Library>
libRbt.so (2013.1, Build901 2013/11/27)

>  <Rbt.Parameter_File>
/export/apps/rDock/src/rDock_2013.1_src/data/scripts/dock_solv.prm

>  <Rbt.Receptor>
prm/blind_docking_40.prm

>  <SCORE>
-31.7003

>  <SCORE.INTER>
-24.7209

>  <SCORE.INTER.CONST>
1

>  <SCORE.INTER.POLAR>
-3.56305

>  <SCORE.INTER.ROT>
8

>  <SCORE.INTER.SOLV>
11.9798

>  <SCORE.INTER.VDW>
-17.5303

>  <SCORE.INTER.norm>
-2.24735

>  <SCORE.INTRA>
-6.9794

>  <SCORE.INTRA.DIHEDRAL>
-16.3411

>  <SCORE.INTRA.DIHEDRAL.0>
21.6454

>  <SCORE.INTRA.POLAR>
0

>  <SCORE.INTRA.POLAR.0>
0

>  <SCORE.INTRA.REPUL>
0

>  <SCORE.INTRA.REPUL.0>
0

>  <SCORE.INTRA.SOLV>
0.41688

>  <SCORE.INTRA.SOLV.lig_0>
-16.5947

>  <SCORE.INTRA.VDW>
0.982722

>  <SCORE.INTRA.VDW.0>
-0.691398

>  <SCORE.INTRA.norm>
-0.634491

>  <SCORE.RESTR>
0

>  <SCORE.RESTR.CAVITY>
0

>  <SCORE.RESTR.norm>
0

>  <SCORE.SYSTEM>
0

>  <SCORE.SYSTEM.CONST>
0

>  <SCORE.SYSTEM.DIHEDRAL>
0

>  <SCORE.SYSTEM.SOLV>
0

>  <SCORE.SYSTEM.norm>
0

>  <SCORE.heavy>
11

>  <SCORE.norm>
-2.88184

>  <RMSD>
13.042

>  <RMSD>
13.042

$$$$
1akx_lig
 OpenBabel11021811383D
libRbt.so/2013.1/901 2013/11/27
 11 10  0  0  0  0  0  0  0  0999 V2000
  -11.6877    5.4955    2.1447 N   0  0  0  0  0  0  0  0  0  0  0  0
  -10.5623    6.3517    1.6667 C   0  0  2  0  0  0  0  0  0  0  0  0
  -10.7252    7.7706    2.2260 C   0  0  0  0  0  0  0  0  0  0  0  0
  -11.7493    8.3954    2.0338 O   0  0  0  0  0  0  0  0  0  0  0  0
  -10.5654    6.3973    0.1326 C   0  0  0  0  0  0  0  0  0  0  0  0
  -10.5011    4.9725   -0.4270 C   0  0  0  0  0  0  0  0  0  0  0  0
  -10.3565    5.0271   -1.9479 C   0  0  0  0  0  0  0  0  0  0  0  0
  -10.4238    3.6445   -2.5014 N   0  0  0  0  0  0  0  0  0  0  0  0
   -9.3735    3.1102   -3.0704 C   0  0  0  0  0  0  0  0  0  0  0  0
   -9.4913    2.0132   -3.7734 N   0  0  0  0  0  0  0  0  0  0  0  0
   -8.2046    3.6782   -2.9408 N   0  0  0  0  0  0  0  0  0  0  0  0
  2  1  1  6  0  0  0
  2  3  1  0  0  0  0
  2  5  1  0  0  0  0
  3  4  1  0  0  0  0
  5  6  1  0  0  0  0
  6  7  1  0  0  0  0
  7  8  1  0  0  0  0
  8  9  1  0  0  0  0
  9 10  1  0  0  0  0
  9 11  1  0  0  0  0
M  END
>  <CHROM.1>
-53.18902655,-55.57124112,-55.83457677,-174.10836783,-174.68890467,-113.63503006
-167.12441464,-152.18954192,-74.54364341,-10.34702947,5.14363795,-0.58318465
1.99191639,0.83221874,0.56582245

>  <Name>
1akx_lig

>  <RI>
0

>  <Rbt.Current_Directory>
/home/afrankz/demos/rdock_decoys_rna/rnas/1akx

>  <Rbt.Executable>
rbdock ($Id: //depot/dev/client3/rdock/2013.1/src/exe/rbdock.cxx#4 $)

>  <Rbt.Library>
libRbt.so (2013.1, Build901 2013/11/27)

>  <Rbt.Parameter_File>
/export/apps/rDock/src/rDock_2013.1_src/data/scripts/dock_solv.prm

>  <Rbt.Receptor>
prm/blind_docking_40.prm

>  <SCORE>
-31.7003

>  <SCORE.INTER>
-24.7209

>  <SCORE.INTER.CONST>
1

>  <SCORE.INTER.POLAR>
-3.56305

>  <SCORE.INTER.ROT>
8

>  <SCORE.INTER.SOLV>
11.9798

>  <SCORE.INTER.VDW>
-17.5303

>  <SCORE.INTER.norm>
-2.24735

>  <SCORE.INTRA>
-6.9794

>  <SCORE.INTRA.DIHEDRAL>
-16.3411

>  <SCORE.INTRA.DIHEDRAL.0>
21.6454

>  <SCORE.INTRA.POLAR>
0

>  <SCORE.INTRA.POLAR.0>
0

>  <SCORE.INTRA.REPUL>
0

>  <SCORE.INTRA.REPUL.0>
0

>  <SCORE.INTRA.SOLV>
0.41688

>  <SCORE.INTRA.SOLV.lig_0>
-16.5947

>  <SCORE.INTRA.VDW>
0.982722

>  <SCORE.INTRA.VDW.0>
-0.691398

>  <SCORE.INTRA.norm>
-0.634491

>  <SCORE.RESTR>
0

>  <SCORE.RESTR.CAVITY>
0

>  <SCORE.RESTR.norm>
0

>  <SCORE.SYSTEM>
0

>  <SCORE.SYSTEM.CONST>
0

>  <SCORE.SYSTEM.DIHEDRAL>
0

>  <SCORE.SYSTEM.SOLV>
0

>  <SCORE.SYSTEM.norm>
0

>  <SCORE.heavy>
11

>  <SCORE.norm>
-2.88184

>  <RMSD>
13.042

>  <RMSD>
13.042

$$$$
1akx_lig
 OpenBabel11021811383D
libRbt.so/2013.1/901 2013/11/27
 11 10  0  0  0  0  0  0  0  0999 V2000
   -8.3531    3.6257   -2.8506 N   0  0  0  0  0  0  0  0  0  0  0  0
   -9.7990    3.5060   -2.5000 C   0  0  2  0  0  0  0  0  0  0  0  0
  -10.5012    2.6055   -3.5241 C   0  0  0  0  0  0  0  0  0  0  0  0
  -10.1166    1.4684   -3.7117 O   0  0  0  0  0  0  0  0  0  0  0  0
  -10.4472    4.8971   -2.5046 C   0  0  0  0  0  0  0  0  0  0  0  0
  -11.8310    4.8248   -1.8511 C   0  0  0  0  0  0  0  0  0  0  0  0
  -11.6851    4.9288   -0.3329 C   0  0  0  0  0  0  0  0  0  0  0  0
  -11.3023    6.3222    0.0332 N   0  0  0  0  0  0  0  0  0  0  0  0
  -10.7555    6.5721    1.1956 C   0  0  0  0  0  0  0  0  0  0  0  0
  -10.8473    5.7017    2.1679 N   0  0  0  0  0  0  0  0  0  0  0  0
  -10.1105    7.6923    1.3830 N   0  0  0  0  0  0  0  0  0  0  0  0
  2  1  1  6  0  0  0
  2  3  1  0  0  0  0
  2  5  1  0  0  0  0
  3  4  1  0  0  0  0
  5  6  1  0  0  0  0
  6  7  1  0  0  0  0
  7  8  1  0  0  0  0
  8  9  1  0  0  0  0
  9 10  1  0  0  0  0
  9 11  1  0  0  0  0
M  END
>  <CHROM.1>
101.21559478,57.43201169,-167.48854399,83.89313253,71.49212322,-160.43236464
-17.57506134,75.03943965,-82.00352223,-10.47629434,4.74033050,-1.12622055
-1.41989552,0.16788330,0.83678784

>  <Name>
1akx_lig

>  <RI>
0

>  <Rbt.Current_Directory>
/home/itssahil/PROJECTS/Mol_Feturizer/New_Systems/rnas/1akx

>  <Rbt.Executable>
rbdock ($Id: //depot/dev/client3/rdock/2013.1/src/exe/rbdock.cxx#4 $)

>  <Rbt.Library>
libRbt.so (2013.1, Build901 2013/11/27)

>  <Rbt.Parameter_File>
/export/apps/rDock/src/rDock_2013.1_src/data/scripts/dock_solv.prm

>  <Rbt.Receptor>
prm/blind_docking_100.prm

>  <SCORE>
-41.5923

>  <SCORE.INTER>
-38.4043

>  <SCORE.INTER.CONST>
1

>  <SCORE.INTER.POLAR>
-6.10425

>  <SCORE.INTER.ROT>
8

>  <SCORE.INTER.SOLV>
12.9591

>  <SCORE.INTER.VDW>
-18.5084

>  <SCORE.INTER.norm>
-3.4913

>  <SCORE.INTRA>
-3.20906

>  <SCORE.INTRA.DIHEDRAL>
-10.8332

>  <SCORE.INTRA.DIHEDRAL.0>
21.6454

>  <SCORE.INTRA.POLAR>
0

>  <SCORE.INTRA.POLAR.0>
0

>  <SCORE.INTRA.REPUL>
0

>  <SCORE.INTRA.REPUL.0>
0

>  <SCORE.INTRA.SOLV>
0.378599

>  <SCORE.INTRA.SOLV.lig_0>
-16.5947

>  <SCORE.INTRA.VDW>
2.01822

>  <SCORE.INTRA.VDW.0>
-0.691398

>  <SCORE.INTRA.norm>
-0.291733

>  <SCORE.RESTR>
0.0210338

>  <SCORE.RESTR.CAVITY>
0.0210338

>  <SCORE.RESTR.norm>
0.00191217

>  <SCORE.SYSTEM>
0

>  <SCORE.SYSTEM.CONST>
0

>  <SCORE.SYSTEM.DIHEDRAL>
0

>  <SCORE.SYSTEM.SOLV>
0

>  <SCORE.SYSTEM.norm>
0

>  <SCORE.heavy>
11

>  <SCORE.norm>
-3.78112

>  <RMSD>
13.042

$$$$
1akx_lig
 OpenBabel11021811383D
libRbt.so/2013.1/901 2013/11/27
 11 10  0  0  0  0  0  0  0  0999 V2000
   -9.4369    6.3055   -0.3408 N   0  0  0  0  0  0  0  0  0  0  0  0
  -10.8055    6.2638    0.2537 C   0  0  2  0  0  0  0  0  0  0  0  0
  -10.7912    6.9595    1.6207 C   0  0  0  0  0  0  0  0  0  0  0  0
  -10.2438    8.0352    1.7595 O   0  0  0  0  0  0  0  0  0  0  0  0
  -11.2502    4.8045    0.4210 C   0  0  0  0  0  0  0  0  0  0  0  0
  -12.3751    4.4900   -0.5705 C   0  0  0  0  0  0  0  0  0  0  0  0
  -11.8262    4.5341   -1.9966 C   0  0  0  0  0  0  0  0  0  0  0  0
  -10.8753    3.4036   -2.1961 N   0  0  0  0  0  0  0  0  0  0  0  0
   -9.8190    3.5562   -2.9534 C   0  0  0  0  0  0  0  0  0  0  0  0
   -9.2255    2.5134   -3.4746 N   0  0  0  0  0  0  0  0  0  0  0  0
   -9.3598    4.7549   -3.1944 N   0  0  0  0  0  0  0  0  0  0  0  0
  2  1  1  1  0  0  0
  2  3  1  0  0  0  0
  2  5  1  0  0  0  0
  3  4  1  0  0  0  0
  5  6  1  0  0  0  0
  6  7  1  0  0  0  0
  7  8  1  0  0  0  0
  8  9  1  0  0  0  0
  9 10  1  0  0  0  0
  9 11  1  0  0  0  0
M  END
>  <CHROM.1>
57.90259665,46.24267692,-110.31655704,67.05260224,67.72146251,-144.79439438
-158.32596923,-132.44338194,134.54461135,-10.48615638,5.06809562,-0.98972363
-1.69783767,-0.46232302,-2.34044189

>  <Name>
1akx_lig

>  <RI>
0

>  <Rbt.Current_Directory>
/home/itssahil/PROJECTS/Mol_Feturizer/New_Systems/rnas/1akx

>  <Rbt.Executable>
rbdock ($Id: //depot/dev/client3/rdock/2013.1/src/exe/rbdock.cxx#4 $)

>  <Rbt.Library>
libRbt.so (2013.1, Build901 2013/11/27)

>  <Rbt.Parameter_File>
/export/apps/rDock/src/rDock_2013.1_src/data/scripts/dock_solv.prm

>  <Rbt.Receptor>
prm/blind_docking_20.prm

>  <SCORE>
-36.8974

>  <SCORE.INTER>
-31.3655

>  <SCORE.INTER.CONST>
1

>  <SCORE.INTER.POLAR>
-5.12448

>  <SCORE.INTER.ROT>
8

>  <SCORE.INTER.SOLV>
12.0905

>  <SCORE.INTER.VDW>
-16.7922

>  <SCORE.INTER.norm>
-2.85141

>  <SCORE.INTRA>
-6.092

>  <SCORE.INTRA.DIHEDRAL>
-10.2348

>  <SCORE.INTRA.DIHEDRAL.0>
21.6454

>  <SCORE.INTRA.POLAR>
-0.636382

>  <SCORE.INTRA.POLAR.0>
0

>  <SCORE.INTRA.REPUL>
0

>  <SCORE.INTRA.REPUL.0>
0

>  <SCORE.INTRA.SOLV>
1.6614

>  <SCORE.INTRA.SOLV.lig_0>
-16.5947

>  <SCORE.INTRA.VDW>
0.358393

>  <SCORE.INTRA.VDW.0>
-0.691398

>  <SCORE.INTRA.norm>
-0.553819

>  <SCORE.RESTR>
0.560124

>  <SCORE.RESTR.CAVITY>
0.560124

>  <SCORE.RESTR.norm>
0.0509204

>  <SCORE.SYSTEM>
0

>  <SCORE.SYSTEM.CONST>
0

>  <SCORE.SYSTEM.DIHEDRAL>
0

>  <SCORE.SYSTEM.SOLV>
0

>  <SCORE.SYSTEM.norm>
0

>  <SCORE.heavy>
11

>  <SCORE.norm>
-3.35431

>  <RMSD>
13.045

$$$$
1akx_lig
 OpenBabel11021811383D
libRbt.so/2013.1/901 2013/11/27
 11 10  0  0  0  0  0  0  0  0999 V2000
   -9.8538    6.3787    1.4280 N   0  0  0  0  0  0  0  0  0  0  0  0
  -10.8890    6.3722    0.3526 C   0  0  2  0  0  0  0  0  0  0  0  0
  -12.2687    6.1159    0.9717 C   0  0  0  0  0  0  0  0  0  0  0  0
  -12.7759    6.9374    1.7094 O   0  0  0  0  0  0  0  0  0  0  0  0
  -10.5667    5.2703   -0.6660 C   0  0  0  0  0  0  0  0  0  0  0  0
  -11.5237    5.3723   -1.8580 C   0  0  0  0  0  0  0  0  0  0  0  0
  -11.5250    4.0509   -2.6267 C   0  0  0  0  0  0  0  0  0  0  0  0
  -10.3750    4.0289   -3.5750 N   0  0  0  0  0  0  0  0  0  0  0  0
   -9.3628    3.2264   -3.3656 C   0  0  0  0  0  0  0  0  0  0  0  0
   -9.5102    1.9327   -3.4921 N   0  0  0  0  0  0  0  0  0  0  0  0
   -8.1995    3.7201   -3.0352 N   0  0  0  0  0  0  0  0  0  0  0  0
  2  1  1  1  0  0  0
  2  3  1  0  0  0  0
  2  5  1  0  0  0  0
  3  4  1  0  0  0  0
  5  6  1  0  0  0  0
  6  7  1  0  0  0  0
  7  8  1  0  0  0  0
  8  9  1  0  0  0  0
  9 10  1  0  0  0  0
  9 11  1  0  0  0  0
M  END
>  <CHROM.1>
-168.43124674,66.77413405,-173.03641137,-161.49366143,-83.61756214,110.22758354
69.21796499,-40.74707267,-30.84765102,-10.58656773,4.85426233,-1.25930808
-1.93702366,0.14326945,-2.15455012

>  <Name>
1akx_lig

>  <RI>
0

>  <Rbt.Current_Directory>
/home/itssahil/PROJECTS/Mol_Feturizer/New_Systems/rnas/1akx

>  <Rbt.Executable>
rbdock ($Id: //depot/dev/client3/rdock/2013.1/src/exe/rbdock.cxx#4 $)

>  <Rbt.Library>
libRbt.so (2013.1, Build901 2013/11/27)

>  <Rbt.Parameter_File>
/export/apps/rDock/src/rDock_2013.1_src/data/scripts/dock_solv.prm

>  <Rbt.Receptor>
prm/blind_docking_100.prm

>  <SCORE>
-47.0574

>  <SCORE.INTER>
-41.0106

>  <SCORE.INTER.CONST>
1

>  <SCORE.INTER.POLAR>
-6.58368

>  <SCORE.INTER.ROT>
8

>  <SCORE.INTER.SOLV>
13.3094

>  <SCORE.INTER.VDW>
-18.7646

>  <SCORE.INTER.norm>
-3.72824

>  <SCORE.INTRA>
-6.12435

>  <SCORE.INTRA.DIHEDRAL>
-12.9923

>  <SCORE.INTRA.DIHEDRAL.0>
21.6454

>  <SCORE.INTRA.POLAR>
0

>  <SCORE.INTRA.POLAR.0>
0

>  <SCORE.INTRA.REPUL>
0

>  <SCORE.INTRA.REPUL.0>
0

>  <SCORE.INTRA.SOLV>
0.48424

>  <SCORE.INTRA.SOLV.lig_0>
-16.5947

>  <SCORE.INTRA.VDW>
0.129672

>  <SCORE.INTRA.VDW.0>
-0.691398

>  <SCORE.INTRA.norm>
-0.556759

>  <SCORE.RESTR>
0.0775274

>  <SCORE.RESTR.CAVITY>
0.0775274

>  <SCORE.RESTR.norm>
0.00704794

>  <SCORE.SYSTEM>
0

>  <SCORE.SYSTEM.CONST>
0

>  <SCORE.SYSTEM.DIHEDRAL>
0

>  <SCORE.SYSTEM.SOLV>
0

>  <SCORE.SYSTEM.norm>
0

>  <SCORE.heavy>
11

>  <SCORE.norm>
-4.27795

>  <RMSD>
13.047

$$$$
1akx_lig
 OpenBabel11021811383D
libRbt.so/2013.1/901 2013/11/27
 11 10  0  0  0  0  0  0  0  0999 V2000
   -9.6616    6.7783    1.2537 N   0  0  0  0  0  0  0  0  0  0  0  0
  -10.9111    6.5019    0.4852 C   0  0  2  0  0  0  0  0  0  0  0  0
  -11.9789    5.9368    1.4302 C   0  0  0  0  0  0  0  0  0  0  0  0
  -13.0922    5.6777    1.0184 O   0  0  0  0  0  0  0  0  0  0  0  0
  -10.6173    5.4875   -0.6284 C   0  0  0  0  0  0  0  0  0  0  0  0
  -11.8247    5.3846   -1.5658 C   0  0  0  0  0  0  0  0  0  0  0  0
  -11.6284    4.2105   -2.5248 C   0  0  0  0  0  0  0  0  0  0  0  0
  -10.3772    4.4157   -3.3088 N   0  0  0  0  0  0  0  0  0  0  0  0
   -9.4466    3.4957   -3.3183 C   0  0  0  0  0  0  0  0  0  0  0  0
   -8.1949    3.8223   -3.1235 N   0  0  0  0  0  0  0  0  0  0  0  0
   -9.7703    2.2460   -3.5169 N   0  0  0  0  0  0  0  0  0  0  0  0
  2  1  1  1  0  0  0
  2  3  1  0  0  0  0
  2  5  1  0  0  0  0
  3  4  1  0  0  0  0
  5  6  1  0  0  0  0
  6  7  1  0  0  0  0
  7  8  1  0  0  0  0
  8  9  1  0  0  0  0
  9 10  1  0  0  0  0
  9 11  1  0  0  0  0
M  END
>  <CHROM.1>
-46.69240830,177.80960107,-170.22668099,-170.35633213,-58.84884014,125.11011553
-132.62471919,135.49461999,-128.20624255,-10.64450276,4.90101926,-1.24155239
-1.93905597,-0.11089918,-2.19010440

>  <Name>
1akx_lig

>  <RI>
0

>  <Rbt.Current_Directory>
/home/itssahil/PROJECTS/Mol_Feturizer/New_Systems/rnas/1akx

>  <Rbt.Executable>
rbdock ($Id: //depot/dev/client3/rdock/2013.1/src/exe/rbdock.cxx#4 $)

>  <Rbt.Library>
libRbt.so (2013.1, Build901 2013/11/27)

>  <Rbt.Parameter_File>
/export/apps/rDock/src/rDock_2013.1_src/data/scripts/dock_solv.prm

>  <Rbt.Receptor>
prm/blind_docking_100.prm

>  <SCORE>
-40.1369

>  <SCORE.INTER>
-33.6993

>  <SCORE.INTER.CONST>
1

>  <SCORE.INTER.POLAR>
-5.32091

>  <SCORE.INTER.ROT>
8

>  <SCORE.INTER.SOLV>
12.9285

>  <SCORE.INTER.VDW>
-17.9727

>  <SCORE.INTER.norm>
-3.06357

>  <SCORE.INTRA>
-6.50319

>  <SCORE.INTRA.DIHEDRAL>
-15.6479

>  <SCORE.INTRA.DIHEDRAL.0>
21.6454

>  <SCORE.INTRA.POLAR>
0

>  <SCORE.INTRA.POLAR.0>
0

>  <SCORE.INTRA.REPUL>
0

>  <SCORE.INTRA.REPUL.0>
0

>  <SCORE.INTRA.SOLV>
0.557304

>  <SCORE.INTRA.SOLV.lig_0>
-16.5947

>  <SCORE.INTRA.VDW>
1.04212

>  <SCORE.INTRA.VDW.0>
-0.691398

>  <SCORE.INTRA.norm>
-0.591199

>  <SCORE.RESTR>
0.0656195

>  <SCORE.RESTR.CAVITY>
0.0656195

>  <SCORE.RESTR.norm>
0.00596541

>  <SCORE.SYSTEM>
0

>  <SCORE.SYSTEM.CONST>
0

>  <SCORE.SYSTEM.DIHEDRAL>
0

>  <SCORE.SYSTEM.SOLV>
0

>  <SCORE.SYSTEM.norm>
0

>  <SCORE.heavy>
11

>  <SCORE.norm>
-3.64881

>  <RMSD>
13.051

$$$$
1akx_lig
 OpenBabel11021811383D
libRbt.so/2013.1/901 2013/11/27
 11 10  0  0  0  0  0  0  0  0999 V2000
  -10.1497    7.5892    0.9976 N   0  0  0  0  0  0  0  0  0  0  0  0
  -11.2814    6.6786    0.6538 C   0  0  2  0  0  0  0  0  0  0  0  0
  -11.5271    5.7066    1.8146 C   0  0  0  0  0  0  0  0  0  0  0  0
  -10.6059    5.3377    2.5156 O   0  0  0  0  0  0  0  0  0  0  0  0
  -10.9399    5.8897   -0.6176 C   0  0  0  0  0  0  0  0  0  0  0  0
  -12.1999    5.2024   -1.1536 C   0  0  0  0  0  0  0  0  0  0  0  0
  -11.8590    4.4348   -2.4309 C   0  0  0  0  0  0  0  0  0  0  0  0
  -10.6812    3.5559   -2.1808 N   0  0  0  0  0  0  0  0  0  0  0  0
   -9.5057    3.8769   -2.6579 C   0  0  0  0  0  0  0  0  0  0  0  0
   -8.4442    3.1973   -2.3075 N   0  0  0  0  0  0  0  0  0  0  0  0
   -9.3935    4.8757   -3.4920 N   0  0  0  0  0  0  0  0  0  0  0  0
  2  1  1  1  0  0  0
  2  3  1  0  0  0  0
  2  5  1  0  0  0  0
  3  4  1  0  0  0  0
  5  6  1  0  0  0  0
  6  7  1  0  0  0  0
  7  8  1  0  0  0  0
  8  9  1  0  0  0  0
  9 10  1  0  0  0  0
  9 11  1  0  0  0  0
M  END
>  <CHROM.1>
176.92876089,-31.57752637,-167.14298161,179.17887551,51.37783837,-105.26560009
171.76795295,50.60958628,130.64829545,-10.54250985,5.13272187,-0.78659752
-1.81913013,0.25969211,-2.01760728

>  <Name>
1akx_lig

>  <RI>
0

>  <Rbt.Current_Directory>
/home/itssahil/PROJECTS/Mol_Feturizer/New_Systems/rnas/1akx

>  <Rbt.Executable>
rbdock ($Id: //depot/dev/client3/rdock/2013.1/src/exe/rbdock.cxx#4 $)

>  <Rbt.Library>
libRbt.so (2013.1, Build901 2013/11/27)

>  <Rbt.Parameter_File>
/export/apps/rDock/src/rDock_2013.1_src/data/scripts/dock_solv.prm

>  <Rbt.Receptor>
prm/blind_docking_20.prm

>  <SCORE>
-40.1463

>  <SCORE.INTER>
-37.0442

>  <SCORE.INTER.CONST>
1

>  <SCORE.INTER.POLAR>
-6.41314

>  <SCORE.INTER.ROT>
8

>  <SCORE.INTER.SOLV>
12.9292

>  <SCORE.INTER.VDW>
-16.5621

>  <SCORE.INTER.norm>
-3.36765

>  <SCORE.INTRA>
-4.89423

>  <SCORE.INTRA.DIHEDRAL>
-13.4795

>  <SCORE.INTRA.DIHEDRAL.0>
21.6454

>  <SCORE.INTRA.POLAR>
0

>  <SCORE.INTRA.POLAR.0>
0

>  <SCORE.INTRA.REPUL>
0

>  <SCORE.INTRA.REPUL.0>
0

>  <SCORE.INTRA.SOLV>
0.957173

>  <SCORE.INTRA.SOLV.lig_0>
-16.5947

>  <SCORE.INTRA.VDW>
1.36693

>  <SCORE.INTRA.VDW.0>
-0.691398

>  <SCORE.INTRA.norm>
-0.44493

>  <SCORE.RESTR>
1.79213

>  <SCORE.RESTR.CAVITY>
1.79213

>  <SCORE.RESTR.norm>
0.162921

>  <SCORE.SYSTEM>
0

>  <SCORE.SYSTEM.CONST>
0

>  <SCORE.SYSTEM.DIHEDRAL>
0

>  <SCORE.SYSTEM.SOLV>
0

>  <SCORE.SYSTEM.norm>
0

>  <SCORE.heavy>
11

>  <SCORE.norm>
-3.64966

>  <RMSD>
13.058

$$$$
1akx_lig
 OpenBabel11021811383D
libRbt.so/2013.1/901 2013/11/27
 11 10  0  0  0  0  0  0  0  0999 V2000
   -9.5185    6.2948   -0.0619 N   0  0  0  0  0  0  0  0  0  0  0  0
  -10.9128    6.3840    0.4637 C   0  0  2  0  0  0  0  0  0  0  0  0
  -10.8930    7.0102    1.8637 C   0  0  0  0  0  0  0  0  0  0  0  0
  -10.2389    8.0103    2.0828 O   0  0  0  0  0  0  0  0  0  0  0  0
  -11.5275    4.9795    0.5342 C   0  0  0  0  0  0  0  0  0  0  0  0
  -12.4401    4.7533   -0.6755 C   0  0  0  0  0  0  0  0  0  0  0  0
  -11.7902    3.7463   -1.6245 C   0  0  0  0  0  0  0  0  0  0  0  0
  -10.6084    4.3755   -2.2801 N   0  0  0  0  0  0  0  0  0  0  0  0
   -9.7153    3.6327   -2.8825 C   0  0  0  0  0  0  0  0  0  0  0  0
   -9.9585    3.1432   -4.0710 N   0  0  0  0  0  0  0  0  0  0  0  0
   -8.5744    3.3848   -2.2970 N   0  0  0  0  0  0  0  0  0  0  0  0
  2  1  1  1  0  0  0
  2  3  1  0  0  0  0
  2  5  1  0  0  0  0
  3  4  1  0  0  0  0
  5  6  1  0  0  0  0
  6  7  1  0  0  0  0
  7  8  1  0  0  0  0
  8  9  1  0  0  0  0
  9 10  1  0  0  0  0
  9 11  1  0  0  0  0
M  END
>  <CHROM.1>
162.00793493,46.44463214,-100.15007396,109.16306652,-70.40232812,163.84153710
77.64480608,-127.08912348,-52.89345161,-10.49887033,5.07793108,-0.83164248
-1.69680400,-0.23159802,-2.27779474

>  <Name>
1akx_lig

>  <RI>
0

>  <Rbt.Current_Directory>
/home/itssahil/PROJECTS/Mol_Feturizer/New_Systems/rnas/1akx

>  <Rbt.Executable>
rbdock ($Id: //depot/dev/client3/rdock/2013.1/src/exe/rbdock.cxx#4 $)

>  <Rbt.Library>
libRbt.so (2013.1, Build901 2013/11/27)

>  <Rbt.Parameter_File>
/export/apps/rDock/src/rDock_2013.1_src/data/scripts/dock_solv.prm

>  <Rbt.Receptor>
prm/blind_docking_20.prm

>  <SCORE>
-34.4085

>  <SCORE.INTER>
-30.6685

>  <SCORE.INTER.CONST>
1

>  <SCORE.INTER.POLAR>
-4.9271

>  <SCORE.INTER.ROT>
8

>  <SCORE.INTER.SOLV>
12.2799

>  <SCORE.INTER.VDW>
-17.0486

>  <SCORE.INTER.norm>
-2.78804

>  <SCORE.INTRA>
-4.73631

>  <SCORE.INTRA.DIHEDRAL>
-4.99268

>  <SCORE.INTRA.DIHEDRAL.0>
21.6454

>  <SCORE.INTRA.POLAR>
-0.947621

>  <SCORE.INTRA.POLAR.0>
0

>  <SCORE.INTRA.REPUL>
0

>  <SCORE.INTRA.REPUL.0>
0

>  <SCORE.INTRA.SOLV>
1.58128

>  <SCORE.INTRA.SOLV.lig_0>
-16.5947

>  <SCORE.INTRA.VDW>
0.191299

>  <SCORE.INTRA.VDW.0>
-0.691398

>  <SCORE.INTRA.norm>
-0.430574

>  <SCORE.RESTR>
0.996299

>  <SCORE.RESTR.CAVITY>
0.996299

>  <SCORE.RESTR.norm>
0.0905726

>  <SCORE.SYSTEM>
0

>  <SCORE.SYSTEM.CONST>
0

>  <SCORE.SYSTEM.DIHEDRAL>
0

>  <SCORE.SYSTEM.SOLV>
0

>  <SCORE.SYSTEM.norm>
0

>  <SCORE.heavy>
11

>  <SCORE.norm>
-3.12804

>  <RMSD>
13.062

$$$$
1akx_lig
 OpenBabel11021811383D
libRbt.so/2013.1/901 2013/11/27
 11 10  0  0  0  0  0  0  0  0999 V2000
   -9.5272    6.3249   -0.0620 N   0  0  0  0  0  0  0  0  0  0  0  0
  -10.9343    6.3267    0.4361 C   0  0  2  0  0  0  0  0  0  0  0  0
  -11.0093    7.1049    1.7557 C   0  0  0  0  0  0  0  0  0  0  0  0
  -10.3682    8.1258    1.9070 O   0  0  0  0  0  0  0  0  0  0  0  0
  -11.4034    4.8827    0.6600 C   0  0  0  0  0  0  0  0  0  0  0  0
  -12.4241    4.4980   -0.4158 C   0  0  0  0  0  0  0  0  0  0  0  0
  -11.7660    3.5682   -1.4352 C   0  0  0  0  0  0  0  0  0  0  0  0
  -10.6770    4.3005   -2.1422 N   0  0  0  0  0  0  0  0  0  0  0  0
   -9.7870    3.6440   -2.8417 C   0  0  0  0  0  0  0  0  0  0  0  0
  -10.0467    3.2915   -4.0745 N   0  0  0  0  0  0  0  0  0  0  0  0
   -8.6326    3.3453   -2.3085 N   0  0  0  0  0  0  0  0  0  0  0  0
  2  1  1  1  0  0  0
  2  3  1  0  0  0  0
  2  5  1  0  0  0  0
  3  4  1  0  0  0  0
  5  6  1  0  0  0  0
  6  7  1  0  0  0  0
  7  8  1  0  0  0  0
  8  9  1  0  0  0  0
  9 10  1  0  0  0  0
  9 11  1  0  0  0  0
M  END
>  <CHROM.1>
165.38112900,39.76561422,-108.42376119,105.06800395,-64.12248279,165.03395923
83.50397367,57.02157216,120.76398830,-10.53695320,5.05573722,-0.79645586
-1.70842634,-0.36860315,-2.31892310

>  <Name>
1akx_lig

>  <RI>
0

>  <Rbt.Current_Directory>
/home/itssahil/PROJECTS/Mol_Feturizer/New_Systems/rnas/1akx

>  <Rbt.Executable>
rbdock ($Id: //depot/dev/client3/rdock/2013.1/src/exe/rbdock.cxx#4 $)

>  <Rbt.Library>
libRbt.so (2013.1, Build901 2013/11/27)

>  <Rbt.Parameter_File>
/export/apps/rDock/src/rDock_2013.1_src/data/scripts/dock_solv.prm

>  <Rbt.Receptor>
prm/blind_docking_20.prm

>  <SCORE>
-34.772

>  <SCORE.INTER>
-32.0783

>  <SCORE.INTER.CONST>
1

>  <SCORE.INTER.POLAR>
-5.29201

>  <SCORE.INTER.ROT>
8

>  <SCORE.INTER.SOLV>
12.0333

>  <SCORE.INTER.VDW>
-16.6899

>  <SCORE.INTER.norm>
-2.91621

>  <SCORE.INTRA>
-3.66493

>  <SCORE.INTRA.DIHEDRAL>
-4.33805

>  <SCORE.INTRA.DIHEDRAL.0>
21.6454

>  <SCORE.INTRA.POLAR>
-0.691182

>  <SCORE.INTRA.POLAR.0>
0

>  <SCORE.INTRA.REPUL>
0

>  <SCORE.INTRA.REPUL.0>
0

>  <SCORE.INTRA.SOLV>
1.61219

>  <SCORE.INTRA.SOLV.lig_0>
-16.5947

>  <SCORE.INTRA.VDW>
0.0480161

>  <SCORE.INTRA.VDW.0>
-0.691398

>  <SCORE.INTRA.norm>
-0.333175

>  <SCORE.RESTR>
0.971206

>  <SCORE.RESTR.CAVITY>
0.971206

>  <SCORE.RESTR.norm>
0.0882915

>  <SCORE.SYSTEM>
0

>  <SCORE.SYSTEM.CONST>
0

>  <SCORE.SYSTEM.DIHEDRAL>
0

>  <SCORE.SYSTEM.SOLV>
0

>  <SCORE.SYSTEM.norm>
0

>  <SCORE.heavy>
11

>  <SCORE.norm>
-3.16109

>  <RMSD>
13.068

$$$$
1akx_lig
 OpenBabel11021811383D
libRbt.so/2013.1/901 2013/11/27
 11 10  0  0  0  0  0  0  0  0999 V2000
   -9.4068    6.3371    0.1366 N   0  0  0  0  0  0  0  0  0  0  0  0
  -10.8730    6.6150    0.1687 C   0  0  2  0  0  0  0  0  0  0  0  0
  -11.2219    7.3758    1.4540 C   0  0  0  0  0  0  0  0  0  0  0  0
  -10.4912    8.2535    1.8688 O   0  0  0  0  0  0  0  0  0  0  0  0
  -11.6492    5.2917    0.1245 C   0  0  0  0  0  0  0  0  0  0  0  0
  -11.0417    4.3714   -0.9392 C   0  0  0  0  0  0  0  0  0  0  0  0
  -11.0454    5.0826   -2.2924 C   0  0  0  0  0  0  0  0  0  0  0  0
   -9.7549    4.8224   -2.9918 N   0  0  0  0  0  0  0  0  0  0  0  0
   -9.3553    3.5944   -3.2032 C   0  0  0  0  0  0  0  0  0  0  0  0
   -8.0965    3.2746   -3.0466 N   0  0  0  0  0  0  0  0  0  0  0  0
  -10.2183    2.6835   -3.5659 N   0  0  0  0  0  0  0  0  0  0  0  0
  2  1  1  1  0  0  0
  2  3  1  0  0  0  0
  2  5  1  0  0  0  0
  3  4  1  0  0  0  0
  5  6  1  0  0  0  0
  6  7  1  0  0  0  0
  7  8  1  0  0  0  0
  8  9  1  0  0  0  0
  9 10  1  0  0  0  0
  9 11  1  0  0  0  0
M  END
>  <CHROM.1>
-55.03601022,40.41379163,-44.78185897,-56.69725093,138.20605309,55.49098067
-139.29624912,37.75573640,-88.38091672,-10.23240601,5.24343514,-1.12074321
-1.78940523,-0.19250320,-2.33364130

>  <Name>
1akx_lig

>  <RI>
0

>  <Rbt.Current_Directory>
/home/itssahil/PROJECTS/Mol_Feturizer/New_Systems/rnas/1akx

>  <Rbt.Executable>
rbdock ($Id: //depot/dev/client3/rdock/2013.1/src/exe/rbdock.cxx#4 $)

>  <Rbt.Library>
libRbt.so (2013.1, Build901 2013/11/27)

>  <Rbt.Parameter_File>
/export/apps/rDock/src/rDock_2013.1_src/data/scripts/dock_solv.prm

>  <Rbt.Receptor>
prm/blind_docking_20.prm

>  <SCORE>
-32.762

>  <SCORE.INTER>
-32.3114

>  <SCORE.INTER.CONST>
1

>  <SCORE.INTER.POLAR>
-5.92804

>  <SCORE.INTER.ROT>
8

>  <SCORE.INTER.SOLV>
13.6123

>  <SCORE.INTER.VDW>
-15.2516

>  <SCORE.INTER.norm>
-2.9374

>  <SCORE.INTRA>
-1.64704

>  <SCORE.INTRA.DIHEDRAL>
-10.2209

>  <SCORE.INTRA.DIHEDRAL.0>
21.6454

>  <SCORE.INTRA.POLAR>
-0.00933948

>  <SCORE.INTRA.POLAR.0>
0

>  <SCORE.INTRA.REPUL>
0

>  <SCORE.INTRA.REPUL.0>
0

>  <SCORE.INTRA.SOLV>
1.30567

>  <SCORE.INTRA.SOLV.lig_0>
-16.5947

>  <SCORE.INTRA.VDW>
2.84234

>  <SCORE.INTRA.VDW.0>
-0.691398

>  <SCORE.INTRA.norm>
-0.149731

>  <SCORE.RESTR>
1.19649

>  <SCORE.RESTR.CAVITY>
1.19649

>  <SCORE.RESTR.norm>
0.108772

>  <SCORE.SYSTEM>
0

>  <SCORE.SYSTEM.CONST>
0

>  <SCORE.SYSTEM.DIHEDRAL>
0

>  <SCORE.SYSTEM.SOLV>
0

>  <SCORE.SYSTEM.norm>
0

>  <SCORE.heavy>
11

>  <SCORE.norm>
-2.97836

>  <RMSD>
13.070

$$$$
1akx_lig
 OpenBabel11021811383D
libRbt.so/2013.1/901 2013/11/27
 11 10  0  0  0  0  0  0  0  0999 V2000
  -10.1302    7.5712    1.3575 N   0  0  0  0  0  0  0  0  0  0  0  0
  -10.9592    6.7397    0.4358 C   0  0  2  0  0  0  0  0  0  0  0  0
  -12.3608    6.5577    1.0317 C   0  0  0  0  0  0  0  0  0  0  0  0
  -12.5086    6.0008    2.1014 O   0  0  0  0  0  0  0  0  0  0  0  0
  -10.2973    5.3685    0.2431 C   0  0  0  0  0  0  0  0  0  0  0  0
   -9.7086    5.2725   -1.1681 C   0  0  0  0  0  0  0  0  0  0  0  0
  -10.8347    5.0485   -2.1773 C   0  0  0  0  0  0  0  0  0  0  0  0
  -10.2573    4.5657   -3.4641 N   0  0  0  0  0  0  0  0  0  0  0  0
   -9.5405    3.4713   -3.4959 C   0  0  0  0  0  0  0  0  0  0  0  0
   -8.2402    3.5385   -3.6218 N   0  0  0  0  0  0  0  0  0  0  0  0
  -10.1258    2.3080   -3.3951 N   0  0  0  0  0  0  0  0  0  0  0  0
  2  1  1  1  0  0  0
  2  3  1  0  0  0  0
  2  5  1  0  0  0  0
  3  4  1  0  0  0  0
  5  6  1  0  0  0  0
  6  7  1  0  0  0  0
  7  8  1  0  0  0  0
  8  9  1  0  0  0  0
  9 10  1  0  0  0  0
  9 11  1  0  0  0  0
M  END
>  <CHROM.1>
179.84518184,-61.28677976,-108.20086235,-75.86920444,-163.68933665,57.96444548
-105.35661748,-3.26238324,-31.69628643,-10.43440537,5.13098790,-1.08969407
-1.93622919,-0.45375293,-2.32813765

>  <Name>
1akx_lig

>  <RI>
0

>  <Rbt.Current_Directory>
/home/itssahil/PROJECTS/Mol_Feturizer/New_Systems/rnas/1akx

>  <Rbt.Executable>
rbdock ($Id: //depot/dev/client3/rdock/2013.1/src/exe/rbdock.cxx#4 $)

>  <Rbt.Library>
libRbt.so (2013.1, Build901 2013/11/27)

>  <Rbt.Parameter_File>
/export/apps/rDock/src/rDock_2013.1_src/data/scripts/dock_solv.prm

>  <Rbt.Receptor>
prm/blind_docking_20.prm

>  <SCORE>
-31.78

>  <SCORE.INTER>
-30.071

>  <SCORE.INTER.CONST>
1

>  <SCORE.INTER.POLAR>
-4.55701

>  <SCORE.INTER.ROT>
8

>  <SCORE.INTER.SOLV>
12.9832

>  <SCORE.INTER.VDW>
-18.1184

>  <SCORE.INTER.norm>
-2.73373

>  <SCORE.INTRA>
-4.17913

>  <SCORE.INTRA.DIHEDRAL>
-9.56114

>  <SCORE.INTRA.DIHEDRAL.0>
21.6454

>  <SCORE.INTRA.POLAR>
0

>  <SCORE.INTRA.POLAR.0>
0

>  <SCORE.INTRA.REPUL>
0

>  <SCORE.INTRA.REPUL.0>
0

>  <SCORE.INTRA.SOLV>
0.565222

>  <SCORE.INTRA.SOLV.lig_0>
-16.5947

>  <SCORE.INTRA.VDW>
0.318832

>  <SCORE.INTRA.VDW.0>
-0.691398

>  <SCORE.INTRA.norm>
-0.379921

>  <SCORE.RESTR>
2.4701

>  <SCORE.RESTR.CAVITY>
2.4701

>  <SCORE.RESTR.norm>
0.224555

>  <SCORE.SYSTEM>
0

>  <SCORE.SYSTEM.CONST>
0

>  <SCORE.SYSTEM.DIHEDRAL>
0

>  <SCORE.SYSTEM.SOLV>
0

>  <SCORE.SYSTEM.norm>
0

>  <SCORE.heavy>
11

>  <SCORE.norm>
-2.88909

>  <RMSD>
13.071

$$$$
1akx_lig
 OpenBabel11021811383D
libRbt.so/2013.1/901 2013/11/27
 11 10  0  0  0  0  0  0  0  0999 V2000
   -9.4656    6.3795    0.2721 N   0  0  0  0  0  0  0  0  0  0  0  0
  -10.9321    6.4489    0.0025 C   0  0  2  0  0  0  0  0  0  0  0  0
  -11.6383    7.1258    1.1840 C   0  0  0  0  0  0  0  0  0  0  0  0
  -12.8091    7.4405    1.1045 O   0  0  0  0  0  0  0  0  0  0  0  0
  -11.4883    5.0314   -0.1889 C   0  0  0  0  0  0  0  0  0  0  0  0
  -10.6701    4.2945   -1.2542 C   0  0  0  0  0  0  0  0  0  0  0  0
  -11.3555    4.4360   -2.6132 C   0  0  0  0  0  0  0  0  0  0  0  0
  -10.3924    4.0770   -3.6930 N   0  0  0  0  0  0  0  0  0  0  0  0
   -9.3959    3.2659   -3.4450 C   0  0  0  0  0  0  0  0  0  0  0  0
   -9.5455    1.9744   -3.5899 N   0  0  0  0  0  0  0  0  0  0  0  0
   -8.2459    3.7489   -3.0573 N   0  0  0  0  0  0  0  0  0  0  0  0
  2  1  1  1  0  0  0
  2  3  1  0  0  0  0
  2  5  1  0  0  0  0
  3  4  1  0  0  0  0
  5  6  1  0  0  0  0
  6  7  1  0  0  0  0
  7  8  1  0  0  0  0
  8  9  1  0  0  0  0
  9 10  1  0  0  0  0
  9 11  1  0  0  0  0
M  END
>  <CHROM.1>
-178.46995558,170.55998892,-52.91239473,-94.85600262,163.75077542,25.61977203
89.24996409,145.21748211,148.37450624,-10.50046114,4.92974787,-1.38863826
-1.93809314,0.02479642,-2.28915294

>  <Name>
1akx_lig

>  <RI>
0

>  <Rbt.Current_Directory>
/home/itssahil/PROJECTS/Mol_Feturizer/New_Systems/rnas/1akx

>  <Rbt.Executable>
rbdock ($Id: //depot/dev/client3/rdock/2013.1/src/exe/rbdock.cxx#4 $)

>  <Rbt.Library>
libRbt.so (2013.1, Build901 2013/11/27)

>  <Rbt.Parameter_File>
/export/apps/rDock/src/rDock_2013.1_src/data/scripts/dock_solv.prm

>  <Rbt.Receptor>
prm/blind_docking_80.prm

>  <SCORE>
-36.4718

>  <SCORE.INTER>
-34.4279

>  <SCORE.INTER.CONST>
1

>  <SCORE.INTER.POLAR>
-5.77707

>  <SCORE.INTER.ROT>
8

>  <SCORE.INTER.SOLV>
13.7399

>  <SCORE.INTER.VDW>
-17.2083

>  <SCORE.INTER.norm>
-3.12981

>  <SCORE.INTRA>
-2.76569

>  <SCORE.INTRA.DIHEDRAL>
-11.5485

>  <SCORE.INTRA.DIHEDRAL.0>
21.6454

>  <SCORE.INTRA.POLAR>
0

>  <SCORE.INTRA.POLAR.0>
0

>  <SCORE.INTRA.REPUL>
0

>  <SCORE.INTRA.REPUL.0>
0

>  <SCORE.INTRA.SOLV>
0.497719

>  <SCORE.INTRA.SOLV.lig_0>
-16.5947

>  <SCORE.INTRA.VDW>
2.75972

>  <SCORE.INTRA.VDW.0>
-0.691398

>  <SCORE.INTRA.norm>
-0.251426

>  <SCORE.RESTR>
0.721772

>  <SCORE.RESTR.CAVITY>
0.721772

>  <SCORE.RESTR.norm>
0.0656156

>  <SCORE.SYSTEM>
0

>  <SCORE.SYSTEM.CONST>
0

>  <SCORE.SYSTEM.DIHEDRAL>
0

>  <SCORE.SYSTEM.SOLV>
0

>  <SCORE.SYSTEM.norm>
0

>  <SCORE.heavy>
11

>  <SCORE.norm>
-3.31562

>  <RMSD>
13.087

$$$$
1akx_lig
 OpenBabel11021811383D
libRbt.so/2013.1/901 2013/11/27
 11 10  0  0  0  0  0  0  0  0999 V2000
   -9.4769    6.4195   -0.2461 N   0  0  0  0  0  0  0  0  0  0  0  0
  -10.8847    6.7204    0.1486 C   0  0  2  0  0  0  0  0  0  0  0  0
  -10.9040    7.3145    1.5626 C   0  0  0  0  0  0  0  0  0  0  0  0
  -10.5128    6.6631    2.5106 O   0  0  0  0  0  0  0  0  0  0  0  0
  -11.7151    5.4301    0.1186 C   0  0  0  0  0  0  0  0  0  0  0  0
  -12.1822    5.1491   -1.3132 C   0  0  0  0  0  0  0  0  0  0  0  0
  -11.6737    3.7774   -1.7566 C   0  0  0  0  0  0  0  0  0  0  0  0
  -10.1879    3.8143   -1.8731 N   0  0  0  0  0  0  0  0  0  0  0  0
   -9.6196    3.8513   -3.0512 C   0  0  0  0  0  0  0  0  0  0  0  0
  -10.3490    3.9587   -4.1319 N   0  0  0  0  0  0  0  0  0  0  0  0
   -8.3185    3.7870   -3.1474 N   0  0  0  0  0  0  0  0  0  0  0  0
  2  1  1  1  0  0  0
  2  3  1  0  0  0  0
  2  5  1  0  0  0  0
  3  4  1  0  0  0  0
  5  6  1  0  0  0  0
  6  7  1  0  0  0  0
  7  8  1  0  0  0  0
  8  9  1  0  0  0  0
  9 10  1  0  0  0  0
  9 11  1  0  0  0  0
M  END
>  <CHROM.1>
38.45548449,-62.51689558,-82.88769393,121.78470530,-67.07337371,-105.15341504
5.20937472,51.32663076,2.93098892,-10.46945538,5.16984371,-1.02578923,-1.74874679
-0.13588013,-2.15802066

>  <Name>
1akx_lig

>  <RI>
0

>  <Rbt.Current_Directory>
/home/afrankz/demos/rdock_decoys_rna/rnas/1akx

>  <Rbt.Executable>
rbdock ($Id: //depot/dev/client3/rdock/2013.1/src/exe/rbdock.cxx#4 $)

>  <Rbt.Library>
libRbt.so (2013.1, Build901 2013/11/27)

>  <Rbt.Parameter_File>
/export/apps/rDock/src/rDock_2013.1_src/data/scripts/dock_solv.prm

>  <Rbt.Receptor>
prm/blind_docking_20.prm

>  <SCORE>
-29.4

>  <SCORE.INTER>
-23.6591

>  <SCORE.INTER.CONST>
1

>  <SCORE.INTER.POLAR>
-4.08455

>  <SCORE.INTER.ROT>
8

>  <SCORE.INTER.SOLV>
13.2228

>  <SCORE.INTER.VDW>
-15.4985

>  <SCORE.INTER.norm>
-2.15082

>  <SCORE.INTRA>
-5.83179

>  <SCORE.INTRA.DIHEDRAL>
-7.6233

>  <SCORE.INTRA.DIHEDRAL.0>
21.6454

>  <SCORE.INTRA.POLAR>
-0.98561

>  <SCORE.INTRA.POLAR.0>
0

>  <SCORE.INTRA.REPUL>
0

>  <SCORE.INTRA.REPUL.0>
0

>  <SCORE.INTRA.SOLV>
1.64009

>  <SCORE.INTRA.SOLV.lig_0>
-16.5947

>  <SCORE.INTRA.VDW>
0.510884

>  <SCORE.INTRA.VDW.0>
-0.691398

>  <SCORE.INTRA.norm>
-0.530163

>  <SCORE.RESTR>
0.0908756

>  <SCORE.RESTR.CAVITY>
0.0908756

>  <SCORE.RESTR.norm>
0.00826142

>  <SCORE.SYSTEM>
0

>  <SCORE.SYSTEM.CONST>
0

>  <SCORE.SYSTEM.DIHEDRAL>
0

>  <SCORE.SYSTEM.SOLV>
0

>  <SCORE.SYSTEM.norm>
0

>  <SCORE.heavy>
11

>  <SCORE.norm>
-2.67273

>  <RMSD>
13.090

>  <RMSD>
13.090

$$$$
1akx_lig
 OpenBabel11021811383D
libRbt.so/2013.1/901 2013/11/27
 11 10  0  0  0  0  0  0  0  0999 V2000
   -9.4769    6.4195   -0.2461 N   0  0  0  0  0  0  0  0  0  0  0  0
  -10.8847    6.7204    0.1486 C   0  0  2  0  0  0  0  0  0  0  0  0
  -10.9040    7.3145    1.5626 C   0  0  0  0  0  0  0  0  0  0  0  0
  -10.5128    6.6631    2.5106 O   0  0  0  0  0  0  0  0  0  0  0  0
  -11.7151    5.4301    0.1186 C   0  0  0  0  0  0  0  0  0  0  0  0
  -12.1822    5.1491   -1.3132 C   0  0  0  0  0  0  0  0  0  0  0  0
  -11.6737    3.7774   -1.7566 C   0  0  0  0  0  0  0  0  0  0  0  0
  -10.1879    3.8143   -1.8731 N   0  0  0  0  0  0  0  0  0  0  0  0
   -9.6196    3.8513   -3.0512 C   0  0  0  0  0  0  0  0  0  0  0  0
  -10.3490    3.9587   -4.1319 N   0  0  0  0  0  0  0  0  0  0  0  0
   -8.3185    3.7870   -3.1474 N   0  0  0  0  0  0  0  0  0  0  0  0
  2  1  1  1  0  0  0
  2  3  1  0  0  0  0
  2  5  1  0  0  0  0
  3  4  1  0  0  0  0
  5  6  1  0  0  0  0
  6  7  1  0  0  0  0
  7  8  1  0  0  0  0
  8  9  1  0  0  0  0
  9 10  1  0  0  0  0
  9 11  1  0  0  0  0
M  END
>  <CHROM.1>
38.45548449,-62.51689558,-82.88769393,121.78470530,-67.07337371,-105.15341504
5.20937472,51.32663076,2.93098892,-10.46945538,5.16984371,-1.02578923,-1.74874679
-0.13588013,-2.15802066

>  <Name>
1akx_lig

>  <RI>
0

>  <Rbt.Current_Directory>
/home/afrankz/demos/rdock_decoys_rna/rnas/1akx

>  <Rbt.Executable>
rbdock ($Id: //depot/dev/client3/rdock/2013.1/src/exe/rbdock.cxx#4 $)

>  <Rbt.Library>
libRbt.so (2013.1, Build901 2013/11/27)

>  <Rbt.Parameter_File>
/export/apps/rDock/src/rDock_2013.1_src/data/scripts/dock_solv.prm

>  <Rbt.Receptor>
prm/blind_docking_20.prm

>  <SCORE>
-29.4

>  <SCORE.INTER>
-23.6591

>  <SCORE.INTER.CONST>
1

>  <SCORE.INTER.POLAR>
-4.08455

>  <SCORE.INTER.ROT>
8

>  <SCORE.INTER.SOLV>
13.2228

>  <SCORE.INTER.VDW>
-15.4985

>  <SCORE.INTER.norm>
-2.15082

>  <SCORE.INTRA>
-5.83179

>  <SCORE.INTRA.DIHEDRAL>
-7.6233

>  <SCORE.INTRA.DIHEDRAL.0>
21.6454

>  <SCORE.INTRA.POLAR>
-0.98561

>  <SCORE.INTRA.POLAR.0>
0

>  <SCORE.INTRA.REPUL>
0

>  <SCORE.INTRA.REPUL.0>
0

>  <SCORE.INTRA.SOLV>
1.64009

>  <SCORE.INTRA.SOLV.lig_0>
-16.5947

>  <SCORE.INTRA.VDW>
0.510884

>  <SCORE.INTRA.VDW.0>
-0.691398

>  <SCORE.INTRA.norm>
-0.530163

>  <SCORE.RESTR>
0.0908756

>  <SCORE.RESTR.CAVITY>
0.0908756

>  <SCORE.RESTR.norm>
0.00826142

>  <SCORE.SYSTEM>
0

>  <SCORE.SYSTEM.CONST>
0

>  <SCORE.SYSTEM.DIHEDRAL>
0

>  <SCORE.SYSTEM.SOLV>
0

>  <SCORE.SYSTEM.norm>
0

>  <SCORE.heavy>
11

>  <SCORE.norm>
-2.67273

>  <RMSD>
13.090

>  <RMSD>
13.090

$$$$
1akx_lig
 OpenBabel11021811383D
libRbt.so/2013.1/901 2013/11/27
 11 10  0  0  0  0  0  0  0  0999 V2000
  -10.1510    7.5183    0.8968 N   0  0  0  0  0  0  0  0  0  0  0  0
  -11.1950    6.5003    0.5775 C   0  0  2  0  0  0  0  0  0  0  0  0
  -11.4960    5.6658    1.8288 C   0  0  0  0  0  0  0  0  0  0  0  0
  -11.6707    6.2060    2.9030 O   0  0  0  0  0  0  0  0  0  0  0  0
  -10.6940    5.5838   -0.5469 C   0  0  0  0  0  0  0  0  0  0  0  0
  -11.7136    5.5635   -1.6903 C   0  0  0  0  0  0  0  0  0  0  0  0
  -11.4029    4.3996   -2.6313 C   0  0  0  0  0  0  0  0  0  0  0  0
  -10.0899    4.6375   -3.2960 N   0  0  0  0  0  0  0  0  0  0  0  0
   -9.0095    4.0477   -2.8518 C   0  0  0  0  0  0  0  0  0  0  0  0
   -8.6949    4.1164   -1.5839 N   0  0  0  0  0  0  0  0  0  0  0  0
   -8.2460    3.3828   -3.6771 N   0  0  0  0  0  0  0  0  0  0  0  0
  2  1  1  1  0  0  0
  2  3  1  0  0  0  0
  2  5  1  0  0  0  0
  3  4  1  0  0  0  0
  5  6  1  0  0  0  0
  6  7  1  0  0  0  0
  7  8  1  0  0  0  0
  8  9  1  0  0  0  0
  9 10  1  0  0  0  0
  9 11  1  0  0  0  0
M  END
>  <CHROM.1>
-175.66386131,46.29613366,-125.97445601,-165.58959361,-65.65730411,99.52013641
-51.35981649,-122.12372144,67.43012671,-10.35200218,5.25691070,-0.89079314
-1.93698435,0.22904805,-1.95458275

>  <Name>
1akx_lig

>  <RI>
0

>  <Rbt.Current_Directory>
/home/itssahil/PROJECTS/Mol_Feturizer/New_Systems/rnas/1akx

>  <Rbt.Executable>
rbdock ($Id: //depot/dev/client3/rdock/2013.1/src/exe/rbdock.cxx#4 $)

>  <Rbt.Library>
libRbt.so (2013.1, Build901 2013/11/27)

>  <Rbt.Parameter_File>
/export/apps/rDock/src/rDock_2013.1_src/data/scripts/dock_solv.prm

>  <Rbt.Receptor>
prm/blind_docking_100.prm

>  <SCORE>
-29.8565

>  <SCORE.INTER>
-28.3627

>  <SCORE.INTER.CONST>
1

>  <SCORE.INTER.POLAR>
-5.72013

>  <SCORE.INTER.ROT>
8

>  <SCORE.INTER.SOLV>
13.7644

>  <SCORE.INTER.VDW>
-13.3628

>  <SCORE.INTER.norm>
-2.57842

>  <SCORE.INTRA>
-1.71848

>  <SCORE.INTRA.DIHEDRAL>
-9.46144

>  <SCORE.INTRA.DIHEDRAL.0>
21.6454

>  <SCORE.INTRA.POLAR>
0

>  <SCORE.INTRA.POLAR.0>
0

>  <SCORE.INTRA.REPUL>
0

>  <SCORE.INTRA.REPUL.0>
0

>  <SCORE.INTRA.SOLV>
0.87542

>  <SCORE.INTRA.SOLV.lig_0>
-16.5947

>  <SCORE.INTRA.VDW>
2.57453

>  <SCORE.INTRA.VDW.0>
-0.691398

>  <SCORE.INTRA.norm>
-0.156226

>  <SCORE.RESTR>
0.224643

>  <SCORE.RESTR.CAVITY>
0.224643

>  <SCORE.RESTR.norm>
0.0204221

>  <SCORE.SYSTEM>
0

>  <SCORE.SYSTEM.CONST>
0

>  <SCORE.SYSTEM.DIHEDRAL>
0

>  <SCORE.SYSTEM.SOLV>
0

>  <SCORE.SYSTEM.norm>
0

>  <SCORE.heavy>
11

>  <SCORE.norm>
-2.71423

>  <RMSD>
13.095

$$$$
1akx_lig
 OpenBabel11021811383D
libRbt.so/2013.1/901 2013/11/27
 11 10  0  0  0  0  0  0  0  0999 V2000
   -8.8904    3.4853   -3.2486 N   0  0  0  0  0  0  0  0  0  0  0  0
  -10.1314    3.3516   -2.4298 C   0  0  2  0  0  0  0  0  0  0  0  0
  -11.0241    2.2574   -3.0284 C   0  0  0  0  0  0  0  0  0  0  0  0
  -10.6295    1.1105   -3.1007 O   0  0  0  0  0  0  0  0  0  0  0  0
  -10.8875    4.6871   -2.4188 C   0  0  0  0  0  0  0  0  0  0  0  0
  -10.4803    5.5015   -1.1866 C   0  0  0  0  0  0  0  0  0  0  0  0
  -11.0522    4.8464    0.0706 C   0  0  0  0  0  0  0  0  0  0  0  0
  -10.5553    5.5701    1.2755 N   0  0  0  0  0  0  0  0  0  0  0  0
  -10.8389    6.8358    1.4481 C   0  0  0  0  0  0  0  0  0  0  0  0
   -9.9045    7.6774    1.8086 N   0  0  0  0  0  0  0  0  0  0  0  0
  -12.0585    7.2610    1.2535 N   0  0  0  0  0  0  0  0  0  0  0  0
  2  1  1  6  0  0  0
  2  3  1  0  0  0  0
  2  5  1  0  0  0  0
  3  4  1  0  0  0  0
  5  6  1  0  0  0  0
  6  7  1  0  0  0  0
  7  8  1  0  0  0  0
  8  9  1  0  0  0  0
  9 10  1  0  0  0  0
  9 11  1  0  0  0  0
M  END
>  <CHROM.1>
43.88953428,61.50146461,-93.83266275,-70.55378713,175.02584755,61.21973913
-134.09610759,64.37997793,-77.84530850,-10.55913059,4.78249480,-0.87119269
-1.46159351,0.53709364,0.72529246

>  <Name>
1akx_lig

>  <RI>
0

>  <Rbt.Current_Directory>
/home/itssahil/PROJECTS/Mol_Feturizer/New_Systems/rnas/1akx

>  <Rbt.Executable>
rbdock ($Id: //depot/dev/client3/rdock/2013.1/src/exe/rbdock.cxx#4 $)

>  <Rbt.Library>
libRbt.so (2013.1, Build901 2013/11/27)

>  <Rbt.Parameter_File>
/export/apps/rDock/src/rDock_2013.1_src/data/scripts/dock_solv.prm

>  <Rbt.Receptor>
prm/blind_docking_80.prm

>  <SCORE>
-35.1246

>  <SCORE.INTER>
-29.9735

>  <SCORE.INTER.CONST>
1

>  <SCORE.INTER.POLAR>
-5.72129

>  <SCORE.INTER.ROT>
8

>  <SCORE.INTER.SOLV>
11.7629

>  <SCORE.INTER.VDW>
-13.7657

>  <SCORE.INTER.norm>
-2.72486

>  <SCORE.INTRA>
-5.15117

>  <SCORE.INTRA.DIHEDRAL>
-12.152

>  <SCORE.INTRA.DIHEDRAL.0>
21.6454

>  <SCORE.INTRA.POLAR>
0

>  <SCORE.INTRA.POLAR.0>
0

>  <SCORE.INTRA.REPUL>
0

>  <SCORE.INTRA.REPUL.0>
0

>  <SCORE.INTRA.SOLV>
0.485604

>  <SCORE.INTRA.SOLV.lig_0>
-16.5947

>  <SCORE.INTRA.VDW>
0.682028

>  <SCORE.INTRA.VDW.0>
-0.691398

>  <SCORE.INTRA.norm>
-0.468288

>  <SCORE.RESTR>
0

>  <SCORE.RESTR.CAVITY>
0

>  <SCORE.RESTR.norm>
0

>  <SCORE.SYSTEM>
0

>  <SCORE.SYSTEM.CONST>
0

>  <SCORE.SYSTEM.DIHEDRAL>
0

>  <SCORE.SYSTEM.SOLV>
0

>  <SCORE.SYSTEM.norm>
0

>  <SCORE.heavy>
11

>  <SCORE.norm>
-3.19315

>  <RMSD>
13.098

$$$$
1akx_lig
 OpenBabel11021811383D
libRbt.so/2013.1/901 2013/11/27
 11 10  0  0  0  0  0  0  0  0999 V2000
  -10.6820    4.3159   -4.1185 N   0  0  0  0  0  0  0  0  0  0  0  0
   -9.5974    3.4883   -3.5127 C   0  0  2  0  0  0  0  0  0  0  0  0
  -10.1430    2.0943   -3.1787 C   0  0  0  0  0  0  0  0  0  0  0  0
  -11.1159    1.9683   -2.4618 O   0  0  0  0  0  0  0  0  0  0  0  0
   -9.0876    4.1643   -2.2327 C   0  0  0  0  0  0  0  0  0  0  0  0
  -10.2712    4.7245   -1.4373 C   0  0  0  0  0  0  0  0  0  0  0  0
   -9.7833    5.8398   -0.5127 C   0  0  0  0  0  0  0  0  0  0  0  0
  -10.9579    6.5477    0.0715 N   0  0  0  0  0  0  0  0  0  0  0  0
  -11.1801    6.5041    1.3604 C   0  0  0  0  0  0  0  0  0  0  0  0
  -10.7575    5.4882    2.0680 N   0  0  0  0  0  0  0  0  0  0  0  0
  -11.8207    7.4820    1.9429 N   0  0  0  0  0  0  0  0  0  0  0  0
  2  1  1  1  0  0  0
  2  3  1  0  0  0  0
  2  5  1  0  0  0  0
  3  4  1  0  0  0  0
  5  6  1  0  0  0  0
  6  7  1  0  0  0  0
  7  8  1  0  0  0  0
  8  9  1  0  0  0  0
  9 10  1  0  0  0  0
  9 11  1  0  0  0  0
M  END
>  <CHROM.1>
-61.98240918,-55.99262780,41.25581191,-157.39728645,169.75612752,115.43468619
-26.93061823,-133.19321143,42.09854303,-10.53506834,4.79697928,-1.08166696
-0.81580242,1.33985885,0.18552194

>  <Name>
1akx_lig

>  <RI>
0

>  <Rbt.Current_Directory>
/home/itssahil/PROJECTS/Mol_Feturizer/New_Systems/rnas/1akx

>  <Rbt.Executable>
rbdock ($Id: //depot/dev/client3/rdock/2013.1/src/exe/rbdock.cxx#4 $)

>  <Rbt.Library>
libRbt.so (2013.1, Build901 2013/11/27)

>  <Rbt.Parameter_File>
/export/apps/rDock/src/rDock_2013.1_src/data/scripts/dock_solv.prm

>  <Rbt.Receptor>
prm/blind_docking_80.prm

>  <SCORE>
-29.672

>  <SCORE.INTER>
-26.3729

>  <SCORE.INTER.CONST>
1

>  <SCORE.INTER.POLAR>
-3.74286

>  <SCORE.INTER.ROT>
8

>  <SCORE.INTER.SOLV>
11.2618

>  <SCORE.INTER.VDW>
-17.793

>  <SCORE.INTER.norm>
-2.39753

>  <SCORE.INTRA>
-3.77176

>  <SCORE.INTRA.DIHEDRAL>
-13.1754

>  <SCORE.INTRA.DIHEDRAL.0>
21.6454

>  <SCORE.INTRA.POLAR>
0

>  <SCORE.INTRA.POLAR.0>
0

>  <SCORE.INTRA.REPUL>
0

>  <SCORE.INTRA.REPUL.0>
0

>  <SCORE.INTRA.SOLV>
0.642391

>  <SCORE.INTRA.SOLV.lig_0>
-16.5947

>  <SCORE.INTRA.VDW>
2.49472

>  <SCORE.INTRA.VDW.0>
-0.691398

>  <SCORE.INTRA.norm>
-0.342887

>  <SCORE.RESTR>
0.472623

>  <SCORE.RESTR.CAVITY>
0.472623

>  <SCORE.RESTR.norm>
0.0429657

>  <SCORE.SYSTEM>
0

>  <SCORE.SYSTEM.CONST>
0

>  <SCORE.SYSTEM.DIHEDRAL>
0

>  <SCORE.SYSTEM.SOLV>
0

>  <SCORE.SYSTEM.norm>
0

>  <SCORE.heavy>
11

>  <SCORE.norm>
-2.69745

>  <RMSD>
13.111

$$$$
1akx_lig
 OpenBabel11021811383D
libRbt.so/2013.1/901 2013/11/27
 11 10  0  0  0  0  0  0  0  0999 V2000
   -9.5802    6.6099   -0.1054 N   0  0  0  0  0  0  0  0  0  0  0  0
  -11.0174    6.2076   -0.0820 C   0  0  2  0  0  0  0  0  0  0  0  0
  -11.7469    6.9786    1.0253 C   0  0  0  0  0  0  0  0  0  0  0  0
  -11.2253    7.1403    2.1106 O   0  0  0  0  0  0  0  0  0  0  0  0
  -11.1260    4.6994    0.1806 C   0  0  0  0  0  0  0  0  0  0  0  0
  -12.2720    4.1114   -0.6490 C   0  0  0  0  0  0  0  0  0  0  0  0
  -11.9475    4.2468   -2.1367 C   0  0  0  0  0  0  0  0  0  0  0  0
  -10.8448    3.3079   -2.4901 N   0  0  0  0  0  0  0  0  0  0  0  0
   -9.6549    3.7680   -2.7813 C   0  0  0  0  0  0  0  0  0  0  0  0
   -8.5860    3.1635   -2.3303 N   0  0  0  0  0  0  0  0  0  0  0  0
   -9.5346    4.8312   -3.5304 N   0  0  0  0  0  0  0  0  0  0  0  0
  2  1  1  1  0  0  0
  2  3  1  0  0  0  0
  2  5  1  0  0  0  0
  3  4  1  0  0  0  0
  5  6  1  0  0  0  0
  6  7  1  0  0  0  0
  7  8  1  0  0  0  0
  8  9  1  0  0  0  0
  9 10  1  0  0  0  0
  9 11  1  0  0  0  0
M  END
>  <CHROM.1>
65.14577290,-41.88828891,-142.33467527,64.54951344,70.67735733,-109.60838466
138.61187054,-131.16227913,-39.10873871,-10.62566567,5.02455331,-0.98016075
-1.86469098,-0.37501537,-2.33467476

>  <Name>
1akx_lig

>  <RI>
0

>  <Rbt.Current_Directory>
/home/itssahil/PROJECTS/Mol_Feturizer/New_Systems/rnas/1akx

>  <Rbt.Executable>
rbdock ($Id: //depot/dev/client3/rdock/2013.1/src/exe/rbdock.cxx#4 $)

>  <Rbt.Library>
libRbt.so (2013.1, Build901 2013/11/27)

>  <Rbt.Parameter_File>
/export/apps/rDock/src/rDock_2013.1_src/data/scripts/dock_solv.prm

>  <Rbt.Receptor>
prm/blind_docking_80.prm

>  <SCORE>
-36.179

>  <SCORE.INTER>
-31.1569

>  <SCORE.INTER.CONST>
1

>  <SCORE.INTER.POLAR>
-4.96784

>  <SCORE.INTER.ROT>
8

>  <SCORE.INTER.SOLV>
11.2459

>  <SCORE.INTER.VDW>
-16.8938

>  <SCORE.INTER.norm>
-2.83245

>  <SCORE.INTRA>
-5.03272

>  <SCORE.INTRA.DIHEDRAL>
-11.0927

>  <SCORE.INTRA.DIHEDRAL.0>
21.6454

>  <SCORE.INTRA.POLAR>
0

>  <SCORE.INTRA.POLAR.0>
0

>  <SCORE.INTRA.REPUL>
0

>  <SCORE.INTRA.REPUL.0>
0

>  <SCORE.INTRA.SOLV>
1.57227

>  <SCORE.INTRA.SOLV.lig_0>
-16.5947

>  <SCORE.INTRA.VDW>
-0.272502

>  <SCORE.INTRA.VDW.0>
-0.691398

>  <SCORE.INTRA.norm>
-0.45752

>  <SCORE.RESTR>
0.0106267

>  <SCORE.RESTR.CAVITY>
0.0106267

>  <SCORE.RESTR.norm>
0.000966065

>  <SCORE.SYSTEM>
0

>  <SCORE.SYSTEM.CONST>
0

>  <SCORE.SYSTEM.DIHEDRAL>
0

>  <SCORE.SYSTEM.SOLV>
0

>  <SCORE.SYSTEM.norm>
0

>  <SCORE.heavy>
11

>  <SCORE.norm>
-3.289

>  <RMSD>
13.119

$$$$
1akx_lig
 OpenBabel11021811383D
libRbt.so/2013.1/901 2013/11/27
 11 10  0  0  0  0  0  0  0  0999 V2000
   -9.5370    6.4112   -0.1603 N   0  0  0  0  0  0  0  0  0  0  0  0
  -10.8901    6.6076    0.4386 C   0  0  2  0  0  0  0  0  0  0  0  0
  -10.7485    6.9072    1.9363 C   0  0  0  0  0  0  0  0  0  0  0  0
  -10.0923    7.8566    2.3159 O   0  0  0  0  0  0  0  0  0  0  0  0
  -11.7294    5.3378    0.2426 C   0  0  0  0  0  0  0  0  0  0  0  0
  -12.1944    5.2452   -1.2143 C   0  0  0  0  0  0  0  0  0  0  0  0
  -11.7089    3.9296   -1.8229 C   0  0  0  0  0  0  0  0  0  0  0  0
  -10.2203    3.8762   -1.7631 N   0  0  0  0  0  0  0  0  0  0  0  0
   -9.5143    3.9156   -2.8642 C   0  0  0  0  0  0  0  0  0  0  0  0
   -8.2645    3.5292   -2.8599 N   0  0  0  0  0  0  0  0  0  0  0  0
  -10.0620    4.3365   -3.9727 N   0  0  0  0  0  0  0  0  0  0  0  0
  2  1  1  1  0  0  0
  2  3  1  0  0  0  0
  2  5  1  0  0  0  0
  3  4  1  0  0  0  0
  5  6  1  0  0  0  0
  6  7  1  0  0  0  0
  7  8  1  0  0  0  0
  8  9  1  0  0  0  0
  9 10  1  0  0  0  0
  9 11  1  0  0  0  0
M  END
>  <CHROM.1>
149.72934983,57.96421887,-75.12462906,122.48403631,-59.59605522,-112.59814235
-162.31053120,-48.74633949,95.77047153,-10.38772749,5.27872694,-0.89773317
-1.72285838,-0.12604001,-2.20177296

>  <Name>
1akx_lig

>  <RI>
0

>  <Rbt.Current_Directory>
/home/afrankz/demos/rdock_decoys_rna/rnas/1akx

>  <Rbt.Executable>
rbdock ($Id: //depot/dev/client3/rdock/2013.1/src/exe/rbdock.cxx#4 $)

>  <Rbt.Library>
libRbt.so (2013.1, Build901 2013/11/27)

>  <Rbt.Parameter_File>
/export/apps/rDock/src/rDock_2013.1_src/data/scripts/dock_solv.prm

>  <Rbt.Receptor>
prm/blind_docking_20.prm

>  <SCORE>
-41.5536

>  <SCORE.INTER>
-36.3029

>  <SCORE.INTER.CONST>
1

>  <SCORE.INTER.POLAR>
-6.03467

>  <SCORE.INTER.ROT>
8

>  <SCORE.INTER.SOLV>
13.372

>  <SCORE.INTER.VDW>
-17.477

>  <SCORE.INTER.norm>
-3.30026

>  <SCORE.INTRA>
-5.45899

>  <SCORE.INTRA.DIHEDRAL>
-8.03459

>  <SCORE.INTRA.DIHEDRAL.0>
21.6454

>  <SCORE.INTRA.POLAR>
-0.85838

>  <SCORE.INTRA.POLAR.0>
0

>  <SCORE.INTRA.REPUL>
0

>  <SCORE.INTRA.REPUL.0>
0

>  <SCORE.INTRA.SOLV>
1.62398

>  <SCORE.INTRA.SOLV.lig_0>
-16.5947

>  <SCORE.INTRA.VDW>
0.664808

>  <SCORE.INTRA.VDW.0>
-0.691398

>  <SCORE.INTRA.norm>
-0.496271

>  <SCORE.RESTR>
0.208234

>  <SCORE.RESTR.CAVITY>
0.208234

>  <SCORE.RESTR.norm>
0.0189304

>  <SCORE.SYSTEM>
0

>  <SCORE.SYSTEM.CONST>
0

>  <SCORE.SYSTEM.DIHEDRAL>
0

>  <SCORE.SYSTEM.SOLV>
0

>  <SCORE.SYSTEM.norm>
0

>  <SCORE.heavy>
11

>  <SCORE.norm>
-3.7776

>  <RMSD>
13.122

>  <RMSD>
13.122

$$$$
1akx_lig
 OpenBabel11021811383D
libRbt.so/2013.1/901 2013/11/27
 11 10  0  0  0  0  0  0  0  0999 V2000
   -9.5370    6.4112   -0.1603 N   0  0  0  0  0  0  0  0  0  0  0  0
  -10.8901    6.6076    0.4386 C   0  0  2  0  0  0  0  0  0  0  0  0
  -10.7485    6.9072    1.9363 C   0  0  0  0  0  0  0  0  0  0  0  0
  -10.0923    7.8566    2.3159 O   0  0  0  0  0  0  0  0  0  0  0  0
  -11.7294    5.3378    0.2426 C   0  0  0  0  0  0  0  0  0  0  0  0
  -12.1944    5.2452   -1.2143 C   0  0  0  0  0  0  0  0  0  0  0  0
  -11.7089    3.9296   -1.8229 C   0  0  0  0  0  0  0  0  0  0  0  0
  -10.2203    3.8762   -1.7631 N   0  0  0  0  0  0  0  0  0  0  0  0
   -9.5143    3.9156   -2.8642 C   0  0  0  0  0  0  0  0  0  0  0  0
   -8.2645    3.5292   -2.8599 N   0  0  0  0  0  0  0  0  0  0  0  0
  -10.0620    4.3365   -3.9727 N   0  0  0  0  0  0  0  0  0  0  0  0
  2  1  1  1  0  0  0
  2  3  1  0  0  0  0
  2  5  1  0  0  0  0
  3  4  1  0  0  0  0
  5  6  1  0  0  0  0
  6  7  1  0  0  0  0
  7  8  1  0  0  0  0
  8  9  1  0  0  0  0
  9 10  1  0  0  0  0
  9 11  1  0  0  0  0
M  END
>  <CHROM.1>
149.72934983,57.96421887,-75.12462906,122.48403631,-59.59605522,-112.59814235
-162.31053120,-48.74633949,95.77047153,-10.38772749,5.27872694,-0.89773317
-1.72285838,-0.12604001,-2.20177296

>  <Name>
1akx_lig

>  <RI>
0

>  <Rbt.Current_Directory>
/home/afrankz/demos/rdock_decoys_rna/rnas/1akx

>  <Rbt.Executable>
rbdock ($Id: //depot/dev/client3/rdock/2013.1/src/exe/rbdock.cxx#4 $)

>  <Rbt.Library>
libRbt.so (2013.1, Build901 2013/11/27)

>  <Rbt.Parameter_File>
/export/apps/rDock/src/rDock_2013.1_src/data/scripts/dock_solv.prm

>  <Rbt.Receptor>
prm/blind_docking_20.prm

>  <SCORE>
-41.5536

>  <SCORE.INTER>
-36.3029

>  <SCORE.INTER.CONST>
1

>  <SCORE.INTER.POLAR>
-6.03467

>  <SCORE.INTER.ROT>
8

>  <SCORE.INTER.SOLV>
13.372

>  <SCORE.INTER.VDW>
-17.477

>  <SCORE.INTER.norm>
-3.30026

>  <SCORE.INTRA>
-5.45899

>  <SCORE.INTRA.DIHEDRAL>
-8.03459

>  <SCORE.INTRA.DIHEDRAL.0>
21.6454

>  <SCORE.INTRA.POLAR>
-0.85838

>  <SCORE.INTRA.POLAR.0>
0

>  <SCORE.INTRA.REPUL>
0

>  <SCORE.INTRA.REPUL.0>
0

>  <SCORE.INTRA.SOLV>
1.62398

>  <SCORE.INTRA.SOLV.lig_0>
-16.5947

>  <SCORE.INTRA.VDW>
0.664808

>  <SCORE.INTRA.VDW.0>
-0.691398

>  <SCORE.INTRA.norm>
-0.496271

>  <SCORE.RESTR>
0.208234

>  <SCORE.RESTR.CAVITY>
0.208234

>  <SCORE.RESTR.norm>
0.0189304

>  <SCORE.SYSTEM>
0

>  <SCORE.SYSTEM.CONST>
0

>  <SCORE.SYSTEM.DIHEDRAL>
0

>  <SCORE.SYSTEM.SOLV>
0

>  <SCORE.SYSTEM.norm>
0

>  <SCORE.heavy>
11

>  <SCORE.norm>
-3.7776

>  <RMSD>
13.122

>  <RMSD>
13.122

$$$$
1akx_lig
 OpenBabel11021811383D
libRbt.so/2013.1/901 2013/11/27
 11 10  0  0  0  0  0  0  0  0999 V2000
   -9.7142    6.8439    1.2888 N   0  0  0  0  0  0  0  0  0  0  0  0
  -10.9527    6.5642    0.5040 C   0  0  2  0  0  0  0  0  0  0  0  0
  -12.0675    6.1063    1.4528 C   0  0  0  0  0  0  0  0  0  0  0  0
  -12.4661    6.8399    2.3355 O   0  0  0  0  0  0  0  0  0  0  0  0
  -10.6703    5.4657   -0.5300 C   0  0  0  0  0  0  0  0  0  0  0  0
  -11.8701    5.3215   -1.4718 C   0  0  0  0  0  0  0  0  0  0  0  0
  -11.6319    4.1523   -2.4273 C   0  0  0  0  0  0  0  0  0  0  0  0
  -10.3955    4.4055   -3.2207 N   0  0  0  0  0  0  0  0  0  0  0  0
   -9.4614    3.4922   -3.2956 C   0  0  0  0  0  0  0  0  0  0  0  0
   -8.2085    3.8131   -3.0988 N   0  0  0  0  0  0  0  0  0  0  0  0
   -9.7825    2.2544   -3.5618 N   0  0  0  0  0  0  0  0  0  0  0  0
  2  1  1  1  0  0  0
  2  3  1  0  0  0  0
  2  5  1  0  0  0  0
  3  4  1  0  0  0  0
  5  6  1  0  0  0  0
  6  7  1  0  0  0  0
  7  8  1  0  0  0  0
  8  9  1  0  0  0  0
  9 10  1  0  0  0  0
  9 11  1  0  0  0  0
M  END
>  <CHROM.1>
-161.88638920,61.11323236,-171.65891718,-175.46134792,-59.64628116,129.07557432
-132.28309347,132.32172398,-4.33980542,-10.61360312,5.02871386,-1.07145829
-1.88880601,-0.07282512,-2.18758197

>  <Name>
1akx_lig

>  <RI>
0

>  <Rbt.Current_Directory>
/home/itssahil/PROJECTS/Mol_Feturizer/New_Systems/rnas/1akx

>  <Rbt.Executable>
rbdock ($Id: //depot/dev/client3/rdock/2013.1/src/exe/rbdock.cxx#4 $)

>  <Rbt.Library>
libRbt.so (2013.1, Build901 2013/11/27)

>  <Rbt.Parameter_File>
/export/apps/rDock/src/rDock_2013.1_src/data/scripts/dock_solv.prm

>  <Rbt.Receptor>
prm/blind_docking_40.prm

>  <SCORE>
-41.0027

>  <SCORE.INTER>
-34.5193

>  <SCORE.INTER.CONST>
1

>  <SCORE.INTER.POLAR>
-5.10185

>  <SCORE.INTER.ROT>
8

>  <SCORE.INTER.SOLV>
12.596

>  <SCORE.INTER.VDW>
-19.1387

>  <SCORE.INTER.norm>
-3.13812

>  <SCORE.INTRA>
-6.63902

>  <SCORE.INTRA.DIHEDRAL>
-15.7309

>  <SCORE.INTRA.DIHEDRAL.0>
21.6454

>  <SCORE.INTRA.POLAR>
0

>  <SCORE.INTRA.POLAR.0>
0

>  <SCORE.INTRA.REPUL>
0

>  <SCORE.INTRA.REPUL.0>
0

>  <SCORE.INTRA.SOLV>
0.508823

>  <SCORE.INTRA.SOLV.lig_0>
-16.5947

>  <SCORE.INTRA.VDW>
0.972017

>  <SCORE.INTRA.VDW.0>
-0.691398

>  <SCORE.INTRA.norm>
-0.603547

>  <SCORE.RESTR>
0.155585

>  <SCORE.RESTR.CAVITY>
0.155585

>  <SCORE.RESTR.norm>
0.0141441

>  <SCORE.SYSTEM>
0

>  <SCORE.SYSTEM.CONST>
0

>  <SCORE.SYSTEM.DIHEDRAL>
0

>  <SCORE.SYSTEM.SOLV>
0

>  <SCORE.SYSTEM.norm>
0

>  <SCORE.heavy>
11

>  <SCORE.norm>
-3.72752

>  <RMSD>
13.136

$$$$
1akx_lig
 OpenBabel11021811383D
libRbt.so/2013.1/901 2013/11/27
 11 10  0  0  0  0  0  0  0  0999 V2000
   -9.5745    6.6297   -0.0506 N   0  0  0  0  0  0  0  0  0  0  0  0
  -10.9975    6.1790   -0.0634 C   0  0  2  0  0  0  0  0  0  0  0  0
  -11.6108    6.3807    1.3280 C   0  0  0  0  0  0  0  0  0  0  0  0
  -11.6408    7.4847    1.8346 O   0  0  0  0  0  0  0  0  0  0  0  0
  -11.0644    4.6947   -0.4475 C   0  0  0  0  0  0  0  0  0  0  0  0
  -12.3871    4.4053   -1.1644 C   0  0  0  0  0  0  0  0  0  0  0  0
  -12.2266    3.1734   -2.0551 C   0  0  0  0  0  0  0  0  0  0  0  0
  -11.3812    3.5208   -3.2327 N   0  0  0  0  0  0  0  0  0  0  0  0
  -10.0771    3.4476   -3.1529 C   0  0  0  0  0  0  0  0  0  0  0  0
   -9.4981    2.3157   -2.8449 N   0  0  0  0  0  0  0  0  0  0  0  0
   -9.3510    4.5077   -3.3878 N   0  0  0  0  0  0  0  0  0  0  0  0
  2  1  1  1  0  0  0
  2  3  1  0  0  0  0
  2  5  1  0  0  0  0
  3  4  1  0  0  0  0
  5  6  1  0  0  0  0
  6  7  1  0  0  0  0
  7  8  1  0  0  0  0
  8  9  1  0  0  0  0
  9 10  1  0  0  0  0
  9 11  1  0  0  0  0
M  END
>  <CHROM.1>
-77.79364821,58.55316091,-150.37122173,155.59668610,-71.98283226,86.26085739
58.43910773,-160.47023729,-15.61777750,-10.83799743,4.82255572,-1.20421868
-1.73998792,-0.37275473,-2.34493587

>  <Name>
1akx_lig

>  <RI>
0

>  <Rbt.Current_Directory>
/home/itssahil/PROJECTS/Mol_Feturizer/New_Systems/rnas/1akx

>  <Rbt.Executable>
rbdock ($Id: //depot/dev/client3/rdock/2013.1/src/exe/rbdock.cxx#4 $)

>  <Rbt.Library>
libRbt.so (2013.1, Build901 2013/11/27)

>  <Rbt.Parameter_File>
/export/apps/rDock/src/rDock_2013.1_src/data/scripts/dock_solv.prm

>  <Rbt.Receptor>
prm/blind_docking_100.prm

>  <SCORE>
-33.1612

>  <SCORE.INTER>
-28.1323

>  <SCORE.INTER.CONST>
1

>  <SCORE.INTER.POLAR>
-4.13414

>  <SCORE.INTER.ROT>
8

>  <SCORE.INTER.SOLV>
11.2313

>  <SCORE.INTER.VDW>
-17.6515

>  <SCORE.INTER.norm>
-2.55748

>  <SCORE.INTRA>
-5.0289

>  <SCORE.INTRA.DIHEDRAL>
-10.5301

>  <SCORE.INTRA.DIHEDRAL.0>
21.6454

>  <SCORE.INTRA.POLAR>
0

>  <SCORE.INTRA.POLAR.0>
0

>  <SCORE.INTRA.REPUL>
0

>  <SCORE.INTRA.REPUL.0>
0

>  <SCORE.INTRA.SOLV>
1.14232

>  <SCORE.INTRA.SOLV.lig_0>
-16.5947

>  <SCORE.INTRA.VDW>
-0.335022

>  <SCORE.INTRA.VDW.0>
-0.691398

>  <SCORE.INTRA.norm>
-0.457173

>  <SCORE.RESTR>
0

>  <SCORE.RESTR.CAVITY>
0

>  <SCORE.RESTR.norm>
0

>  <SCORE.SYSTEM>
0

>  <SCORE.SYSTEM.CONST>
0

>  <SCORE.SYSTEM.DIHEDRAL>
0

>  <SCORE.SYSTEM.SOLV>
0

>  <SCORE.SYSTEM.norm>
0

>  <SCORE.heavy>
11

>  <SCORE.norm>
-3.01466

>  <RMSD>
13.137

$$$$
1akx_lig
 OpenBabel11021811383D
libRbt.so/2013.1/901 2013/11/27
 11 10  0  0  0  0  0  0  0  0999 V2000
   -9.6410    6.3334   -0.2759 N   0  0  0  0  0  0  0  0  0  0  0  0
  -10.9246    6.2947    0.4851 C   0  0  2  0  0  0  0  0  0  0  0  0
  -10.7085    6.8857    1.8839 C   0  0  0  0  0  0  0  0  0  0  0  0
  -10.2239    7.9917    2.0180 O   0  0  0  0  0  0  0  0  0  0  0  0
  -11.4081    4.8432    0.6061 C   0  0  0  0  0  0  0  0  0  0  0  0
  -12.5054    4.5758   -0.4291 C   0  0  0  0  0  0  0  0  0  0  0  0
  -11.9516    3.6866   -1.5425 C   0  0  0  0  0  0  0  0  0  0  0  0
  -11.0507    4.4910   -2.4163 N   0  0  0  0  0  0  0  0  0  0  0  0
  -10.1433    3.8994   -3.1504 C   0  0  0  0  0  0  0  0  0  0  0  0
   -9.0701    4.5486   -3.5219 N   0  0  0  0  0  0  0  0  0  0  0  0
  -10.3073    2.6538   -3.5079 N   0  0  0  0  0  0  0  0  0  0  0  0
  2  1  1  6  0  0  0
  2  3  1  0  0  0  0
  2  5  1  0  0  0  0
  3  4  1  0  0  0  0
  5  6  1  0  0  0  0
  6  7  1  0  0  0  0
  7  8  1  0  0  0  0
  8  9  1  0  0  0  0
  9 10  1  0  0  0  0
  9 11  1  0  0  0  0
M  END
>  <CHROM.1>
-69.98407796,53.79390548,-100.57252645,107.43196744,-74.21571375,158.00692879
-154.99241071,152.49354083,-61.18316568,-10.66487872,5.12982299,-0.92382673
-1.62804184,-0.58014719,-2.23533988

>  <Name>
1akx_lig

>  <RI>
0

>  <Rbt.Current_Directory>
/home/itssahil/PROJECTS/Mol_Feturizer/New_Systems/rnas/1akx

>  <Rbt.Executable>
rbdock ($Id: //depot/dev/client3/rdock/2013.1/src/exe/rbdock.cxx#4 $)

>  <Rbt.Library>
libRbt.so (2013.1, Build901 2013/11/27)

>  <Rbt.Parameter_File>
/export/apps/rDock/src/rDock_2013.1_src/data/scripts/dock_solv.prm

>  <Rbt.Receptor>
prm/blind_docking_20.prm

>  <SCORE>
-29.2332

>  <SCORE.INTER>
-25.005

>  <SCORE.INTER.CONST>
1

>  <SCORE.INTER.POLAR>
-3.85487

>  <SCORE.INTER.ROT>
8

>  <SCORE.INTER.SOLV>
11.5007

>  <SCORE.INTER.VDW>
-16.5873

>  <SCORE.INTER.norm>
-2.27318

>  <SCORE.INTRA>
-5.1818

>  <SCORE.INTRA.DIHEDRAL>
-5.76464

>  <SCORE.INTRA.DIHEDRAL.0>
21.6454

>  <SCORE.INTRA.POLAR>
-0.852684

>  <SCORE.INTRA.POLAR.0>
0

>  <SCORE.INTRA.REPUL>
0

>  <SCORE.INTRA.REPUL.0>
0

>  <SCORE.INTRA.SOLV>
1.51972

>  <SCORE.INTRA.SOLV.lig_0>
-16.5947

>  <SCORE.INTRA.VDW>
-0.160209

>  <SCORE.INTRA.VDW.0>
-0.691398

>  <SCORE.INTRA.norm>
-0.471072

>  <SCORE.RESTR>
0.953511

>  <SCORE.RESTR.CAVITY>
0.953511

>  <SCORE.RESTR.norm>
0.0866828

>  <SCORE.SYSTEM>
0

>  <SCORE.SYSTEM.CONST>
0

>  <SCORE.SYSTEM.DIHEDRAL>
0

>  <SCORE.SYSTEM.SOLV>
0

>  <SCORE.SYSTEM.norm>
0

>  <SCORE.heavy>
11

>  <SCORE.norm>
-2.65757

>  <RMSD>
13.143

$$$$
1akx_lig
 OpenBabel11021811383D
libRbt.so/2013.1/901 2013/11/27
 11 10  0  0  0  0  0  0  0  0999 V2000
   -9.5226    6.3867   -0.2315 N   0  0  0  0  0  0  0  0  0  0  0  0
  -10.9154    6.4467    0.3021 C   0  0  2  0  0  0  0  0  0  0  0  0
  -10.8931    7.0078    1.7294 C   0  0  0  0  0  0  0  0  0  0  0  0
  -10.2560    8.0094    1.9884 O   0  0  0  0  0  0  0  0  0  0  0  0
  -11.5253    5.0384    0.3098 C   0  0  0  0  0  0  0  0  0  0  0  0
  -11.7528    4.5657   -1.1297 C   0  0  0  0  0  0  0  0  0  0  0  0
  -12.0128    3.0593   -1.1377 C   0  0  0  0  0  0  0  0  0  0  0  0
  -11.8577    2.5377   -2.5256 N   0  0  0  0  0  0  0  0  0  0  0  0
  -10.9354    3.0267   -3.3146 C   0  0  0  0  0  0  0  0  0  0  0  0
  -11.1442    4.1467   -3.9576 N   0  0  0  0  0  0  0  0  0  0  0  0
   -9.7997    2.3970   -3.4553 N   0  0  0  0  0  0  0  0  0  0  0  0
  2  1  1  1  0  0  0
  2  3  1  0  0  0  0
  2  5  1  0  0  0  0
  3  4  1  0  0  0  0
  5  6  1  0  0  0  0
  6  7  1  0  0  0  0
  7  8  1  0  0  0  0
  8  9  1  0  0  0  0
  9 10  1  0  0  0  0
  9 11  1  0  0  0  0
M  END
>  <CHROM.1>
165.14145123,47.44100730,-68.64455107,165.52458187,-164.38793837,36.81030302
-81.32737144,-8.77664784,65.41588950,-10.91666848,4.80010980,-1.06360543
-1.46273830,-0.67601994,-2.25864607

>  <Name>
1akx_lig

>  <RI>
0

>  <Rbt.Current_Directory>
/home/itssahil/PROJECTS/Mol_Feturizer/New_Systems/rnas/1akx

>  <Rbt.Executable>
rbdock ($Id: //depot/dev/client3/rdock/2013.1/src/exe/rbdock.cxx#4 $)

>  <Rbt.Library>
libRbt.so (2013.1, Build901 2013/11/27)

>  <Rbt.Parameter_File>
/export/apps/rDock/src/rDock_2013.1_src/data/scripts/dock_solv.prm

>  <Rbt.Receptor>
prm/blind_docking_20.prm

>  <SCORE>
-30.9776

>  <SCORE.INTER>
-26.9361

>  <SCORE.INTER.CONST>
1

>  <SCORE.INTER.POLAR>
-4.0708

>  <SCORE.INTER.ROT>
8

>  <SCORE.INTER.SOLV>
12.1182

>  <SCORE.INTER.VDW>
-17.3608

>  <SCORE.INTER.norm>
-2.44873

>  <SCORE.INTRA>
-4.78552

>  <SCORE.INTRA.DIHEDRAL>
-13.7683

>  <SCORE.INTRA.DIHEDRAL.0>
21.6454

>  <SCORE.INTRA.POLAR>
0

>  <SCORE.INTRA.POLAR.0>
0

>  <SCORE.INTRA.REPUL>
0

>  <SCORE.INTRA.REPUL.0>
0

>  <SCORE.INTRA.SOLV>
0.651401

>  <SCORE.INTRA.SOLV.lig_0>
-16.5947

>  <SCORE.INTRA.VDW>
1.77294

>  <SCORE.INTRA.VDW.0>
-0.691398

>  <SCORE.INTRA.norm>
-0.435047

>  <SCORE.RESTR>
0.744035

>  <SCORE.RESTR.CAVITY>
0.744035

>  <SCORE.RESTR.norm>
0.0676395

>  <SCORE.SYSTEM>
0

>  <SCORE.SYSTEM.CONST>
0

>  <SCORE.SYSTEM.DIHEDRAL>
0

>  <SCORE.SYSTEM.SOLV>
0

>  <SCORE.SYSTEM.norm>
0

>  <SCORE.heavy>
11

>  <SCORE.norm>
-2.81614

>  <RMSD>
13.153

$$$$
1akx_lig
 OpenBabel11021811383D
libRbt.so/2013.1/901 2013/11/27
 11 10  0  0  0  0  0  0  0  0999 V2000
  -10.7935    4.2554   -4.1050 N   0  0  0  0  0  0  0  0  0  0  0  0
  -10.5602    3.3807   -2.9182 C   0  0  2  0  0  0  0  0  0  0  0  0
  -10.7011    1.9100   -3.3307 C   0  0  0  0  0  0  0  0  0  0  0  0
  -10.9102    1.0526   -2.4956 O   0  0  0  0  0  0  0  0  0  0  0  0
  -11.5853    3.7114   -1.8250 C   0  0  0  0  0  0  0  0  0  0  0  0
  -11.3916    5.1568   -1.3550 C   0  0  0  0  0  0  0  0  0  0  0  0
   -9.9353    5.3686   -0.9414 C   0  0  0  0  0  0  0  0  0  0  0  0
   -9.8198    6.6386   -0.1693 N   0  0  0  0  0  0  0  0  0  0  0  0
  -10.4256    6.7669    0.9835 C   0  0  0  0  0  0  0  0  0  0  0  0
   -9.7610    6.6069    2.0988 N   0  0  0  0  0  0  0  0  0  0  0  0
  -11.6975    7.0621    1.0200 N   0  0  0  0  0  0  0  0  0  0  0  0
  2  1  1  6  0  0  0
  2  3  1  0  0  0  0
  2  5  1  0  0  0  0
  3  4  1  0  0  0  0
  5  6  1  0  0  0  0
  6  7  1  0  0  0  0
  7  8  1  0  0  0  0
  8  9  1  0  0  0  0
  9 10  1  0  0  0  0
  9 11  1  0  0  0  0
M  END
>  <CHROM.1>
-41.30531437,-160.10428283,-63.01068544,-53.60310209,-165.66739358,64.05867017
99.47788006,-25.89852889,170.98565927,-10.69254609,4.73435027,-1.18614173
2.44230542,1.48028166,3.05171350

>  <Name>
1akx_lig

>  <RI>
0

>  <Rbt.Current_Directory>
/home/itssahil/PROJECTS/Mol_Feturizer/New_Systems/rnas/1akx

>  <Rbt.Executable>
rbdock ($Id: //depot/dev/client3/rdock/2013.1/src/exe/rbdock.cxx#4 $)

>  <Rbt.Library>
libRbt.so (2013.1, Build901 2013/11/27)

>  <Rbt.Parameter_File>
/export/apps/rDock/src/rDock_2013.1_src/data/scripts/dock_solv.prm

>  <Rbt.Receptor>
prm/blind_docking_100.prm

>  <SCORE>
-33.5001

>  <SCORE.INTER>
-28.8738

>  <SCORE.INTER.CONST>
1

>  <SCORE.INTER.POLAR>
-4.80768

>  <SCORE.INTER.ROT>
8

>  <SCORE.INTER.SOLV>
13.0575

>  <SCORE.INTER.VDW>
-16.5094

>  <SCORE.INTER.norm>
-2.62489

>  <SCORE.INTRA>
-4.6984

>  <SCORE.INTRA.DIHEDRAL>
-13.7968

>  <SCORE.INTRA.DIHEDRAL.0>
21.6454

>  <SCORE.INTRA.POLAR>
0

>  <SCORE.INTRA.POLAR.0>
0

>  <SCORE.INTRA.REPUL>
0

>  <SCORE.INTRA.REPUL.0>
0

>  <SCORE.INTRA.SOLV>
0.499368

>  <SCORE.INTRA.SOLV.lig_0>
-16.5947

>  <SCORE.INTRA.VDW>
1.95033

>  <SCORE.INTRA.VDW.0>
-0.691398

>  <SCORE.INTRA.norm>
-0.427127

>  <SCORE.RESTR>
0.0720882

>  <SCORE.RESTR.CAVITY>
0.0720882

>  <SCORE.RESTR.norm>
0.00655347

>  <SCORE.SYSTEM>
0

>  <SCORE.SYSTEM.CONST>
0

>  <SCORE.SYSTEM.DIHEDRAL>
0

>  <SCORE.SYSTEM.SOLV>
0

>  <SCORE.SYSTEM.norm>
0

>  <SCORE.heavy>
11

>  <SCORE.norm>
-3.04546

>  <RMSD>
13.155

$$$$
1akx_lig
 OpenBabel11021811383D
libRbt.so/2013.1/901 2013/11/27
 11 10  0  0  0  0  0  0  0  0999 V2000
   -9.6148    6.4521    0.0629 N   0  0  0  0  0  0  0  0  0  0  0  0
  -11.0265    6.8768    0.2975 C   0  0  2  0  0  0  0  0  0  0  0  0
  -11.1775    7.3777    1.7394 C   0  0  0  0  0  0  0  0  0  0  0  0
  -10.5233    8.3216    2.1361 O   0  0  0  0  0  0  0  0  0  0  0  0
  -11.9680    5.6880    0.0619 C   0  0  0  0  0  0  0  0  0  0  0  0
  -11.8680    5.2305   -1.3969 C   0  0  0  0  0  0  0  0  0  0  0  0
  -10.8685    4.0789   -1.5038 C   0  0  0  0  0  0  0  0  0  0  0  0
  -10.5374    3.8424   -2.9379 N   0  0  0  0  0  0  0  0  0  0  0  0
   -9.4615    3.1730   -3.2646 C   0  0  0  0  0  0  0  0  0  0  0  0
   -8.2779    3.7026   -3.0919 N   0  0  0  0  0  0  0  0  0  0  0  0
   -9.5704    1.9690   -3.7592 N   0  0  0  0  0  0  0  0  0  0  0  0
  2  1  1  1  0  0  0
  2  3  1  0  0  0  0
  2  5  1  0  0  0  0
  3  4  1  0  0  0  0
  5  6  1  0  0  0  0
  6  7  1  0  0  0  0
  7  8  1  0  0  0  0
  8  9  1  0  0  0  0
  9 10  1  0  0  0  0
  9 11  1  0  0  0  0
M  END
>  <CHROM.1>
-61.44520550,59.99259353,-62.49378400,95.20238956,-167.18682736,161.61008875
-70.89361208,123.93980144,8.63963474,-10.38854277,5.15182200,-1.07134899
-1.78024822,-0.11418085,-2.35719376

>  <Name>
1akx_lig

>  <RI>
0

>  <Rbt.Current_Directory>
/home/itssahil/PROJECTS/Mol_Feturizer/New_Systems/rnas/1akx

>  <Rbt.Executable>
rbdock ($Id: //depot/dev/client3/rdock/2013.1/src/exe/rbdock.cxx#4 $)

>  <Rbt.Library>
libRbt.so (2013.1, Build901 2013/11/27)

>  <Rbt.Parameter_File>
/export/apps/rDock/src/rDock_2013.1_src/data/scripts/dock_solv.prm

>  <Rbt.Receptor>
prm/blind_docking_40.prm

>  <SCORE>
-41.0926

>  <SCORE.INTER>
-35.7091

>  <SCORE.INTER.CONST>
1

>  <SCORE.INTER.POLAR>
-6.20349

>  <SCORE.INTER.ROT>
8

>  <SCORE.INTER.SOLV>
13.4086

>  <SCORE.INTER.VDW>
-16.5306

>  <SCORE.INTER.norm>
-3.24628

>  <SCORE.INTRA>
-5.48904

>  <SCORE.INTRA.DIHEDRAL>
-12.3309

>  <SCORE.INTRA.DIHEDRAL.0>
21.6454

>  <SCORE.INTRA.POLAR>
0

>  <SCORE.INTRA.POLAR.0>
0

>  <SCORE.INTRA.REPUL>
0

>  <SCORE.INTRA.REPUL.0>
0

>  <SCORE.INTRA.SOLV>
0.552247

>  <SCORE.INTRA.SOLV.lig_0>
-16.5947

>  <SCORE.INTRA.VDW>
0.400271

>  <SCORE.INTRA.VDW.0>
-0.691398

>  <SCORE.INTRA.norm>
-0.499004

>  <SCORE.RESTR>
0.105606

>  <SCORE.RESTR.CAVITY>
0.105606

>  <SCORE.RESTR.norm>
0.00960059

>  <SCORE.SYSTEM>
0

>  <SCORE.SYSTEM.CONST>
0

>  <SCORE.SYSTEM.DIHEDRAL>
0

>  <SCORE.SYSTEM.SOLV>
0

>  <SCORE.SYSTEM.norm>
0

>  <SCORE.heavy>
11

>  <SCORE.norm>
-3.73569

>  <RMSD>
13.164

$$$$
1akx_lig
 OpenBabel11021811383D
libRbt.so/2013.1/901 2013/11/27
 11 10  0  0  0  0  0  0  0  0999 V2000
  -10.1384    7.7980    1.2677 N   0  0  0  0  0  0  0  0  0  0  0  0
  -11.2261    6.8394    0.9124 C   0  0  2  0  0  0  0  0  0  0  0  0
  -12.2995    6.8543    2.0080 C   0  0  0  0  0  0  0  0  0  0  0  0
  -11.9940    6.6939    3.1729 O   0  0  0  0  0  0  0  0  0  0  0  0
  -10.6436    5.4259    0.7786 C   0  0  0  0  0  0  0  0  0  0  0  0
   -9.9075    5.2946   -0.5587 C   0  0  0  0  0  0  0  0  0  0  0  0
  -10.8761    4.7884   -1.6275 C   0  0  0  0  0  0  0  0  0  0  0  0
  -10.1521    4.6423   -2.9223 N   0  0  0  0  0  0  0  0  0  0  0  0
   -9.5085    3.5364   -3.1969 C   0  0  0  0  0  0  0  0  0  0  0  0
  -10.1601    2.4094   -3.3261 N   0  0  0  0  0  0  0  0  0  0  0  0
   -8.2115    3.5599   -3.3487 N   0  0  0  0  0  0  0  0  0  0  0  0
  2  1  1  1  0  0  0
  2  3  1  0  0  0  0
  2  5  1  0  0  0  0
  3  4  1  0  0  0  0
  5  6  1  0  0  0  0
  6  7  1  0  0  0  0
  7  8  1  0  0  0  0
  8  9  1  0  0  0  0
  9 10  1  0  0  0  0
  9 11  1  0  0  0  0
M  END
>  <CHROM.1>
-10.71119414,-52.35871406,-76.92442391,-90.82144050,-179.15935701,86.31367409
64.12520917,1.39165934,94.05796094,-10.43781040,5.26751876,-0.61893948,-1.93914016
-0.59534293,-2.37537678

>  <Name>
1akx_lig

>  <RI>
0

>  <Rbt.Current_Directory>
/home/afrankz/demos/rdock_decoys_rna/rnas/1akx

>  <Rbt.Executable>
rbdock ($Id: //depot/dev/client3/rdock/2013.1/src/exe/rbdock.cxx#4 $)

>  <Rbt.Library>
libRbt.so (2013.1, Build901 2013/11/27)

>  <Rbt.Parameter_File>
/export/apps/rDock/src/rDock_2013.1_src/data/scripts/dock_solv.prm

>  <Rbt.Receptor>
prm/blind_docking_40.prm

>  <SCORE>
-37.3496

>  <SCORE.INTER>
-33.8426

>  <SCORE.INTER.CONST>
1

>  <SCORE.INTER.POLAR>
-5.45153

>  <SCORE.INTER.ROT>
8

>  <SCORE.INTER.SOLV>
12.5787

>  <SCORE.INTER.VDW>
-17.5162

>  <SCORE.INTER.norm>
-3.0766

>  <SCORE.INTRA>
-3.5116

>  <SCORE.INTRA.DIHEDRAL>
-9.04142

>  <SCORE.INTRA.DIHEDRAL.0>
21.6454

>  <SCORE.INTRA.POLAR>
0

>  <SCORE.INTRA.POLAR.0>
0

>  <SCORE.INTRA.REPUL>
0

>  <SCORE.INTRA.REPUL.0>
0

>  <SCORE.INTRA.SOLV>
0.476973

>  <SCORE.INTRA.SOLV.lig_0>
-16.5947

>  <SCORE.INTRA.VDW>
0.77063

>  <SCORE.INTRA.VDW.0>
-0.691398

>  <SCORE.INTRA.norm>
-0.319236

>  <SCORE.RESTR>
0.00460574

>  <SCORE.RESTR.CAVITY>
0.00460574

>  <SCORE.RESTR.norm>
0.000418704

>  <SCORE.SYSTEM>
0

>  <SCORE.SYSTEM.CONST>
0

>  <SCORE.SYSTEM.DIHEDRAL>
0

>  <SCORE.SYSTEM.SOLV>
0

>  <SCORE.SYSTEM.norm>
0

>  <SCORE.heavy>
11

>  <SCORE.norm>
-3.39541

>  <RMSD>
13.166

>  <RMSD>
13.166

$$$$
1akx_lig
 OpenBabel11021811383D
libRbt.so/2013.1/901 2013/11/27
 11 10  0  0  0  0  0  0  0  0999 V2000
  -10.1384    7.7980    1.2677 N   0  0  0  0  0  0  0  0  0  0  0  0
  -11.2261    6.8394    0.9124 C   0  0  2  0  0  0  0  0  0  0  0  0
  -12.2995    6.8543    2.0080 C   0  0  0  0  0  0  0  0  0  0  0  0
  -11.9940    6.6939    3.1729 O   0  0  0  0  0  0  0  0  0  0  0  0
  -10.6436    5.4259    0.7786 C   0  0  0  0  0  0  0  0  0  0  0  0
   -9.9075    5.2946   -0.5587 C   0  0  0  0  0  0  0  0  0  0  0  0
  -10.8761    4.7884   -1.6275 C   0  0  0  0  0  0  0  0  0  0  0  0
  -10.1521    4.6423   -2.9223 N   0  0  0  0  0  0  0  0  0  0  0  0
   -9.5085    3.5364   -3.1969 C   0  0  0  0  0  0  0  0  0  0  0  0
  -10.1601    2.4094   -3.3261 N   0  0  0  0  0  0  0  0  0  0  0  0
   -8.2115    3.5599   -3.3487 N   0  0  0  0  0  0  0  0  0  0  0  0
  2  1  1  1  0  0  0
  2  3  1  0  0  0  0
  2  5  1  0  0  0  0
  3  4  1  0  0  0  0
  5  6  1  0  0  0  0
  6  7  1  0  0  0  0
  7  8  1  0  0  0  0
  8  9  1  0  0  0  0
  9 10  1  0  0  0  0
  9 11  1  0  0  0  0
M  END
>  <CHROM.1>
-10.71119414,-52.35871406,-76.92442391,-90.82144050,-179.15935701,86.31367409
64.12520917,1.39165934,94.05796094,-10.43781040,5.26751876,-0.61893948,-1.93914016
-0.59534293,-2.37537678

>  <Name>
1akx_lig

>  <RI>
0

>  <Rbt.Current_Directory>
/home/afrankz/demos/rdock_decoys_rna/rnas/1akx

>  <Rbt.Executable>
rbdock ($Id: //depot/dev/client3/rdock/2013.1/src/exe/rbdock.cxx#4 $)

>  <Rbt.Library>
libRbt.so (2013.1, Build901 2013/11/27)

>  <Rbt.Parameter_File>
/export/apps/rDock/src/rDock_2013.1_src/data/scripts/dock_solv.prm

>  <Rbt.Receptor>
prm/blind_docking_40.prm

>  <SCORE>
-37.3496

>  <SCORE.INTER>
-33.8426

>  <SCORE.INTER.CONST>
1

>  <SCORE.INTER.POLAR>
-5.45153

>  <SCORE.INTER.ROT>
8

>  <SCORE.INTER.SOLV>
12.5787

>  <SCORE.INTER.VDW>
-17.5162

>  <SCORE.INTER.norm>
-3.0766

>  <SCORE.INTRA>
-3.5116

>  <SCORE.INTRA.DIHEDRAL>
-9.04142

>  <SCORE.INTRA.DIHEDRAL.0>
21.6454

>  <SCORE.INTRA.POLAR>
0

>  <SCORE.INTRA.POLAR.0>
0

>  <SCORE.INTRA.REPUL>
0

>  <SCORE.INTRA.REPUL.0>
0

>  <SCORE.INTRA.SOLV>
0.476973

>  <SCORE.INTRA.SOLV.lig_0>
-16.5947

>  <SCORE.INTRA.VDW>
0.77063

>  <SCORE.INTRA.VDW.0>
-0.691398

>  <SCORE.INTRA.norm>
-0.319236

>  <SCORE.RESTR>
0.00460574

>  <SCORE.RESTR.CAVITY>
0.00460574

>  <SCORE.RESTR.norm>
0.000418704

>  <SCORE.SYSTEM>
0

>  <SCORE.SYSTEM.CONST>
0

>  <SCORE.SYSTEM.DIHEDRAL>
0

>  <SCORE.SYSTEM.SOLV>
0

>  <SCORE.SYSTEM.norm>
0

>  <SCORE.heavy>
11

>  <SCORE.norm>
-3.39541

>  <RMSD>
13.166

>  <RMSD>
13.166

$$$$
1akx_lig
 OpenBabel11021811383D
libRbt.so/2013.1/901 2013/11/27
 11 10  0  0  0  0  0  0  0  0999 V2000
   -9.9296    6.4371    1.4754 N   0  0  0  0  0  0  0  0  0  0  0  0
  -10.9631    6.4539    0.3985 C   0  0  2  0  0  0  0  0  0  0  0  0
  -12.3557    6.3016    1.0230 C   0  0  0  0  0  0  0  0  0  0  0  0
  -12.8043    7.1669    1.7484 O   0  0  0  0  0  0  0  0  0  0  0  0
  -10.7063    5.2998   -0.5800 C   0  0  0  0  0  0  0  0  0  0  0  0
  -11.7829    5.2970   -1.6701 C   0  0  0  0  0  0  0  0  0  0  0  0
  -11.5589    4.1095   -2.6063 C   0  0  0  0  0  0  0  0  0  0  0  0
  -10.3237    4.3382   -3.4091 N   0  0  0  0  0  0  0  0  0  0  0  0
   -9.3738    3.4385   -3.4284 C   0  0  0  0  0  0  0  0  0  0  0  0
   -8.1493    3.7658   -3.1045 N   0  0  0  0  0  0  0  0  0  0  0  0
   -9.6511    2.2077   -3.7663 N   0  0  0  0  0  0  0  0  0  0  0  0
  2  1  1  1  0  0  0
  2  3  1  0  0  0  0
  2  5  1  0  0  0  0
  3  4  1  0  0  0  0
  5  6  1  0  0  0  0
  6  7  1  0  0  0  0
  7  8  1  0  0  0  0
  8  9  1  0  0  0  0
  9 10  1  0  0  0  0
  9 11  1  0  0  0  0
M  END
>  <CHROM.1>
75.90350555,65.52267635,178.82478799,-177.51623147,-69.57443250,126.29042835
-124.88604554,-45.11500751,-5.61129726,-10.65297947,4.98494104,-1.23998775
-1.94381950,0.11257044,-2.14746095

>  <Name>
1akx_lig

>  <RI>
0

>  <Rbt.Current_Directory>
/home/itssahil/PROJECTS/Mol_Feturizer/New_Systems/rnas/1akx

>  <Rbt.Executable>
rbdock ($Id: //depot/dev/client3/rdock/2013.1/src/exe/rbdock.cxx#4 $)

>  <Rbt.Library>
libRbt.so (2013.1, Build901 2013/11/27)

>  <Rbt.Parameter_File>
/export/apps/rDock/src/rDock_2013.1_src/data/scripts/dock_solv.prm

>  <Rbt.Receptor>
prm/blind_docking_40.prm

>  <SCORE>
-43.4971

>  <SCORE.INTER>
-37.2323

>  <SCORE.INTER.CONST>
1

>  <SCORE.INTER.POLAR>
-5.88766

>  <SCORE.INTER.ROT>
8

>  <SCORE.INTER.SOLV>
13.0257

>  <SCORE.INTER.VDW>
-18.4712

>  <SCORE.INTER.norm>
-3.38476

>  <SCORE.INTRA>
-6.47655

>  <SCORE.INTRA.DIHEDRAL>
-15.7797

>  <SCORE.INTRA.DIHEDRAL.0>
21.6454

>  <SCORE.INTRA.POLAR>
0

>  <SCORE.INTRA.POLAR.0>
0

>  <SCORE.INTRA.REPUL>
0

>  <SCORE.INTRA.REPUL.0>
0

>  <SCORE.INTRA.SOLV>
0.474174

>  <SCORE.INTRA.SOLV.lig_0>
-16.5947

>  <SCORE.INTRA.VDW>
1.17623

>  <SCORE.INTRA.VDW.0>
-0.691398

>  <SCORE.INTRA.norm>
-0.588777

>  <SCORE.RESTR>
0.211751

>  <SCORE.RESTR.CAVITY>
0.211751

>  <SCORE.RESTR.norm>
0.0192501

>  <SCORE.SYSTEM>
0

>  <SCORE.SYSTEM.CONST>
0

>  <SCORE.SYSTEM.DIHEDRAL>
0

>  <SCORE.SYSTEM.SOLV>
0

>  <SCORE.SYSTEM.norm>
0

>  <SCORE.heavy>
11

>  <SCORE.norm>
-3.95428

>  <RMSD>
13.171

$$$$
1akx_lig
 OpenBabel11021811383D
libRbt.so/2013.1/901 2013/11/27
 11 10  0  0  0  0  0  0  0  0999 V2000
  -10.6989    4.3096   -4.2307 N   0  0  0  0  0  0  0  0  0  0  0  0
  -10.0541    3.6422   -3.0615 C   0  0  2  0  0  0  0  0  0  0  0  0
  -10.5255    2.1848   -2.9799 C   0  0  0  0  0  0  0  0  0  0  0  0
  -10.2802    1.4060   -3.8796 O   0  0  0  0  0  0  0  0  0  0  0  0
  -10.4348    4.3816   -1.7717 C   0  0  0  0  0  0  0  0  0  0  0  0
  -11.9594    4.4098   -1.6228 C   0  0  0  0  0  0  0  0  0  0  0  0
  -12.3263    4.8517   -0.2061 C   0  0  0  0  0  0  0  0  0  0  0  0
  -11.6929    6.1704    0.0806 N   0  0  0  0  0  0  0  0  0  0  0  0
  -10.7980    6.2797    1.0291 C   0  0  0  0  0  0  0  0  0  0  0  0
   -9.7772    7.0847    0.8826 N   0  0  0  0  0  0  0  0  0  0  0  0
  -10.9284    5.5870    2.1287 N   0  0  0  0  0  0  0  0  0  0  0  0
  2  1  1  6  0  0  0
  2  3  1  0  0  0  0
  2  5  1  0  0  0  0
  3  4  1  0  0  0  0
  5  6  1  0  0  0  0
  6  7  1  0  0  0  0
  7  8  1  0  0  0  0
  8  9  1  0  0  0  0
  9 10  1  0  0  0  0
  9 11  1  0  0  0  0
M  END
>  <CHROM.1>
-175.41896148,62.45409095,57.59371011,167.11887097,55.87040048,-116.57239062
143.58423466,32.33670354,99.22608321,-10.84945856,4.58662470,-1.25770002
-1.38262268,1.20788205,0.75520352

>  <Name>
1akx_lig

>  <RI>
0

>  <Rbt.Current_Directory>
/home/itssahil/PROJECTS/Mol_Feturizer/New_Systems/rnas/1akx

>  <Rbt.Executable>
rbdock ($Id: //depot/dev/client3/rdock/2013.1/src/exe/rbdock.cxx#4 $)

>  <Rbt.Library>
libRbt.so (2013.1, Build901 2013/11/27)

>  <Rbt.Parameter_File>
/export/apps/rDock/src/rDock_2013.1_src/data/scripts/dock_solv.prm

>  <Rbt.Receptor>
prm/blind_docking_100.prm

>  <SCORE>
-37.6924

>  <SCORE.INTER>
-31.9863

>  <SCORE.INTER.CONST>
1

>  <SCORE.INTER.POLAR>
-5.30737

>  <SCORE.INTER.ROT>
8

>  <SCORE.INTER.SOLV>
12.6047

>  <SCORE.INTER.VDW>
-16.7679

>  <SCORE.INTER.norm>
-2.90785

>  <SCORE.INTRA>
-5.81523

>  <SCORE.INTRA.DIHEDRAL>
-16.0168

>  <SCORE.INTRA.DIHEDRAL.0>
21.6454

>  <SCORE.INTRA.POLAR>
0

>  <SCORE.INTRA.POLAR.0>
0

>  <SCORE.INTRA.REPUL>
0

>  <SCORE.INTRA.REPUL.0>
0

>  <SCORE.INTRA.SOLV>
0.742778

>  <SCORE.INTRA.SOLV.lig_0>
-16.5947

>  <SCORE.INTRA.VDW>
1.82179

>  <SCORE.INTRA.VDW.0>
-0.691398

>  <SCORE.INTRA.norm>
-0.528658

>  <SCORE.RESTR>
0.109172

>  <SCORE.RESTR.CAVITY>
0.109172

>  <SCORE.RESTR.norm>
0.00992472

>  <SCORE.SYSTEM>
0

>  <SCORE.SYSTEM.CONST>
0

>  <SCORE.SYSTEM.DIHEDRAL>
0

>  <SCORE.SYSTEM.SOLV>
0

>  <SCORE.SYSTEM.norm>
0

>  <SCORE.heavy>
11

>  <SCORE.norm>
-3.42658

>  <RMSD>
13.179

$$$$
1akx_lig
 OpenBabel11021811383D
libRbt.so/2013.1/901 2013/11/27
 11 10  0  0  0  0  0  0  0  0999 V2000
   -9.5806    5.6831   -0.2058 N   0  0  0  0  0  0  0  0  0  0  0  0
  -10.8185    6.4765    0.0515 C   0  0  2  0  0  0  0  0  0  0  0  0
  -10.8151    6.9745    1.5023 C   0  0  0  0  0  0  0  0  0  0  0  0
   -9.9858    7.7801    1.8758 O   0  0  0  0  0  0  0  0  0  0  0  0
  -12.0533    5.5977   -0.1904 C   0  0  0  0  0  0  0  0  0  0  0  0
  -12.3261    5.4923   -1.6943 C   0  0  0  0  0  0  0  0  0  0  0  0
  -12.1825    4.0368   -2.1388 C   0  0  0  0  0  0  0  0  0  0  0  0
  -10.8096    3.5538   -1.8159 N   0  0  0  0  0  0  0  0  0  0  0  0
   -9.8451    3.6742   -2.6920 C   0  0  0  0  0  0  0  0  0  0  0  0
   -8.6746    3.1375   -2.4616 N   0  0  0  0  0  0  0  0  0  0  0  0
  -10.0546    4.3274   -3.8035 N   0  0  0  0  0  0  0  0  0  0  0  0
  2  1  1  1  0  0  0
  2  3  1  0  0  0  0
  2  5  1  0  0  0  0
  3  4  1  0  0  0  0
  5  6  1  0  0  0  0
  6  7  1  0  0  0  0
  7  8  1  0  0  0  0
  8  9  1  0  0  0  0
  9 10  1  0  0  0  0
  9 11  1  0  0  0  0
M  END
>  <CHROM.1>
100.92046714,66.03021043,-78.85943964,116.99589122,-58.44155160,-90.63388652
-173.44286218,75.81345588,98.82669180,-10.58396218,5.15000318,-1.05321868
-1.65688813,0.12240711,-2.25473191

>  <Name>
1akx_lig

>  <RI>
0

>  <Rbt.Current_Directory>
/home/itssahil/PROJECTS/Mol_Feturizer/New_Systems/rnas/1akx

>  <Rbt.Executable>
rbdock ($Id: //depot/dev/client3/rdock/2013.1/src/exe/rbdock.cxx#4 $)

>  <Rbt.Library>
libRbt.so (2013.1, Build901 2013/11/27)

>  <Rbt.Parameter_File>
/export/apps/rDock/src/rDock_2013.1_src/data/scripts/dock_solv.prm

>  <Rbt.Receptor>
prm/blind_docking_20.prm

>  <SCORE>
-35.2458

>  <SCORE.INTER>
-33.3658

>  <SCORE.INTER.CONST>
1

>  <SCORE.INTER.POLAR>
-5.79505

>  <SCORE.INTER.ROT>
8

>  <SCORE.INTER.SOLV>
12.3213

>  <SCORE.INTER.VDW>
-15.9675

>  <SCORE.INTER.norm>
-3.03326

>  <SCORE.INTRA>
-2.95011

>  <SCORE.INTRA.DIHEDRAL>
-6.53379

>  <SCORE.INTRA.DIHEDRAL.0>
21.6454

>  <SCORE.INTRA.POLAR>
-0.430539

>  <SCORE.INTRA.POLAR.0>
0

>  <SCORE.INTRA.REPUL>
0

>  <SCORE.INTRA.REPUL.0>
0

>  <SCORE.INTRA.SOLV>
2.28188

>  <SCORE.INTRA.SOLV.lig_0>
-16.5947

>  <SCORE.INTRA.VDW>
0.639679

>  <SCORE.INTRA.VDW.0>
-0.691398

>  <SCORE.INTRA.norm>
-0.268191

>  <SCORE.RESTR>
1.07016

>  <SCORE.RESTR.CAVITY>
1.07016

>  <SCORE.RESTR.norm>
0.0972873

>  <SCORE.SYSTEM>
0

>  <SCORE.SYSTEM.CONST>
0

>  <SCORE.SYSTEM.DIHEDRAL>
0

>  <SCORE.SYSTEM.SOLV>
0

>  <SCORE.SYSTEM.norm>
0

>  <SCORE.heavy>
11

>  <SCORE.norm>
-3.20416

>  <RMSD>
13.187

$$$$
1akx_lig
 OpenBabel11021811383D
libRbt.so/2013.1/901 2013/11/27
 11 10  0  0  0  0  0  0  0  0999 V2000
  -10.0160    7.6021    1.4375 N   0  0  0  0  0  0  0  0  0  0  0  0
  -11.1781    6.7615    1.0238 C   0  0  2  0  0  0  0  0  0  0  0  0
  -11.4739    5.7246    2.1146 C   0  0  0  0  0  0  0  0  0  0  0  0
  -11.6155    6.0692    3.2710 O   0  0  0  0  0  0  0  0  0  0  0  0
  -10.8531    6.0464   -0.2947 C   0  0  0  0  0  0  0  0  0  0  0  0
  -12.1254    5.4124   -0.8662 C   0  0  0  0  0  0  0  0  0  0  0  0
  -11.8028    4.7274   -2.1942 C   0  0  0  0  0  0  0  0  0  0  0  0
  -10.6554    3.7948   -2.0041 N   0  0  0  0  0  0  0  0  0  0  0  0
   -9.7617    3.6477   -2.9485 C   0  0  0  0  0  0  0  0  0  0  0  0
   -8.5107    3.9595   -2.7265 N   0  0  0  0  0  0  0  0  0  0  0  0
  -10.1196    3.1819   -4.1151 N   0  0  0  0  0  0  0  0  0  0  0  0
  2  1  1  1  0  0  0
  2  3  1  0  0  0  0
  2  5  1  0  0  0  0
  3  4  1  0  0  0  0
  5  6  1  0  0  0  0
  6  7  1  0  0  0  0
  7  8  1  0  0  0  0
  8  9  1  0  0  0  0
  9 10  1  0  0  0  0
  9 11  1  0  0  0  0
M  END
>  <CHROM.1>
-57.78486805,51.80308050,-168.73435054,178.78682499,52.69583829,-143.41099587
118.38357691,68.21677723,98.13976874,-10.69275040,5.18254758,-0.64690995
-1.77591405,-0.24278187,-2.12456487

>  <Name>
1akx_lig

>  <RI>
0

>  <Rbt.Current_Directory>
/home/itssahil/PROJECTS/Mol_Feturizer/New_Systems/rnas/1akx

>  <Rbt.Executable>
rbdock ($Id: //depot/dev/client3/rdock/2013.1/src/exe/rbdock.cxx#4 $)

>  <Rbt.Library>
libRbt.so (2013.1, Build901 2013/11/27)

>  <Rbt.Parameter_File>
/export/apps/rDock/src/rDock_2013.1_src/data/scripts/dock_solv.prm

>  <Rbt.Receptor>
prm/blind_docking_100.prm

>  <SCORE>
-40.9495

>  <SCORE.INTER>
-34.0335

>  <SCORE.INTER.CONST>
1

>  <SCORE.INTER.POLAR>
-5.67625

>  <SCORE.INTER.ROT>
8

>  <SCORE.INTER.SOLV>
12.4925

>  <SCORE.INTER.VDW>
-16.8657

>  <SCORE.INTER.norm>
-3.09396

>  <SCORE.INTRA>
-7.16581

>  <SCORE.INTRA.DIHEDRAL>
-15.8954

>  <SCORE.INTRA.DIHEDRAL.0>
21.6454

>  <SCORE.INTRA.POLAR>
0

>  <SCORE.INTRA.POLAR.0>
0

>  <SCORE.INTRA.REPUL>
0

>  <SCORE.INTRA.REPUL.0>
0

>  <SCORE.INTRA.SOLV>
0.482421

>  <SCORE.INTRA.SOLV.lig_0>
-16.5947

>  <SCORE.INTRA.VDW>
0.540699

>  <SCORE.INTRA.VDW.0>
-0.691398

>  <SCORE.INTRA.norm>
-0.651437

>  <SCORE.RESTR>
0.24985

>  <SCORE.RESTR.CAVITY>
0.24985

>  <SCORE.RESTR.norm>
0.0227137

>  <SCORE.SYSTEM>
0

>  <SCORE.SYSTEM.CONST>
0

>  <SCORE.SYSTEM.DIHEDRAL>
0

>  <SCORE.SYSTEM.SOLV>
0

>  <SCORE.SYSTEM.norm>
0

>  <SCORE.heavy>
11

>  <SCORE.norm>
-3.72268

>  <RMSD>
13.189

$$$$
1akx_lig
 OpenBabel11021811383D
libRbt.so/2013.1/901 2013/11/27
 11 10  0  0  0  0  0  0  0  0999 V2000
  -10.5709    7.3558    2.5822 N   0  0  0  0  0  0  0  0  0  0  0  0
  -11.8043    6.6646    2.1035 C   0  0  2  0  0  0  0  0  0  0  0  0
  -11.8226    5.2252    2.6330 C   0  0  0  0  0  0  0  0  0  0  0  0
  -12.0206    5.0039    3.8111 O   0  0  0  0  0  0  0  0  0  0  0  0
  -11.8247    6.6513    0.5690 C   0  0  0  0  0  0  0  0  0  0  0  0
  -10.5913    5.9108    0.0420 C   0  0  0  0  0  0  0  0  0  0  0  0
  -10.8470    5.4489   -1.3926 C   0  0  0  0  0  0  0  0  0  0  0  0
  -10.0831    4.1955   -1.6526 N   0  0  0  0  0  0  0  0  0  0  0  0
   -9.6650    3.9166   -2.8608 C   0  0  0  0  0  0  0  0  0  0  0  0
  -10.5226    3.7707   -3.8378 N   0  0  0  0  0  0  0  0  0  0  0  0
   -8.3859    3.7899   -3.0928 N   0  0  0  0  0  0  0  0  0  0  0  0
  2  1  1  6  0  0  0
  2  3  1  0  0  0  0
  2  5  1  0  0  0  0
  3  4  1  0  0  0  0
  5  6  1  0  0  0  0
  6  7  1  0  0  0  0
  7  8  1  0  0  0  0
  8  9  1  0  0  0  0
  9 10  1  0  0  0  0
  9 11  1  0  0  0  0
M  END
>  <CHROM.1>
65.17111521,71.22833627,59.92919810,159.38835518,-149.74671432,-150.64186274
-60.64111395,122.02405905,22.70769194,-10.70814422,5.25659910,-0.09031807
-2.51953928,-1.19807552,-2.84565883

>  <Name>
1akx_lig

>  <RI>
0

>  <Rbt.Current_Directory>
/home/itssahil/PROJECTS/Mol_Feturizer/New_Systems/rnas/1akx

>  <Rbt.Executable>
rbdock ($Id: //depot/dev/client3/rdock/2013.1/src/exe/rbdock.cxx#4 $)

>  <Rbt.Library>
libRbt.so (2013.1, Build901 2013/11/27)

>  <Rbt.Parameter_File>
/export/apps/rDock/src/rDock_2013.1_src/data/scripts/dock_solv.prm

>  <Rbt.Receptor>
prm/blind_docking_40.prm

>  <SCORE>
-25.0989

>  <SCORE.INTER>
-21.5161

>  <SCORE.INTER.CONST>
1

>  <SCORE.INTER.POLAR>
-3.73818

>  <SCORE.INTER.ROT>
8

>  <SCORE.INTER.SOLV>
12.0138

>  <SCORE.INTER.VDW>
-14.8214

>  <SCORE.INTER.norm>
-1.95601

>  <SCORE.INTRA>
-4.30316

>  <SCORE.INTRA.DIHEDRAL>
-11.9219

>  <SCORE.INTRA.DIHEDRAL.0>
21.6454

>  <SCORE.INTRA.POLAR>
0

>  <SCORE.INTRA.POLAR.0>
0

>  <SCORE.INTRA.REPUL>
0

>  <SCORE.INTRA.REPUL.0>
0

>  <SCORE.INTRA.SOLV>
0.208574

>  <SCORE.INTRA.SOLV.lig_0>
-16.5947

>  <SCORE.INTRA.VDW>
1.5535

>  <SCORE.INTRA.VDW.0>
-0.691398

>  <SCORE.INTRA.norm>
-0.391196

>  <SCORE.RESTR>
0.720356

>  <SCORE.RESTR.CAVITY>
0.720356

>  <SCORE.RESTR.norm>
0.0654869

>  <SCORE.SYSTEM>
0

>  <SCORE.SYSTEM.CONST>
0

>  <SCORE.SYSTEM.DIHEDRAL>
0

>  <SCORE.SYSTEM.SOLV>
0

>  <SCORE.SYSTEM.norm>
0

>  <SCORE.heavy>
11

>  <SCORE.norm>
-2.28172

>  <RMSD>
13.190

$$$$
1akx_lig
 OpenBabel11021811383D
libRbt.so/2013.1/901 2013/11/27
 11 10  0  0  0  0  0  0  0  0999 V2000
  -10.0323    7.6655    1.3866 N   0  0  0  0  0  0  0  0  0  0  0  0
  -11.0085    6.8992    0.5571 C   0  0  2  0  0  0  0  0  0  0  0  0
  -12.3952    6.9621    1.2098 C   0  0  0  0  0  0  0  0  0  0  0  0
  -12.5102    6.9226    2.4187 O   0  0  0  0  0  0  0  0  0  0  0  0
  -10.5549    5.4372    0.4469 C   0  0  0  0  0  0  0  0  0  0  0  0
   -9.7515    5.2411   -0.8429 C   0  0  0  0  0  0  0  0  0  0  0  0
  -10.7103    5.0832   -2.0230 C   0  0  0  0  0  0  0  0  0  0  0  0
   -9.9459    4.6496   -3.2271 N   0  0  0  0  0  0  0  0  0  0  0  0
   -9.4275    3.4493   -3.2822 C   0  0  0  0  0  0  0  0  0  0  0  0
   -8.1446    3.2761   -3.0940 N   0  0  0  0  0  0  0  0  0  0  0  0
  -10.1957    2.4199   -3.5197 N   0  0  0  0  0  0  0  0  0  0  0  0
  2  1  1  1  0  0  0
  2  3  1  0  0  0  0
  2  5  1  0  0  0  0
  3  4  1  0  0  0  0
  5  6  1  0  0  0  0
  6  7  1  0  0  0  0
  7  8  1  0  0  0  0
  8  9  1  0  0  0  0
  9 10  1  0  0  0  0
  9 11  1  0  0  0  0
M  END
>  <CHROM.1>
68.94918273,-37.57441859,-95.00046495,-80.64165433,-169.84924558,69.26072023
-103.27333025,-137.42216244,165.71709390,-10.40460396,5.27679012,-0.89228823
-1.91428112,-0.21869979,-2.30175206

>  <Name>
1akx_lig

>  <RI>
0

>  <Rbt.Current_Directory>
/home/itssahil/PROJECTS/Mol_Feturizer/New_Systems/rnas/1akx

>  <Rbt.Executable>
rbdock ($Id: //depot/dev/client3/rdock/2013.1/src/exe/rbdock.cxx#4 $)

>  <Rbt.Library>
libRbt.so (2013.1, Build901 2013/11/27)

>  <Rbt.Parameter_File>
/export/apps/rDock/src/rDock_2013.1_src/data/scripts/dock_solv.prm

>  <Rbt.Receptor>
prm/blind_docking_80.prm

>  <SCORE>
-32.5532

>  <SCORE.INTER>
-29.411

>  <SCORE.INTER.CONST>
1

>  <SCORE.INTER.POLAR>
-4.29088

>  <SCORE.INTER.ROT>
8

>  <SCORE.INTER.SOLV>
12.9646

>  <SCORE.INTER.VDW>
-18.5593

>  <SCORE.INTER.norm>
-2.67373

>  <SCORE.INTRA>
-4.53564

>  <SCORE.INTRA.DIHEDRAL>
-9.32839

>  <SCORE.INTRA.DIHEDRAL.0>
21.6454

>  <SCORE.INTRA.POLAR>
0

>  <SCORE.INTRA.POLAR.0>
0

>  <SCORE.INTRA.REPUL>
0

>  <SCORE.INTRA.REPUL.0>
0

>  <SCORE.INTRA.SOLV>
0.55727

>  <SCORE.INTRA.SOLV.lig_0>
-16.5947

>  <SCORE.INTRA.VDW>
-0.150079

>  <SCORE.INTRA.VDW.0>
-0.691398

>  <SCORE.INTRA.norm>
-0.412331

>  <SCORE.RESTR>
1.39347

>  <SCORE.RESTR.CAVITY>
1.39347

>  <SCORE.RESTR.norm>
0.126679

>  <SCORE.SYSTEM>
0

>  <SCORE.SYSTEM.CONST>
0

>  <SCORE.SYSTEM.DIHEDRAL>
0

>  <SCORE.SYSTEM.SOLV>
0

>  <SCORE.SYSTEM.norm>
0

>  <SCORE.heavy>
11

>  <SCORE.norm>
-2.95938

>  <RMSD>
13.196

$$$$
1akx_lig
 OpenBabel11021811383D
libRbt.so/2013.1/901 2013/11/27
 11 10  0  0  0  0  0  0  0  0999 V2000
   -9.6133    6.8651    0.0661 N   0  0  0  0  0  0  0  0  0  0  0  0
  -10.9787    6.7928    0.6648 C   0  0  2  0  0  0  0  0  0  0  0  0
  -10.8994    7.1196    2.1614 C   0  0  0  0  0  0  0  0  0  0  0  0
  -10.3139    8.1125    2.5456 O   0  0  0  0  0  0  0  0  0  0  0  0
  -11.5511    5.3818    0.4735 C   0  0  0  0  0  0  0  0  0  0  0  0
  -11.7516    5.1033   -1.0197 C   0  0  0  0  0  0  0  0  0  0  0  0
  -11.6363    3.6013   -1.2793 C   0  0  0  0  0  0  0  0  0  0  0  0
  -10.9575    3.3757   -2.5872 N   0  0  0  0  0  0  0  0  0  0  0  0
   -9.7111    3.7374   -2.7543 C   0  0  0  0  0  0  0  0  0  0  0  0
   -8.7392    2.9520   -2.3668 N   0  0  0  0  0  0  0  0  0  0  0  0
   -9.4369    4.8843   -3.3160 N   0  0  0  0  0  0  0  0  0  0  0  0
  2  1  1  1  0  0  0
  2  3  1  0  0  0  0
  2  5  1  0  0  0  0
  3  4  1  0  0  0  0
  5  6  1  0  0  0  0
  6  7  1  0  0  0  0
  7  8  1  0  0  0  0
  8  9  1  0  0  0  0
  9 10  1  0  0  0  0
  9 11  1  0  0  0  0
M  END
>  <CHROM.1>
159.22472477,49.92095810,-64.93146365,152.04446605,-143.21855675,64.92037133
83.48244291,-133.15526013,-178.11636971,-10.45017814,5.28497179,-0.68936621
-1.70016063,-0.42824352,-2.32856055

>  <Name>
1akx_lig

>  <RI>
0

>  <Rbt.Current_Directory>
/home/itssahil/PROJECTS/Mol_Feturizer/New_Systems/rnas/1akx

>  <Rbt.Executable>
rbdock ($Id: //depot/dev/client3/rdock/2013.1/src/exe/rbdock.cxx#4 $)

>  <Rbt.Library>
libRbt.so (2013.1, Build901 2013/11/27)

>  <Rbt.Parameter_File>
/export/apps/rDock/src/rDock_2013.1_src/data/scripts/dock_solv.prm

>  <Rbt.Receptor>
prm/blind_docking_100.prm

>  <SCORE>
-42.3175

>  <SCORE.INTER>
-38.4854

>  <SCORE.INTER.CONST>
1

>  <SCORE.INTER.POLAR>
-6.53928

>  <SCORE.INTER.ROT>
8

>  <SCORE.INTER.SOLV>
12.3467

>  <SCORE.INTER.VDW>
-16.9083

>  <SCORE.INTER.norm>
-3.49868

>  <SCORE.INTRA>
-3.83207

>  <SCORE.INTRA.DIHEDRAL>
-8.96857

>  <SCORE.INTRA.DIHEDRAL.0>
21.6454

>  <SCORE.INTRA.POLAR>
0

>  <SCORE.INTRA.POLAR.0>
0

>  <SCORE.INTRA.REPUL>
0

>  <SCORE.INTRA.REPUL.0>
0

>  <SCORE.INTRA.SOLV>
0.874647

>  <SCORE.INTRA.SOLV.lig_0>
-16.5947

>  <SCORE.INTRA.VDW>
0.214896

>  <SCORE.INTRA.VDW.0>
-0.691398

>  <SCORE.INTRA.norm>
-0.34837

>  <SCORE.RESTR>
0

>  <SCORE.RESTR.CAVITY>
0

>  <SCORE.RESTR.norm>
0

>  <SCORE.SYSTEM>
0

>  <SCORE.SYSTEM.CONST>
0

>  <SCORE.SYSTEM.DIHEDRAL>
0

>  <SCORE.SYSTEM.SOLV>
0

>  <SCORE.SYSTEM.norm>
0

>  <SCORE.heavy>
11

>  <SCORE.norm>
-3.84705

>  <RMSD>
13.197

$$$$
1akx_lig
 OpenBabel11021811383D
libRbt.so/2013.1/901 2013/11/27
 11 10  0  0  0  0  0  0  0  0999 V2000
  -10.0602    7.6715    1.5544 N   0  0  0  0  0  0  0  0  0  0  0  0
  -11.1804    6.7275    1.2678 C   0  0  2  0  0  0  0  0  0  0  0  0
  -12.0247    6.5355    2.5339 C   0  0  0  0  0  0  0  0  0  0  0  0
  -12.4737    7.4960    3.1273 O   0  0  0  0  0  0  0  0  0  0  0  0
  -10.6119    5.3756    0.8156 C   0  0  0  0  0  0  0  0  0  0  0  0
   -9.8449    5.5510   -0.4990 C   0  0  0  0  0  0  0  0  0  0  0  0
  -10.6104    4.8677   -1.6322 C   0  0  0  0  0  0  0  0  0  0  0  0
   -9.7628    4.8442   -2.8583 N   0  0  0  0  0  0  0  0  0  0  0  0
   -9.3253    3.7072   -3.3358 C   0  0  0  0  0  0  0  0  0  0  0  0
   -8.1047    3.3114   -3.0811 N   0  0  0  0  0  0  0  0  0  0  0  0
  -10.1128    2.9620   -4.0641 N   0  0  0  0  0  0  0  0  0  0  0  0
  2  1  1  1  0  0  0
  2  3  1  0  0  0  0
  2  5  1  0  0  0  0
  3  4  1  0  0  0  0
  5  6  1  0  0  0  0
  6  7  1  0  0  0  0
  7  8  1  0  0  0  0
  8  9  1  0  0  0  0
  9 10  1  0  0  0  0
  9 11  1  0  0  0  0
M  END
>  <CHROM.1>
-149.24184507,53.26873175,-63.43239116,-110.71880378,-170.80537150,113.44356201
-99.35208403,21.58928523,49.79486225,-10.35181886,5.38433055,-0.56305267
-1.90359487,-0.28641562,-2.22365613

>  <Name>
1akx_lig

>  <RI>
0

>  <Rbt.Current_Directory>
/home/afrankz/demos/rdock_decoys_rna/rnas/1akx

>  <Rbt.Executable>
rbdock ($Id: //depot/dev/client3/rdock/2013.1/src/exe/rbdock.cxx#4 $)

>  <Rbt.Library>
libRbt.so (2013.1, Build901 2013/11/27)

>  <Rbt.Parameter_File>
/export/apps/rDock/src/rDock_2013.1_src/data/scripts/dock_solv.prm

>  <Rbt.Receptor>
prm/blind_docking_100.prm

>  <SCORE>
-37.4967

>  <SCORE.INTER>
-33.7441

>  <SCORE.INTER.CONST>
1

>  <SCORE.INTER.POLAR>
-5.13077

>  <SCORE.INTER.ROT>
8

>  <SCORE.INTER.SOLV>
13.5861

>  <SCORE.INTER.VDW>
-18.8555

>  <SCORE.INTER.norm>
-3.06765

>  <SCORE.INTRA>
-4.18465

>  <SCORE.INTRA.DIHEDRAL>
-8.68325

>  <SCORE.INTRA.DIHEDRAL.0>
21.6454

>  <SCORE.INTRA.POLAR>
0

>  <SCORE.INTRA.POLAR.0>
0

>  <SCORE.INTRA.REPUL>
0

>  <SCORE.INTRA.REPUL.0>
0

>  <SCORE.INTRA.SOLV>
0.289747

>  <SCORE.INTRA.SOLV.lig_0>
-16.5947

>  <SCORE.INTRA.VDW>
0.0121042

>  <SCORE.INTRA.VDW.0>
-0.691398

>  <SCORE.INTRA.norm>
-0.380423

>  <SCORE.RESTR>
0.432022

>  <SCORE.RESTR.CAVITY>
0.432022

>  <SCORE.RESTR.norm>
0.0392747

>  <SCORE.SYSTEM>
0

>  <SCORE.SYSTEM.CONST>
0

>  <SCORE.SYSTEM.DIHEDRAL>
0

>  <SCORE.SYSTEM.SOLV>
0

>  <SCORE.SYSTEM.norm>
0

>  <SCORE.heavy>
11

>  <SCORE.norm>
-3.40879

>  <RMSD>
13.198

>  <RMSD>
13.198

$$$$
1akx_lig
 OpenBabel11021811383D
libRbt.so/2013.1/901 2013/11/27
 11 10  0  0  0  0  0  0  0  0999 V2000
  -10.0602    7.6715    1.5544 N   0  0  0  0  0  0  0  0  0  0  0  0
  -11.1804    6.7275    1.2678 C   0  0  2  0  0  0  0  0  0  0  0  0
  -12.0247    6.5355    2.5339 C   0  0  0  0  0  0  0  0  0  0  0  0
  -12.4737    7.4960    3.1273 O   0  0  0  0  0  0  0  0  0  0  0  0
  -10.6119    5.3756    0.8156 C   0  0  0  0  0  0  0  0  0  0  0  0
   -9.8449    5.5510   -0.4990 C   0  0  0  0  0  0  0  0  0  0  0  0
  -10.6104    4.8677   -1.6322 C   0  0  0  0  0  0  0  0  0  0  0  0
   -9.7628    4.8442   -2.8583 N   0  0  0  0  0  0  0  0  0  0  0  0
   -9.3253    3.7072   -3.3358 C   0  0  0  0  0  0  0  0  0  0  0  0
   -8.1047    3.3114   -3.0811 N   0  0  0  0  0  0  0  0  0  0  0  0
  -10.1128    2.9620   -4.0641 N   0  0  0  0  0  0  0  0  0  0  0  0
  2  1  1  1  0  0  0
  2  3  1  0  0  0  0
  2  5  1  0  0  0  0
  3  4  1  0  0  0  0
  5  6  1  0  0  0  0
  6  7  1  0  0  0  0
  7  8  1  0  0  0  0
  8  9  1  0  0  0  0
  9 10  1  0  0  0  0
  9 11  1  0  0  0  0
M  END
>  <CHROM.1>
-149.24184507,53.26873175,-63.43239116,-110.71880378,-170.80537150,113.44356201
-99.35208403,21.58928523,49.79486225,-10.35181886,5.38433055,-0.56305267
-1.90359487,-0.28641562,-2.22365613

>  <Name>
1akx_lig

>  <RI>
0

>  <Rbt.Current_Directory>
/home/afrankz/demos/rdock_decoys_rna/rnas/1akx

>  <Rbt.Executable>
rbdock ($Id: //depot/dev/client3/rdock/2013.1/src/exe/rbdock.cxx#4 $)

>  <Rbt.Library>
libRbt.so (2013.1, Build901 2013/11/27)

>  <Rbt.Parameter_File>
/export/apps/rDock/src/rDock_2013.1_src/data/scripts/dock_solv.prm

>  <Rbt.Receptor>
prm/blind_docking_100.prm

>  <SCORE>
-37.4967

>  <SCORE.INTER>
-33.7441

>  <SCORE.INTER.CONST>
1

>  <SCORE.INTER.POLAR>
-5.13077

>  <SCORE.INTER.ROT>
8

>  <SCORE.INTER.SOLV>
13.5861

>  <SCORE.INTER.VDW>
-18.8555

>  <SCORE.INTER.norm>
-3.06765

>  <SCORE.INTRA>
-4.18465

>  <SCORE.INTRA.DIHEDRAL>
-8.68325

>  <SCORE.INTRA.DIHEDRAL.0>
21.6454

>  <SCORE.INTRA.POLAR>
0

>  <SCORE.INTRA.POLAR.0>
0

>  <SCORE.INTRA.REPUL>
0

>  <SCORE.INTRA.REPUL.0>
0

>  <SCORE.INTRA.SOLV>
0.289747

>  <SCORE.INTRA.SOLV.lig_0>
-16.5947

>  <SCORE.INTRA.VDW>
0.0121042

>  <SCORE.INTRA.VDW.0>
-0.691398

>  <SCORE.INTRA.norm>
-0.380423

>  <SCORE.RESTR>
0.432022

>  <SCORE.RESTR.CAVITY>
0.432022

>  <SCORE.RESTR.norm>
0.0392747

>  <SCORE.SYSTEM>
0

>  <SCORE.SYSTEM.CONST>
0

>  <SCORE.SYSTEM.DIHEDRAL>
0

>  <SCORE.SYSTEM.SOLV>
0

>  <SCORE.SYSTEM.norm>
0

>  <SCORE.heavy>
11

>  <SCORE.norm>
-3.40879

>  <RMSD>
13.198

>  <RMSD>
13.198

$$$$
1akx_lig
 OpenBabel11021811383D
libRbt.so/2013.1/901 2013/11/27
 11 10  0  0  0  0  0  0  0  0999 V2000
  -10.1117    7.6182    1.2703 N   0  0  0  0  0  0  0  0  0  0  0  0
  -11.2105    6.6443    1.0016 C   0  0  2  0  0  0  0  0  0  0  0  0
  -12.0688    6.4802    2.2622 C   0  0  0  0  0  0  0  0  0  0  0  0
  -12.5341    7.4527    2.8224 O   0  0  0  0  0  0  0  0  0  0  0  0
  -10.6114    5.2884    0.6040 C   0  0  0  0  0  0  0  0  0  0  0  0
   -9.9104    5.4110   -0.7528 C   0  0  0  0  0  0  0  0  0  0  0  0
  -10.8968    5.0709   -1.8700 C   0  0  0  0  0  0  0  0  0  0  0  0
  -10.1421    4.6753   -3.0932 N   0  0  0  0  0  0  0  0  0  0  0  0
   -9.4891    3.5418   -3.1275 C   0  0  0  0  0  0  0  0  0  0  0  0
   -8.1983    3.5309   -3.3396 N   0  0  0  0  0  0  0  0  0  0  0  0
  -10.1283    2.4178   -2.9427 N   0  0  0  0  0  0  0  0  0  0  0  0
  2  1  1  1  0  0  0
  2  3  1  0  0  0  0
  2  5  1  0  0  0  0
  3  4  1  0  0  0  0
  5  6  1  0  0  0  0
  6  7  1  0  0  0  0
  7  8  1  0  0  0  0
  8  9  1  0  0  0  0
  9 10  1  0  0  0  0
  9 11  1  0  0  0  0
M  END
>  <CHROM.1>
92.22717664,52.65127405,-67.25885210,-91.36937501,-158.31581374,70.09216336
-120.70458348,-70.20612890,-25.93306430,-10.45931002,5.29859980,-0.64843857
-1.96685918,-0.55552315,-2.39445073

>  <Name>
1akx_lig

>  <RI>
0

>  <Rbt.Current_Directory>
/home/itssahil/PROJECTS/Mol_Feturizer/New_Systems/rnas/1akx

>  <Rbt.Executable>
rbdock ($Id: //depot/dev/client3/rdock/2013.1/src/exe/rbdock.cxx#4 $)

>  <Rbt.Library>
libRbt.so (2013.1, Build901 2013/11/27)

>  <Rbt.Parameter_File>
/export/apps/rDock/src/rDock_2013.1_src/data/scripts/dock_solv.prm

>  <Rbt.Receptor>
prm/blind_docking_40.prm

>  <SCORE>
-36.6992

>  <SCORE.INTER>
-32.91

>  <SCORE.INTER.CONST>
1

>  <SCORE.INTER.POLAR>
-5.24974

>  <SCORE.INTER.ROT>
8

>  <SCORE.INTER.SOLV>
12.3156

>  <SCORE.INTER.VDW>
-17.4794

>  <SCORE.INTER.norm>
-2.99182

>  <SCORE.INTRA>
-3.97823

>  <SCORE.INTRA.DIHEDRAL>
-9.56188

>  <SCORE.INTRA.DIHEDRAL.0>
21.6454

>  <SCORE.INTRA.POLAR>
0

>  <SCORE.INTRA.POLAR.0>
0

>  <SCORE.INTRA.REPUL>
0

>  <SCORE.INTRA.REPUL.0>
0

>  <SCORE.INTRA.SOLV>
0.477244

>  <SCORE.INTRA.SOLV.lig_0>
-16.5947

>  <SCORE.INTRA.VDW>
0.564093

>  <SCORE.INTRA.VDW.0>
-0.691398

>  <SCORE.INTRA.norm>
-0.361657

>  <SCORE.RESTR>
0.189036

>  <SCORE.RESTR.CAVITY>
0.189036

>  <SCORE.RESTR.norm>
0.0171851

>  <SCORE.SYSTEM>
0

>  <SCORE.SYSTEM.CONST>
0

>  <SCORE.SYSTEM.DIHEDRAL>
0

>  <SCORE.SYSTEM.SOLV>
0

>  <SCORE.SYSTEM.norm>
0

>  <SCORE.heavy>
11

>  <SCORE.norm>
-3.33629

>  <RMSD>
13.213

$$$$
1akx_lig
 OpenBabel11021811383D
libRbt.so/2013.1/901 2013/11/27
 11 10  0  0  0  0  0  0  0  0999 V2000
   -9.7303    6.6434    1.6788 N   0  0  0  0  0  0  0  0  0  0  0  0
  -10.7289    7.0240    0.6367 C   0  0  2  0  0  0  0  0  0  0  0  0
  -11.8381    7.8694    1.2752 C   0  0  0  0  0  0  0  0  0  0  0  0
  -12.3755    7.5072    2.3029 O   0  0  0  0  0  0  0  0  0  0  0  0
  -11.3357    5.7574    0.0178 C   0  0  0  0  0  0  0  0  0  0  0  0
  -10.4503    5.2694   -1.1334 C   0  0  0  0  0  0  0  0  0  0  0  0
  -11.1821    4.1769   -1.9131 C   0  0  0  0  0  0  0  0  0  0  0  0
  -10.5104    3.9730   -3.2281 N   0  0  0  0  0  0  0  0  0  0  0  0
   -9.4451    3.2178   -3.3144 C   0  0  0  0  0  0  0  0  0  0  0  0
   -9.5502    1.9710   -3.6962 N   0  0  0  0  0  0  0  0  0  0  0  0
   -8.2720    3.7133   -3.0242 N   0  0  0  0  0  0  0  0  0  0  0  0
  2  1  1  1  0  0  0
  2  3  1  0  0  0  0
  2  5  1  0  0  0  0
  3  4  1  0  0  0  0
  5  6  1  0  0  0  0
  6  7  1  0  0  0  0
  7  8  1  0  0  0  0
  8  9  1  0  0  0  0
  9 10  1  0  0  0  0
  9 11  1  0  0  0  0
M  END
>  <CHROM.1>
125.22610254,-48.32339059,-86.34572775,-169.34918302,164.30254116,82.17150148
97.52899191,-8.08647682,133.36036429,-10.46039822,5.18108544,-0.92656063
-1.85901773,0.09289913,-2.25070992

>  <Name>
1akx_lig

>  <RI>
0

>  <Rbt.Current_Directory>
/home/itssahil/PROJECTS/Mol_Feturizer/New_Systems/rnas/1akx

>  <Rbt.Executable>
rbdock ($Id: //depot/dev/client3/rdock/2013.1/src/exe/rbdock.cxx#4 $)

>  <Rbt.Library>
libRbt.so (2013.1, Build901 2013/11/27)

>  <Rbt.Parameter_File>
/export/apps/rDock/src/rDock_2013.1_src/data/scripts/dock_solv.prm

>  <Rbt.Receptor>
prm/blind_docking_80.prm

>  <SCORE>
-39.6928

>  <SCORE.INTER>
-36.7016

>  <SCORE.INTER.CONST>
1

>  <SCORE.INTER.POLAR>
-5.58675

>  <SCORE.INTER.ROT>
8

>  <SCORE.INTER.SOLV>
13.3053

>  <SCORE.INTER.VDW>
-19.2137

>  <SCORE.INTER.norm>
-3.33651

>  <SCORE.INTRA>
-3.64317

>  <SCORE.INTRA.DIHEDRAL>
-9.10474

>  <SCORE.INTRA.DIHEDRAL.0>
21.6454

>  <SCORE.INTRA.POLAR>
0

>  <SCORE.INTRA.POLAR.0>
0

>  <SCORE.INTRA.REPUL>
0

>  <SCORE.INTRA.REPUL.0>
0

>  <SCORE.INTRA.SOLV>
0.452142

>  <SCORE.INTRA.SOLV.lig_0>
-16.5947

>  <SCORE.INTRA.VDW>
0.683128

>  <SCORE.INTRA.VDW.0>
-0.691398

>  <SCORE.INTRA.norm>
-0.331197

>  <SCORE.RESTR>
0.651974

>  <SCORE.RESTR.CAVITY>
0.651974

>  <SCORE.RESTR.norm>
0.0592703

>  <SCORE.SYSTEM>
0

>  <SCORE.SYSTEM.CONST>
0

>  <SCORE.SYSTEM.DIHEDRAL>
0

>  <SCORE.SYSTEM.SOLV>
0

>  <SCORE.SYSTEM.norm>
0

>  <SCORE.heavy>
11

>  <SCORE.norm>
-3.60843

>  <RMSD>
13.221

$$$$
1akx_lig
 OpenBabel11021811383D
libRbt.so/2013.1/901 2013/11/27
 11 10  0  0  0  0  0  0  0  0999 V2000
   -8.3887    3.7826   -2.7828 N   0  0  0  0  0  0  0  0  0  0  0  0
   -9.8350    3.6717   -2.4306 C   0  0  2  0  0  0  0  0  0  0  0  0
  -10.6877    3.9539   -3.6740 C   0  0  0  0  0  0  0  0  0  0  0  0
  -10.5836    3.2576   -4.6642 O   0  0  0  0  0  0  0  0  0  0  0  0
  -10.1761    4.6845   -1.3291 C   0  0  0  0  0  0  0  0  0  0  0  0
  -11.3717    4.1796   -0.5149 C   0  0  0  0  0  0  0  0  0  0  0  0
  -12.3393    5.3348   -0.2580 C   0  0  0  0  0  0  0  0  0  0  0  0
  -11.5726    6.5321    0.1905 N   0  0  0  0  0  0  0  0  0  0  0  0
  -10.7116    6.4345    1.1711 C   0  0  0  0  0  0  0  0  0  0  0  0
  -10.9429    5.6261    2.1733 N   0  0  0  0  0  0  0  0  0  0  0  0
   -9.6143    7.1425    1.1454 N   0  0  0  0  0  0  0  0  0  0  0  0
  2  1  1  6  0  0  0
  2  3  1  0  0  0  0
  2  5  1  0  0  0  0
  3  4  1  0  0  0  0
  5  6  1  0  0  0  0
  6  7  1  0  0  0  0
  7  8  1  0  0  0  0
  8  9  1  0  0  0  0
  9 10  1  0  0  0  0
  9 11  1  0  0  0  0
M  END
>  <CHROM.1>
62.98521072,60.32607801,-153.37626036,-136.84499653,-46.05017725,-50.86824582
-35.07731203,-75.46958261,-155.76858638,-10.51885012,4.96974328,-1.00681927
-1.41566518,0.06290037,1.05136688

>  <Name>
1akx_lig

>  <RI>
0

>  <Rbt.Current_Directory>
/home/itssahil/PROJECTS/Mol_Feturizer/New_Systems/rnas/1akx

>  <Rbt.Executable>
rbdock ($Id: //depot/dev/client3/rdock/2013.1/src/exe/rbdock.cxx#4 $)

>  <Rbt.Library>
libRbt.so (2013.1, Build901 2013/11/27)

>  <Rbt.Parameter_File>
/export/apps/rDock/src/rDock_2013.1_src/data/scripts/dock_solv.prm

>  <Rbt.Receptor>
prm/blind_docking_80.prm

>  <SCORE>
-33.8359

>  <SCORE.INTER>
-32.2795

>  <SCORE.INTER.CONST>
1

>  <SCORE.INTER.POLAR>
-6.06871

>  <SCORE.INTER.ROT>
8

>  <SCORE.INTER.SOLV>
13.5128

>  <SCORE.INTER.VDW>
-14.7282

>  <SCORE.INTER.norm>
-2.9345

>  <SCORE.INTRA>
-2.11646

>  <SCORE.INTRA.DIHEDRAL>
-8.69605

>  <SCORE.INTRA.DIHEDRAL.0>
21.6454

>  <SCORE.INTRA.POLAR>
0

>  <SCORE.INTRA.POLAR.0>
0

>  <SCORE.INTRA.REPUL>
0

>  <SCORE.INTRA.REPUL.0>
0

>  <SCORE.INTRA.SOLV>
0.989934

>  <SCORE.INTRA.SOLV.lig_0>
-16.5947

>  <SCORE.INTRA.VDW>
1.73659

>  <SCORE.INTRA.VDW.0>
-0.691398

>  <SCORE.INTRA.norm>
-0.192406

>  <SCORE.RESTR>
0.560044

>  <SCORE.RESTR.CAVITY>
0.560044

>  <SCORE.RESTR.norm>
0.0509131

>  <SCORE.SYSTEM>
0

>  <SCORE.SYSTEM.CONST>
0

>  <SCORE.SYSTEM.DIHEDRAL>
0

>  <SCORE.SYSTEM.SOLV>
0

>  <SCORE.SYSTEM.norm>
0

>  <SCORE.heavy>
11

>  <SCORE.norm>
-3.07599

>  <RMSD>
13.231

$$$$
1akx_lig
 OpenBabel11021811383D
libRbt.so/2013.1/901 2013/11/27
 11 10  0  0  0  0  0  0  0  0999 V2000
  -10.9499    4.3009   -4.0894 N   0  0  0  0  0  0  0  0  0  0  0  0
  -10.3693    3.5363   -2.9463 C   0  0  2  0  0  0  0  0  0  0  0  0
  -10.2257    2.0603   -3.3382 C   0  0  0  0  0  0  0  0  0  0  0  0
  -11.1969    1.3306   -3.3595 O   0  0  0  0  0  0  0  0  0  0  0  0
  -11.2892    3.6595   -1.7240 C   0  0  0  0  0  0  0  0  0  0  0  0
  -11.2348    5.0901   -1.1782 C   0  0  0  0  0  0  0  0  0  0  0  0
   -9.8337    5.3783   -0.6392 C   0  0  0  0  0  0  0  0  0  0  0  0
   -9.8079    6.7387   -0.0302 N   0  0  0  0  0  0  0  0  0  0  0  0
  -10.4832    6.9846    1.0634 C   0  0  0  0  0  0  0  0  0  0  0  0
   -9.8642    7.0873    2.2113 N   0  0  0  0  0  0  0  0  0  0  0  0
  -11.7795    7.1341    1.0069 N   0  0  0  0  0  0  0  0  0  0  0  0
  2  1  1  6  0  0  0
  2  3  1  0  0  0  0
  2  5  1  0  0  0  0
  3  4  1  0  0  0  0
  5  6  1  0  0  0  0
  6  7  1  0  0  0  0
  7  8  1  0  0  0  0
  8  9  1  0  0  0  0
  9 10  1  0  0  0  0
  9 11  1  0  0  0  0
M  END
>  <CHROM.1>
78.30766707,-76.75941449,-69.88327666,-65.62801350,-176.39887638,67.61946119
104.31248797,9.69941341,-103.37880865,-10.65653441,4.86378438,-1.19388766
1.90690078,1.40025223,-2.66618871

>  <Name>
1akx_lig

>  <RI>
0

>  <Rbt.Current_Directory>
/home/itssahil/PROJECTS/Mol_Feturizer/New_Systems/rnas/1akx

>  <Rbt.Executable>
rbdock ($Id: //depot/dev/client3/rdock/2013.1/src/exe/rbdock.cxx#4 $)

>  <Rbt.Library>
libRbt.so (2013.1, Build901 2013/11/27)

>  <Rbt.Parameter_File>
/export/apps/rDock/src/rDock_2013.1_src/data/scripts/dock_solv.prm

>  <Rbt.Receptor>
prm/blind_docking_20.prm

>  <SCORE>
-30.4577

>  <SCORE.INTER>
-25.7689

>  <SCORE.INTER.CONST>
1

>  <SCORE.INTER.POLAR>
-3.70902

>  <SCORE.INTER.ROT>
8

>  <SCORE.INTER.SOLV>
13.047

>  <SCORE.INTER.VDW>
-18.0982

>  <SCORE.INTER.norm>
-2.34263

>  <SCORE.INTRA>
-5.83901

>  <SCORE.INTRA.DIHEDRAL>
-14.5569

>  <SCORE.INTRA.DIHEDRAL.0>
21.6454

>  <SCORE.INTRA.POLAR>
0

>  <SCORE.INTRA.POLAR.0>
0

>  <SCORE.INTRA.REPUL>
0

>  <SCORE.INTRA.REPUL.0>
0

>  <SCORE.INTRA.SOLV>
0.661287

>  <SCORE.INTRA.SOLV.lig_0>
-16.5947

>  <SCORE.INTRA.VDW>
1.1088

>  <SCORE.INTRA.VDW.0>
-0.691398

>  <SCORE.INTRA.norm>
-0.530819

>  <SCORE.RESTR>
1.15022

>  <SCORE.RESTR.CAVITY>
1.15022

>  <SCORE.RESTR.norm>
0.104565

>  <SCORE.SYSTEM>
0

>  <SCORE.SYSTEM.CONST>
0

>  <SCORE.SYSTEM.DIHEDRAL>
0

>  <SCORE.SYSTEM.SOLV>
0

>  <SCORE.SYSTEM.norm>
0

>  <SCORE.heavy>
11

>  <SCORE.norm>
-2.76888

>  <RMSD>
13.232

$$$$
1akx_lig
 OpenBabel11021811383D
libRbt.so/2013.1/901 2013/11/27
 11 10  0  0  0  0  0  0  0  0999 V2000
   -9.6243    6.5957   -0.0565 N   0  0  0  0  0  0  0  0  0  0  0  0
  -11.0523    6.2011    0.1265 C   0  0  2  0  0  0  0  0  0  0  0  0
  -11.5634    6.7373    1.4696 C   0  0  0  0  0  0  0  0  0  0  0  0
  -11.5935    7.9326    1.6853 O   0  0  0  0  0  0  0  0  0  0  0  0
  -11.1712    4.6712    0.1016 C   0  0  0  0  0  0  0  0  0  0  0  0
  -12.3492    4.2587   -0.7870 C   0  0  0  0  0  0  0  0  0  0  0  0
  -11.9755    4.4580   -2.2558 C   0  0  0  0  0  0  0  0  0  0  0  0
  -10.9542    3.4456   -2.6484 N   0  0  0  0  0  0  0  0  0  0  0  0
   -9.7037    3.7973   -2.8064 C   0  0  0  0  0  0  0  0  0  0  0  0
   -9.4058    4.9199   -3.4083 N   0  0  0  0  0  0  0  0  0  0  0  0
   -8.7501    3.0271   -2.3555 N   0  0  0  0  0  0  0  0  0  0  0  0
  2  1  1  1  0  0  0
  2  3  1  0  0  0  0
  2  5  1  0  0  0  0
  3  4  1  0  0  0  0
  5  6  1  0  0  0  0
  6  7  1  0  0  0  0
  7  8  1  0  0  0  0
  8  9  1  0  0  0  0
  9 10  1  0  0  0  0
  9 11  1  0  0  0  0
M  END
>  <CHROM.1>
55.90858836,61.78033654,-134.57321924,73.89649926,70.13591946,-105.47156419
-41.41835436,-176.78060673,-128.56853515,-10.68443192,5.11836477,-0.99873555
-1.86294026,-0.34301223,-2.36955307

>  <Name>
1akx_lig

>  <RI>
0

>  <Rbt.Current_Directory>
/home/itssahil/PROJECTS/Mol_Feturizer/New_Systems/rnas/1akx

>  <Rbt.Executable>
rbdock ($Id: //depot/dev/client3/rdock/2013.1/src/exe/rbdock.cxx#4 $)

>  <Rbt.Library>
libRbt.so (2013.1, Build901 2013/11/27)

>  <Rbt.Parameter_File>
/export/apps/rDock/src/rDock_2013.1_src/data/scripts/dock_solv.prm

>  <Rbt.Receptor>
prm/blind_docking_100.prm

>  <SCORE>
-37.8812

>  <SCORE.INTER>
-32.8671

>  <SCORE.INTER.CONST>
1

>  <SCORE.INTER.POLAR>
-5.19724

>  <SCORE.INTER.ROT>
8

>  <SCORE.INTER.SOLV>
11.2358

>  <SCORE.INTER.VDW>
-17.2659

>  <SCORE.INTER.norm>
-2.98792

>  <SCORE.INTRA>
-5.01409

>  <SCORE.INTRA.DIHEDRAL>
-10.5761

>  <SCORE.INTRA.DIHEDRAL.0>
21.6454

>  <SCORE.INTRA.POLAR>
0

>  <SCORE.INTRA.POLAR.0>
0

>  <SCORE.INTRA.REPUL>
0

>  <SCORE.INTRA.REPUL.0>
0

>  <SCORE.INTRA.SOLV>
1.36493

>  <SCORE.INTRA.SOLV.lig_0>
-16.5947

>  <SCORE.INTRA.VDW>
-0.408485

>  <SCORE.INTRA.VDW.0>
-0.691398

>  <SCORE.INTRA.norm>
-0.455826

>  <SCORE.RESTR>
0

>  <SCORE.RESTR.CAVITY>
0

>  <SCORE.RESTR.norm>
0

>  <SCORE.SYSTEM>
0

>  <SCORE.SYSTEM.CONST>
0

>  <SCORE.SYSTEM.DIHEDRAL>
0

>  <SCORE.SYSTEM.SOLV>
0

>  <SCORE.SYSTEM.norm>
0

>  <SCORE.heavy>
11

>  <SCORE.norm>
-3.44375

>  <RMSD>
13.234

$$$$
1akx_lig
 OpenBabel11021811383D
libRbt.so/2013.1/901 2013/11/27
 11 10  0  0  0  0  0  0  0  0999 V2000
   -9.6603    7.0878    0.3969 N   0  0  0  0  0  0  0  0  0  0  0  0
  -11.0780    7.0424    0.8619 C   0  0  2  0  0  0  0  0  0  0  0  0
  -11.1523    7.5016    2.3235 C   0  0  0  0  0  0  0  0  0  0  0  0
  -10.5300    8.4763    2.6961 O   0  0  0  0  0  0  0  0  0  0  0  0
  -11.6137    5.6091    0.7425 C   0  0  0  0  0  0  0  0  0  0  0  0
  -11.5751    5.1632   -0.7227 C   0  0  0  0  0  0  0  0  0  0  0  0
  -10.1810    4.6338   -1.0590 C   0  0  0  0  0  0  0  0  0  0  0  0
   -9.9980    4.6265   -2.5385 N   0  0  0  0  0  0  0  0  0  0  0  0
   -9.4733    3.5854   -3.1329 C   0  0  0  0  0  0  0  0  0  0  0  0
  -10.2354    2.5981   -3.5274 N   0  0  0  0  0  0  0  0  0  0  0  0
   -8.1844    3.5355   -3.3385 N   0  0  0  0  0  0  0  0  0  0  0  0
  2  1  1  1  0  0  0
  2  3  1  0  0  0  0
  2  5  1  0  0  0  0
  3  4  1  0  0  0  0
  5  6  1  0  0  0  0
  6  7  1  0  0  0  0
  7  8  1  0  0  0  0
  8  9  1  0  0  0  0
  9 10  1  0  0  0  0
  9 11  1  0  0  0  0
M  END
>  <CHROM.1>
59.49134838,43.95149072,-61.26772786,84.14623045,-161.41808530,-134.77209458
88.27213664,51.39811562,-100.12093608,-10.28861728,5.44750215,-0.68485134
-1.78440586,-0.35585205,-2.33555319

>  <Name>
1akx_lig

>  <RI>
0

>  <Rbt.Current_Directory>
/home/itssahil/PROJECTS/Mol_Feturizer/New_Systems/rnas/1akx

>  <Rbt.Executable>
rbdock ($Id: //depot/dev/client3/rdock/2013.1/src/exe/rbdock.cxx#4 $)

>  <Rbt.Library>
libRbt.so (2013.1, Build901 2013/11/27)

>  <Rbt.Parameter_File>
/export/apps/rDock/src/rDock_2013.1_src/data/scripts/dock_solv.prm

>  <Rbt.Receptor>
prm/blind_docking_40.prm

>  <SCORE>
-36.266

>  <SCORE.INTER>
-32.7885

>  <SCORE.INTER.CONST>
1

>  <SCORE.INTER.POLAR>
-5.85705

>  <SCORE.INTER.ROT>
8

>  <SCORE.INTER.SOLV>
13.2905

>  <SCORE.INTER.VDW>
-15.699

>  <SCORE.INTER.norm>
-2.98077

>  <SCORE.INTRA>
-3.6779

>  <SCORE.INTRA.DIHEDRAL>
-12.6105

>  <SCORE.INTRA.DIHEDRAL.0>
21.6454

>  <SCORE.INTRA.POLAR>
0

>  <SCORE.INTRA.POLAR.0>
0

>  <SCORE.INTRA.REPUL>
0

>  <SCORE.INTRA.REPUL.0>
0

>  <SCORE.INTRA.SOLV>
0.709107

>  <SCORE.INTRA.SOLV.lig_0>
-16.5947

>  <SCORE.INTRA.VDW>
2.27282

>  <SCORE.INTRA.VDW.0>
-0.691398

>  <SCORE.INTRA.norm>
-0.334354

>  <SCORE.RESTR>
0.200396

>  <SCORE.RESTR.CAVITY>
0.200396

>  <SCORE.RESTR.norm>
0.0182178

>  <SCORE.SYSTEM>
0

>  <SCORE.SYSTEM.CONST>
0

>  <SCORE.SYSTEM.DIHEDRAL>
0

>  <SCORE.SYSTEM.SOLV>
0

>  <SCORE.SYSTEM.norm>
0

>  <SCORE.heavy>
11

>  <SCORE.norm>
-3.29691

>  <RMSD>
13.238

$$$$
1akx_lig
 OpenBabel11021811383D
libRbt.so/2013.1/901 2013/11/27
 11 10  0  0  0  0  0  0  0  0999 V2000
   -9.8964    7.6059    1.1561 N   0  0  0  0  0  0  0  0  0  0  0  0
  -11.0868    6.8467    0.6714 C   0  0  2  0  0  0  0  0  0  0  0  0
  -12.2606    7.0661    1.6342 C   0  0  0  0  0  0  0  0  0  0  0  0
  -13.3120    6.4804    1.4682 O   0  0  0  0  0  0  0  0  0  0  0  0
  -10.7497    5.3512    0.5996 C   0  0  0  0  0  0  0  0  0  0  0  0
   -9.9636    5.0595   -0.6828 C   0  0  0  0  0  0  0  0  0  0  0  0
  -10.9254    5.0021   -1.8696 C   0  0  0  0  0  0  0  0  0  0  0  0
  -10.1600    4.7004   -3.1127 N   0  0  0  0  0  0  0  0  0  0  0  0
   -9.5171    3.5669   -3.2325 C   0  0  0  0  0  0  0  0  0  0  0  0
  -10.1735    2.4355   -3.2508 N   0  0  0  0  0  0  0  0  0  0  0  0
   -8.2154    3.5664   -3.3406 N   0  0  0  0  0  0  0  0  0  0  0  0
  2  1  1  1  0  0  0
  2  3  1  0  0  0  0
  2  5  1  0  0  0  0
  3  4  1  0  0  0  0
  5  6  1  0  0  0  0
  6  7  1  0  0  0  0
  7  8  1  0  0  0  0
  8  9  1  0  0  0  0
  9 10  1  0  0  0  0
  9 11  1  0  0  0  0
M  END
>  <CHROM.1>
6.33700878,-176.03103666,-80.01098411,-78.42697370,-179.25773879,62.76941003
64.18904489,149.38921277,98.35108040,-10.54864890,5.24642595,-0.90900638
-1.96855844,-0.27978884,-2.33298406

>  <Name>
1akx_lig

>  <RI>
0

>  <Rbt.Current_Directory>
/home/itssahil/PROJECTS/Mol_Feturizer/New_Systems/rnas/1akx

>  <Rbt.Executable>
rbdock ($Id: //depot/dev/client3/rdock/2013.1/src/exe/rbdock.cxx#4 $)

>  <Rbt.Library>
libRbt.so (2013.1, Build901 2013/11/27)

>  <Rbt.Parameter_File>
/export/apps/rDock/src/rDock_2013.1_src/data/scripts/dock_solv.prm

>  <Rbt.Receptor>
prm/blind_docking_100.prm

>  <SCORE>
-35.3383

>  <SCORE.INTER>
-32.1678

>  <SCORE.INTER.CONST>
1

>  <SCORE.INTER.POLAR>
-5.30065

>  <SCORE.INTER.ROT>
8

>  <SCORE.INTER.SOLV>
12.6332

>  <SCORE.INTER.VDW>
-16.9208

>  <SCORE.INTER.norm>
-2.92435

>  <SCORE.INTRA>
-3.56671

>  <SCORE.INTRA.DIHEDRAL>
-10.4958

>  <SCORE.INTRA.DIHEDRAL.0>
21.6454

>  <SCORE.INTRA.POLAR>
0

>  <SCORE.INTRA.POLAR.0>
0

>  <SCORE.INTRA.REPUL>
0

>  <SCORE.INTRA.REPUL.0>
0

>  <SCORE.INTRA.SOLV>
0.347444

>  <SCORE.INTRA.SOLV.lig_0>
-16.5947

>  <SCORE.INTRA.VDW>
1.50745

>  <SCORE.INTRA.VDW.0>
-0.691398

>  <SCORE.INTRA.norm>
-0.324247

>  <SCORE.RESTR>
0.39622

>  <SCORE.RESTR.CAVITY>
0.39622

>  <SCORE.RESTR.norm>
0.03602

>  <SCORE.SYSTEM>
0

>  <SCORE.SYSTEM.CONST>
0

>  <SCORE.SYSTEM.DIHEDRAL>
0

>  <SCORE.SYSTEM.SOLV>
0

>  <SCORE.SYSTEM.norm>
0

>  <SCORE.heavy>
11

>  <SCORE.norm>
-3.21258

>  <RMSD>
13.250

$$$$
1akx_lig
 OpenBabel11021811383D
libRbt.so/2013.1/901 2013/11/27
 11 10  0  0  0  0  0  0  0  0999 V2000
  -10.1442    4.2462   -3.8649 N   0  0  0  0  0  0  0  0  0  0  0  0
  -10.7075    3.4199   -2.7567 C   0  0  2  0  0  0  0  0  0  0  0  0
  -10.3892    1.9407   -3.0084 C   0  0  0  0  0  0  0  0  0  0  0  0
  -10.2265    1.5287   -4.1397 O   0  0  0  0  0  0  0  0  0  0  0  0
  -12.2280    3.6172   -2.6885 C   0  0  0  0  0  0  0  0  0  0  0  0
  -12.5443    5.0023   -2.1152 C   0  0  0  0  0  0  0  0  0  0  0  0
  -12.1656    5.0411   -0.6347 C   0  0  0  0  0  0  0  0  0  0  0  0
  -10.8290    5.6832   -0.4823 N   0  0  0  0  0  0  0  0  0  0  0  0
  -10.5438    6.3642    0.5981 C   0  0  0  0  0  0  0  0  0  0  0  0
  -10.8497    7.6336    0.6771 N   0  0  0  0  0  0  0  0  0  0  0  0
   -9.9571    5.7719    1.6036 N   0  0  0  0  0  0  0  0  0  0  0  0
  2  1  1  6  0  0  0
  2  3  1  0  0  0  0
  2  5  1  0  0  0  0
  3  4  1  0  0  0  0
  5  6  1  0  0  0  0
  6  7  1  0  0  0  0
  7  8  1  0  0  0  0
  8  9  1  0  0  0  0
  9 10  1  0  0  0  0
  9 11  1  0  0  0  0
M  END
>  <CHROM.1>
65.20096334,-27.02298375,-73.08343613,-69.42103025,98.51234183,149.15865589
-86.97145107,-81.74953721,-66.19563389,-10.91983664,4.58669794,-1.54098217
1.55363243,0.51596335,-2.30319936

>  <Name>
1akx_lig

>  <RI>
0

>  <Rbt.Current_Directory>
/home/itssahil/PROJECTS/Mol_Feturizer/New_Systems/rnas/1akx

>  <Rbt.Executable>
rbdock ($Id: //depot/dev/client3/rdock/2013.1/src/exe/rbdock.cxx#4 $)

>  <Rbt.Library>
libRbt.so (2013.1, Build901 2013/11/27)

>  <Rbt.Parameter_File>
/export/apps/rDock/src/rDock_2013.1_src/data/scripts/dock_solv.prm

>  <Rbt.Receptor>
prm/blind_docking_20.prm

>  <SCORE>
-28.2391

>  <SCORE.INTER>
-24.1201

>  <SCORE.INTER.CONST>
1

>  <SCORE.INTER.POLAR>
-3.80152

>  <SCORE.INTER.ROT>
8

>  <SCORE.INTER.SOLV>
12.6819

>  <SCORE.INTER.VDW>
-16.569

>  <SCORE.INTER.norm>
-2.19274

>  <SCORE.INTRA>
-4.21253

>  <SCORE.INTRA.DIHEDRAL>
-8.75016

>  <SCORE.INTRA.DIHEDRAL.0>
21.6454

>  <SCORE.INTRA.POLAR>
0

>  <SCORE.INTRA.POLAR.0>
0

>  <SCORE.INTRA.REPUL>
0

>  <SCORE.INTRA.REPUL.0>
0

>  <SCORE.INTRA.SOLV>
1.01227

>  <SCORE.INTRA.SOLV.lig_0>
-16.5947

>  <SCORE.INTRA.VDW>
-0.343583

>  <SCORE.INTRA.VDW.0>
-0.691398

>  <SCORE.INTRA.norm>
-0.382957

>  <SCORE.RESTR>
0.0935537

>  <SCORE.RESTR.CAVITY>
0.0935537

>  <SCORE.RESTR.norm>
0.00850488

>  <SCORE.SYSTEM>
0

>  <SCORE.SYSTEM.CONST>
0

>  <SCORE.SYSTEM.DIHEDRAL>
0

>  <SCORE.SYSTEM.SOLV>
0

>  <SCORE.SYSTEM.norm>
0

>  <SCORE.heavy>
11

>  <SCORE.norm>
-2.56719

>  <RMSD>
13.256

$$$$
1akx_lig
 OpenBabel11021811383D
libRbt.so/2013.1/901 2013/11/27
 11 10  0  0  0  0  0  0  0  0999 V2000
   -9.7833    4.7749   -3.3630 N   0  0  0  0  0  0  0  0  0  0  0  0
  -10.1732    3.7214   -2.3800 C   0  0  2  0  0  0  0  0  0  0  0  0
  -10.3749    2.3883   -3.1115 C   0  0  0  0  0  0  0  0  0  0  0  0
   -9.4942    1.9296   -3.8115 O   0  0  0  0  0  0  0  0  0  0  0  0
  -11.4760    4.1283   -1.6784 C   0  0  0  0  0  0  0  0  0  0  0  0
  -11.1693    4.6070   -0.2557 C   0  0  0  0  0  0  0  0  0  0  0  0
  -10.2519    5.8284   -0.3143 C   0  0  0  0  0  0  0  0  0  0  0  0
   -9.8779    6.2334    1.0708 N   0  0  0  0  0  0  0  0  0  0  0  0
  -10.5817    7.1346    1.7070 C   0  0  0  0  0  0  0  0  0  0  0  0
  -11.4105    6.7762    2.6536 N   0  0  0  0  0  0  0  0  0  0  0  0
  -10.4510    8.3973    1.3997 N   0  0  0  0  0  0  0  0  0  0  0  0
  2  1  1  6  0  0  0
  2  3  1  0  0  0  0
  2  5  1  0  0  0  0
  3  4  1  0  0  0  0
  5  6  1  0  0  0  0
  6  7  1  0  0  0  0
  7  8  1  0  0  0  0
  8  9  1  0  0  0  0
  9 10  1  0  0  0  0
  9 11  1  0  0  0  0
M  END
>  <CHROM.1>
22.53460102,54.49829647,-104.72701704,61.16831997,-176.05401726,-92.92539161
104.35570592,87.09642951,12.70196562,-10.44021308,5.11016576,-0.74545643
-1.37293466,1.03038161,0.69377116

>  <Name>
1akx_lig

>  <RI>
0

>  <Rbt.Current_Directory>
/home/itssahil/PROJECTS/Mol_Feturizer/New_Systems/rnas/1akx

>  <Rbt.Executable>
rbdock ($Id: //depot/dev/client3/rdock/2013.1/src/exe/rbdock.cxx#4 $)

>  <Rbt.Library>
libRbt.so (2013.1, Build901 2013/11/27)

>  <Rbt.Parameter_File>
/export/apps/rDock/src/rDock_2013.1_src/data/scripts/dock_solv.prm

>  <Rbt.Receptor>
prm/blind_docking_80.prm

>  <SCORE>
-40.1376

>  <SCORE.INTER>
-37.2564

>  <SCORE.INTER.CONST>
1

>  <SCORE.INTER.POLAR>
-6.00809

>  <SCORE.INTER.ROT>
8

>  <SCORE.INTER.SOLV>
12.5122

>  <SCORE.INTER.VDW>
-17.9147

>  <SCORE.INTER.norm>
-3.38695

>  <SCORE.INTRA>
-3.51527

>  <SCORE.INTRA.DIHEDRAL>
-9.19143

>  <SCORE.INTRA.DIHEDRAL.0>
21.6454

>  <SCORE.INTRA.POLAR>
0

>  <SCORE.INTRA.POLAR.0>
0

>  <SCORE.INTRA.REPUL>
0

>  <SCORE.INTRA.REPUL.0>
0

>  <SCORE.INTRA.SOLV>
0.483094

>  <SCORE.INTRA.SOLV.lig_0>
-16.5947

>  <SCORE.INTRA.VDW>
0.838898

>  <SCORE.INTRA.VDW.0>
-0.691398

>  <SCORE.INTRA.norm>
-0.31957

>  <SCORE.RESTR>
0.634052

>  <SCORE.RESTR.CAVITY>
0.634052

>  <SCORE.RESTR.norm>
0.0576411

>  <SCORE.SYSTEM>
0

>  <SCORE.SYSTEM.CONST>
0

>  <SCORE.SYSTEM.DIHEDRAL>
0

>  <SCORE.SYSTEM.SOLV>
0

>  <SCORE.SYSTEM.norm>
0

>  <SCORE.heavy>
11

>  <SCORE.norm>
-3.64887

>  <RMSD>
13.258

$$$$
1akx_lig
 OpenBabel11021811383D
libRbt.so/2013.1/901 2013/11/27
 11 10  0  0  0  0  0  0  0  0999 V2000
   -9.7074    6.9559    0.2535 N   0  0  0  0  0  0  0  0  0  0  0  0
  -11.1063    6.7448    0.7297 C   0  0  2  0  0  0  0  0  0  0  0  0
  -11.1732    6.9831    2.2434 C   0  0  0  0  0  0  0  0  0  0  0  0
  -12.2458    7.0897    2.8041 O   0  0  0  0  0  0  0  0  0  0  0  0
  -11.5474    5.3095    0.4123 C   0  0  0  0  0  0  0  0  0  0  0  0
  -11.6426    5.1216   -1.1052 C   0  0  0  0  0  0  0  0  0  0  0  0
  -11.6639    3.6290   -1.4348 C   0  0  0  0  0  0  0  0  0  0  0  0
  -11.2506    3.4294   -2.8531 N   0  0  0  0  0  0  0  0  0  0  0  0
   -9.9871    3.4947   -3.1873 C   0  0  0  0  0  0  0  0  0  0  0  0
   -9.4236    4.6539   -3.4109 N   0  0  0  0  0  0  0  0  0  0  0  0
   -9.2849    2.3983   -3.2916 N   0  0  0  0  0  0  0  0  0  0  0  0
  2  1  1  1  0  0  0
  2  3  1  0  0  0  0
  2  5  1  0  0  0  0
  3  4  1  0  0  0  0
  5  6  1  0  0  0  0
  6  7  1  0  0  0  0
  7  8  1  0  0  0  0
  8  9  1  0  0  0  0
  9 10  1  0  0  0  0
  9 11  1  0  0  0  0
M  END
>  <CHROM.1>
-79.45406075,167.42075023,-66.49411854,163.11003735,-159.11682448,77.63390488
-83.03284561,-27.61047586,-111.32898688,-10.77992418,5.08438139,-0.81790805
-1.83088918,-0.54532316,-2.32724537

>  <Name>
1akx_lig

>  <RI>
0

>  <Rbt.Current_Directory>
/home/itssahil/PROJECTS/Mol_Feturizer/New_Systems/rnas/1akx

>  <Rbt.Executable>
rbdock ($Id: //depot/dev/client3/rdock/2013.1/src/exe/rbdock.cxx#4 $)

>  <Rbt.Library>
libRbt.so (2013.1, Build901 2013/11/27)

>  <Rbt.Parameter_File>
/export/apps/rDock/src/rDock_2013.1_src/data/scripts/dock_solv.prm

>  <Rbt.Receptor>
prm/blind_docking_100.prm

>  <SCORE>
-34.8494

>  <SCORE.INTER>
-29.3294

>  <SCORE.INTER.CONST>
1

>  <SCORE.INTER.POLAR>
-4.31965

>  <SCORE.INTER.ROT>
8

>  <SCORE.INTER.SOLV>
11.3926

>  <SCORE.INTER.VDW>
-17.885

>  <SCORE.INTER.norm>
-2.66631

>  <SCORE.INTRA>
-6.00304

>  <SCORE.INTRA.DIHEDRAL>
-12.651

>  <SCORE.INTRA.DIHEDRAL.0>
21.6454

>  <SCORE.INTRA.POLAR>
0

>  <SCORE.INTRA.POLAR.0>
0

>  <SCORE.INTRA.REPUL>
0

>  <SCORE.INTRA.REPUL.0>
0

>  <SCORE.INTRA.SOLV>
0.31568

>  <SCORE.INTRA.SOLV.lig_0>
-16.5947

>  <SCORE.INTRA.VDW>
0.164621

>  <SCORE.INTRA.VDW.0>
-0.691398

>  <SCORE.INTRA.norm>
-0.545731

>  <SCORE.RESTR>
0.48305

>  <SCORE.RESTR.CAVITY>
0.48305

>  <SCORE.RESTR.norm>
0.0439136

>  <SCORE.SYSTEM>
0

>  <SCORE.SYSTEM.CONST>
0

>  <SCORE.SYSTEM.DIHEDRAL>
0

>  <SCORE.SYSTEM.SOLV>
0

>  <SCORE.SYSTEM.norm>
0

>  <SCORE.heavy>
11

>  <SCORE.norm>
-3.16813

>  <RMSD>
13.265

$$$$
1akx_lig
 OpenBabel11021811383D
libRbt.so/2013.1/901 2013/11/27
 11 10  0  0  0  0  0  0  0  0999 V2000
   -9.8424    7.4582    1.1950 N   0  0  0  0  0  0  0  0  0  0  0  0
  -11.1654    6.8973    0.7913 C   0  0  2  0  0  0  0  0  0  0  0  0
  -12.2496    7.4006    1.7525 C   0  0  0  0  0  0  0  0  0  0  0  0
  -12.0445    7.4360    2.9495 O   0  0  0  0  0  0  0  0  0  0  0  0
  -11.1092    5.3642    0.8325 C   0  0  0  0  0  0  0  0  0  0  0  0
  -10.9309    4.8151   -0.5867 C   0  0  0  0  0  0  0  0  0  0  0  0
   -9.5815    5.2684   -1.1440 C   0  0  0  0  0  0  0  0  0  0  0  0
   -9.5296    4.9849   -2.6066 N   0  0  0  0  0  0  0  0  0  0  0  0
   -9.3897    3.7565   -3.0356 C   0  0  0  0  0  0  0  0  0  0  0  0
   -8.5192    2.9574   -2.4742 N   0  0  0  0  0  0  0  0  0  0  0  0
  -10.1267    3.3255   -4.0240 N   0  0  0  0  0  0  0  0  0  0  0  0
  2  1  1  1  0  0  0
  2  3  1  0  0  0  0
  2  5  1  0  0  0  0
  3  4  1  0  0  0  0
  5  6  1  0  0  0  0
  6  7  1  0  0  0  0
  7  8  1  0  0  0  0
  8  9  1  0  0  0  0
  9 10  1  0  0  0  0
  9 11  1  0  0  0  0
M  END
>  <CHROM.1>
143.20998443,-42.74216216,-100.97185516,64.18018405,-168.14212683,-73.47616987
-44.12524885,-22.55548813,38.30126140,-10.38111272,5.42969005,-0.57720979
-1.90540694,-0.23324881,-2.27630397

>  <Name>
1akx_lig

>  <RI>
0

>  <Rbt.Current_Directory>
/home/afrankz/demos/rdock_decoys_rna/rnas/1akx

>  <Rbt.Executable>
rbdock ($Id: //depot/dev/client3/rdock/2013.1/src/exe/rbdock.cxx#4 $)

>  <Rbt.Library>
libRbt.so (2013.1, Build901 2013/11/27)

>  <Rbt.Parameter_File>
/export/apps/rDock/src/rDock_2013.1_src/data/scripts/dock_solv.prm

>  <Rbt.Receptor>
prm/blind_docking_100.prm

>  <SCORE>
-36.5167

>  <SCORE.INTER>
-34.1032

>  <SCORE.INTER.CONST>
1

>  <SCORE.INTER.POLAR>
-5.23883

>  <SCORE.INTER.ROT>
8

>  <SCORE.INTER.SOLV>
13.2901

>  <SCORE.INTER.VDW>
-18.6361

>  <SCORE.INTER.norm>
-3.1003

>  <SCORE.INTRA>
-2.41837

>  <SCORE.INTRA.DIHEDRAL>
-8.28137

>  <SCORE.INTRA.DIHEDRAL.0>
21.6454

>  <SCORE.INTRA.POLAR>
0

>  <SCORE.INTRA.POLAR.0>
0

>  <SCORE.INTRA.REPUL>
0

>  <SCORE.INTRA.REPUL.0>
0

>  <SCORE.INTRA.SOLV>
0.706734

>  <SCORE.INTRA.SOLV.lig_0>
-16.5947

>  <SCORE.INTRA.VDW>
1.36895

>  <SCORE.INTRA.VDW.0>
-0.691398

>  <SCORE.INTRA.norm>
-0.219852

>  <SCORE.RESTR>
0.00491836

>  <SCORE.RESTR.CAVITY>
0.00491836

>  <SCORE.RESTR.norm>
0.000447124

>  <SCORE.SYSTEM>
0

>  <SCORE.SYSTEM.CONST>
0

>  <SCORE.SYSTEM.DIHEDRAL>
0

>  <SCORE.SYSTEM.SOLV>
0

>  <SCORE.SYSTEM.norm>
0

>  <SCORE.heavy>
11

>  <SCORE.norm>
-3.3197

>  <RMSD>
13.267

>  <RMSD>
13.267

$$$$
1akx_lig
 OpenBabel11021811383D
libRbt.so/2013.1/901 2013/11/27
 11 10  0  0  0  0  0  0  0  0999 V2000
   -9.8424    7.4582    1.1950 N   0  0  0  0  0  0  0  0  0  0  0  0
  -11.1654    6.8973    0.7913 C   0  0  2  0  0  0  0  0  0  0  0  0
  -12.2496    7.4006    1.7525 C   0  0  0  0  0  0  0  0  0  0  0  0
  -12.0445    7.4360    2.9495 O   0  0  0  0  0  0  0  0  0  0  0  0
  -11.1092    5.3642    0.8325 C   0  0  0  0  0  0  0  0  0  0  0  0
  -10.9309    4.8151   -0.5867 C   0  0  0  0  0  0  0  0  0  0  0  0
   -9.5815    5.2684   -1.1440 C   0  0  0  0  0  0  0  0  0  0  0  0
   -9.5296    4.9849   -2.6066 N   0  0  0  0  0  0  0  0  0  0  0  0
   -9.3897    3.7565   -3.0356 C   0  0  0  0  0  0  0  0  0  0  0  0
   -8.5192    2.9574   -2.4742 N   0  0  0  0  0  0  0  0  0  0  0  0
  -10.1267    3.3255   -4.0240 N   0  0  0  0  0  0  0  0  0  0  0  0
  2  1  1  1  0  0  0
  2  3  1  0  0  0  0
  2  5  1  0  0  0  0
  3  4  1  0  0  0  0
  5  6  1  0  0  0  0
  6  7  1  0  0  0  0
  7  8  1  0  0  0  0
  8  9  1  0  0  0  0
  9 10  1  0  0  0  0
  9 11  1  0  0  0  0
M  END
>  <CHROM.1>
143.20998443,-42.74216216,-100.97185516,64.18018405,-168.14212683,-73.47616987
-44.12524885,-22.55548813,38.30126140,-10.38111272,5.42969005,-0.57720979
-1.90540694,-0.23324881,-2.27630397

>  <Name>
1akx_lig

>  <RI>
0

>  <Rbt.Current_Directory>
/home/afrankz/demos/rdock_decoys_rna/rnas/1akx

>  <Rbt.Executable>
rbdock ($Id: //depot/dev/client3/rdock/2013.1/src/exe/rbdock.cxx#4 $)

>  <Rbt.Library>
libRbt.so (2013.1, Build901 2013/11/27)

>  <Rbt.Parameter_File>
/export/apps/rDock/src/rDock_2013.1_src/data/scripts/dock_solv.prm

>  <Rbt.Receptor>
prm/blind_docking_100.prm

>  <SCORE>
-36.5167

>  <SCORE.INTER>
-34.1032

>  <SCORE.INTER.CONST>
1

>  <SCORE.INTER.POLAR>
-5.23883

>  <SCORE.INTER.ROT>
8

>  <SCORE.INTER.SOLV>
13.2901

>  <SCORE.INTER.VDW>
-18.6361

>  <SCORE.INTER.norm>
-3.1003

>  <SCORE.INTRA>
-2.41837

>  <SCORE.INTRA.DIHEDRAL>
-8.28137

>  <SCORE.INTRA.DIHEDRAL.0>
21.6454

>  <SCORE.INTRA.POLAR>
0

>  <SCORE.INTRA.POLAR.0>
0

>  <SCORE.INTRA.REPUL>
0

>  <SCORE.INTRA.REPUL.0>
0

>  <SCORE.INTRA.SOLV>
0.706734

>  <SCORE.INTRA.SOLV.lig_0>
-16.5947

>  <SCORE.INTRA.VDW>
1.36895

>  <SCORE.INTRA.VDW.0>
-0.691398

>  <SCORE.INTRA.norm>
-0.219852

>  <SCORE.RESTR>
0.00491836

>  <SCORE.RESTR.CAVITY>
0.00491836

>  <SCORE.RESTR.norm>
0.000447124

>  <SCORE.SYSTEM>
0

>  <SCORE.SYSTEM.CONST>
0

>  <SCORE.SYSTEM.DIHEDRAL>
0

>  <SCORE.SYSTEM.SOLV>
0

>  <SCORE.SYSTEM.norm>
0

>  <SCORE.heavy>
11

>  <SCORE.norm>
-3.3197

>  <RMSD>
13.267

>  <RMSD>
13.267

$$$$
1akx_lig
 OpenBabel11021811383D
libRbt.so/2013.1/901 2013/11/27
 11 10  0  0  0  0  0  0  0  0999 V2000
  -10.7687    8.1576    1.0584 N   0  0  0  0  0  0  0  0  0  0  0  0
  -11.4234    6.8388    0.8131 C   0  0  2  0  0  0  0  0  0  0  0  0
  -12.4308    6.5511    1.9334 C   0  0  0  0  0  0  0  0  0  0  0  0
  -13.0991    5.5366    1.9163 O   0  0  0  0  0  0  0  0  0  0  0  0
  -10.3590    5.7337    0.7786 C   0  0  0  0  0  0  0  0  0  0  0  0
   -9.7651    5.6318   -0.6300 C   0  0  0  0  0  0  0  0  0  0  0  0
  -10.7563    4.9217   -1.5521 C   0  0  0  0  0  0  0  0  0  0  0  0
  -10.1516    4.7708   -2.9063 N   0  0  0  0  0  0  0  0  0  0  0  0
   -9.5536    3.6559   -3.2409 C   0  0  0  0  0  0  0  0  0  0  0  0
   -8.2706    3.6471   -3.4959 N   0  0  0  0  0  0  0  0  0  0  0  0
  -10.2398    2.5470   -3.3143 N   0  0  0  0  0  0  0  0  0  0  0  0
  2  1  1  1  0  0  0
  2  3  1  0  0  0  0
  2  5  1  0  0  0  0
  3  4  1  0  0  0  0
  5  6  1  0  0  0  0
  6  7  1  0  0  0  0
  7  8  1  0  0  0  0
  8  9  1  0  0  0  0
  9 10  1  0  0  0  0
  9 11  1  0  0  0  0
M  END
>  <CHROM.1>
57.84163315,178.49619024,-85.25434266,-76.01094351,-177.53519501,96.08121565
-115.54021785,162.36739471,11.77316117,-10.61259642,5.27740703,-0.79502530
-2.07167675,-0.64051697,-2.47822491

>  <Name>
1akx_lig

>  <RI>
0

>  <Rbt.Current_Directory>
/home/itssahil/PROJECTS/Mol_Feturizer/New_Systems/rnas/1akx

>  <Rbt.Executable>
rbdock ($Id: //depot/dev/client3/rdock/2013.1/src/exe/rbdock.cxx#4 $)

>  <Rbt.Library>
libRbt.so (2013.1, Build901 2013/11/27)

>  <Rbt.Parameter_File>
/export/apps/rDock/src/rDock_2013.1_src/data/scripts/dock_solv.prm

>  <Rbt.Receptor>
prm/blind_docking_40.prm

>  <SCORE>
-36.2836

>  <SCORE.INTER>
-29.4953

>  <SCORE.INTER.CONST>
1

>  <SCORE.INTER.POLAR>
-4.26446

>  <SCORE.INTER.ROT>
8

>  <SCORE.INTER.SOLV>
12.0481

>  <SCORE.INTER.VDW>
-18.398

>  <SCORE.INTER.norm>
-2.68139

>  <SCORE.INTRA>
-6.85085

>  <SCORE.INTRA.DIHEDRAL>
-13.5658

>  <SCORE.INTRA.DIHEDRAL.0>
21.6454

>  <SCORE.INTRA.POLAR>
0

>  <SCORE.INTRA.POLAR.0>
0

>  <SCORE.INTRA.REPUL>
0

>  <SCORE.INTRA.REPUL.0>
0

>  <SCORE.INTRA.SOLV>
0.233362

>  <SCORE.INTRA.SOLV.lig_0>
-16.5947

>  <SCORE.INTRA.VDW>
-0.184653

>  <SCORE.INTRA.VDW.0>
-0.691398

>  <SCORE.INTRA.norm>
-0.622805

>  <SCORE.RESTR>
0.0625118

>  <SCORE.RESTR.CAVITY>
0.0625118

>  <SCORE.RESTR.norm>
0.00568289

>  <SCORE.SYSTEM>
0

>  <SCORE.SYSTEM.CONST>
0

>  <SCORE.SYSTEM.DIHEDRAL>
0

>  <SCORE.SYSTEM.SOLV>
0

>  <SCORE.SYSTEM.norm>
0

>  <SCORE.heavy>
11

>  <SCORE.norm>
-3.29851

>  <RMSD>
13.267

$$$$
1akx_lig
 OpenBabel11021811383D
libRbt.so/2013.1/901 2013/11/27
 11 10  0  0  0  0  0  0  0  0999 V2000
  -11.1668    7.8647    3.4372 N   0  0  0  0  0  0  0  0  0  0  0  0
  -11.6357    7.0390    2.2855 C   0  0  2  0  0  0  0  0  0  0  0  0
  -12.1070    5.6710    2.7947 C   0  0  0  0  0  0  0  0  0  0  0  0
  -11.3145    4.8854    3.2752 O   0  0  0  0  0  0  0  0  0  0  0  0
  -10.4870    6.8505    1.2852 C   0  0  0  0  0  0  0  0  0  0  0  0
  -10.9300    5.9090    0.1607 C   0  0  0  0  0  0  0  0  0  0  0  0
   -9.7403    5.6056   -0.7500 C   0  0  0  0  0  0  0  0  0  0  0  0
  -10.0154    4.3630   -1.5262 N   0  0  0  0  0  0  0  0  0  0  0  0
   -9.8327    4.3407   -2.8218 C   0  0  0  0  0  0  0  0  0  0  0  0
   -8.6796    3.9735   -3.3186 N   0  0  0  0  0  0  0  0  0  0  0  0
  -10.8079    4.6804   -3.6215 N   0  0  0  0  0  0  0  0  0  0  0  0
  2  1  1  1  0  0  0
  2  3  1  0  0  0  0
  2  5  1  0  0  0  0
  3  4  1  0  0  0  0
  5  6  1  0  0  0  0
  6  7  1  0  0  0  0
  7  8  1  0  0  0  0
  8  9  1  0  0  0  0
  9 10  1  0  0  0  0
  9 11  1  0  0  0  0
M  END
>  <CHROM.1>
-63.74288200,-66.66174685,175.36410508,-173.99278131,160.27069033,131.00076526
91.16154987,84.44020959,158.24637096,-10.60208174,5.55562146,0.11761614,-2.53395722
-1.25299345,-2.87081332

>  <Name>
1akx_lig

>  <RI>
0

>  <Rbt.Current_Directory>
/home/afrankz/demos/rdock_decoys_rna/rnas/1akx

>  <Rbt.Executable>
rbdock ($Id: //depot/dev/client3/rdock/2013.1/src/exe/rbdock.cxx#4 $)

>  <Rbt.Library>
libRbt.so (2013.1, Build901 2013/11/27)

>  <Rbt.Parameter_File>
/export/apps/rDock/src/rDock_2013.1_src/data/scripts/dock_solv.prm

>  <Rbt.Receptor>
prm/blind_docking_40.prm

>  <SCORE>
-34.7958

>  <SCORE.INTER>
-28.8003

>  <SCORE.INTER.CONST>
1

>  <SCORE.INTER.POLAR>
-4.32724

>  <SCORE.INTER.ROT>
8

>  <SCORE.INTER.SOLV>
11.811

>  <SCORE.INTER.VDW>
-17.6464

>  <SCORE.INTER.norm>
-2.61821

>  <SCORE.INTRA>
-5.9955

>  <SCORE.INTRA.DIHEDRAL>
-15.0646

>  <SCORE.INTRA.DIHEDRAL.0>
21.6454

>  <SCORE.INTRA.POLAR>
0

>  <SCORE.INTRA.POLAR.0>
0

>  <SCORE.INTRA.REPUL>
0

>  <SCORE.INTRA.REPUL.0>
0

>  <SCORE.INTRA.SOLV>
0.362532

>  <SCORE.INTRA.SOLV.lig_0>
-16.5947

>  <SCORE.INTRA.VDW>
1.35553

>  <SCORE.INTRA.VDW.0>
-0.691398

>  <SCORE.INTRA.norm>
-0.545046

>  <SCORE.RESTR>
0

>  <SCORE.RESTR.CAVITY>
0

>  <SCORE.RESTR.norm>
0

>  <SCORE.SYSTEM>
0

>  <SCORE.SYSTEM.CONST>
0

>  <SCORE.SYSTEM.DIHEDRAL>
0

>  <SCORE.SYSTEM.SOLV>
0

>  <SCORE.SYSTEM.norm>
0

>  <SCORE.heavy>
11

>  <SCORE.norm>
-3.16326

>  <RMSD>
13.271

>  <RMSD>
13.271

$$$$
1akx_lig
 OpenBabel11021811383D
libRbt.so/2013.1/901 2013/11/27
 11 10  0  0  0  0  0  0  0  0999 V2000
  -11.1668    7.8647    3.4372 N   0  0  0  0  0  0  0  0  0  0  0  0
  -11.6357    7.0390    2.2855 C   0  0  2  0  0  0  0  0  0  0  0  0
  -12.1070    5.6710    2.7947 C   0  0  0  0  0  0  0  0  0  0  0  0
  -11.3145    4.8854    3.2752 O   0  0  0  0  0  0  0  0  0  0  0  0
  -10.4870    6.8505    1.2852 C   0  0  0  0  0  0  0  0  0  0  0  0
  -10.9300    5.9090    0.1607 C   0  0  0  0  0  0  0  0  0  0  0  0
   -9.7403    5.6056   -0.7500 C   0  0  0  0  0  0  0  0  0  0  0  0
  -10.0154    4.3630   -1.5262 N   0  0  0  0  0  0  0  0  0  0  0  0
   -9.8327    4.3407   -2.8218 C   0  0  0  0  0  0  0  0  0  0  0  0
   -8.6796    3.9735   -3.3186 N   0  0  0  0  0  0  0  0  0  0  0  0
  -10.8079    4.6804   -3.6215 N   0  0  0  0  0  0  0  0  0  0  0  0
  2  1  1  1  0  0  0
  2  3  1  0  0  0  0
  2  5  1  0  0  0  0
  3  4  1  0  0  0  0
  5  6  1  0  0  0  0
  6  7  1  0  0  0  0
  7  8  1  0  0  0  0
  8  9  1  0  0  0  0
  9 10  1  0  0  0  0
  9 11  1  0  0  0  0
M  END
>  <CHROM.1>
-63.74288200,-66.66174685,175.36410508,-173.99278131,160.27069033,131.00076526
91.16154987,84.44020959,158.24637096,-10.60208174,5.55562146,0.11761614,-2.53395722
-1.25299345,-2.87081332

>  <Name>
1akx_lig

>  <RI>
0

>  <Rbt.Current_Directory>
/home/afrankz/demos/rdock_decoys_rna/rnas/1akx

>  <Rbt.Executable>
rbdock ($Id: //depot/dev/client3/rdock/2013.1/src/exe/rbdock.cxx#4 $)

>  <Rbt.Library>
libRbt.so (2013.1, Build901 2013/11/27)

>  <Rbt.Parameter_File>
/export/apps/rDock/src/rDock_2013.1_src/data/scripts/dock_solv.prm

>  <Rbt.Receptor>
prm/blind_docking_40.prm

>  <SCORE>
-34.7958

>  <SCORE.INTER>
-28.8003

>  <SCORE.INTER.CONST>
1

>  <SCORE.INTER.POLAR>
-4.32724

>  <SCORE.INTER.ROT>
8

>  <SCORE.INTER.SOLV>
11.811

>  <SCORE.INTER.VDW>
-17.6464

>  <SCORE.INTER.norm>
-2.61821

>  <SCORE.INTRA>
-5.9955

>  <SCORE.INTRA.DIHEDRAL>
-15.0646

>  <SCORE.INTRA.DIHEDRAL.0>
21.6454

>  <SCORE.INTRA.POLAR>
0

>  <SCORE.INTRA.POLAR.0>
0

>  <SCORE.INTRA.REPUL>
0

>  <SCORE.INTRA.REPUL.0>
0

>  <SCORE.INTRA.SOLV>
0.362532

>  <SCORE.INTRA.SOLV.lig_0>
-16.5947

>  <SCORE.INTRA.VDW>
1.35553

>  <SCORE.INTRA.VDW.0>
-0.691398

>  <SCORE.INTRA.norm>
-0.545046

>  <SCORE.RESTR>
0

>  <SCORE.RESTR.CAVITY>
0

>  <SCORE.RESTR.norm>
0

>  <SCORE.SYSTEM>
0

>  <SCORE.SYSTEM.CONST>
0

>  <SCORE.SYSTEM.DIHEDRAL>
0

>  <SCORE.SYSTEM.SOLV>
0

>  <SCORE.SYSTEM.norm>
0

>  <SCORE.heavy>
11

>  <SCORE.norm>
-3.16326

>  <RMSD>
13.271

>  <RMSD>
13.271

$$$$
1akx_lig
 OpenBabel11021811383D
libRbt.so/2013.1/901 2013/11/27
 11 10  0  0  0  0  0  0  0  0999 V2000
   -9.8487    4.7358   -3.4125 N   0  0  0  0  0  0  0  0  0  0  0  0
  -10.2677    3.6770   -2.4474 C   0  0  2  0  0  0  0  0  0  0  0  0
  -10.4367    2.3455   -3.1898 C   0  0  0  0  0  0  0  0  0  0  0  0
   -9.5276    1.8907   -3.8552 O   0  0  0  0  0  0  0  0  0  0  0  0
  -11.5965    4.0751   -1.7908 C   0  0  0  0  0  0  0  0  0  0  0  0
  -11.3646    5.2340   -0.8159 C   0  0  0  0  0  0  0  0  0  0  0  0
  -11.2162    4.6858    0.6034 C   0  0  0  0  0  0  0  0  0  0  0  0
  -10.3946    5.6286    1.4147 N   0  0  0  0  0  0  0  0  0  0  0  0
  -10.7409    6.8865    1.5154 C   0  0  0  0  0  0  0  0  0  0  0  0
  -11.1926    7.3571    2.6493 N   0  0  0  0  0  0  0  0  0  0  0  0
  -10.6290    7.6762    0.4810 N   0  0  0  0  0  0  0  0  0  0  0  0
  2  1  1  6  0  0  0
  2  3  1  0  0  0  0
  2  5  1  0  0  0  0
  3  4  1  0  0  0  0
  5  6  1  0  0  0  0
  6  7  1  0  0  0  0
  7  8  1  0  0  0  0
  8  9  1  0  0  0  0
  9 10  1  0  0  0  0
  9 11  1  0  0  0  0
M  END
>  <CHROM.1>
-95.44385217,54.81214990,-71.53445839,-96.94963985,153.72710784,55.08394984
109.99030955,-139.26947965,71.15350410,-10.62866586,4.95830638,-0.82298785
-1.09003537,1.29677490,0.42972259

>  <Name>
1akx_lig

>  <RI>
0

>  <Rbt.Current_Directory>
/home/itssahil/PROJECTS/Mol_Feturizer/New_Systems/rnas/1akx

>  <Rbt.Executable>
rbdock ($Id: //depot/dev/client3/rdock/2013.1/src/exe/rbdock.cxx#4 $)

>  <Rbt.Library>
libRbt.so (2013.1, Build901 2013/11/27)

>  <Rbt.Parameter_File>
/export/apps/rDock/src/rDock_2013.1_src/data/scripts/dock_solv.prm

>  <Rbt.Receptor>
prm/blind_docking_80.prm

>  <SCORE>
-33.481

>  <SCORE.INTER>
-32.9813

>  <SCORE.INTER.CONST>
1

>  <SCORE.INTER.POLAR>
-5.75389

>  <SCORE.INTER.ROT>
8

>  <SCORE.INTER.SOLV>
12.1589

>  <SCORE.INTER.VDW>
-15.7942

>  <SCORE.INTER.norm>
-2.9983

>  <SCORE.INTRA>
-1.00631

>  <SCORE.INTRA.DIHEDRAL>
-7.54661

>  <SCORE.INTRA.DIHEDRAL.0>
21.6454

>  <SCORE.INTRA.POLAR>
0

>  <SCORE.INTRA.POLAR.0>
0

>  <SCORE.INTRA.REPUL>
0

>  <SCORE.INTRA.REPUL.0>
0

>  <SCORE.INTRA.SOLV>
0.604553

>  <SCORE.INTRA.SOLV.lig_0>
-16.5947

>  <SCORE.INTRA.VDW>
2.46472

>  <SCORE.INTRA.VDW.0>
-0.691398

>  <SCORE.INTRA.norm>
-0.0914826

>  <SCORE.RESTR>
0.506601

>  <SCORE.RESTR.CAVITY>
0.506601

>  <SCORE.RESTR.norm>
0.0460547

>  <SCORE.SYSTEM>
0

>  <SCORE.SYSTEM.CONST>
0

>  <SCORE.SYSTEM.DIHEDRAL>
0

>  <SCORE.SYSTEM.SOLV>
0

>  <SCORE.SYSTEM.norm>
0

>  <SCORE.heavy>
11

>  <SCORE.norm>
-3.04373

>  <RMSD>
13.271

$$$$
1akx_lig
 OpenBabel11021811383D
libRbt.so/2013.1/901 2013/11/27
 11 10  0  0  0  0  0  0  0  0999 V2000
   -9.3827    4.1386   -3.5568 N   0  0  0  0  0  0  0  0  0  0  0  0
  -10.1963    3.5557   -2.4494 C   0  0  2  0  0  0  0  0  0  0  0  0
  -10.9849    2.3491   -2.9739 C   0  0  0  0  0  0  0  0  0  0  0  0
  -11.6234    1.6510   -2.2115 O   0  0  0  0  0  0  0  0  0  0  0  0
  -11.1686    4.6146   -1.9120 C   0  0  0  0  0  0  0  0  0  0  0  0
  -11.7572    4.1460   -0.5773 C   0  0  0  0  0  0  0  0  0  0  0  0
  -12.4784    5.3112    0.1002 C   0  0  0  0  0  0  0  0  0  0  0  0
  -11.5556    6.4784    0.1919 N   0  0  0  0  0  0  0  0  0  0  0  0
  -10.7021    6.5682    1.1799 C   0  0  0  0  0  0  0  0  0  0  0  0
  -10.4603    5.5301    1.9383 N   0  0  0  0  0  0  0  0  0  0  0  0
  -10.0851    7.6971    1.4051 N   0  0  0  0  0  0  0  0  0  0  0  0
  2  1  1  6  0  0  0
  2  3  1  0  0  0  0
  2  5  1  0  0  0  0
  3  4  1  0  0  0  0
  5  6  1  0  0  0  0
  6  7  1  0  0  0  0
  7  8  1  0  0  0  0
  8  9  1  0  0  0  0
  9 10  1  0  0  0  0
  9 11  1  0  0  0  0
M  END
>  <CHROM.1>
60.80219379,173.46491041,-166.39598281,167.81186535,-53.03685764,-83.79032076
13.65325886,-61.78027757,-100.47903876,-10.91020221,4.74270007,-0.81347822
-1.56396926,0.76995644,0.81136881

>  <Name>
1akx_lig

>  <RI>
0

>  <Rbt.Current_Directory>
/home/itssahil/PROJECTS/Mol_Feturizer/New_Systems/rnas/1akx

>  <Rbt.Executable>
rbdock ($Id: //depot/dev/client3/rdock/2013.1/src/exe/rbdock.cxx#4 $)

>  <Rbt.Library>
libRbt.so (2013.1, Build901 2013/11/27)

>  <Rbt.Parameter_File>
/export/apps/rDock/src/rDock_2013.1_src/data/scripts/dock_solv.prm

>  <Rbt.Receptor>
prm/blind_docking_20.prm

>  <SCORE>
-35.4732

>  <SCORE.INTER>
-31.0541

>  <SCORE.INTER.CONST>
1

>  <SCORE.INTER.POLAR>
-6.14807

>  <SCORE.INTER.ROT>
8

>  <SCORE.INTER.SOLV>
11.0944

>  <SCORE.INTER.VDW>
-12.8406

>  <SCORE.INTER.norm>
-2.8231

>  <SCORE.INTRA>
-5.8234

>  <SCORE.INTRA.DIHEDRAL>
-15.1895

>  <SCORE.INTRA.DIHEDRAL.0>
21.6454

>  <SCORE.INTRA.POLAR>
0

>  <SCORE.INTRA.POLAR.0>
0

>  <SCORE.INTRA.REPUL>
0

>  <SCORE.INTRA.REPUL.0>
0

>  <SCORE.INTRA.SOLV>
0.625364

>  <SCORE.INTRA.SOLV.lig_0>
-16.5947

>  <SCORE.INTRA.VDW>
1.45866

>  <SCORE.INTRA.VDW.0>
-0.691398

>  <SCORE.INTRA.norm>
-0.5294

>  <SCORE.RESTR>
1.4043

>  <SCORE.RESTR.CAVITY>
1.4043

>  <SCORE.RESTR.norm>
0.127663

>  <SCORE.SYSTEM>
0

>  <SCORE.SYSTEM.CONST>
0

>  <SCORE.SYSTEM.DIHEDRAL>
0

>  <SCORE.SYSTEM.SOLV>
0

>  <SCORE.SYSTEM.norm>
0

>  <SCORE.heavy>
11

>  <SCORE.norm>
-3.22484

>  <RMSD>
13.279

$$$$
1akx_lig
 OpenBabel11021811383D
libRbt.so/2013.1/901 2013/11/27
 11 10  0  0  0  0  0  0  0  0999 V2000
   -9.4698    6.3988    0.4033 N   0  0  0  0  0  0  0  0  0  0  0  0
  -10.9381    6.6675    0.4147 C   0  0  2  0  0  0  0  0  0  0  0  0
  -11.2808    7.5883    1.5926 C   0  0  0  0  0  0  0  0  0  0  0  0
  -10.5637    8.5293    1.8688 O   0  0  0  0  0  0  0  0  0  0  0  0
  -11.7030    5.3442    0.5534 C   0  0  0  0  0  0  0  0  0  0  0  0
  -11.2439    4.3656   -0.5323 C   0  0  0  0  0  0  0  0  0  0  0  0
  -11.6206    4.9154   -1.9081 C   0  0  0  0  0  0  0  0  0  0  0  0
  -11.4161    3.8564   -2.9372 N   0  0  0  0  0  0  0  0  0  0  0  0
  -10.2240    3.3569   -3.1416 C   0  0  0  0  0  0  0  0  0  0  0  0
   -9.3107    4.0621   -3.7579 N   0  0  0  0  0  0  0  0  0  0  0  0
   -9.9437    2.1519   -2.7228 N   0  0  0  0  0  0  0  0  0  0  0  0
  2  1  1  1  0  0  0
  2  3  1  0  0  0  0
  2  5  1  0  0  0  0
  3  4  1  0  0  0  0
  5  6  1  0  0  0  0
  6  7  1  0  0  0  0
  7  8  1  0  0  0  0
  8  9  1  0  0  0  0
  9 10  1  0  0  0  0
  9 11  1  0  0  0  0
M  END
>  <CHROM.1>
67.15090123,41.44506778,-53.42233578,-64.54117653,-169.13698683,-61.52418568
-73.18308964,84.51070210,-159.96155371,-10.64892258,5.20292479,-0.93374719
-1.66325861,-0.43429330,-2.36652409

>  <Name>
1akx_lig

>  <RI>
0

>  <Rbt.Current_Directory>
/home/itssahil/PROJECTS/Mol_Feturizer/New_Systems/rnas/1akx

>  <Rbt.Executable>
rbdock ($Id: //depot/dev/client3/rdock/2013.1/src/exe/rbdock.cxx#4 $)

>  <Rbt.Library>
libRbt.so (2013.1, Build901 2013/11/27)

>  <Rbt.Parameter_File>
/export/apps/rDock/src/rDock_2013.1_src/data/scripts/dock_solv.prm

>  <Rbt.Receptor>
prm/blind_docking_20.prm

>  <SCORE>
-18.3878

>  <SCORE.INTER>
-14.1363

>  <SCORE.INTER.CONST>
1

>  <SCORE.INTER.POLAR>
-6.27454

>  <SCORE.INTER.ROT>
8

>  <SCORE.INTER.SOLV>
12.0308

>  <SCORE.INTER.VDW>
-1.45268

>  <SCORE.INTER.norm>
-1.28512

>  <SCORE.INTRA>
-6.00809

>  <SCORE.INTRA.DIHEDRAL>
-14.8803

>  <SCORE.INTRA.DIHEDRAL.0>
21.6454

>  <SCORE.INTRA.POLAR>
0

>  <SCORE.INTRA.POLAR.0>
0

>  <SCORE.INTRA.REPUL>
0

>  <SCORE.INTRA.REPUL.0>
0

>  <SCORE.INTRA.SOLV>
0.685172

>  <SCORE.INTRA.SOLV.lig_0>
-16.5947

>  <SCORE.INTRA.VDW>
1.0895

>  <SCORE.INTRA.VDW.0>
-0.691398

>  <SCORE.INTRA.norm>
-0.54619

>  <SCORE.RESTR>
1.75665

>  <SCORE.RESTR.CAVITY>
1.75665

>  <SCORE.RESTR.norm>
0.159695

>  <SCORE.SYSTEM>
0

>  <SCORE.SYSTEM.CONST>
0

>  <SCORE.SYSTEM.DIHEDRAL>
0

>  <SCORE.SYSTEM.SOLV>
0

>  <SCORE.SYSTEM.norm>
0

>  <SCORE.heavy>
11

>  <SCORE.norm>
-1.67161

>  <RMSD>
13.282

$$$$
1akx_lig
 OpenBabel11021811383D
libRbt.so/2013.1/901 2013/11/27
 11 10  0  0  0  0  0  0  0  0999 V2000
  -10.8329    4.6502   -3.9548 N   0  0  0  0  0  0  0  0  0  0  0  0
  -10.3467    3.7053   -2.9064 C   0  0  2  0  0  0  0  0  0  0  0  0
  -10.5920    2.2622   -3.3644 C   0  0  0  0  0  0  0  0  0  0  0  0
  -10.3244    1.3293   -2.6335 O   0  0  0  0  0  0  0  0  0  0  0  0
  -11.0952    3.9648   -1.5919 C   0  0  0  0  0  0  0  0  0  0  0  0
  -10.3736    5.0547   -0.7926 C   0  0  0  0  0  0  0  0  0  0  0  0
  -10.8981    5.0670    0.6432 C   0  0  0  0  0  0  0  0  0  0  0  0
  -10.0629    5.9866    1.4673 N   0  0  0  0  0  0  0  0  0  0  0  0
  -10.3429    7.2638    1.5187 C   0  0  0  0  0  0  0  0  0  0  0  0
  -10.3744    7.8859    2.6691 N   0  0  0  0  0  0  0  0  0  0  0  0
  -10.5854    7.9209    0.4162 N   0  0  0  0  0  0  0  0  0  0  0  0
  2  1  1  6  0  0  0
  2  3  1  0  0  0  0
  2  5  1  0  0  0  0
  3  4  1  0  0  0  0
  5  6  1  0  0  0  0
  6  7  1  0  0  0  0
  7  8  1  0  0  0  0
  8  9  1  0  0  0  0
  9 10  1  0  0  0  0
  9 11  1  0  0  0  0
M  END
>  <CHROM.1>
-38.54014661,-176.71832085,-87.17671959,-165.86853326,171.87229169,86.54084146
133.33752380,-179.21113616,-120.60699120,-10.52988467,5.03611193,-0.78834856
1.82088863,1.45429012,-2.57487759

>  <Name>
1akx_lig

>  <RI>
0

>  <Rbt.Current_Directory>
/home/itssahil/PROJECTS/Mol_Feturizer/New_Systems/rnas/1akx

>  <Rbt.Executable>
rbdock ($Id: //depot/dev/client3/rdock/2013.1/src/exe/rbdock.cxx#4 $)

>  <Rbt.Library>
libRbt.so (2013.1, Build901 2013/11/27)

>  <Rbt.Parameter_File>
/export/apps/rDock/src/rDock_2013.1_src/data/scripts/dock_solv.prm

>  <Rbt.Receptor>
prm/blind_docking_80.prm

>  <SCORE>
-37.6031

>  <SCORE.INTER>
-32.3805

>  <SCORE.INTER.CONST>
1

>  <SCORE.INTER.POLAR>
-5.44408

>  <SCORE.INTER.ROT>
8

>  <SCORE.INTER.SOLV>
14.0634

>  <SCORE.INTER.VDW>
-17.0612

>  <SCORE.INTER.norm>
-2.94368

>  <SCORE.INTRA>
-5.72669

>  <SCORE.INTRA.DIHEDRAL>
-12.2319

>  <SCORE.INTRA.DIHEDRAL.0>
21.6454

>  <SCORE.INTRA.POLAR>
0

>  <SCORE.INTRA.POLAR.0>
0

>  <SCORE.INTRA.REPUL>
0

>  <SCORE.INTRA.REPUL.0>
0

>  <SCORE.INTRA.SOLV>
0.199339

>  <SCORE.INTRA.SOLV.lig_0>
-16.5947

>  <SCORE.INTRA.VDW>
0.289571

>  <SCORE.INTRA.VDW.0>
-0.691398

>  <SCORE.INTRA.norm>
-0.520608

>  <SCORE.RESTR>
0.504111

>  <SCORE.RESTR.CAVITY>
0.504111

>  <SCORE.RESTR.norm>
0.0458283

>  <SCORE.SYSTEM>
0

>  <SCORE.SYSTEM.CONST>
0

>  <SCORE.SYSTEM.DIHEDRAL>
0

>  <SCORE.SYSTEM.SOLV>
0

>  <SCORE.SYSTEM.norm>
0

>  <SCORE.heavy>
11

>  <SCORE.norm>
-3.41846

>  <RMSD>
13.286

$$$$
1akx_lig
 OpenBabel11021811383D
libRbt.so/2013.1/901 2013/11/27
 11 10  0  0  0  0  0  0  0  0999 V2000
  -10.0332    6.4244    1.4792 N   0  0  0  0  0  0  0  0  0  0  0  0
  -11.1213    6.4274    0.4574 C   0  0  2  0  0  0  0  0  0  0  0  0
  -12.4799    6.2892    1.1559 C   0  0  0  0  0  0  0  0  0  0  0  0
  -12.8863    7.1654    1.8929 O   0  0  0  0  0  0  0  0  0  0  0  0
  -10.9185    5.2571   -0.5146 C   0  0  0  0  0  0  0  0  0  0  0  0
  -11.8757    5.3997   -1.7023 C   0  0  0  0  0  0  0  0  0  0  0  0
  -11.5707    4.3168   -2.7372 C   0  0  0  0  0  0  0  0  0  0  0  0
  -10.2238    4.5616   -3.3275 N   0  0  0  0  0  0  0  0  0  0  0  0
   -9.1851    3.8894   -2.9015 C   0  0  0  0  0  0  0  0  0  0  0  0
   -8.4730    4.3405   -1.9011 N   0  0  0  0  0  0  0  0  0  0  0  0
   -8.8622    2.7606   -3.4739 N   0  0  0  0  0  0  0  0  0  0  0  0
  2  1  1  1  0  0  0
  2  3  1  0  0  0  0
  2  5  1  0  0  0  0
  3  4  1  0  0  0  0
  5  6  1  0  0  0  0
  6  7  1  0  0  0  0
  7  8  1  0  0  0  0
  8  9  1  0  0  0  0
  9 10  1  0  0  0  0
  9 11  1  0  0  0  0
M  END
>  <CHROM.1>
-161.38728179,65.30153962,-169.92243731,174.11380442,-66.59124950,99.51616429
-89.36019980,-178.85148683,142.98935625,-10.65174519,5.17171115,-1.01927980
-2.02879621,0.21919584,-2.05188726

>  <Name>
1akx_lig

>  <RI>
0

>  <Rbt.Current_Directory>
/home/itssahil/PROJECTS/Mol_Feturizer/New_Systems/rnas/1akx

>  <Rbt.Executable>
rbdock ($Id: //depot/dev/client3/rdock/2013.1/src/exe/rbdock.cxx#4 $)

>  <Rbt.Library>
libRbt.so (2013.1, Build901 2013/11/27)

>  <Rbt.Parameter_File>
/export/apps/rDock/src/rDock_2013.1_src/data/scripts/dock_solv.prm

>  <Rbt.Receptor>
prm/blind_docking_100.prm

>  <SCORE>
-37.1526

>  <SCORE.INTER>
-31.2472

>  <SCORE.INTER.CONST>
1

>  <SCORE.INTER.POLAR>
-4.70081

>  <SCORE.INTER.ROT>
8

>  <SCORE.INTER.SOLV>
12.3217

>  <SCORE.INTER.VDW>
-18.2026

>  <SCORE.INTER.norm>
-2.84065

>  <SCORE.INTRA>
-5.90545

>  <SCORE.INTRA.DIHEDRAL>
-15.2483

>  <SCORE.INTRA.DIHEDRAL.0>
21.6454

>  <SCORE.INTRA.POLAR>
0

>  <SCORE.INTRA.POLAR.0>
0

>  <SCORE.INTRA.REPUL>
0

>  <SCORE.INTRA.REPUL.0>
0

>  <SCORE.INTRA.SOLV>
0.90075

>  <SCORE.INTRA.SOLV.lig_0>
-16.5947

>  <SCORE.INTRA.VDW>
1.26835

>  <SCORE.INTRA.VDW.0>
-0.691398

>  <SCORE.INTRA.norm>
-0.536859

>  <SCORE.RESTR>
0

>  <SCORE.RESTR.CAVITY>
0

>  <SCORE.RESTR.norm>
0

>  <SCORE.SYSTEM>
0

>  <SCORE.SYSTEM.CONST>
0

>  <SCORE.SYSTEM.DIHEDRAL>
0

>  <SCORE.SYSTEM.SOLV>
0

>  <SCORE.SYSTEM.norm>
0

>  <SCORE.heavy>
11

>  <SCORE.norm>
-3.37751

>  <RMSD>
13.288

$$$$
1akx_lig
 OpenBabel11021811383D
libRbt.so/2013.1/901 2013/11/27
 11 10  0  0  0  0  0  0  0  0999 V2000
   -9.8748    6.8545    0.1202 N   0  0  0  0  0  0  0  0  0  0  0  0
  -11.2695    6.6868    0.6249 C   0  0  2  0  0  0  0  0  0  0  0  0
  -11.2598    6.6651    2.1586 C   0  0  0  0  0  0  0  0  0  0  0  0
  -12.2445    6.3123    2.7767 O   0  0  0  0  0  0  0  0  0  0  0  0
  -11.8551    5.3716    0.0931 C   0  0  0  0  0  0  0  0  0  0  0  0
  -12.1885    5.5187   -1.3951 C   0  0  0  0  0  0  0  0  0  0  0  0
  -12.0054    4.1721   -2.0951 C   0  0  0  0  0  0  0  0  0  0  0  0
  -10.6145    3.6839   -1.8730 N   0  0  0  0  0  0  0  0  0  0  0  0
   -9.7628    3.6453   -2.8657 C   0  0  0  0  0  0  0  0  0  0  0  0
   -8.5084    3.9613   -2.6706 N   0  0  0  0  0  0  0  0  0  0  0  0
  -10.1660    3.2836   -4.0542 N   0  0  0  0  0  0  0  0  0  0  0  0
  2  1  1  6  0  0  0
  2  3  1  0  0  0  0
  2  5  1  0  0  0  0
  3  4  1  0  0  0  0
  5  6  1  0  0  0  0
  6  7  1  0  0  0  0
  7  8  1  0  0  0  0
  8  9  1  0  0  0  0
  9 10  1  0  0  0  0
  9 11  1  0  0  0  0
M  END
>  <CHROM.1>
24.12433846,-167.36803845,-73.68198259,148.32564351,-56.54459838,-110.40525478
141.49489378,61.97569844,101.26559793,-10.83706391,5.10487313,-0.83934112
-1.85859939,-0.18692182,-2.16309352

>  <Name>
1akx_lig

>  <RI>
0

>  <Rbt.Current_Directory>
/home/itssahil/PROJECTS/Mol_Feturizer/New_Systems/rnas/1akx

>  <Rbt.Executable>
rbdock ($Id: //depot/dev/client3/rdock/2013.1/src/exe/rbdock.cxx#4 $)

>  <Rbt.Library>
libRbt.so (2013.1, Build901 2013/11/27)

>  <Rbt.Parameter_File>
/export/apps/rDock/src/rDock_2013.1_src/data/scripts/dock_solv.prm

>  <Rbt.Receptor>
prm/blind_docking_40.prm

>  <SCORE>
-36.6117

>  <SCORE.INTER>
-33.439

>  <SCORE.INTER.CONST>
1

>  <SCORE.INTER.POLAR>
-5.6565

>  <SCORE.INTER.ROT>
8

>  <SCORE.INTER.SOLV>
11.5463

>  <SCORE.INTER.VDW>
-16.2198

>  <SCORE.INTER.norm>
-3.03991

>  <SCORE.INTRA>
-3.45264

>  <SCORE.INTRA.DIHEDRAL>
-9.84806

>  <SCORE.INTRA.DIHEDRAL.0>
21.6454

>  <SCORE.INTRA.POLAR>
0

>  <SCORE.INTRA.POLAR.0>
0

>  <SCORE.INTRA.REPUL>
0

>  <SCORE.INTRA.REPUL.0>
0

>  <SCORE.INTRA.SOLV>
0.813773

>  <SCORE.INTRA.SOLV.lig_0>
-16.5947

>  <SCORE.INTRA.VDW>
1.0645

>  <SCORE.INTRA.VDW.0>
-0.691398

>  <SCORE.INTRA.norm>
-0.313876

>  <SCORE.RESTR>
0.279886

>  <SCORE.RESTR.CAVITY>
0.279886

>  <SCORE.RESTR.norm>
0.0254442

>  <SCORE.SYSTEM>
0

>  <SCORE.SYSTEM.CONST>
0

>  <SCORE.SYSTEM.DIHEDRAL>
0

>  <SCORE.SYSTEM.SOLV>
0

>  <SCORE.SYSTEM.norm>
0

>  <SCORE.heavy>
11

>  <SCORE.norm>
-3.32834

>  <RMSD>
13.293

$$$$
1akx_lig
 OpenBabel11021811383D
libRbt.so/2013.1/901 2013/11/27
 11 10  0  0  0  0  0  0  0  0999 V2000
  -10.1533    7.6882    0.9647 N   0  0  0  0  0  0  0  0  0  0  0  0
  -11.3098    6.7896    1.2533 C   0  0  2  0  0  0  0  0  0  0  0  0
  -11.8025    7.0333    2.6853 C   0  0  0  0  0  0  0  0  0  0  0  0
  -12.0099    8.1626    3.0823 O   0  0  0  0  0  0  0  0  0  0  0  0
  -10.8760    5.3257    1.0979 C   0  0  0  0  0  0  0  0  0  0  0  0
  -10.7433    4.9809   -0.3890 C   0  0  0  0  0  0  0  0  0  0  0  0
   -9.4576    5.5948   -0.9430 C   0  0  0  0  0  0  0  0  0  0  0  0
   -8.6843    4.5495   -1.6722 N   0  0  0  0  0  0  0  0  0  0  0  0
   -9.0852    4.1310   -2.8455 C   0  0  0  0  0  0  0  0  0  0  0  0
   -8.3095    3.3706   -3.5745 N   0  0  0  0  0  0  0  0  0  0  0  0
  -10.2671    4.4689   -3.2870 N   0  0  0  0  0  0  0  0  0  0  0  0
  2  1  1  1  0  0  0
  2  3  1  0  0  0  0
  2  5  1  0  0  0  0
  3  4  1  0  0  0  0
  5  6  1  0  0  0  0
  6  7  1  0  0  0  0
  7  8  1  0  0  0  0
  8  9  1  0  0  0  0
  9 10  1  0  0  0  0
  9 11  1  0  0  0  0
M  END
>  <CHROM.1>
-39.92260699,48.93401138,-74.79914612,75.55079587,129.58534069,73.71425102
169.59512689,-99.66966886,85.10536927,-10.22446927,5.66616880,-0.34736465
-2.00373405,-0.50269135,-2.36405682

>  <Name>
1akx_lig

>  <RI>
0

>  <Rbt.Current_Directory>
/home/itssahil/PROJECTS/Mol_Feturizer/New_Systems/rnas/1akx

>  <Rbt.Executable>
rbdock ($Id: //depot/dev/client3/rdock/2013.1/src/exe/rbdock.cxx#4 $)

>  <Rbt.Library>
libRbt.so (2013.1, Build901 2013/11/27)

>  <Rbt.Parameter_File>
/export/apps/rDock/src/rDock_2013.1_src/data/scripts/dock_solv.prm

>  <Rbt.Receptor>
prm/blind_docking_100.prm

>  <SCORE>
-28.5644

>  <SCORE.INTER>
-27.0318

>  <SCORE.INTER.CONST>
1

>  <SCORE.INTER.POLAR>
-4.78173

>  <SCORE.INTER.ROT>
8

>  <SCORE.INTER.SOLV>
13.196

>  <SCORE.INTER.VDW>
-15.4141

>  <SCORE.INTER.norm>
-2.45743

>  <SCORE.INTRA>
-1.81299

>  <SCORE.INTRA.DIHEDRAL>
-8.53151

>  <SCORE.INTRA.DIHEDRAL.0>
21.6454

>  <SCORE.INTRA.POLAR>
0

>  <SCORE.INTRA.POLAR.0>
0

>  <SCORE.INTRA.REPUL>
0

>  <SCORE.INTRA.REPUL.0>
0

>  <SCORE.INTRA.SOLV>
0.711683

>  <SCORE.INTRA.SOLV.lig_0>
-16.5947

>  <SCORE.INTRA.VDW>
2.09692

>  <SCORE.INTRA.VDW.0>
-0.691398

>  <SCORE.INTRA.norm>
-0.164817

>  <SCORE.RESTR>
0.28037

>  <SCORE.RESTR.CAVITY>
0.28037

>  <SCORE.RESTR.norm>
0.0254882

>  <SCORE.SYSTEM>
0

>  <SCORE.SYSTEM.CONST>
0

>  <SCORE.SYSTEM.DIHEDRAL>
0

>  <SCORE.SYSTEM.SOLV>
0

>  <SCORE.SYSTEM.norm>
0

>  <SCORE.heavy>
11

>  <SCORE.norm>
-2.59676

>  <RMSD>
13.310

$$$$
1akx_lig
 OpenBabel11021811383D
libRbt.so/2013.1/901 2013/11/27
 11 10  0  0  0  0  0  0  0  0999 V2000
  -11.0653    4.6643   -3.9605 N   0  0  0  0  0  0  0  0  0  0  0  0
  -10.2530    4.0414   -2.8740 C   0  0  2  0  0  0  0  0  0  0  0  0
   -9.7906    2.6472   -3.3158 C   0  0  0  0  0  0  0  0  0  0  0  0
  -10.6013    1.7692   -3.5349 O   0  0  0  0  0  0  0  0  0  0  0  0
  -11.1001    3.9253   -1.5995 C   0  0  0  0  0  0  0  0  0  0  0  0
  -11.1854    5.2905   -0.9094 C   0  0  0  0  0  0  0  0  0  0  0  0
   -9.7861    5.7375   -0.4865 C   0  0  0  0  0  0  0  0  0  0  0  0
   -9.8838    7.0152    0.2753 N   0  0  0  0  0  0  0  0  0  0  0  0
  -10.3050    7.0137    1.5142 C   0  0  0  0  0  0  0  0  0  0  0  0
  -10.6196    5.8882    2.1020 N   0  0  0  0  0  0  0  0  0  0  0  0
  -10.4054    8.1400    2.1678 N   0  0  0  0  0  0  0  0  0  0  0  0
  2  1  1  6  0  0  0
  2  3  1  0  0  0  0
  2  5  1  0  0  0  0
  3  4  1  0  0  0  0
  5  6  1  0  0  0  0
  6  7  1  0  0  0  0
  7  8  1  0  0  0  0
  8  9  1  0  0  0  0
  9 10  1  0  0  0  0
  9 11  1  0  0  0  0
M  END
>  <CHROM.1>
-90.52982011,-63.51815225,-77.78703548,-62.45034596,-175.73768439,75.76258941
1.29365232,40.01511093,43.62711745,-10.47134621,5.11563172,-0.97343876,2.45395403
1.53149578,-3.13563876

>  <Name>
1akx_lig

>  <RI>
0

>  <Rbt.Current_Directory>
/home/afrankz/demos/rdock_decoys_rna/rnas/1akx

>  <Rbt.Executable>
rbdock ($Id: //depot/dev/client3/rdock/2013.1/src/exe/rbdock.cxx#4 $)

>  <Rbt.Library>
libRbt.so (2013.1, Build901 2013/11/27)

>  <Rbt.Parameter_File>
/export/apps/rDock/src/rDock_2013.1_src/data/scripts/dock_solv.prm

>  <Rbt.Receptor>
prm/blind_docking_60.prm

>  <SCORE>
-38.9227

>  <SCORE.INTER>
-34.7575

>  <SCORE.INTER.CONST>
1

>  <SCORE.INTER.POLAR>
-4.86391

>  <SCORE.INTER.ROT>
8

>  <SCORE.INTER.SOLV>
13.5704

>  <SCORE.INTER.VDW>
-20.4154

>  <SCORE.INTER.norm>
-3.15977

>  <SCORE.INTRA>
-4.16522

>  <SCORE.INTRA.DIHEDRAL>
-13.6625

>  <SCORE.INTRA.DIHEDRAL.0>
21.6454

>  <SCORE.INTRA.POLAR>
0

>  <SCORE.INTRA.POLAR.0>
0

>  <SCORE.INTRA.REPUL>
0

>  <SCORE.INTRA.REPUL.0>
0

>  <SCORE.INTRA.SOLV>
0.683049

>  <SCORE.INTRA.SOLV.lig_0>
-16.5947

>  <SCORE.INTRA.VDW>
2.32452

>  <SCORE.INTRA.VDW.0>
-0.691398

>  <SCORE.INTRA.norm>
-0.378657

>  <SCORE.RESTR>
0

>  <SCORE.RESTR.CAVITY>
0

>  <SCORE.RESTR.norm>
0

>  <SCORE.SYSTEM>
0

>  <SCORE.SYSTEM.CONST>
0

>  <SCORE.SYSTEM.DIHEDRAL>
0

>  <SCORE.SYSTEM.SOLV>
0

>  <SCORE.SYSTEM.norm>
0

>  <SCORE.heavy>
11

>  <SCORE.norm>
-3.53843

>  <RMSD>
13.325

>  <RMSD>
13.325

$$$$
1akx_lig
 OpenBabel11021811383D
libRbt.so/2013.1/901 2013/11/27
 11 10  0  0  0  0  0  0  0  0999 V2000
  -11.0653    4.6643   -3.9605 N   0  0  0  0  0  0  0  0  0  0  0  0
  -10.2530    4.0414   -2.8740 C   0  0  2  0  0  0  0  0  0  0  0  0
   -9.7906    2.6472   -3.3158 C   0  0  0  0  0  0  0  0  0  0  0  0
  -10.6013    1.7692   -3.5349 O   0  0  0  0  0  0  0  0  0  0  0  0
  -11.1001    3.9253   -1.5995 C   0  0  0  0  0  0  0  0  0  0  0  0
  -11.1854    5.2905   -0.9094 C   0  0  0  0  0  0  0  0  0  0  0  0
   -9.7861    5.7375   -0.4865 C   0  0  0  0  0  0  0  0  0  0  0  0
   -9.8838    7.0152    0.2753 N   0  0  0  0  0  0  0  0  0  0  0  0
  -10.3050    7.0137    1.5142 C   0  0  0  0  0  0  0  0  0  0  0  0
  -10.6196    5.8882    2.1020 N   0  0  0  0  0  0  0  0  0  0  0  0
  -10.4054    8.1400    2.1678 N   0  0  0  0  0  0  0  0  0  0  0  0
  2  1  1  6  0  0  0
  2  3  1  0  0  0  0
  2  5  1  0  0  0  0
  3  4  1  0  0  0  0
  5  6  1  0  0  0  0
  6  7  1  0  0  0  0
  7  8  1  0  0  0  0
  8  9  1  0  0  0  0
  9 10  1  0  0  0  0
  9 11  1  0  0  0  0
M  END
>  <CHROM.1>
-90.52982011,-63.51815225,-77.78703548,-62.45034596,-175.73768439,75.76258941
1.29365232,40.01511093,43.62711745,-10.47134621,5.11563172,-0.97343876,2.45395403
1.53149578,-3.13563876

>  <Name>
1akx_lig

>  <RI>
0

>  <Rbt.Current_Directory>
/home/afrankz/demos/rdock_decoys_rna/rnas/1akx

>  <Rbt.Executable>
rbdock ($Id: //depot/dev/client3/rdock/2013.1/src/exe/rbdock.cxx#4 $)

>  <Rbt.Library>
libRbt.so (2013.1, Build901 2013/11/27)

>  <Rbt.Parameter_File>
/export/apps/rDock/src/rDock_2013.1_src/data/scripts/dock_solv.prm

>  <Rbt.Receptor>
prm/blind_docking_60.prm

>  <SCORE>
-38.9227

>  <SCORE.INTER>
-34.7575

>  <SCORE.INTER.CONST>
1

>  <SCORE.INTER.POLAR>
-4.86391

>  <SCORE.INTER.ROT>
8

>  <SCORE.INTER.SOLV>
13.5704

>  <SCORE.INTER.VDW>
-20.4154

>  <SCORE.INTER.norm>
-3.15977

>  <SCORE.INTRA>
-4.16522

>  <SCORE.INTRA.DIHEDRAL>
-13.6625

>  <SCORE.INTRA.DIHEDRAL.0>
21.6454

>  <SCORE.INTRA.POLAR>
0

>  <SCORE.INTRA.POLAR.0>
0

>  <SCORE.INTRA.REPUL>
0

>  <SCORE.INTRA.REPUL.0>
0

>  <SCORE.INTRA.SOLV>
0.683049

>  <SCORE.INTRA.SOLV.lig_0>
-16.5947

>  <SCORE.INTRA.VDW>
2.32452

>  <SCORE.INTRA.VDW.0>
-0.691398

>  <SCORE.INTRA.norm>
-0.378657

>  <SCORE.RESTR>
0

>  <SCORE.RESTR.CAVITY>
0

>  <SCORE.RESTR.norm>
0

>  <SCORE.SYSTEM>
0

>  <SCORE.SYSTEM.CONST>
0

>  <SCORE.SYSTEM.DIHEDRAL>
0

>  <SCORE.SYSTEM.SOLV>
0

>  <SCORE.SYSTEM.norm>
0

>  <SCORE.heavy>
11

>  <SCORE.norm>
-3.53843

>  <RMSD>
13.325

>  <RMSD>
13.325

$$$$
1akx_lig
 OpenBabel11021811383D
libRbt.so/2013.1/901 2013/11/27
 11 10  0  0  0  0  0  0  0  0999 V2000
  -10.0737    5.9018    1.3509 N   0  0  0  0  0  0  0  0  0  0  0  0
  -10.9893    6.7071    0.4899 C   0  0  2  0  0  0  0  0  0  0  0  0
  -12.0483    7.3884    1.3658 C   0  0  0  0  0  0  0  0  0  0  0  0
  -12.7310    8.2890    0.9197 O   0  0  0  0  0  0  0  0  0  0  0  0
  -11.6754    5.7898   -0.5314 C   0  0  0  0  0  0  0  0  0  0  0  0
  -10.6371    5.2482   -1.5193 C   0  0  0  0  0  0  0  0  0  0  0  0
  -11.3300    4.3609   -2.5534 C   0  0  0  0  0  0  0  0  0  0  0  0
  -10.3721    4.0364   -3.6485 N   0  0  0  0  0  0  0  0  0  0  0  0
   -9.3721    3.2212   -3.4299 C   0  0  0  0  0  0  0  0  0  0  0  0
   -9.5347    1.9295   -3.5576 N   0  0  0  0  0  0  0  0  0  0  0  0
   -8.2057    3.7002   -3.0891 N   0  0  0  0  0  0  0  0  0  0  0  0
  2  1  1  1  0  0  0
  2  3  1  0  0  0  0
  2  5  1  0  0  0  0
  3  4  1  0  0  0  0
  5  6  1  0  0  0  0
  6  7  1  0  0  0  0
  7  8  1  0  0  0  0
  8  9  1  0  0  0  0
  9 10  1  0  0  0  0
  9 11  1  0  0  0  0
M  END
>  <CHROM.1>
-93.19364714,165.67149304,-66.91464698,-178.72012533,169.86534325,71.01261335
86.37653803,-35.47151075,-31.30714078,-10.60138841,5.12860729,-1.27825123
-1.99020840,0.48405921,-2.12032631

>  <Name>
1akx_lig

>  <RI>
0

>  <Rbt.Current_Directory>
/home/itssahil/PROJECTS/Mol_Feturizer/New_Systems/rnas/1akx

>  <Rbt.Executable>
rbdock ($Id: //depot/dev/client3/rdock/2013.1/src/exe/rbdock.cxx#4 $)

>  <Rbt.Library>
libRbt.so (2013.1, Build901 2013/11/27)

>  <Rbt.Parameter_File>
/export/apps/rDock/src/rDock_2013.1_src/data/scripts/dock_solv.prm

>  <Rbt.Receptor>
prm/blind_docking_80.prm

>  <SCORE>
-38.9773

>  <SCORE.INTER>
-33.7692

>  <SCORE.INTER.CONST>
1

>  <SCORE.INTER.POLAR>
-5.87535

>  <SCORE.INTER.ROT>
8

>  <SCORE.INTER.SOLV>
14.1311

>  <SCORE.INTER.VDW>
-16.572

>  <SCORE.INTER.norm>
-3.06993

>  <SCORE.INTRA>
-5.77571

>  <SCORE.INTRA.DIHEDRAL>
-13.4595

>  <SCORE.INTRA.DIHEDRAL.0>
21.6454

>  <SCORE.INTRA.POLAR>
0

>  <SCORE.INTRA.POLAR.0>
0

>  <SCORE.INTRA.REPUL>
0

>  <SCORE.INTRA.REPUL.0>
0

>  <SCORE.INTRA.SOLV>
0.187575

>  <SCORE.INTRA.SOLV.lig_0>
-16.5947

>  <SCORE.INTRA.VDW>
0.860234

>  <SCORE.INTRA.VDW.0>
-0.691398

>  <SCORE.INTRA.norm>
-0.525064

>  <SCORE.RESTR>
0.567662

>  <SCORE.RESTR.CAVITY>
0.567662

>  <SCORE.RESTR.norm>
0.0516057

>  <SCORE.SYSTEM>
0

>  <SCORE.SYSTEM.CONST>
0

>  <SCORE.SYSTEM.DIHEDRAL>
0

>  <SCORE.SYSTEM.SOLV>
0

>  <SCORE.SYSTEM.norm>
0

>  <SCORE.heavy>
11

>  <SCORE.norm>
-3.54339

>  <RMSD>
13.326

$$$$
1akx_lig
 OpenBabel11021811383D
libRbt.so/2013.1/901 2013/11/27
 11 10  0  0  0  0  0  0  0  0999 V2000
   -8.4084    3.6256   -2.8687 N   0  0  0  0  0  0  0  0  0  0  0  0
   -9.8666    3.4175   -2.6267 C   0  0  2  0  0  0  0  0  0  0  0  0
  -10.6317    3.5715   -3.9472 C   0  0  0  0  0  0  0  0  0  0  0  0
  -10.8945    4.6749   -4.3826 O   0  0  0  0  0  0  0  0  0  0  0  0
  -10.3731    4.4517   -1.6122 C   0  0  0  0  0  0  0  0  0  0  0  0
  -11.8966    4.3494   -1.4866 C   0  0  0  0  0  0  0  0  0  0  0  0
  -12.3420    4.9621   -0.1588 C   0  0  0  0  0  0  0  0  0  0  0  0
  -11.6394    6.2606    0.0475 N   0  0  0  0  0  0  0  0  0  0  0  0
  -10.7432    6.3825    0.9933 C   0  0  0  0  0  0  0  0  0  0  0  0
  -10.8092    5.6341    2.0642 N   0  0  0  0  0  0  0  0  0  0  0  0
   -9.7758    7.2504    0.8639 N   0  0  0  0  0  0  0  0  0  0  0  0
  2  1  1  6  0  0  0
  2  3  1  0  0  0  0
  2  5  1  0  0  0  0
  3  4  1  0  0  0  0
  5  6  1  0  0  0  0
  6  7  1  0  0  0  0
  7  8  1  0  0  0  0
  8  9  1  0  0  0  0
  9 10  1  0  0  0  0
  9 11  1  0  0  0  0
M  END
>  <CHROM.1>
-175.59035068,-79.87316666,173.33109066,158.89063532,45.20070152,-111.47129081
-27.35565834,-80.94578995,-154.45690904,-10.62360026,4.98493040,-1.19396435
-1.42243265,-0.02708806,1.09567355

>  <Name>
1akx_lig

>  <RI>
0

>  <Rbt.Current_Directory>
/home/itssahil/PROJECTS/Mol_Feturizer/New_Systems/rnas/1akx

>  <Rbt.Executable>
rbdock ($Id: //depot/dev/client3/rdock/2013.1/src/exe/rbdock.cxx#4 $)

>  <Rbt.Library>
libRbt.so (2013.1, Build901 2013/11/27)

>  <Rbt.Parameter_File>
/export/apps/rDock/src/rDock_2013.1_src/data/scripts/dock_solv.prm

>  <Rbt.Receptor>
prm/blind_docking_80.prm

>  <SCORE>
-38.9698

>  <SCORE.INTER>
-36.3883

>  <SCORE.INTER.CONST>
1

>  <SCORE.INTER.POLAR>
-6.04162

>  <SCORE.INTER.ROT>
8

>  <SCORE.INTER.SOLV>
13.4371

>  <SCORE.INTER.VDW>
-17.5325

>  <SCORE.INTER.norm>
-3.30803

>  <SCORE.INTRA>
-3.03901

>  <SCORE.INTRA.DIHEDRAL>
-12.8412

>  <SCORE.INTRA.DIHEDRAL.0>
21.6454

>  <SCORE.INTRA.POLAR>
0

>  <SCORE.INTRA.POLAR.0>
0

>  <SCORE.INTRA.REPUL>
0

>  <SCORE.INTRA.REPUL.0>
0

>  <SCORE.INTRA.SOLV>
0.916614

>  <SCORE.INTRA.SOLV.lig_0>
-16.5947

>  <SCORE.INTRA.VDW>
2.9233

>  <SCORE.INTRA.VDW.0>
-0.691398

>  <SCORE.INTRA.norm>
-0.276273

>  <SCORE.RESTR>
0.457516

>  <SCORE.RESTR.CAVITY>
0.457516

>  <SCORE.RESTR.norm>
0.0415924

>  <SCORE.SYSTEM>
0

>  <SCORE.SYSTEM.CONST>
0

>  <SCORE.SYSTEM.DIHEDRAL>
0

>  <SCORE.SYSTEM.SOLV>
0

>  <SCORE.SYSTEM.norm>
0

>  <SCORE.heavy>
11

>  <SCORE.norm>
-3.54271

>  <RMSD>
13.331

$$$$
1akx_lig
 OpenBabel11021811383D
libRbt.so/2013.1/901 2013/11/27
 11 10  0  0  0  0  0  0  0  0999 V2000
  -10.8869    4.4020   -4.1603 N   0  0  0  0  0  0  0  0  0  0  0  0
  -10.3161    3.5465   -3.0784 C   0  0  2  0  0  0  0  0  0  0  0  0
  -10.4948    2.0683   -3.4467 C   0  0  0  0  0  0  0  0  0  0  0  0
  -10.3289    1.2005   -2.6127 O   0  0  0  0  0  0  0  0  0  0  0  0
  -11.0363    3.8403   -1.7554 C   0  0  0  0  0  0  0  0  0  0  0  0
  -10.4954    5.1396   -1.1498 C   0  0  0  0  0  0  0  0  0  0  0  0
  -10.9140    5.2323    0.3175 C   0  0  0  0  0  0  0  0  0  0  0  0
  -10.0863    6.2648    1.0040 N   0  0  0  0  0  0  0  0  0  0  0  0
  -10.6597    7.2223    1.6872 C   0  0  0  0  0  0  0  0  0  0  0  0
  -11.4103    6.9368    2.7199 N   0  0  0  0  0  0  0  0  0  0  0  0
  -10.4763    8.4680    1.3400 N   0  0  0  0  0  0  0  0  0  0  0  0
  2  1  1  6  0  0  0
  2  3  1  0  0  0  0
  2  5  1  0  0  0  0
  3  4  1  0  0  0  0
  5  6  1  0  0  0  0
  6  7  1  0  0  0  0
  7  8  1  0  0  0  0
  8  9  1  0  0  0  0
  9 10  1  0  0  0  0
  9 11  1  0  0  0  0
M  END
>  <CHROM.1>
77.00348750,-166.47491425,-78.43467700,-164.46265955,163.95357426,127.69652116
61.14011050,-94.30779885,-172.28357687,-10.65143128,4.96153030,-0.83568831
-0.64031194,1.53416409,-0.10501577

>  <Name>
1akx_lig

>  <RI>
0

>  <Rbt.Current_Directory>
/home/itssahil/PROJECTS/Mol_Feturizer/New_Systems/rnas/1akx

>  <Rbt.Executable>
rbdock ($Id: //depot/dev/client3/rdock/2013.1/src/exe/rbdock.cxx#4 $)

>  <Rbt.Library>
libRbt.so (2013.1, Build901 2013/11/27)

>  <Rbt.Parameter_File>
/export/apps/rDock/src/rDock_2013.1_src/data/scripts/dock_solv.prm

>  <Rbt.Receptor>
prm/blind_docking_20.prm

>  <SCORE>
-41.6342

>  <SCORE.INTER>
-37.6535

>  <SCORE.INTER.CONST>
1

>  <SCORE.INTER.POLAR>
-6.0004

>  <SCORE.INTER.ROT>
8

>  <SCORE.INTER.SOLV>
12.7453

>  <SCORE.INTER.VDW>
-18.2828

>  <SCORE.INTER.norm>
-3.42304

>  <SCORE.INTRA>
-6.1516

>  <SCORE.INTRA.DIHEDRAL>
-12.402

>  <SCORE.INTRA.DIHEDRAL.0>
21.6454

>  <SCORE.INTRA.POLAR>
0

>  <SCORE.INTRA.POLAR.0>
0

>  <SCORE.INTRA.REPUL>
0

>  <SCORE.INTRA.REPUL.0>
0

>  <SCORE.INTRA.SOLV>
0.0164953

>  <SCORE.INTRA.SOLV.lig_0>
-16.5947

>  <SCORE.INTRA.VDW>
0.0411646

>  <SCORE.INTRA.VDW.0>
-0.691398

>  <SCORE.INTRA.norm>
-0.559236

>  <SCORE.RESTR>
2.17083

>  <SCORE.RESTR.CAVITY>
2.17083

>  <SCORE.RESTR.norm>
0.197348

>  <SCORE.SYSTEM>
0

>  <SCORE.SYSTEM.CONST>
0

>  <SCORE.SYSTEM.DIHEDRAL>
0

>  <SCORE.SYSTEM.SOLV>
0

>  <SCORE.SYSTEM.norm>
0

>  <SCORE.heavy>
11

>  <SCORE.norm>
-3.78493

>  <RMSD>
13.338

$$$$
1akx_lig
 OpenBabel11021811383D
libRbt.so/2013.1/901 2013/11/27
 11 10  0  0  0  0  0  0  0  0999 V2000
   -9.7253    6.6819    1.7980 N   0  0  0  0  0  0  0  0  0  0  0  0
  -10.7392    7.1248    0.7960 C   0  0  2  0  0  0  0  0  0  0  0  0
  -11.8401    7.9264    1.5018 C   0  0  0  0  0  0  0  0  0  0  0  0
  -12.1026    7.7178    2.6696 O   0  0  0  0  0  0  0  0  0  0  0  0
  -11.3533    5.8981    0.1079 C   0  0  0  0  0  0  0  0  0  0  0  0
  -10.3829    5.3575   -0.9472 C   0  0  0  0  0  0  0  0  0  0  0  0
  -11.1709    4.8609   -2.1594 C   0  0  0  0  0  0  0  0  0  0  0  0
  -10.2310    4.5944   -3.2854 N   0  0  0  0  0  0  0  0  0  0  0  0
   -9.4935    3.5134   -3.2870 C   0  0  0  0  0  0  0  0  0  0  0  0
  -10.0539    2.3331   -3.2214 N   0  0  0  0  0  0  0  0  0  0  0  0
   -8.1933    3.6138   -3.3606 N   0  0  0  0  0  0  0  0  0  0  0  0
  2  1  1  1  0  0  0
  2  3  1  0  0  0  0
  2  5  1  0  0  0  0
  3  4  1  0  0  0  0
  5  6  1  0  0  0  0
  6  7  1  0  0  0  0
  7  8  1  0  0  0  0
  8  9  1  0  0  0  0
  9 10  1  0  0  0  0
  9 11  1  0  0  0  0
M  END
>  <CHROM.1>
3.91867008,-27.74964497,-77.89520700,-143.01408990,168.65287389,76.62225322
57.53645569,34.89290417,107.99806094,-10.44756907,5.40437645,-0.83172818
-1.84800027,0.18708602,-2.17552920

>  <Name>
1akx_lig

>  <RI>
0

>  <Rbt.Current_Directory>
/home/itssahil/PROJECTS/Mol_Feturizer/New_Systems/rnas/1akx

>  <Rbt.Executable>
rbdock ($Id: //depot/dev/client3/rdock/2013.1/src/exe/rbdock.cxx#4 $)

>  <Rbt.Library>
libRbt.so (2013.1, Build901 2013/11/27)

>  <Rbt.Parameter_File>
/export/apps/rDock/src/rDock_2013.1_src/data/scripts/dock_solv.prm

>  <Rbt.Receptor>
prm/blind_docking_40.prm

>  <SCORE>
-33.9163

>  <SCORE.INTER>
-33.0643

>  <SCORE.INTER.CONST>
1

>  <SCORE.INTER.POLAR>
-5.57219

>  <SCORE.INTER.ROT>
8

>  <SCORE.INTER.SOLV>
13.0354

>  <SCORE.INTER.VDW>
-16.7474

>  <SCORE.INTER.norm>
-3.00584

>  <SCORE.INTRA>
-1.00836

>  <SCORE.INTRA.DIHEDRAL>
-4.5073

>  <SCORE.INTRA.DIHEDRAL.0>
21.6454

>  <SCORE.INTRA.POLAR>
0

>  <SCORE.INTRA.POLAR.0>
0

>  <SCORE.INTRA.REPUL>
0

>  <SCORE.INTRA.REPUL.0>
0

>  <SCORE.INTRA.SOLV>
0.490493

>  <SCORE.INTRA.SOLV.lig_0>
-16.5947

>  <SCORE.INTRA.VDW>
1.00004

>  <SCORE.INTRA.VDW.0>
-0.691398

>  <SCORE.INTRA.norm>
-0.0916692

>  <SCORE.RESTR>
0.156321

>  <SCORE.RESTR.CAVITY>
0.156321

>  <SCORE.RESTR.norm>
0.014211

>  <SCORE.SYSTEM>
0

>  <SCORE.SYSTEM.CONST>
0

>  <SCORE.SYSTEM.DIHEDRAL>
0

>  <SCORE.SYSTEM.SOLV>
0

>  <SCORE.SYSTEM.norm>
0

>  <SCORE.heavy>
11

>  <SCORE.norm>
-3.0833

>  <RMSD>
13.338

$$$$
1akx_lig
 OpenBabel11021811383D
libRbt.so/2013.1/901 2013/11/27
 11 10  0  0  0  0  0  0  0  0999 V2000
   -9.7732    4.7324   -3.4871 N   0  0  0  0  0  0  0  0  0  0  0  0
  -10.2306    3.7494   -2.4612 C   0  0  2  0  0  0  0  0  0  0  0  0
  -10.4154    2.3747   -3.1160 C   0  0  0  0  0  0  0  0  0  0  0  0
   -9.5051    1.8580   -3.7328 O   0  0  0  0  0  0  0  0  0  0  0  0
  -11.5615    4.2172   -1.8568 C   0  0  0  0  0  0  0  0  0  0  0  0
  -11.3297    5.4666   -1.0008 C   0  0  0  0  0  0  0  0  0  0  0  0
  -10.7063    5.0622    0.3351 C   0  0  0  0  0  0  0  0  0  0  0  0
  -10.0352    6.2447    0.9462 N   0  0  0  0  0  0  0  0  0  0  0  0
  -10.7099    7.0622    1.7137 C   0  0  0  0  0  0  0  0  0  0  0  0
  -10.5303    8.3546    1.6188 N   0  0  0  0  0  0  0  0  0  0  0  0
  -11.5703    6.5857    2.5731 N   0  0  0  0  0  0  0  0  0  0  0  0
  2  1  1  6  0  0  0
  2  3  1  0  0  0  0
  2  5  1  0  0  0  0
  3  4  1  0  0  0  0
  5  6  1  0  0  0  0
  6  7  1  0  0  0  0
  7  8  1  0  0  0  0
  8  9  1  0  0  0  0
  9 10  1  0  0  0  0
  9 11  1  0  0  0  0
M  END
>  <CHROM.1>
-92.73601976,54.82606197,-69.35209726,-76.77785140,159.56278323,87.86746705
-138.85396534,-158.90882342,-154.68207810,-10.55589544,5.09049905,-0.78203246
-1.30169974,1.10604757,0.63893085

>  <Name>
1akx_lig

>  <RI>
0

>  <Rbt.Current_Directory>
/home/itssahil/PROJECTS/Mol_Feturizer/New_Systems/rnas/1akx

>  <Rbt.Executable>
rbdock ($Id: //depot/dev/client3/rdock/2013.1/src/exe/rbdock.cxx#4 $)

>  <Rbt.Library>
libRbt.so (2013.1, Build901 2013/11/27)

>  <Rbt.Parameter_File>
/export/apps/rDock/src/rDock_2013.1_src/data/scripts/dock_solv.prm

>  <Rbt.Receptor>
prm/blind_docking_40.prm

>  <SCORE>
-38.8585

>  <SCORE.INTER>
-34.266

>  <SCORE.INTER.CONST>
1

>  <SCORE.INTER.POLAR>
-5.58443

>  <SCORE.INTER.ROT>
8

>  <SCORE.INTER.SOLV>
11.7911

>  <SCORE.INTER.VDW>
-17.093

>  <SCORE.INTER.norm>
-3.11509

>  <SCORE.INTRA>
-4.59242

>  <SCORE.INTRA.DIHEDRAL>
-11.8045

>  <SCORE.INTRA.DIHEDRAL.0>
21.6454

>  <SCORE.INTRA.POLAR>
0

>  <SCORE.INTRA.POLAR.0>
0

>  <SCORE.INTRA.REPUL>
0

>  <SCORE.INTRA.REPUL.0>
0

>  <SCORE.INTRA.SOLV>
0.491138

>  <SCORE.INTRA.SOLV.lig_0>
-16.5947

>  <SCORE.INTRA.VDW>
1.06428

>  <SCORE.INTRA.VDW.0>
-0.691398

>  <SCORE.INTRA.norm>
-0.417493

>  <SCORE.RESTR>
0

>  <SCORE.RESTR.CAVITY>
0

>  <SCORE.RESTR.norm>
0

>  <SCORE.SYSTEM>
0

>  <SCORE.SYSTEM.CONST>
0

>  <SCORE.SYSTEM.DIHEDRAL>
0

>  <SCORE.SYSTEM.SOLV>
0

>  <SCORE.SYSTEM.norm>
0

>  <SCORE.heavy>
11

>  <SCORE.norm>
-3.53259

>  <RMSD>
13.338

$$$$
1akx_lig
 OpenBabel11021811383D
libRbt.so/2013.1/901 2013/11/27
 11 10  0  0  0  0  0  0  0  0999 V2000
   -9.7762    4.6580   -3.5453 N   0  0  0  0  0  0  0  0  0  0  0  0
  -10.1015    3.5504   -2.5989 C   0  0  2  0  0  0  0  0  0  0  0  0
  -10.4999    2.2996   -3.3923 C   0  0  0  0  0  0  0  0  0  0  0  0
  -10.8780    1.2987   -2.8167 O   0  0  0  0  0  0  0  0  0  0  0  0
  -11.2607    3.9754   -1.6874 C   0  0  0  0  0  0  0  0  0  0  0  0
  -10.8260    5.1580   -0.8156 C   0  0  0  0  0  0  0  0  0  0  0  0
  -11.6617    5.1836    0.4642 C   0  0  0  0  0  0  0  0  0  0  0  0
  -10.8243    5.6824    1.5921 N   0  0  0  0  0  0  0  0  0  0  0  0
  -10.8094    6.9568    1.8889 C   0  0  0  0  0  0  0  0  0  0  0  0
  -11.7813    7.4818    2.5898 N   0  0  0  0  0  0  0  0  0  0  0  0
   -9.8168    7.7057    1.4890 N   0  0  0  0  0  0  0  0  0  0  0  0
  2  1  1  6  0  0  0
  2  3  1  0  0  0  0
  2  5  1  0  0  0  0
  3  4  1  0  0  0  0
  5  6  1  0  0  0  0
  6  7  1  0  0  0  0
  7  8  1  0  0  0  0
  8  9  1  0  0  0  0
  9 10  1  0  0  0  0
  9 11  1  0  0  0  0
M  END
>  <CHROM.1>
-101.91547159,-175.84234018,-64.12015394,-154.68244887,146.02053866,92.29654029
79.84174103,-97.91630160,122.02470783,-10.73275057,4.92970568,-0.62574161
-1.44690383,0.97213913,0.75633026

>  <Name>
1akx_lig

>  <RI>
0

>  <Rbt.Current_Directory>
/home/itssahil/PROJECTS/Mol_Feturizer/New_Systems/rnas/1akx

>  <Rbt.Executable>
rbdock ($Id: //depot/dev/client3/rdock/2013.1/src/exe/rbdock.cxx#4 $)

>  <Rbt.Library>
libRbt.so (2013.1, Build901 2013/11/27)

>  <Rbt.Parameter_File>
/export/apps/rDock/src/rDock_2013.1_src/data/scripts/dock_solv.prm

>  <Rbt.Receptor>
prm/blind_docking_100.prm

>  <SCORE>
-33.3936

>  <SCORE.INTER>
-30.5201

>  <SCORE.INTER.CONST>
1

>  <SCORE.INTER.POLAR>
-5.06459

>  <SCORE.INTER.ROT>
8

>  <SCORE.INTER.SOLV>
10.9494

>  <SCORE.INTER.VDW>
-16.0479

>  <SCORE.INTER.norm>
-2.77455

>  <SCORE.INTRA>
-2.87348

>  <SCORE.INTRA.DIHEDRAL>
-8.21117

>  <SCORE.INTRA.DIHEDRAL.0>
21.6454

>  <SCORE.INTRA.POLAR>
0

>  <SCORE.INTRA.POLAR.0>
0

>  <SCORE.INTRA.REPUL>
0

>  <SCORE.INTRA.REPUL.0>
0

>  <SCORE.INTRA.SOLV>
0.13688

>  <SCORE.INTRA.SOLV.lig_0>
-16.5947

>  <SCORE.INTRA.VDW>
1.16366

>  <SCORE.INTRA.VDW.0>
-0.691398

>  <SCORE.INTRA.norm>
-0.261225

>  <SCORE.RESTR>
0

>  <SCORE.RESTR.CAVITY>
0

>  <SCORE.RESTR.norm>
0

>  <SCORE.SYSTEM>
0

>  <SCORE.SYSTEM.CONST>
0

>  <SCORE.SYSTEM.DIHEDRAL>
0

>  <SCORE.SYSTEM.SOLV>
0

>  <SCORE.SYSTEM.norm>
0

>  <SCORE.heavy>
11

>  <SCORE.norm>
-3.03578

>  <RMSD>
13.346

$$$$
1akx_lig
 OpenBabel11021811383D
libRbt.so/2013.1/901 2013/11/27
 11 10  0  0  0  0  0  0  0  0999 V2000
   -9.5512    6.6245    0.1121 N   0  0  0  0  0  0  0  0  0  0  0  0
  -10.9685    6.7473    0.5641 C   0  0  2  0  0  0  0  0  0  0  0  0
  -11.0132    7.4624    1.9203 C   0  0  0  0  0  0  0  0  0  0  0  0
  -10.3510    8.4629    2.1121 O   0  0  0  0  0  0  0  0  0  0  0  0
  -11.5902    5.3503    0.6956 C   0  0  0  0  0  0  0  0  0  0  0  0
  -12.3881    5.0184   -0.5695 C   0  0  0  0  0  0  0  0  0  0  0  0
  -11.4912    5.1816   -1.7966 C   0  0  0  0  0  0  0  0  0  0  0  0
  -10.3717    4.1998   -1.7255 N   0  0  0  0  0  0  0  0  0  0  0  0
   -9.8224    3.7454   -2.8228 C   0  0  0  0  0  0  0  0  0  0  0  0
  -10.5231    3.6598   -3.9242 N   0  0  0  0  0  0  0  0  0  0  0  0
   -8.5678    3.3819   -2.8192 N   0  0  0  0  0  0  0  0  0  0  0  0
  2  1  1  1  0  0  0
  2  3  1  0  0  0  0
  2  5  1  0  0  0  0
  3  4  1  0  0  0  0
  5  6  1  0  0  0  0
  6  7  1  0  0  0  0
  7  8  1  0  0  0  0
  8  9  1  0  0  0  0
  9 10  1  0  0  0  0
  9 11  1  0  0  0  0
M  END
>  <CHROM.1>
159.59265008,45.29540517,-97.34667211,54.41190134,63.34672881,151.36015034
-28.88041402,172.29594718,-20.76148667,-10.54525858,5.44123440,-0.76698865
-1.70872775,-0.13717233,-2.27892439

>  <Name>
1akx_lig

>  <RI>
0

>  <Rbt.Current_Directory>
/home/itssahil/PROJECTS/Mol_Feturizer/New_Systems/rnas/1akx

>  <Rbt.Executable>
rbdock ($Id: //depot/dev/client3/rdock/2013.1/src/exe/rbdock.cxx#4 $)

>  <Rbt.Library>
libRbt.so (2013.1, Build901 2013/11/27)

>  <Rbt.Parameter_File>
/export/apps/rDock/src/rDock_2013.1_src/data/scripts/dock_solv.prm

>  <Rbt.Receptor>
prm/blind_docking_80.prm

>  <SCORE>
-39.2864

>  <SCORE.INTER>
-35.2612

>  <SCORE.INTER.CONST>
1

>  <SCORE.INTER.POLAR>
-5.45742

>  <SCORE.INTER.ROT>
8

>  <SCORE.INTER.SOLV>
12.7253

>  <SCORE.INTER.VDW>
-18.4911

>  <SCORE.INTER.norm>
-3.20556

>  <SCORE.INTRA>
-4.04147

>  <SCORE.INTRA.DIHEDRAL>
-10.9485

>  <SCORE.INTRA.DIHEDRAL.0>
21.6454

>  <SCORE.INTRA.POLAR>
-0.517801

>  <SCORE.INTRA.POLAR.0>
0

>  <SCORE.INTRA.REPUL>
0

>  <SCORE.INTRA.REPUL.0>
0

>  <SCORE.INTRA.SOLV>
1.3913

>  <SCORE.INTRA.SOLV.lig_0>
-16.5947

>  <SCORE.INTRA.VDW>
2.49768

>  <SCORE.INTRA.VDW.0>
-0.691398

>  <SCORE.INTRA.norm>
-0.367406

>  <SCORE.RESTR>
0.0162123

>  <SCORE.RESTR.CAVITY>
0.0162123

>  <SCORE.RESTR.norm>
0.00147384

>  <SCORE.SYSTEM>
0

>  <SCORE.SYSTEM.CONST>
0

>  <SCORE.SYSTEM.DIHEDRAL>
0

>  <SCORE.SYSTEM.SOLV>
0

>  <SCORE.SYSTEM.norm>
0

>  <SCORE.heavy>
11

>  <SCORE.norm>
-3.57149

>  <RMSD>
13.350

$$$$
1akx_lig
 OpenBabel11021811383D
libRbt.so/2013.1/901 2013/11/27
 11 10  0  0  0  0  0  0  0  0999 V2000
  -11.0146    8.6079    1.5097 N   0  0  0  0  0  0  0  0  0  0  0  0
  -11.4700    7.2837    0.9929 C   0  0  2  0  0  0  0  0  0  0  0  0
  -12.3775    6.6132    2.0320 C   0  0  0  0  0  0  0  0  0  0  0  0
  -11.9693    6.3890    3.1541 O   0  0  0  0  0  0  0  0  0  0  0  0
  -10.2520    6.3915    0.7178 C   0  0  0  0  0  0  0  0  0  0  0  0
  -10.4968    5.5568   -0.5434 C   0  0  0  0  0  0  0  0  0  0  0  0
   -9.1640    5.2782   -1.2384 C   0  0  0  0  0  0  0  0  0  0  0  0
   -9.4099    4.9743   -2.6769 N   0  0  0  0  0  0  0  0  0  0  0  0
   -9.4716    3.7334   -3.0876 C   0  0  0  0  0  0  0  0  0  0  0  0
  -10.3335    3.3859   -4.0083 N   0  0  0  0  0  0  0  0  0  0  0  0
   -8.6650    2.8401   -2.5803 N   0  0  0  0  0  0  0  0  0  0  0  0
  2  1  1  1  0  0  0
  2  3  1  0  0  0  0
  2  5  1  0  0  0  0
  3  4  1  0  0  0  0
  5  6  1  0  0  0  0
  6  7  1  0  0  0  0
  7  8  1  0  0  0  0
  8  9  1  0  0  0  0
  9 10  1  0  0  0  0
  9 11  1  0  0  0  0
M  END
>  <CHROM.1>
53.27524495,-58.19798367,-142.53485113,149.77805743,-157.41587562,-97.55307069
142.02453094,50.88839861,165.24295919,-10.41975509,5.55860059,-0.51705882
-2.26717390,-1.04049612,-2.80848129

>  <Name>
1akx_lig

>  <RI>
0

>  <Rbt.Current_Directory>
/home/afrankz/demos/rdock_decoys_rna/rnas/1akx

>  <Rbt.Executable>
rbdock ($Id: //depot/dev/client3/rdock/2013.1/src/exe/rbdock.cxx#4 $)

>  <Rbt.Library>
libRbt.so (2013.1, Build901 2013/11/27)

>  <Rbt.Parameter_File>
/export/apps/rDock/src/rDock_2013.1_src/data/scripts/dock_solv.prm

>  <Rbt.Receptor>
prm/blind_docking_40.prm

>  <SCORE>
-35.35

>  <SCORE.INTER>
-31.8643

>  <SCORE.INTER.CONST>
1

>  <SCORE.INTER.POLAR>
-4.56375

>  <SCORE.INTER.ROT>
8

>  <SCORE.INTER.SOLV>
13.2366

>  <SCORE.INTER.VDW>
-19.3759

>  <SCORE.INTER.norm>
-2.89675

>  <SCORE.INTRA>
-3.49832

>  <SCORE.INTRA.DIHEDRAL>
-7.85049

>  <SCORE.INTRA.DIHEDRAL.0>
21.6454

>  <SCORE.INTRA.POLAR>
0

>  <SCORE.INTRA.POLAR.0>
0

>  <SCORE.INTRA.REPUL>
0

>  <SCORE.INTRA.REPUL.0>
0

>  <SCORE.INTRA.SOLV>
0.372777

>  <SCORE.INTRA.SOLV.lig_0>
-16.5947

>  <SCORE.INTRA.VDW>
0.240535

>  <SCORE.INTRA.VDW.0>
-0.691398

>  <SCORE.INTRA.norm>
-0.318029

>  <SCORE.RESTR>
0.0125597

>  <SCORE.RESTR.CAVITY>
0.0125597

>  <SCORE.RESTR.norm>
0.00114179

>  <SCORE.SYSTEM>
0

>  <SCORE.SYSTEM.CONST>
0

>  <SCORE.SYSTEM.DIHEDRAL>
0

>  <SCORE.SYSTEM.SOLV>
0

>  <SCORE.SYSTEM.norm>
0

>  <SCORE.heavy>
11

>  <SCORE.norm>
-3.21364

>  <RMSD>
13.357

>  <RMSD>
13.357

$$$$
1akx_lig
 OpenBabel11021811383D
libRbt.so/2013.1/901 2013/11/27
 11 10  0  0  0  0  0  0  0  0999 V2000
  -11.0146    8.6079    1.5097 N   0  0  0  0  0  0  0  0  0  0  0  0
  -11.4700    7.2837    0.9929 C   0  0  2  0  0  0  0  0  0  0  0  0
  -12.3775    6.6132    2.0320 C   0  0  0  0  0  0  0  0  0  0  0  0
  -11.9693    6.3890    3.1541 O   0  0  0  0  0  0  0  0  0  0  0  0
  -10.2520    6.3915    0.7178 C   0  0  0  0  0  0  0  0  0  0  0  0
  -10.4968    5.5568   -0.5434 C   0  0  0  0  0  0  0  0  0  0  0  0
   -9.1640    5.2782   -1.2384 C   0  0  0  0  0  0  0  0  0  0  0  0
   -9.4099    4.9743   -2.6769 N   0  0  0  0  0  0  0  0  0  0  0  0
   -9.4716    3.7334   -3.0876 C   0  0  0  0  0  0  0  0  0  0  0  0
  -10.3335    3.3859   -4.0083 N   0  0  0  0  0  0  0  0  0  0  0  0
   -8.6650    2.8401   -2.5803 N   0  0  0  0  0  0  0  0  0  0  0  0
  2  1  1  1  0  0  0
  2  3  1  0  0  0  0
  2  5  1  0  0  0  0
  3  4  1  0  0  0  0
  5  6  1  0  0  0  0
  6  7  1  0  0  0  0
  7  8  1  0  0  0  0
  8  9  1  0  0  0  0
  9 10  1  0  0  0  0
  9 11  1  0  0  0  0
M  END
>  <CHROM.1>
53.27524495,-58.19798367,-142.53485113,149.77805743,-157.41587562,-97.55307069
142.02453094,50.88839861,165.24295919,-10.41975509,5.55860059,-0.51705882
-2.26717390,-1.04049612,-2.80848129

>  <Name>
1akx_lig

>  <RI>
0

>  <Rbt.Current_Directory>
/home/afrankz/demos/rdock_decoys_rna/rnas/1akx

>  <Rbt.Executable>
rbdock ($Id: //depot/dev/client3/rdock/2013.1/src/exe/rbdock.cxx#4 $)

>  <Rbt.Library>
libRbt.so (2013.1, Build901 2013/11/27)

>  <Rbt.Parameter_File>
/export/apps/rDock/src/rDock_2013.1_src/data/scripts/dock_solv.prm

>  <Rbt.Receptor>
prm/blind_docking_40.prm

>  <SCORE>
-35.35

>  <SCORE.INTER>
-31.8643

>  <SCORE.INTER.CONST>
1

>  <SCORE.INTER.POLAR>
-4.56375

>  <SCORE.INTER.ROT>
8

>  <SCORE.INTER.SOLV>
13.2366

>  <SCORE.INTER.VDW>
-19.3759

>  <SCORE.INTER.norm>
-2.89675

>  <SCORE.INTRA>
-3.49832

>  <SCORE.INTRA.DIHEDRAL>
-7.85049

>  <SCORE.INTRA.DIHEDRAL.0>
21.6454

>  <SCORE.INTRA.POLAR>
0

>  <SCORE.INTRA.POLAR.0>
0

>  <SCORE.INTRA.REPUL>
0

>  <SCORE.INTRA.REPUL.0>
0

>  <SCORE.INTRA.SOLV>
0.372777

>  <SCORE.INTRA.SOLV.lig_0>
-16.5947

>  <SCORE.INTRA.VDW>
0.240535

>  <SCORE.INTRA.VDW.0>
-0.691398

>  <SCORE.INTRA.norm>
-0.318029

>  <SCORE.RESTR>
0.0125597

>  <SCORE.RESTR.CAVITY>
0.0125597

>  <SCORE.RESTR.norm>
0.00114179

>  <SCORE.SYSTEM>
0

>  <SCORE.SYSTEM.CONST>
0

>  <SCORE.SYSTEM.DIHEDRAL>
0

>  <SCORE.SYSTEM.SOLV>
0

>  <SCORE.SYSTEM.norm>
0

>  <SCORE.heavy>
11

>  <SCORE.norm>
-3.21364

>  <RMSD>
13.357

>  <RMSD>
13.357

$$$$
1akx_lig
 OpenBabel11021811383D
libRbt.so/2013.1/901 2013/11/27
 11 10  0  0  0  0  0  0  0  0999 V2000
   -8.5735    3.6907   -3.2336 N   0  0  0  0  0  0  0  0  0  0  0  0
   -9.8176    3.4132   -2.4569 C   0  0  2  0  0  0  0  0  0  0  0  0
  -10.6372    2.3319   -3.1722 C   0  0  0  0  0  0  0  0  0  0  0  0
  -11.6590    1.9023   -2.6745 O   0  0  0  0  0  0  0  0  0  0  0  0
  -10.6486    4.6982   -2.3388 C   0  0  0  0  0  0  0  0  0  0  0  0
  -10.3542    5.3830   -1.0002 C   0  0  0  0  0  0  0  0  0  0  0  0
  -11.6592    5.5785   -0.2286 C   0  0  0  0  0  0  0  0  0  0  0  0
  -11.3584    6.1461    1.1167 N   0  0  0  0  0  0  0  0  0  0  0  0
  -10.9199    7.3736    1.2315 C   0  0  0  0  0  0  0  0  0  0  0  0
  -11.7286    8.3834    1.0370 N   0  0  0  0  0  0  0  0  0  0  0  0
   -9.6714    7.5908    1.5477 N   0  0  0  0  0  0  0  0  0  0  0  0
  2  1  1  6  0  0  0
  2  3  1  0  0  0  0
  2  5  1  0  0  0  0
  3  4  1  0  0  0  0
  5  6  1  0  0  0  0
  6  7  1  0  0  0  0
  7  8  1  0  0  0  0
  8  9  1  0  0  0  0
  9 10  1  0  0  0  0
  9 11  1  0  0  0  0
M  END
>  <CHROM.1>
-86.83652370,176.16743902,-96.35310470,-123.94395219,175.57404695,69.21839596
72.93469321,32.13185758,-72.10405060,-10.61559215,5.14625336,-0.92345807
-1.45501948,0.35221264,0.68775477

>  <Name>
1akx_lig

>  <RI>
0

>  <Rbt.Current_Directory>
/home/itssahil/PROJECTS/Mol_Feturizer/New_Systems/rnas/1akx

>  <Rbt.Executable>
rbdock ($Id: //depot/dev/client3/rdock/2013.1/src/exe/rbdock.cxx#4 $)

>  <Rbt.Library>
libRbt.so (2013.1, Build901 2013/11/27)

>  <Rbt.Parameter_File>
/export/apps/rDock/src/rDock_2013.1_src/data/scripts/dock_solv.prm

>  <Rbt.Receptor>
prm/blind_docking_20.prm

>  <SCORE>
-24.8902

>  <SCORE.INTER>
-24.0202

>  <SCORE.INTER.CONST>
1

>  <SCORE.INTER.POLAR>
-4.2969

>  <SCORE.INTER.ROT>
8

>  <SCORE.INTER.SOLV>
11.9413

>  <SCORE.INTER.VDW>
-14.6042

>  <SCORE.INTER.norm>
-2.18365

>  <SCORE.INTRA>
-2.34404

>  <SCORE.INTRA.DIHEDRAL>
-5.25149

>  <SCORE.INTRA.DIHEDRAL.0>
21.6454

>  <SCORE.INTRA.POLAR>
0

>  <SCORE.INTRA.POLAR.0>
0

>  <SCORE.INTRA.REPUL>
0

>  <SCORE.INTRA.REPUL.0>
0

>  <SCORE.INTRA.SOLV>
0.209842

>  <SCORE.INTRA.SOLV.lig_0>
-16.5947

>  <SCORE.INTRA.VDW>
0.176788

>  <SCORE.INTRA.VDW.0>
-0.691398

>  <SCORE.INTRA.norm>
-0.213094

>  <SCORE.RESTR>
1.47408

>  <SCORE.RESTR.CAVITY>
1.47408

>  <SCORE.RESTR.norm>
0.134007

>  <SCORE.SYSTEM>
0

>  <SCORE.SYSTEM.CONST>
0

>  <SCORE.SYSTEM.DIHEDRAL>
0

>  <SCORE.SYSTEM.SOLV>
0

>  <SCORE.SYSTEM.norm>
0

>  <SCORE.heavy>
11

>  <SCORE.norm>
-2.26274

>  <RMSD>
13.363

$$$$
1akx_lig
 OpenBabel11021811383D
libRbt.so/2013.1/901 2013/11/27
 11 10  0  0  0  0  0  0  0  0999 V2000
   -9.7131    6.7597    1.9280 N   0  0  0  0  0  0  0  0  0  0  0  0
  -10.8509    7.1912    1.0636 C   0  0  2  0  0  0  0  0  0  0  0  0
  -11.9883    7.7250    1.9434 C   0  0  0  0  0  0  0  0  0  0  0  0
  -11.8560    8.7639    2.5594 O   0  0  0  0  0  0  0  0  0  0  0  0
  -11.3521    5.9984    0.2382 C   0  0  0  0  0  0  0  0  0  0  0  0
  -10.2724    5.5713   -0.7614 C   0  0  0  0  0  0  0  0  0  0  0  0
  -10.8718    4.5974   -1.7758 C   0  0  0  0  0  0  0  0  0  0  0  0
   -9.9756    4.5061   -2.9636 N   0  0  0  0  0  0  0  0  0  0  0  0
   -9.3974    3.3723   -3.2678 C   0  0  0  0  0  0  0  0  0  0  0  0
  -10.1078    2.3697   -3.7166 N   0  0  0  0  0  0  0  0  0  0  0  0
   -8.1050    3.2440   -3.1286 N   0  0  0  0  0  0  0  0  0  0  0  0
  2  1  1  1  0  0  0
  2  3  1  0  0  0  0
  2  5  1  0  0  0  0
  3  4  1  0  0  0  0
  5  6  1  0  0  0  0
  6  7  1  0  0  0  0
  7  8  1  0  0  0  0
  8  9  1  0  0  0  0
  9 10  1  0  0  0  0
  9 11  1  0  0  0  0
M  END
>  <CHROM.1>
-13.37931133,68.41378140,-66.52291883,-167.85156721,162.87155768,116.66894484
69.59626526,-178.66862688,-148.29499615,-10.37311180,5.45644571,-0.70433832
-1.83982018,0.19709740,-2.22548413

>  <Name>
1akx_lig

>  <RI>
0

>  <Rbt.Current_Directory>
/home/itssahil/PROJECTS/Mol_Feturizer/New_Systems/rnas/1akx

>  <Rbt.Executable>
rbdock ($Id: //depot/dev/client3/rdock/2013.1/src/exe/rbdock.cxx#4 $)

>  <Rbt.Library>
libRbt.so (2013.1, Build901 2013/11/27)

>  <Rbt.Parameter_File>
/export/apps/rDock/src/rDock_2013.1_src/data/scripts/dock_solv.prm

>  <Rbt.Receptor>
prm/blind_docking_100.prm

>  <SCORE>
-36.8378

>  <SCORE.INTER>
-31.9848

>  <SCORE.INTER.CONST>
1

>  <SCORE.INTER.POLAR>
-5.16263

>  <SCORE.INTER.ROT>
8

>  <SCORE.INTER.SOLV>
13.5614

>  <SCORE.INTER.VDW>
-17.5682

>  <SCORE.INTER.norm>
-2.90771

>  <SCORE.INTRA>
-5.14803

>  <SCORE.INTRA.DIHEDRAL>
-11.6168

>  <SCORE.INTRA.DIHEDRAL.0>
21.6454

>  <SCORE.INTRA.POLAR>
0

>  <SCORE.INTRA.POLAR.0>
0

>  <SCORE.INTRA.REPUL>
0

>  <SCORE.INTRA.REPUL.0>
0

>  <SCORE.INTRA.SOLV>
0.190039

>  <SCORE.INTRA.SOLV.lig_0>
-16.5947

>  <SCORE.INTRA.VDW>
0.565375

>  <SCORE.INTRA.VDW.0>
-0.691398

>  <SCORE.INTRA.norm>
-0.468002

>  <SCORE.RESTR>
0.294982

>  <SCORE.RESTR.CAVITY>
0.294982

>  <SCORE.RESTR.norm>
0.0268165

>  <SCORE.SYSTEM>
0

>  <SCORE.SYSTEM.CONST>
0

>  <SCORE.SYSTEM.DIHEDRAL>
0

>  <SCORE.SYSTEM.SOLV>
0

>  <SCORE.SYSTEM.norm>
0

>  <SCORE.heavy>
11

>  <SCORE.norm>
-3.34889

>  <RMSD>
13.367

$$$$
1akx_lig
 OpenBabel11021811383D
libRbt.so/2013.1/901 2013/11/27
 11 10  0  0  0  0  0  0  0  0999 V2000
   -9.4342    6.3391   -0.2952 N   0  0  0  0  0  0  0  0  0  0  0  0
  -10.8439    6.5280    0.1577 C   0  0  2  0  0  0  0  0  0  0  0  0
  -10.8540    6.9910    1.6200 C   0  0  0  0  0  0  0  0  0  0  0  0
  -10.2225    7.9714    1.9608 O   0  0  0  0  0  0  0  0  0  0  0  0
  -11.6080    5.2033    0.0297 C   0  0  0  0  0  0  0  0  0  0  0  0
  -12.5065    5.2426   -1.2108 C   0  0  0  0  0  0  0  0  0  0  0  0
  -12.6053    3.8416   -1.8146 C   0  0  0  0  0  0  0  0  0  0  0  0
  -11.2340    3.3055   -2.0479 N   0  0  0  0  0  0  0  0  0  0  0  0
  -10.4090    3.9304   -2.8487 C   0  0  0  0  0  0  0  0  0  0  0  0
  -10.8407    4.4382   -3.9743 N   0  0  0  0  0  0  0  0  0  0  0  0
   -9.1511    4.0529   -2.5191 N   0  0  0  0  0  0  0  0  0  0  0  0
  2  1  1  1  0  0  0
  2  3  1  0  0  0  0
  2  5  1  0  0  0  0
  3  4  1  0  0  0  0
  5  6  1  0  0  0  0
  6  7  1  0  0  0  0
  7  8  1  0  0  0  0
  8  9  1  0  0  0  0
  9 10  1  0  0  0  0
  9 11  1  0  0  0  0
M  END
>  <CHROM.1>
156.83806434,54.38068720,-102.90943207,146.92157276,-53.17888420,-60.27124831
-41.08278619,-34.37775553,-173.65982773,-10.81948057,5.27218241,-1.00626025
-1.49091402,-0.27766736,-2.21577991

>  <Name>
1akx_lig

>  <RI>
0

>  <Rbt.Current_Directory>
/home/itssahil/PROJECTS/Mol_Feturizer/New_Systems/rnas/1akx

>  <Rbt.Executable>
rbdock ($Id: //depot/dev/client3/rdock/2013.1/src/exe/rbdock.cxx#4 $)

>  <Rbt.Library>
libRbt.so (2013.1, Build901 2013/11/27)

>  <Rbt.Parameter_File>
/export/apps/rDock/src/rDock_2013.1_src/data/scripts/dock_solv.prm

>  <Rbt.Receptor>
prm/blind_docking_20.prm

>  <SCORE>
-36.5689

>  <SCORE.INTER>
-33.5605

>  <SCORE.INTER.CONST>
1

>  <SCORE.INTER.POLAR>
-5.84459

>  <SCORE.INTER.ROT>
8

>  <SCORE.INTER.SOLV>
11.6493

>  <SCORE.INTER.VDW>
-15.7081

>  <SCORE.INTER.norm>
-3.05095

>  <SCORE.INTRA>
-3.76085

>  <SCORE.INTRA.DIHEDRAL>
-7.05513

>  <SCORE.INTRA.DIHEDRAL.0>
21.6454

>  <SCORE.INTRA.POLAR>
-0.396187

>  <SCORE.INTRA.POLAR.0>
0

>  <SCORE.INTRA.REPUL>
0

>  <SCORE.INTRA.REPUL.0>
0

>  <SCORE.INTRA.SOLV>
1.96974

>  <SCORE.INTRA.SOLV.lig_0>
-16.5947

>  <SCORE.INTRA.VDW>
0.128882

>  <SCORE.INTRA.VDW.0>
-0.691398

>  <SCORE.INTRA.norm>
-0.341895

>  <SCORE.RESTR>
0.752409

>  <SCORE.RESTR.CAVITY>
0.752409

>  <SCORE.RESTR.norm>
0.0684008

>  <SCORE.SYSTEM>
0

>  <SCORE.SYSTEM.CONST>
0

>  <SCORE.SYSTEM.DIHEDRAL>
0

>  <SCORE.SYSTEM.SOLV>
0

>  <SCORE.SYSTEM.norm>
0

>  <SCORE.heavy>
11

>  <SCORE.norm>
-3.32445

>  <RMSD>
13.367

$$$$
1akx_lig
 OpenBabel11021811383D
libRbt.so/2013.1/901 2013/11/27
 11 10  0  0  0  0  0  0  0  0999 V2000
   -9.2092    4.6597   -2.8726 N   0  0  0  0  0  0  0  0  0  0  0  0
  -10.2425    3.7670   -2.2697 C   0  0  2  0  0  0  0  0  0  0  0  0
  -10.7495    2.7816   -3.3302 C   0  0  0  0  0  0  0  0  0  0  0  0
   -9.9941    1.9732   -3.8321 O   0  0  0  0  0  0  0  0  0  0  0  0
  -11.4124    4.6122   -1.7479 C   0  0  0  0  0  0  0  0  0  0  0  0
  -11.1751    4.9717   -0.2776 C   0  0  0  0  0  0  0  0  0  0  0  0
  -10.0950    6.0494   -0.1831 C   0  0  0  0  0  0  0  0  0  0  0  0
   -9.8025    6.3325    1.2509 N   0  0  0  0  0  0  0  0  0  0  0  0
  -10.5956    7.1081    1.9451 C   0  0  0  0  0  0  0  0  0  0  0  0
  -10.5541    8.4058    1.7850 N   0  0  0  0  0  0  0  0  0  0  0  0
  -11.4360    6.5835    2.7963 N   0  0  0  0  0  0  0  0  0  0  0  0
  2  1  1  6  0  0  0
  2  3  1  0  0  0  0
  2  5  1  0  0  0  0
  3  4  1  0  0  0  0
  5  6  1  0  0  0  0
  6  7  1  0  0  0  0
  7  8  1  0  0  0  0
  8  9  1  0  0  0  0
  9 10  1  0  0  0  0
  9 11  1  0  0  0  0
M  END
>  <CHROM.1>
-43.67302832,63.00409869,-91.73415257,74.16508847,-176.29821957,-79.75848487
-76.27810923,-157.52555094,160.54620000,-10.45309388,5.22013280,-0.61287306
-1.46507586,0.74571365,0.82543460

>  <Name>
1akx_lig

>  <RI>
0

>  <Rbt.Current_Directory>
/home/itssahil/PROJECTS/Mol_Feturizer/New_Systems/rnas/1akx

>  <Rbt.Executable>
rbdock ($Id: //depot/dev/client3/rdock/2013.1/src/exe/rbdock.cxx#4 $)

>  <Rbt.Library>
libRbt.so (2013.1, Build901 2013/11/27)

>  <Rbt.Parameter_File>
/export/apps/rDock/src/rDock_2013.1_src/data/scripts/dock_solv.prm

>  <Rbt.Receptor>
prm/blind_docking_40.prm

>  <SCORE>
-36.9493

>  <SCORE.INTER>
-31.172

>  <SCORE.INTER.CONST>
1

>  <SCORE.INTER.POLAR>
-4.37716

>  <SCORE.INTER.ROT>
8

>  <SCORE.INTER.SOLV>
12.0672

>  <SCORE.INTER.VDW>
-19.1465

>  <SCORE.INTER.norm>
-2.83381

>  <SCORE.INTRA>
-5.7773

>  <SCORE.INTRA.DIHEDRAL>
-12.1297

>  <SCORE.INTRA.DIHEDRAL.0>
21.6454

>  <SCORE.INTRA.POLAR>
0

>  <SCORE.INTRA.POLAR.0>
0

>  <SCORE.INTRA.REPUL>
0

>  <SCORE.INTRA.REPUL.0>
0

>  <SCORE.INTRA.SOLV>
0.53111

>  <SCORE.INTRA.SOLV.lig_0>
-16.5947

>  <SCORE.INTRA.VDW>
0.0220043

>  <SCORE.INTRA.VDW.0>
-0.691398

>  <SCORE.INTRA.norm>
-0.525209

>  <SCORE.RESTR>
0

>  <SCORE.RESTR.CAVITY>
0

>  <SCORE.RESTR.norm>
0

>  <SCORE.SYSTEM>
0

>  <SCORE.SYSTEM.CONST>
0

>  <SCORE.SYSTEM.DIHEDRAL>
0

>  <SCORE.SYSTEM.SOLV>
0

>  <SCORE.SYSTEM.norm>
0

>  <SCORE.heavy>
11

>  <SCORE.norm>
-3.35902

>  <RMSD>
13.373

$$$$
1akx_lig
 OpenBabel11021811383D
libRbt.so/2013.1/901 2013/11/27
 11 10  0  0  0  0  0  0  0  0999 V2000
   -9.7852    7.3943    1.0595 N   0  0  0  0  0  0  0  0  0  0  0  0
  -10.8170    6.6813    0.2502 C   0  0  2  0  0  0  0  0  0  0  0  0
  -12.1977    6.8857    0.8863 C   0  0  0  0  0  0  0  0  0  0  0  0
  -12.6590    8.0025    1.0133 O   0  0  0  0  0  0  0  0  0  0  0  0
  -10.4876    5.1832    0.1999 C   0  0  0  0  0  0  0  0  0  0  0  0
  -11.5386    4.4508   -0.6404 C   0  0  0  0  0  0  0  0  0  0  0  0
  -11.5483    5.0226   -2.0581 C   0  0  0  0  0  0  0  0  0  0  0  0
  -10.2206    4.7899   -2.6947 N   0  0  0  0  0  0  0  0  0  0  0  0
   -9.7239    3.5811   -2.7612 C   0  0  0  0  0  0  0  0  0  0  0  0
  -10.4087    2.6169   -3.3205 N   0  0  0  0  0  0  0  0  0  0  0  0
   -8.5371    3.3383   -2.2727 N   0  0  0  0  0  0  0  0  0  0  0  0
  2  1  1  1  0  0  0
  2  3  1  0  0  0  0
  2  5  1  0  0  0  0
  3  4  1  0  0  0  0
  5  6  1  0  0  0  0
  6  7  1  0  0  0  0
  7  8  1  0  0  0  0
  8  9  1  0  0  0  0
  9 10  1  0  0  0  0
  9 11  1  0  0  0  0
M  END
>  <CHROM.1>
-99.05568569,60.27861048,-179.51573001,59.60992269,62.30977319,54.93181465
55.50144711,134.05164781,-13.48729480,-10.68846878,5.28498216,-0.93061543
-1.88086038,0.12800745,-2.34770694

>  <Name>
1akx_lig

>  <RI>
0

>  <Rbt.Current_Directory>
/home/itssahil/PROJECTS/Mol_Feturizer/New_Systems/rnas/1akx

>  <Rbt.Executable>
rbdock ($Id: //depot/dev/client3/rdock/2013.1/src/exe/rbdock.cxx#4 $)

>  <Rbt.Library>
libRbt.so (2013.1, Build901 2013/11/27)

>  <Rbt.Parameter_File>
/export/apps/rDock/src/rDock_2013.1_src/data/scripts/dock_solv.prm

>  <Rbt.Receptor>
prm/blind_docking_80.prm

>  <SCORE>
-31.1205

>  <SCORE.INTER>
-28.007

>  <SCORE.INTER.CONST>
1

>  <SCORE.INTER.POLAR>
-4.35141

>  <SCORE.INTER.ROT>
8

>  <SCORE.INTER.SOLV>
11.8561

>  <SCORE.INTER.VDW>
-17.052

>  <SCORE.INTER.norm>
-2.54609

>  <SCORE.INTRA>
-3.35093

>  <SCORE.INTRA.DIHEDRAL>
-14.2006

>  <SCORE.INTRA.DIHEDRAL.0>
21.6454

>  <SCORE.INTRA.POLAR>
0

>  <SCORE.INTRA.POLAR.0>
0

>  <SCORE.INTRA.REPUL>
0

>  <SCORE.INTRA.REPUL.0>
0

>  <SCORE.INTRA.SOLV>
1.07767

>  <SCORE.INTRA.SOLV.lig_0>
-16.5947

>  <SCORE.INTRA.VDW>
3.21054

>  <SCORE.INTRA.VDW.0>
-0.691398

>  <SCORE.INTRA.norm>
-0.30463

>  <SCORE.RESTR>
0.237385

>  <SCORE.RESTR.CAVITY>
0.237385

>  <SCORE.RESTR.norm>
0.0215805

>  <SCORE.SYSTEM>
0

>  <SCORE.SYSTEM.CONST>
0

>  <SCORE.SYSTEM.DIHEDRAL>
0

>  <SCORE.SYSTEM.SOLV>
0

>  <SCORE.SYSTEM.norm>
0

>  <SCORE.heavy>
11

>  <SCORE.norm>
-2.82914

>  <RMSD>
13.374

$$$$
1akx_lig
 OpenBabel11021811383D
libRbt.so/2013.1/901 2013/11/27
 11 10  0  0  0  0  0  0  0  0999 V2000
   -8.8321    4.9621   -1.8041 N   0  0  0  0  0  0  0  0  0  0  0  0
  -10.1250    4.2202   -1.7256 C   0  0  2  0  0  0  0  0  0  0  0  0
  -10.3620    3.4642   -3.0389 C   0  0  0  0  0  0  0  0  0  0  0  0
   -9.7023    2.4812   -3.3124 O   0  0  0  0  0  0  0  0  0  0  0  0
  -11.2730    5.2098   -1.4844 C   0  0  0  0  0  0  0  0  0  0  0  0
  -12.1549    4.7086   -0.3362 C   0  0  0  0  0  0  0  0  0  0  0  0
  -11.4669    4.9943    0.9987 C   0  0  0  0  0  0  0  0  0  0  0  0
  -11.6022    6.4425    1.3252 N   0  0  0  0  0  0  0  0  0  0  0  0
  -10.5448    7.2128    1.3578 C   0  0  0  0  0  0  0  0  0  0  0  0
   -9.5023    6.9326    0.6189 N   0  0  0  0  0  0  0  0  0  0  0  0
  -10.5334    8.2687    2.1266 N   0  0  0  0  0  0  0  0  0  0  0  0
  2  1  1  6  0  0  0
  2  3  1  0  0  0  0
  2  5  1  0  0  0  0
  3  4  1  0  0  0  0
  5  6  1  0  0  0  0
  6  7  1  0  0  0  0
  7  8  1  0  0  0  0
  8  9  1  0  0  0  0
  9 10  1  0  0  0  0
  9 11  1  0  0  0  0
M  END
>  <CHROM.1>
162.45837640,72.11518996,-131.48069558,77.52474983,76.18029924,-113.75209210
28.12890679,-56.34545791,-95.43047732,-10.50300803,5.37870025,-0.48458623
-1.42482931,0.41664660,0.78221309

>  <Name>
1akx_lig

>  <RI>
0

>  <Rbt.Current_Directory>
/home/afrankz/demos/rdock_decoys_rna/rnas/1akx

>  <Rbt.Executable>
rbdock ($Id: //depot/dev/client3/rdock/2013.1/src/exe/rbdock.cxx#4 $)

>  <Rbt.Library>
libRbt.so (2013.1, Build901 2013/11/27)

>  <Rbt.Parameter_File>
/export/apps/rDock/src/rDock_2013.1_src/data/scripts/dock_solv.prm

>  <Rbt.Receptor>
prm/blind_docking_60.prm

>  <SCORE>
-29.0772

>  <SCORE.INTER>
-22.8483

>  <SCORE.INTER.CONST>
1

>  <SCORE.INTER.POLAR>
-3.46404

>  <SCORE.INTER.ROT>
8

>  <SCORE.INTER.SOLV>
11.0173

>  <SCORE.INTER.VDW>
-16.2912

>  <SCORE.INTER.norm>
-2.07712

>  <SCORE.INTRA>
-6.28603

>  <SCORE.INTRA.DIHEDRAL>
-8.12368

>  <SCORE.INTRA.DIHEDRAL.0>
21.6454

>  <SCORE.INTRA.POLAR>
-0.99079

>  <SCORE.INTRA.POLAR.0>
0

>  <SCORE.INTRA.REPUL>
0

>  <SCORE.INTRA.REPUL.0>
0

>  <SCORE.INTRA.SOLV>
1.49485

>  <SCORE.INTRA.SOLV.lig_0>
-16.5947

>  <SCORE.INTRA.VDW>
0.397078

>  <SCORE.INTRA.VDW.0>
-0.691398

>  <SCORE.INTRA.norm>
-0.571457

>  <SCORE.RESTR>
0.0571332

>  <SCORE.RESTR.CAVITY>
0.0571332

>  <SCORE.RESTR.norm>
0.00519392

>  <SCORE.SYSTEM>
0

>  <SCORE.SYSTEM.CONST>
0

>  <SCORE.SYSTEM.DIHEDRAL>
0

>  <SCORE.SYSTEM.SOLV>
0

>  <SCORE.SYSTEM.norm>
0

>  <SCORE.heavy>
11

>  <SCORE.norm>
-2.64338

>  <RMSD>
13.379

>  <RMSD>
13.379

$$$$
1akx_lig
 OpenBabel11021811383D
libRbt.so/2013.1/901 2013/11/27
 11 10  0  0  0  0  0  0  0  0999 V2000
   -8.8321    4.9621   -1.8041 N   0  0  0  0  0  0  0  0  0  0  0  0
  -10.1250    4.2202   -1.7256 C   0  0  2  0  0  0  0  0  0  0  0  0
  -10.3620    3.4642   -3.0389 C   0  0  0  0  0  0  0  0  0  0  0  0
   -9.7023    2.4812   -3.3124 O   0  0  0  0  0  0  0  0  0  0  0  0
  -11.2730    5.2098   -1.4844 C   0  0  0  0  0  0  0  0  0  0  0  0
  -12.1549    4.7086   -0.3362 C   0  0  0  0  0  0  0  0  0  0  0  0
  -11.4669    4.9943    0.9987 C   0  0  0  0  0  0  0  0  0  0  0  0
  -11.6022    6.4425    1.3252 N   0  0  0  0  0  0  0  0  0  0  0  0
  -10.5448    7.2128    1.3578 C   0  0  0  0  0  0  0  0  0  0  0  0
   -9.5023    6.9326    0.6189 N   0  0  0  0  0  0  0  0  0  0  0  0
  -10.5334    8.2687    2.1266 N   0  0  0  0  0  0  0  0  0  0  0  0
  2  1  1  6  0  0  0
  2  3  1  0  0  0  0
  2  5  1  0  0  0  0
  3  4  1  0  0  0  0
  5  6  1  0  0  0  0
  6  7  1  0  0  0  0
  7  8  1  0  0  0  0
  8  9  1  0  0  0  0
  9 10  1  0  0  0  0
  9 11  1  0  0  0  0
M  END
>  <CHROM.1>
162.45837640,72.11518996,-131.48069558,77.52474983,76.18029924,-113.75209210
28.12890679,-56.34545791,-95.43047732,-10.50300803,5.37870025,-0.48458623
-1.42482931,0.41664660,0.78221309

>  <Name>
1akx_lig

>  <RI>
0

>  <Rbt.Current_Directory>
/home/afrankz/demos/rdock_decoys_rna/rnas/1akx

>  <Rbt.Executable>
rbdock ($Id: //depot/dev/client3/rdock/2013.1/src/exe/rbdock.cxx#4 $)

>  <Rbt.Library>
libRbt.so (2013.1, Build901 2013/11/27)

>  <Rbt.Parameter_File>
/export/apps/rDock/src/rDock_2013.1_src/data/scripts/dock_solv.prm

>  <Rbt.Receptor>
prm/blind_docking_60.prm

>  <SCORE>
-29.0772

>  <SCORE.INTER>
-22.8483

>  <SCORE.INTER.CONST>
1

>  <SCORE.INTER.POLAR>
-3.46404

>  <SCORE.INTER.ROT>
8

>  <SCORE.INTER.SOLV>
11.0173

>  <SCORE.INTER.VDW>
-16.2912

>  <SCORE.INTER.norm>
-2.07712

>  <SCORE.INTRA>
-6.28603

>  <SCORE.INTRA.DIHEDRAL>
-8.12368

>  <SCORE.INTRA.DIHEDRAL.0>
21.6454

>  <SCORE.INTRA.POLAR>
-0.99079

>  <SCORE.INTRA.POLAR.0>
0

>  <SCORE.INTRA.REPUL>
0

>  <SCORE.INTRA.REPUL.0>
0

>  <SCORE.INTRA.SOLV>
1.49485

>  <SCORE.INTRA.SOLV.lig_0>
-16.5947

>  <SCORE.INTRA.VDW>
0.397078

>  <SCORE.INTRA.VDW.0>
-0.691398

>  <SCORE.INTRA.norm>
-0.571457

>  <SCORE.RESTR>
0.0571332

>  <SCORE.RESTR.CAVITY>
0.0571332

>  <SCORE.RESTR.norm>
0.00519392

>  <SCORE.SYSTEM>
0

>  <SCORE.SYSTEM.CONST>
0

>  <SCORE.SYSTEM.DIHEDRAL>
0

>  <SCORE.SYSTEM.SOLV>
0

>  <SCORE.SYSTEM.norm>
0

>  <SCORE.heavy>
11

>  <SCORE.norm>
-2.64338

>  <RMSD>
13.379

>  <RMSD>
13.379

$$$$
1akx_lig
 OpenBabel11021811383D
libRbt.so/2013.1/901 2013/11/27
 11 10  0  0  0  0  0  0  0  0999 V2000
   -9.8803    7.4379    1.2612 N   0  0  0  0  0  0  0  0  0  0  0  0
  -11.1481    6.8992    0.6862 C   0  0  2  0  0  0  0  0  0  0  0  0
  -12.3413    7.4303    1.4904 C   0  0  0  0  0  0  0  0  0  0  0  0
  -13.4609    7.4100    1.0189 O   0  0  0  0  0  0  0  0  0  0  0  0
  -11.1283    5.3656    0.7422 C   0  0  0  0  0  0  0  0  0  0  0  0
  -10.9957    4.7982   -0.6747 C   0  0  0  0  0  0  0  0  0  0  0  0
   -9.6491    5.2135   -1.2674 C   0  0  0  0  0  0  0  0  0  0  0  0
   -9.6484    4.9414   -2.7330 N   0  0  0  0  0  0  0  0  0  0  0  0
   -9.3092    3.7609   -3.1844 C   0  0  0  0  0  0  0  0  0  0  0  0
  -10.1817    3.0231   -3.8214 N   0  0  0  0  0  0  0  0  0  0  0  0
   -8.0928    3.3207   -3.0033 N   0  0  0  0  0  0  0  0  0  0  0  0
  2  1  1  1  0  0  0
  2  3  1  0  0  0  0
  2  5  1  0  0  0  0
  3  4  1  0  0  0  0
  5  6  1  0  0  0  0
  6  7  1  0  0  0  0
  7  8  1  0  0  0  0
  8  9  1  0  0  0  0
  9 10  1  0  0  0  0
  9 11  1  0  0  0  0
M  END
>  <CHROM.1>
29.08862361,161.17221732,-109.99227579,64.13335574,-166.92895354,-86.45456816
116.03765264,27.83890562,-154.26827167,-10.51261818,5.42395375,-0.87303738
-2.01249692,0.00470584,-2.25531133

>  <Name>
1akx_lig

>  <RI>
0

>  <Rbt.Current_Directory>
/home/itssahil/PROJECTS/Mol_Feturizer/New_Systems/rnas/1akx

>  <Rbt.Executable>
rbdock ($Id: //depot/dev/client3/rdock/2013.1/src/exe/rbdock.cxx#4 $)

>  <Rbt.Library>
libRbt.so (2013.1, Build901 2013/11/27)

>  <Rbt.Parameter_File>
/export/apps/rDock/src/rDock_2013.1_src/data/scripts/dock_solv.prm

>  <Rbt.Receptor>
prm/blind_docking_100.prm

>  <SCORE>
-35.8727

>  <SCORE.INTER>
-33.1837

>  <SCORE.INTER.CONST>
1

>  <SCORE.INTER.POLAR>
-4.96299

>  <SCORE.INTER.ROT>
8

>  <SCORE.INTER.SOLV>
13.5108

>  <SCORE.INTER.VDW>
-19.0161

>  <SCORE.INTER.norm>
-3.0167

>  <SCORE.INTRA>
-2.99617

>  <SCORE.INTRA.DIHEDRAL>
-7.59592

>  <SCORE.INTRA.DIHEDRAL.0>
21.6454

>  <SCORE.INTRA.POLAR>
0

>  <SCORE.INTRA.POLAR.0>
0

>  <SCORE.INTRA.REPUL>
0

>  <SCORE.INTRA.REPUL.0>
0

>  <SCORE.INTRA.SOLV>
0.332578

>  <SCORE.INTRA.SOLV.lig_0>
-16.5947

>  <SCORE.INTRA.VDW>
0.635499

>  <SCORE.INTRA.VDW.0>
-0.691398

>  <SCORE.INTRA.norm>
-0.27238

>  <SCORE.RESTR>
0.307175

>  <SCORE.RESTR.CAVITY>
0.307175

>  <SCORE.RESTR.norm>
0.027925

>  <SCORE.SYSTEM>
0

>  <SCORE.SYSTEM.CONST>
0

>  <SCORE.SYSTEM.DIHEDRAL>
0

>  <SCORE.SYSTEM.SOLV>
0

>  <SCORE.SYSTEM.norm>
0

>  <SCORE.heavy>
11

>  <SCORE.norm>
-3.26115

>  <RMSD>
13.383

$$$$
1akx_lig
 OpenBabel11021811383D
libRbt.so/2013.1/901 2013/11/27
 11 10  0  0  0  0  0  0  0  0999 V2000
   -9.9312    4.8432   -3.5526 N   0  0  0  0  0  0  0  0  0  0  0  0
  -10.4350    3.7644   -2.6523 C   0  0  2  0  0  0  0  0  0  0  0  0
  -10.1561    2.3962   -3.2870 C   0  0  0  0  0  0  0  0  0  0  0  0
  -10.0026    1.4129   -2.5901 O   0  0  0  0  0  0  0  0  0  0  0  0
  -11.9449    3.9363   -2.4372 C   0  0  0  0  0  0  0  0  0  0  0  0
  -12.2118    5.2252   -1.6530 C   0  0  0  0  0  0  0  0  0  0  0  0
  -11.5545    5.1309   -0.2761 C   0  0  0  0  0  0  0  0  0  0  0  0
  -11.5275    6.4821    0.3530 N   0  0  0  0  0  0  0  0  0  0  0  0
  -10.9372    6.6605    1.5072 C   0  0  0  0  0  0  0  0  0  0  0  0
  -11.5607    7.2770    2.4780 N   0  0  0  0  0  0  0  0  0  0  0  0
   -9.7232    6.2155    1.6919 N   0  0  0  0  0  0  0  0  0  0  0  0
  2  1  1  6  0  0  0
  2  3  1  0  0  0  0
  2  5  1  0  0  0  0
  3  4  1  0  0  0  0
  5  6  1  0  0  0  0
  6  7  1  0  0  0  0
  7  8  1  0  0  0  0
  8  9  1  0  0  0  0
  9 10  1  0  0  0  0
  9 11  1  0  0  0  0
M  END
>  <CHROM.1>
44.48836057,152.25763591,-66.48924720,-62.01299538,166.47253455,-175.93173643
-129.82027644,61.70278184,-82.27205954,-10.87624397,4.86987654,-0.93872540
1.40244873,0.82078722,-2.12962355

>  <Name>
1akx_lig

>  <RI>
0

>  <Rbt.Current_Directory>
/home/itssahil/PROJECTS/Mol_Feturizer/New_Systems/rnas/1akx

>  <Rbt.Executable>
rbdock ($Id: //depot/dev/client3/rdock/2013.1/src/exe/rbdock.cxx#4 $)

>  <Rbt.Library>
libRbt.so (2013.1, Build901 2013/11/27)

>  <Rbt.Parameter_File>
/export/apps/rDock/src/rDock_2013.1_src/data/scripts/dock_solv.prm

>  <Rbt.Receptor>
prm/blind_docking_100.prm

>  <SCORE>
-35.9107

>  <SCORE.INTER>
-30.5923

>  <SCORE.INTER.CONST>
1

>  <SCORE.INTER.POLAR>
-6.11796

>  <SCORE.INTER.ROT>
8

>  <SCORE.INTER.SOLV>
11.2434

>  <SCORE.INTER.VDW>
-12.6828

>  <SCORE.INTER.norm>
-2.78111

>  <SCORE.INTRA>
-5.31846

>  <SCORE.INTRA.DIHEDRAL>
-13.0976

>  <SCORE.INTRA.DIHEDRAL.0>
21.6454

>  <SCORE.INTRA.POLAR>
0

>  <SCORE.INTRA.POLAR.0>
0

>  <SCORE.INTRA.REPUL>
0

>  <SCORE.INTRA.REPUL.0>
0

>  <SCORE.INTRA.SOLV>
0.0636363

>  <SCORE.INTRA.SOLV.lig_0>
-16.5947

>  <SCORE.INTRA.VDW>
1.1985

>  <SCORE.INTRA.VDW.0>
-0.691398

>  <SCORE.INTRA.norm>
-0.483496

>  <SCORE.RESTR>
0

>  <SCORE.RESTR.CAVITY>
0

>  <SCORE.RESTR.norm>
0

>  <SCORE.SYSTEM>
0

>  <SCORE.SYSTEM.CONST>
0

>  <SCORE.SYSTEM.DIHEDRAL>
0

>  <SCORE.SYSTEM.SOLV>
0

>  <SCORE.SYSTEM.norm>
0

>  <SCORE.heavy>
11

>  <SCORE.norm>
-3.26461

>  <RMSD>
13.388

$$$$
1akx_lig
 OpenBabel11021811383D
libRbt.so/2013.1/901 2013/11/27
 11 10  0  0  0  0  0  0  0  0999 V2000
  -10.7206    4.2749   -4.0646 N   0  0  0  0  0  0  0  0  0  0  0  0
  -10.9302    3.6415   -2.7293 C   0  0  2  0  0  0  0  0  0  0  0  0
  -11.0786    2.1244   -2.9000 C   0  0  0  0  0  0  0  0  0  0  0  0
  -10.2349    1.4855   -3.4968 O   0  0  0  0  0  0  0  0  0  0  0  0
  -12.1972    4.2151   -2.0803 C   0  0  0  0  0  0  0  0  0  0  0  0
  -11.9858    4.3555   -0.5693 C   0  0  0  0  0  0  0  0  0  0  0  0
  -10.7564    5.2245   -0.3041 C   0  0  0  0  0  0  0  0  0  0  0  0
  -11.1533    6.4075    0.5115 N   0  0  0  0  0  0  0  0  0  0  0  0
  -10.8008    6.4898    1.7691 C   0  0  0  0  0  0  0  0  0  0  0  0
   -9.5537    6.7200    2.0903 N   0  0  0  0  0  0  0  0  0  0  0  0
  -11.6991    6.3477    2.7065 N   0  0  0  0  0  0  0  0  0  0  0  0
  2  1  1  6  0  0  0
  2  3  1  0  0  0  0
  2  5  1  0  0  0  0
  3  4  1  0  0  0  0
  5  6  1  0  0  0  0
  6  7  1  0  0  0  0
  7  8  1  0  0  0  0
  8  9  1  0  0  0  0
  9 10  1  0  0  0  0
  9 11  1  0  0  0  0
M  END
>  <CHROM.1>
-42.45235305,53.49536960,-143.26670324,56.41566794,121.50682229,108.00486123
71.74671238,-69.82110956,-8.29525505,-10.98922096,4.67587297,-0.83597515
-1.57654187,0.80424260,0.96452568

>  <Name>
1akx_lig

>  <RI>
0

>  <Rbt.Current_Directory>
/home/afrankz/demos/rdock_decoys_rna/rnas/1akx

>  <Rbt.Executable>
rbdock ($Id: //depot/dev/client3/rdock/2013.1/src/exe/rbdock.cxx#4 $)

>  <Rbt.Library>
libRbt.so (2013.1, Build901 2013/11/27)

>  <Rbt.Parameter_File>
/export/apps/rDock/src/rDock_2013.1_src/data/scripts/dock_solv.prm

>  <Rbt.Receptor>
prm/blind_docking_60.prm

>  <SCORE>
-22.7857

>  <SCORE.INTER>
-20.9872

>  <SCORE.INTER.CONST>
1

>  <SCORE.INTER.POLAR>
-3.44804

>  <SCORE.INTER.ROT>
8

>  <SCORE.INTER.SOLV>
11.7224

>  <SCORE.INTER.VDW>
-15.3388

>  <SCORE.INTER.norm>
-1.90792

>  <SCORE.INTRA>
-2.41061

>  <SCORE.INTRA.DIHEDRAL>
-6.47008

>  <SCORE.INTRA.DIHEDRAL.0>
21.6454

>  <SCORE.INTRA.POLAR>
0

>  <SCORE.INTRA.POLAR.0>
0

>  <SCORE.INTRA.REPUL>
0

>  <SCORE.INTRA.REPUL.0>
0

>  <SCORE.INTRA.SOLV>
0.403318

>  <SCORE.INTRA.SOLV.lig_0>
-16.5947

>  <SCORE.INTRA.VDW>
0.622766

>  <SCORE.INTRA.VDW.0>
-0.691398

>  <SCORE.INTRA.norm>
-0.219147

>  <SCORE.RESTR>
0.612036

>  <SCORE.RESTR.CAVITY>
0.612036

>  <SCORE.RESTR.norm>
0.0556397

>  <SCORE.SYSTEM>
0

>  <SCORE.SYSTEM.CONST>
0

>  <SCORE.SYSTEM.DIHEDRAL>
0

>  <SCORE.SYSTEM.SOLV>
0

>  <SCORE.SYSTEM.norm>
0

>  <SCORE.heavy>
11

>  <SCORE.norm>
-2.07143

>  <RMSD>
13.390

>  <RMSD>
13.390

$$$$
1akx_lig
 OpenBabel11021811383D
libRbt.so/2013.1/901 2013/11/27
 11 10  0  0  0  0  0  0  0  0999 V2000
  -10.7206    4.2749   -4.0646 N   0  0  0  0  0  0  0  0  0  0  0  0
  -10.9302    3.6415   -2.7293 C   0  0  2  0  0  0  0  0  0  0  0  0
  -11.0786    2.1244   -2.9000 C   0  0  0  0  0  0  0  0  0  0  0  0
  -10.2349    1.4855   -3.4968 O   0  0  0  0  0  0  0  0  0  0  0  0
  -12.1972    4.2151   -2.0803 C   0  0  0  0  0  0  0  0  0  0  0  0
  -11.9858    4.3555   -0.5693 C   0  0  0  0  0  0  0  0  0  0  0  0
  -10.7564    5.2245   -0.3041 C   0  0  0  0  0  0  0  0  0  0  0  0
  -11.1533    6.4075    0.5115 N   0  0  0  0  0  0  0  0  0  0  0  0
  -10.8008    6.4898    1.7691 C   0  0  0  0  0  0  0  0  0  0  0  0
   -9.5537    6.7200    2.0903 N   0  0  0  0  0  0  0  0  0  0  0  0
  -11.6991    6.3477    2.7065 N   0  0  0  0  0  0  0  0  0  0  0  0
  2  1  1  6  0  0  0
  2  3  1  0  0  0  0
  2  5  1  0  0  0  0
  3  4  1  0  0  0  0
  5  6  1  0  0  0  0
  6  7  1  0  0  0  0
  7  8  1  0  0  0  0
  8  9  1  0  0  0  0
  9 10  1  0  0  0  0
  9 11  1  0  0  0  0
M  END
>  <CHROM.1>
-42.45235305,53.49536960,-143.26670324,56.41566794,121.50682229,108.00486123
71.74671238,-69.82110956,-8.29525505,-10.98922096,4.67587297,-0.83597515
-1.57654187,0.80424260,0.96452568

>  <Name>
1akx_lig

>  <RI>
0

>  <Rbt.Current_Directory>
/home/afrankz/demos/rdock_decoys_rna/rnas/1akx

>  <Rbt.Executable>
rbdock ($Id: //depot/dev/client3/rdock/2013.1/src/exe/rbdock.cxx#4 $)

>  <Rbt.Library>
libRbt.so (2013.1, Build901 2013/11/27)

>  <Rbt.Parameter_File>
/export/apps/rDock/src/rDock_2013.1_src/data/scripts/dock_solv.prm

>  <Rbt.Receptor>
prm/blind_docking_60.prm

>  <SCORE>
-22.7857

>  <SCORE.INTER>
-20.9872

>  <SCORE.INTER.CONST>
1

>  <SCORE.INTER.POLAR>
-3.44804

>  <SCORE.INTER.ROT>
8

>  <SCORE.INTER.SOLV>
11.7224

>  <SCORE.INTER.VDW>
-15.3388

>  <SCORE.INTER.norm>
-1.90792

>  <SCORE.INTRA>
-2.41061

>  <SCORE.INTRA.DIHEDRAL>
-6.47008

>  <SCORE.INTRA.DIHEDRAL.0>
21.6454

>  <SCORE.INTRA.POLAR>
0

>  <SCORE.INTRA.POLAR.0>
0

>  <SCORE.INTRA.REPUL>
0

>  <SCORE.INTRA.REPUL.0>
0

>  <SCORE.INTRA.SOLV>
0.403318

>  <SCORE.INTRA.SOLV.lig_0>
-16.5947

>  <SCORE.INTRA.VDW>
0.622766

>  <SCORE.INTRA.VDW.0>
-0.691398

>  <SCORE.INTRA.norm>
-0.219147

>  <SCORE.RESTR>
0.612036

>  <SCORE.RESTR.CAVITY>
0.612036

>  <SCORE.RESTR.norm>
0.0556397

>  <SCORE.SYSTEM>
0

>  <SCORE.SYSTEM.CONST>
0

>  <SCORE.SYSTEM.DIHEDRAL>
0

>  <SCORE.SYSTEM.SOLV>
0

>  <SCORE.SYSTEM.norm>
0

>  <SCORE.heavy>
11

>  <SCORE.norm>
-2.07143

>  <RMSD>
13.390

>  <RMSD>
13.390

$$$$
1akx_lig
 OpenBabel11021811383D
libRbt.so/2013.1/901 2013/11/27
 11 10  0  0  0  0  0  0  0  0999 V2000
   -8.5526    3.8829   -2.7161 N   0  0  0  0  0  0  0  0  0  0  0  0
  -10.0036    3.8282   -2.3698 C   0  0  2  0  0  0  0  0  0  0  0  0
  -10.8333    4.3210   -3.5620 C   0  0  0  0  0  0  0  0  0  0  0  0
  -10.8145    3.7192   -4.6173 O   0  0  0  0  0  0  0  0  0  0  0  0
  -10.2755    4.7166   -1.1483 C   0  0  0  0  0  0  0  0  0  0  0  0
  -11.5128    4.2060   -0.4029 C   0  0  0  0  0  0  0  0  0  0  0  0
  -11.9399    5.2355    0.6434 C   0  0  0  0  0  0  0  0  0  0  0  0
  -10.7413    5.7016    1.3972 N   0  0  0  0  0  0  0  0  0  0  0  0
  -10.3613    6.9516    1.3241 C   0  0  0  0  0  0  0  0  0  0  0  0
   -9.6529    7.4826    2.2873 N   0  0  0  0  0  0  0  0  0  0  0  0
  -10.6854    7.6696    0.2822 N   0  0  0  0  0  0  0  0  0  0  0  0
  2  1  1  6  0  0  0
  2  3  1  0  0  0  0
  2  5  1  0  0  0  0
  3  4  1  0  0  0  0
  5  6  1  0  0  0  0
  6  7  1  0  0  0  0
  7  8  1  0  0  0  0
  8  9  1  0  0  0  0
  9 10  1  0  0  0  0
  9 11  1  0  0  0  0
M  END
>  <CHROM.1>
-67.96359874,63.07563259,-153.97407500,-169.13318072,-45.91830832,115.95914713
155.82663058,-84.67993383,-158.74906255,-10.44279411,5.26350528,-0.82623275
-1.52546609,0.37778590,1.00934309

>  <Name>
1akx_lig

>  <RI>
0

>  <Rbt.Current_Directory>
/home/itssahil/PROJECTS/Mol_Feturizer/New_Systems/rnas/1akx

>  <Rbt.Executable>
rbdock ($Id: //depot/dev/client3/rdock/2013.1/src/exe/rbdock.cxx#4 $)

>  <Rbt.Library>
libRbt.so (2013.1, Build901 2013/11/27)

>  <Rbt.Parameter_File>
/export/apps/rDock/src/rDock_2013.1_src/data/scripts/dock_solv.prm

>  <Rbt.Receptor>
prm/blind_docking_100.prm

>  <SCORE>
-40.3778

>  <SCORE.INTER>
-35.8444

>  <SCORE.INTER.CONST>
1

>  <SCORE.INTER.POLAR>
-6.29635

>  <SCORE.INTER.ROT>
8

>  <SCORE.INTER.SOLV>
14.9343

>  <SCORE.INTER.VDW>
-16.8199

>  <SCORE.INTER.norm>
-3.25858

>  <SCORE.INTRA>
-4.64797

>  <SCORE.INTRA.DIHEDRAL>
-13.1287

>  <SCORE.INTRA.DIHEDRAL.0>
21.6454

>  <SCORE.INTRA.POLAR>
0

>  <SCORE.INTRA.POLAR.0>
0

>  <SCORE.INTRA.REPUL>
0

>  <SCORE.INTRA.REPUL.0>
0

>  <SCORE.INTRA.SOLV>
0.689506

>  <SCORE.INTRA.SOLV.lig_0>
-16.5947

>  <SCORE.INTRA.VDW>
1.57165

>  <SCORE.INTRA.VDW.0>
-0.691398

>  <SCORE.INTRA.norm>
-0.422543

>  <SCORE.RESTR>
0.114589

>  <SCORE.RESTR.CAVITY>
0.114589

>  <SCORE.RESTR.norm>
0.0104172

>  <SCORE.SYSTEM>
0

>  <SCORE.SYSTEM.CONST>
0

>  <SCORE.SYSTEM.DIHEDRAL>
0

>  <SCORE.SYSTEM.SOLV>
0

>  <SCORE.SYSTEM.norm>
0

>  <SCORE.heavy>
11

>  <SCORE.norm>
-3.67071

>  <RMSD>
13.399

$$$$
1akx_lig
 OpenBabel11021811383D
libRbt.so/2013.1/901 2013/11/27
 11 10  0  0  0  0  0  0  0  0999 V2000
   -9.7050    6.8485    0.2736 N   0  0  0  0  0  0  0  0  0  0  0  0
  -11.0347    6.7413    0.9432 C   0  0  2  0  0  0  0  0  0  0  0  0
  -10.9608    7.3840    2.3340 C   0  0  0  0  0  0  0  0  0  0  0  0
  -10.3426    8.4160    2.5043 O   0  0  0  0  0  0  0  0  0  0  0  0
  -11.4265    5.2634    1.0769 C   0  0  0  0  0  0  0  0  0  0  0  0
  -12.3828    4.8776   -0.0561 C   0  0  0  0  0  0  0  0  0  0  0  0
  -11.6978    5.1072   -1.4033 C   0  0  0  0  0  0  0  0  0  0  0  0
  -10.4642    4.2737   -1.4796 N   0  0  0  0  0  0  0  0  0  0  0  0
   -9.8607    4.0924   -2.6265 C   0  0  0  0  0  0  0  0  0  0  0  0
  -10.4596    4.4131   -3.7444 N   0  0  0  0  0  0  0  0  0  0  0  0
   -8.6532    3.5952   -2.6540 N   0  0  0  0  0  0  0  0  0  0  0  0
  2  1  1  1  0  0  0
  2  3  1  0  0  0  0
  2  5  1  0  0  0  0
  3  4  1  0  0  0  0
  5  6  1  0  0  0  0
  6  7  1  0  0  0  0
  7  8  1  0  0  0  0
  8  9  1  0  0  0  0
  9 10  1  0  0  0  0
  9 11  1  0  0  0  0
M  END
>  <CHROM.1>
163.65287942,40.15878689,-98.37296903,59.63568007,59.67550112,166.10990189
-13.28594710,97.56526993,-37.62050829,-10.57829837,5.55853256,-0.46278385
-1.71361008,-0.32821404,-2.23509450

>  <Name>
1akx_lig

>  <RI>
0

>  <Rbt.Current_Directory>
/home/itssahil/PROJECTS/Mol_Feturizer/New_Systems/rnas/1akx

>  <Rbt.Executable>
rbdock ($Id: //depot/dev/client3/rdock/2013.1/src/exe/rbdock.cxx#4 $)

>  <Rbt.Library>
libRbt.so (2013.1, Build901 2013/11/27)

>  <Rbt.Parameter_File>
/export/apps/rDock/src/rDock_2013.1_src/data/scripts/dock_solv.prm

>  <Rbt.Receptor>
prm/blind_docking_40.prm

>  <SCORE>
-45.0244

>  <SCORE.INTER>
-41.6142

>  <SCORE.INTER.CONST>
1

>  <SCORE.INTER.POLAR>
-6.51053

>  <SCORE.INTER.ROT>
8

>  <SCORE.INTER.SOLV>
12.414

>  <SCORE.INTER.VDW>
-19.1124

>  <SCORE.INTER.norm>
-3.7831

>  <SCORE.INTRA>
-3.41024

>  <SCORE.INTRA.DIHEDRAL>
-10.7336

>  <SCORE.INTRA.DIHEDRAL.0>
21.6454

>  <SCORE.INTRA.POLAR>
-0.185108

>  <SCORE.INTRA.POLAR.0>
0

>  <SCORE.INTRA.REPUL>
0

>  <SCORE.INTRA.REPUL.0>
0

>  <SCORE.INTRA.SOLV>
1.3455

>  <SCORE.INTRA.SOLV.lig_0>
-16.5947

>  <SCORE.INTRA.VDW>
1.91318

>  <SCORE.INTRA.VDW.0>
-0.691398

>  <SCORE.INTRA.norm>
-0.310022

>  <SCORE.RESTR>
0

>  <SCORE.RESTR.CAVITY>
0

>  <SCORE.RESTR.norm>
0

>  <SCORE.SYSTEM>
0

>  <SCORE.SYSTEM.CONST>
0

>  <SCORE.SYSTEM.DIHEDRAL>
0

>  <SCORE.SYSTEM.SOLV>
0

>  <SCORE.SYSTEM.norm>
0

>  <SCORE.heavy>
11

>  <SCORE.norm>
-4.09313

>  <RMSD>
13.403

$$$$
1akx_lig
 OpenBabel11021811383D
libRbt.so/2013.1/901 2013/11/27
 11 10  0  0  0  0  0  0  0  0999 V2000
   -9.6917    6.7656    0.0110 N   0  0  0  0  0  0  0  0  0  0  0  0
  -11.0890    6.7612    0.5361 C   0  0  2  0  0  0  0  0  0  0  0  0
  -11.1018    7.3261    1.9620 C   0  0  0  0  0  0  0  0  0  0  0  0
  -10.4753    8.3313    2.2328 O   0  0  0  0  0  0  0  0  0  0  0  0
  -11.6318    5.3257    0.5439 C   0  0  0  0  0  0  0  0  0  0  0  0
  -11.8313    4.8406   -0.8957 C   0  0  0  0  0  0  0  0  0  0  0  0
  -12.1351    3.3424   -0.8924 C   0  0  0  0  0  0  0  0  0  0  0  0
  -12.0593    2.8191   -2.2862 N   0  0  0  0  0  0  0  0  0  0  0  0
  -11.0253    3.0957   -3.0392 C   0  0  0  0  0  0  0  0  0  0  0  0
   -9.9144    2.4174   -2.9084 N   0  0  0  0  0  0  0  0  0  0  0  0
  -11.1056    4.0486   -3.9288 N   0  0  0  0  0  0  0  0  0  0  0  0
  2  1  1  1  0  0  0
  2  3  1  0  0  0  0
  2  5  1  0  0  0  0
  3  4  1  0  0  0  0
  5  6  1  0  0  0  0
  6  7  1  0  0  0  0
  7  8  1  0  0  0  0
  8  9  1  0  0  0  0
  9 10  1  0  0  0  0
  9 11  1  0  0  0  0
M  END
>  <CHROM.1>
166.90514876,44.81679950,-68.78004085,170.17823610,-168.77981421,49.16819473
80.57759808,69.94818458,9.57334240,-11.04833335,5.02164196,-0.81236153,-1.48616446
-0.65931536,-2.30097660

>  <Name>
1akx_lig

>  <RI>
0

>  <Rbt.Current_Directory>
/home/itssahil/PROJECTS/Mol_Feturizer/New_Systems/rnas/1akx

>  <Rbt.Executable>
rbdock ($Id: //depot/dev/client3/rdock/2013.1/src/exe/rbdock.cxx#4 $)

>  <Rbt.Library>
libRbt.so (2013.1, Build901 2013/11/27)

>  <Rbt.Parameter_File>
/export/apps/rDock/src/rDock_2013.1_src/data/scripts/dock_solv.prm

>  <Rbt.Receptor>
prm/blind_docking_80.prm

>  <SCORE>
-34.396

>  <SCORE.INTER>
-28.3336

>  <SCORE.INTER.CONST>
1

>  <SCORE.INTER.POLAR>
-4.39316

>  <SCORE.INTER.ROT>
8

>  <SCORE.INTER.SOLV>
11.4393

>  <SCORE.INTER.VDW>
-16.9917

>  <SCORE.INTER.norm>
-2.57579

>  <SCORE.INTRA>
-6.19515

>  <SCORE.INTRA.DIHEDRAL>
-14.4777

>  <SCORE.INTRA.DIHEDRAL.0>
21.6454

>  <SCORE.INTRA.POLAR>
0

>  <SCORE.INTRA.POLAR.0>
0

>  <SCORE.INTRA.REPUL>
0

>  <SCORE.INTRA.REPUL.0>
0

>  <SCORE.INTRA.SOLV>
0.534682

>  <SCORE.INTRA.SOLV.lig_0>
-16.5947

>  <SCORE.INTRA.VDW>
0.776334

>  <SCORE.INTRA.VDW.0>
-0.691398

>  <SCORE.INTRA.norm>
-0.563195

>  <SCORE.RESTR>
0.132807

>  <SCORE.RESTR.CAVITY>
0.132807

>  <SCORE.RESTR.norm>
0.0120733

>  <SCORE.SYSTEM>
0

>  <SCORE.SYSTEM.CONST>
0

>  <SCORE.SYSTEM.DIHEDRAL>
0

>  <SCORE.SYSTEM.SOLV>
0

>  <SCORE.SYSTEM.norm>
0

>  <SCORE.heavy>
11

>  <SCORE.norm>
-3.12691

>  <RMSD>
13.404

$$$$
1akx_lig
 OpenBabel11021811383D
libRbt.so/2013.1/901 2013/11/27
 11 10  0  0  0  0  0  0  0  0999 V2000
   -9.7967    4.7688   -3.4790 N   0  0  0  0  0  0  0  0  0  0  0  0
  -10.1283    3.7501   -2.4396 C   0  0  2  0  0  0  0  0  0  0  0  0
  -10.2990    2.3780   -3.1037 C   0  0  0  0  0  0  0  0  0  0  0  0
   -9.4476    1.9464   -3.8553 O   0  0  0  0  0  0  0  0  0  0  0  0
  -11.4291    4.1452   -1.7275 C   0  0  0  0  0  0  0  0  0  0  0  0
  -11.2192    5.4514   -0.9547 C   0  0  0  0  0  0  0  0  0  0  0  0
  -11.9111    5.3572    0.4052 C   0  0  0  0  0  0  0  0  0  0  0  0
  -11.8479    6.6821    1.0855 N   0  0  0  0  0  0  0  0  0  0  0  0
  -10.6916    7.2032    1.4080 C   0  0  0  0  0  0  0  0  0  0  0  0
   -9.6733    6.4292    1.6824 N   0  0  0  0  0  0  0  0  0  0  0  0
  -10.5528    8.5013    1.4498 N   0  0  0  0  0  0  0  0  0  0  0  0
  2  1  1  6  0  0  0
  2  3  1  0  0  0  0
  2  5  1  0  0  0  0
  3  4  1  0  0  0  0
  5  6  1  0  0  0  0
  6  7  1  0  0  0  0
  7  8  1  0  0  0  0
  8  9  1  0  0  0  0
  9 10  1  0  0  0  0
  9 11  1  0  0  0  0
M  END
>  <CHROM.1>
24.31987060,50.79317814,-65.03505825,-138.82184342,-173.18682824,-62.79297098
-29.24291753,169.19807325,77.44637619,-10.60157113,5.17295940,-0.88530946
-1.41831666,0.54470421,0.74891327

>  <Name>
1akx_lig

>  <RI>
0

>  <Rbt.Current_Directory>
/home/itssahil/PROJECTS/Mol_Feturizer/New_Systems/rnas/1akx

>  <Rbt.Executable>
rbdock ($Id: //depot/dev/client3/rdock/2013.1/src/exe/rbdock.cxx#4 $)

>  <Rbt.Library>
libRbt.so (2013.1, Build901 2013/11/27)

>  <Rbt.Parameter_File>
/export/apps/rDock/src/rDock_2013.1_src/data/scripts/dock_solv.prm

>  <Rbt.Receptor>
prm/blind_docking_80.prm

>  <SCORE>
-39.9577

>  <SCORE.INTER>
-37.985

>  <SCORE.INTER.CONST>
1

>  <SCORE.INTER.POLAR>
-6.29156

>  <SCORE.INTER.ROT>
8

>  <SCORE.INTER.SOLV>
12.5734

>  <SCORE.INTER.VDW>
-17.4759

>  <SCORE.INTER.norm>
-3.45318

>  <SCORE.INTRA>
-2.17897

>  <SCORE.INTRA.DIHEDRAL>
-9.1891

>  <SCORE.INTRA.DIHEDRAL.0>
21.6454

>  <SCORE.INTRA.POLAR>
0

>  <SCORE.INTRA.POLAR.0>
0

>  <SCORE.INTRA.REPUL>
0

>  <SCORE.INTRA.REPUL.0>
0

>  <SCORE.INTRA.SOLV>
0.504912

>  <SCORE.INTRA.SOLV.lig_0>
-16.5947

>  <SCORE.INTRA.VDW>
2.16313

>  <SCORE.INTRA.VDW.0>
-0.691398

>  <SCORE.INTRA.norm>
-0.198088

>  <SCORE.RESTR>
0.20624

>  <SCORE.RESTR.CAVITY>
0.20624

>  <SCORE.RESTR.norm>
0.0187491

>  <SCORE.SYSTEM>
0

>  <SCORE.SYSTEM.CONST>
0

>  <SCORE.SYSTEM.DIHEDRAL>
0

>  <SCORE.SYSTEM.SOLV>
0

>  <SCORE.SYSTEM.norm>
0

>  <SCORE.heavy>
11

>  <SCORE.norm>
-3.63252

>  <RMSD>
13.405

$$$$
1akx_lig
 OpenBabel11021811383D
libRbt.so/2013.1/901 2013/11/27
 11 10  0  0  0  0  0  0  0  0999 V2000
   -9.5290    6.4513    0.5265 N   0  0  0  0  0  0  0  0  0  0  0  0
  -11.0056    6.6308    0.6508 C   0  0  2  0  0  0  0  0  0  0  0  0
  -11.3126    7.5284    1.8561 C   0  0  0  0  0  0  0  0  0  0  0  0
  -10.9600    7.2037    2.9725 O   0  0  0  0  0  0  0  0  0  0  0  0
  -11.6766    5.2636    0.8403 C   0  0  0  0  0  0  0  0  0  0  0  0
  -12.6901    5.0248   -0.2836 C   0  0  0  0  0  0  0  0  0  0  0  0
  -11.9806    5.0995   -1.6356 C   0  0  0  0  0  0  0  0  0  0  0  0
  -10.9158    4.0579   -1.6939 N   0  0  0  0  0  0  0  0  0  0  0  0
  -10.3211    3.7856   -2.8273 C   0  0  0  0  0  0  0  0  0  0  0  0
  -10.4219    2.5926   -3.3546 N   0  0  0  0  0  0  0  0  0  0  0  0
   -9.6295    4.7107   -3.4371 N   0  0  0  0  0  0  0  0  0  0  0  0
  2  1  1  1  0  0  0
  2  3  1  0  0  0  0
  2  5  1  0  0  0  0
  3  4  1  0  0  0  0
  5  6  1  0  0  0  0
  6  7  1  0  0  0  0
  7  8  1  0  0  0  0
  8  9  1  0  0  0  0
  9 10  1  0  0  0  0
  9 11  1  0  0  0  0
M  END
>  <CHROM.1>
-171.76295302,-59.51606354,-121.34878983,58.13558424,59.89780212,168.88627752
-117.45718696,-149.32842825,-95.95319988,-10.89298901,5.29669730,-0.58740871
-1.68484414,-0.38233973,-2.20280354

>  <Name>
1akx_lig

>  <RI>
0

>  <Rbt.Current_Directory>
/home/itssahil/PROJECTS/Mol_Feturizer/New_Systems/rnas/1akx

>  <Rbt.Executable>
rbdock ($Id: //depot/dev/client3/rdock/2013.1/src/exe/rbdock.cxx#4 $)

>  <Rbt.Library>
libRbt.so (2013.1, Build901 2013/11/27)

>  <Rbt.Parameter_File>
/export/apps/rDock/src/rDock_2013.1_src/data/scripts/dock_solv.prm

>  <Rbt.Receptor>
prm/blind_docking_40.prm

>  <SCORE>
-32.9246

>  <SCORE.INTER>
-28.8263

>  <SCORE.INTER.CONST>
1

>  <SCORE.INTER.POLAR>
-4.56613

>  <SCORE.INTER.ROT>
8

>  <SCORE.INTER.SOLV>
10.3257

>  <SCORE.INTER.VDW>
-16.3723

>  <SCORE.INTER.norm>
-2.62057

>  <SCORE.INTRA>
-4.09835

>  <SCORE.INTRA.DIHEDRAL>
-10.7911

>  <SCORE.INTRA.DIHEDRAL.0>
21.6454

>  <SCORE.INTRA.POLAR>
0

>  <SCORE.INTRA.POLAR.0>
0

>  <SCORE.INTRA.REPUL>
0

>  <SCORE.INTRA.REPUL.0>
0

>  <SCORE.INTRA.SOLV>
1.15245

>  <SCORE.INTRA.SOLV.lig_0>
-16.5947

>  <SCORE.INTRA.VDW>
0.720983

>  <SCORE.INTRA.VDW.0>
-0.691398

>  <SCORE.INTRA.norm>
-0.372577

>  <SCORE.RESTR>
0

>  <SCORE.RESTR.CAVITY>
0

>  <SCORE.RESTR.norm>
0

>  <SCORE.SYSTEM>
0

>  <SCORE.SYSTEM.CONST>
0

>  <SCORE.SYSTEM.DIHEDRAL>
0

>  <SCORE.SYSTEM.SOLV>
0

>  <SCORE.SYSTEM.norm>
0

>  <SCORE.heavy>
11

>  <SCORE.norm>
-2.99315

>  <RMSD>
13.406

$$$$
1akx_lig
 OpenBabel11021811383D
libRbt.so/2013.1/901 2013/11/27
 11 10  0  0  0  0  0  0  0  0999 V2000
   -9.6406    6.9853    1.4462 N   0  0  0  0  0  0  0  0  0  0  0  0
  -10.9122    6.9748    0.6646 C   0  0  2  0  0  0  0  0  0  0  0  0
  -12.0076    7.6966    1.4594 C   0  0  0  0  0  0  0  0  0  0  0  0
  -12.8348    8.3798    0.8891 O   0  0  0  0  0  0  0  0  0  0  0  0
  -11.3391    5.5255    0.3947 C   0  0  0  0  0  0  0  0  0  0  0  0
  -10.3596    4.8721   -0.5855 C   0  0  0  0  0  0  0  0  0  0  0  0
  -10.8160    5.1413   -2.0194 C   0  0  0  0  0  0  0  0  0  0  0  0
   -9.6816    4.8943   -2.9545 N   0  0  0  0  0  0  0  0  0  0  0  0
   -9.3310    3.6704   -3.2572 C   0  0  0  0  0  0  0  0  0  0  0  0
  -10.1996    2.8477   -3.7865 N   0  0  0  0  0  0  0  0  0  0  0  0
   -8.1072    3.2713   -3.0355 N   0  0  0  0  0  0  0  0  0  0  0  0
  2  1  1  1  0  0  0
  2  3  1  0  0  0  0
  2  5  1  0  0  0  0
  3  4  1  0  0  0  0
  5  6  1  0  0  0  0
  6  7  1  0  0  0  0
  7  8  1  0  0  0  0
  8  9  1  0  0  0  0
  9 10  1  0  0  0  0
  9 11  1  0  0  0  0
M  END
>  <CHROM.1>
10.85674642,143.44258534,-68.85601618,-87.99356063,162.42780795,76.15053681
57.47484750,-146.43372106,33.26692687,-10.44543803,5.47905208,-0.98112001
-1.95641580,0.33330894,-2.17597088

>  <Name>
1akx_lig

>  <RI>
0

>  <Rbt.Current_Directory>
/home/itssahil/PROJECTS/Mol_Feturizer/New_Systems/rnas/1akx

>  <Rbt.Executable>
rbdock ($Id: //depot/dev/client3/rdock/2013.1/src/exe/rbdock.cxx#4 $)

>  <Rbt.Library>
libRbt.so (2013.1, Build901 2013/11/27)

>  <Rbt.Parameter_File>
/export/apps/rDock/src/rDock_2013.1_src/data/scripts/dock_solv.prm

>  <Rbt.Receptor>
prm/blind_docking_100.prm

>  <SCORE>
-33.4591

>  <SCORE.INTER>
-32.0199

>  <SCORE.INTER.CONST>
1

>  <SCORE.INTER.POLAR>
-5.03235

>  <SCORE.INTER.ROT>
8

>  <SCORE.INTER.SOLV>
14.2946

>  <SCORE.INTER.VDW>
-18.2703

>  <SCORE.INTER.norm>
-2.9109

>  <SCORE.INTRA>
-1.732

>  <SCORE.INTRA.DIHEDRAL>
-5.85509

>  <SCORE.INTRA.DIHEDRAL.0>
21.6454

>  <SCORE.INTRA.POLAR>
0

>  <SCORE.INTRA.POLAR.0>
0

>  <SCORE.INTRA.REPUL>
0

>  <SCORE.INTRA.REPUL.0>
0

>  <SCORE.INTRA.SOLV>
0.23667

>  <SCORE.INTRA.SOLV.lig_0>
-16.5947

>  <SCORE.INTRA.VDW>
1.07721

>  <SCORE.INTRA.VDW.0>
-0.691398

>  <SCORE.INTRA.norm>
-0.157455

>  <SCORE.RESTR>
0.292764

>  <SCORE.RESTR.CAVITY>
0.292764

>  <SCORE.RESTR.norm>
0.0266149

>  <SCORE.SYSTEM>
0

>  <SCORE.SYSTEM.CONST>
0

>  <SCORE.SYSTEM.DIHEDRAL>
0

>  <SCORE.SYSTEM.SOLV>
0

>  <SCORE.SYSTEM.norm>
0

>  <SCORE.heavy>
11

>  <SCORE.norm>
-3.04174

>  <RMSD>
13.410

$$$$
1akx_lig
 OpenBabel11021811383D
libRbt.so/2013.1/901 2013/11/27
 11 10  0  0  0  0  0  0  0  0999 V2000
   -9.3497    5.0047   -2.5363 N   0  0  0  0  0  0  0  0  0  0  0  0
  -10.1978    3.8625   -2.0844 C   0  0  2  0  0  0  0  0  0  0  0  0
  -10.3620    2.8606   -3.2342 C   0  0  0  0  0  0  0  0  0  0  0  0
   -9.3895    2.3327   -3.7358 O   0  0  0  0  0  0  0  0  0  0  0  0
  -11.5751    4.3831   -1.6517 C   0  0  0  0  0  0  0  0  0  0  0  0
  -11.4035    5.5947   -0.7298 C   0  0  0  0  0  0  0  0  0  0  0  0
  -10.7868    5.1454    0.5948 C   0  0  0  0  0  0  0  0  0  0  0  0
  -10.0537    6.2873    1.2121 N   0  0  0  0  0  0  0  0  0  0  0  0
  -10.7055    7.2083    1.8749 C   0  0  0  0  0  0  0  0  0  0  0  0
  -10.5530    8.4715    1.5709 N   0  0  0  0  0  0  0  0  0  0  0  0
  -11.5159    6.8638    2.8396 N   0  0  0  0  0  0  0  0  0  0  0  0
  2  1  1  6  0  0  0
  2  3  1  0  0  0  0
  2  5  1  0  0  0  0
  3  4  1  0  0  0  0
  5  6  1  0  0  0  0
  6  7  1  0  0  0  0
  7  8  1  0  0  0  0
  8  9  1  0  0  0  0
  9 10  1  0  0  0  0
  9 11  1  0  0  0  0
M  END
>  <CHROM.1>
-168.81619830,59.12737864,-47.43348140,-68.14861085,153.99454849,80.38075225
-126.79118593,14.68156379,78.48305937,-10.50355603,5.30483880,-0.53721341
-1.37443845,0.76067808,0.75977488

>  <Name>
1akx_lig

>  <RI>
0

>  <Rbt.Current_Directory>
/home/afrankz/demos/rdock_decoys_rna/rnas/1akx

>  <Rbt.Executable>
rbdock ($Id: //depot/dev/client3/rdock/2013.1/src/exe/rbdock.cxx#4 $)

>  <Rbt.Library>
libRbt.so (2013.1, Build901 2013/11/27)

>  <Rbt.Parameter_File>
/export/apps/rDock/src/rDock_2013.1_src/data/scripts/dock_solv.prm

>  <Rbt.Receptor>
prm/blind_docking_100.prm

>  <SCORE>
-39.2757

>  <SCORE.INTER>
-33.8662

>  <SCORE.INTER.CONST>
1

>  <SCORE.INTER.POLAR>
-5.4065

>  <SCORE.INTER.ROT>
8

>  <SCORE.INTER.SOLV>
11.5147

>  <SCORE.INTER.VDW>
-17.3273

>  <SCORE.INTER.norm>
-3.07874

>  <SCORE.INTRA>
-5.41363

>  <SCORE.INTRA.DIHEDRAL>
-13.4722

>  <SCORE.INTRA.DIHEDRAL.0>
21.6454

>  <SCORE.INTRA.POLAR>
0

>  <SCORE.INTRA.POLAR.0>
0

>  <SCORE.INTRA.REPUL>
0

>  <SCORE.INTRA.REPUL.0>
0

>  <SCORE.INTRA.SOLV>
0.761613

>  <SCORE.INTRA.SOLV.lig_0>
-16.5947

>  <SCORE.INTRA.VDW>
0.941677

>  <SCORE.INTRA.VDW.0>
-0.691398

>  <SCORE.INTRA.norm>
-0.492148

>  <SCORE.RESTR>
0.00406787

>  <SCORE.RESTR.CAVITY>
0.00406787

>  <SCORE.RESTR.norm>
0.000369807

>  <SCORE.SYSTEM>
0

>  <SCORE.SYSTEM.CONST>
0

>  <SCORE.SYSTEM.DIHEDRAL>
0

>  <SCORE.SYSTEM.SOLV>
0

>  <SCORE.SYSTEM.norm>
0

>  <SCORE.heavy>
11

>  <SCORE.norm>
-3.57052

>  <RMSD>
13.419

>  <RMSD>
13.419

$$$$
1akx_lig
 OpenBabel11021811383D
libRbt.so/2013.1/901 2013/11/27
 11 10  0  0  0  0  0  0  0  0999 V2000
   -9.3497    5.0047   -2.5363 N   0  0  0  0  0  0  0  0  0  0  0  0
  -10.1978    3.8625   -2.0844 C   0  0  2  0  0  0  0  0  0  0  0  0
  -10.3620    2.8606   -3.2342 C   0  0  0  0  0  0  0  0  0  0  0  0
   -9.3895    2.3327   -3.7358 O   0  0  0  0  0  0  0  0  0  0  0  0
  -11.5751    4.3831   -1.6517 C   0  0  0  0  0  0  0  0  0  0  0  0
  -11.4035    5.5947   -0.7298 C   0  0  0  0  0  0  0  0  0  0  0  0
  -10.7868    5.1454    0.5948 C   0  0  0  0  0  0  0  0  0  0  0  0
  -10.0537    6.2873    1.2121 N   0  0  0  0  0  0  0  0  0  0  0  0
  -10.7055    7.2083    1.8749 C   0  0  0  0  0  0  0  0  0  0  0  0
  -10.5530    8.4715    1.5709 N   0  0  0  0  0  0  0  0  0  0  0  0
  -11.5159    6.8638    2.8396 N   0  0  0  0  0  0  0  0  0  0  0  0
  2  1  1  6  0  0  0
  2  3  1  0  0  0  0
  2  5  1  0  0  0  0
  3  4  1  0  0  0  0
  5  6  1  0  0  0  0
  6  7  1  0  0  0  0
  7  8  1  0  0  0  0
  8  9  1  0  0  0  0
  9 10  1  0  0  0  0
  9 11  1  0  0  0  0
M  END
>  <CHROM.1>
-168.81619830,59.12737864,-47.43348140,-68.14861085,153.99454849,80.38075225
-126.79118593,14.68156379,78.48305937,-10.50355603,5.30483880,-0.53721341
-1.37443845,0.76067808,0.75977488

>  <Name>
1akx_lig

>  <RI>
0

>  <Rbt.Current_Directory>
/home/afrankz/demos/rdock_decoys_rna/rnas/1akx

>  <Rbt.Executable>
rbdock ($Id: //depot/dev/client3/rdock/2013.1/src/exe/rbdock.cxx#4 $)

>  <Rbt.Library>
libRbt.so (2013.1, Build901 2013/11/27)

>  <Rbt.Parameter_File>
/export/apps/rDock/src/rDock_2013.1_src/data/scripts/dock_solv.prm

>  <Rbt.Receptor>
prm/blind_docking_100.prm

>  <SCORE>
-39.2757

>  <SCORE.INTER>
-33.8662

>  <SCORE.INTER.CONST>
1

>  <SCORE.INTER.POLAR>
-5.4065

>  <SCORE.INTER.ROT>
8

>  <SCORE.INTER.SOLV>
11.5147

>  <SCORE.INTER.VDW>
-17.3273

>  <SCORE.INTER.norm>
-3.07874

>  <SCORE.INTRA>
-5.41363

>  <SCORE.INTRA.DIHEDRAL>
-13.4722

>  <SCORE.INTRA.DIHEDRAL.0>
21.6454

>  <SCORE.INTRA.POLAR>
0

>  <SCORE.INTRA.POLAR.0>
0

>  <SCORE.INTRA.REPUL>
0

>  <SCORE.INTRA.REPUL.0>
0

>  <SCORE.INTRA.SOLV>
0.761613

>  <SCORE.INTRA.SOLV.lig_0>
-16.5947

>  <SCORE.INTRA.VDW>
0.941677

>  <SCORE.INTRA.VDW.0>
-0.691398

>  <SCORE.INTRA.norm>
-0.492148

>  <SCORE.RESTR>
0.00406787

>  <SCORE.RESTR.CAVITY>
0.00406787

>  <SCORE.RESTR.norm>
0.000369807

>  <SCORE.SYSTEM>
0

>  <SCORE.SYSTEM.CONST>
0

>  <SCORE.SYSTEM.DIHEDRAL>
0

>  <SCORE.SYSTEM.SOLV>
0

>  <SCORE.SYSTEM.norm>
0

>  <SCORE.heavy>
11

>  <SCORE.norm>
-3.57052

>  <RMSD>
13.419

>  <RMSD>
13.419

$$$$
1akx_lig
 OpenBabel11021811383D
libRbt.so/2013.1/901 2013/11/27
 11 10  0  0  0  0  0  0  0  0999 V2000
   -9.8022    6.8748    0.2072 N   0  0  0  0  0  0  0  0  0  0  0  0
  -11.1137    6.7503    0.9090 C   0  0  2  0  0  0  0  0  0  0  0  0
  -10.9933    7.3273    2.3252 C   0  0  0  0  0  0  0  0  0  0  0  0
  -10.3605    8.3451    2.5247 O   0  0  0  0  0  0  0  0  0  0  0  0
  -11.5187    5.2720    0.9858 C   0  0  0  0  0  0  0  0  0  0  0  0
  -12.5309    4.9552   -0.1199 C   0  0  0  0  0  0  0  0  0  0  0  0
  -11.8347    5.0069   -1.4798 C   0  0  0  0  0  0  0  0  0  0  0  0
  -10.7941    3.9415   -1.5440 N   0  0  0  0  0  0  0  0  0  0  0  0
  -10.2511    3.6181   -2.6898 C   0  0  0  0  0  0  0  0  0  0  0  0
  -10.1937    4.4917   -3.6619 N   0  0  0  0  0  0  0  0  0  0  0  0
   -9.7589    2.4204   -2.8608 N   0  0  0  0  0  0  0  0  0  0  0  0
  2  1  1  1  0  0  0
  2  3  1  0  0  0  0
  2  5  1  0  0  0  0
  3  4  1  0  0  0  0
  5  6  1  0  0  0  0
  6  7  1  0  0  0  0
  7  8  1  0  0  0  0
  8  9  1  0  0  0  0
  9 10  1  0  0  0  0
  9 11  1  0  0  0  0
M  END
>  <CHROM.1>
-73.12477464,40.28213648,-99.41955977,69.54789371,63.74596789,166.52560232
26.33681802,38.90598347,-87.44099331,-10.77770997,5.37090080,-0.51463577
-1.65712466,-0.57165783,-2.31103473

>  <Name>
1akx_lig

>  <RI>
0

>  <Rbt.Current_Directory>
/home/itssahil/PROJECTS/Mol_Feturizer/New_Systems/rnas/1akx

>  <Rbt.Executable>
rbdock ($Id: //depot/dev/client3/rdock/2013.1/src/exe/rbdock.cxx#4 $)

>  <Rbt.Library>
libRbt.so (2013.1, Build901 2013/11/27)

>  <Rbt.Parameter_File>
/export/apps/rDock/src/rDock_2013.1_src/data/scripts/dock_solv.prm

>  <Rbt.Receptor>
prm/blind_docking_40.prm

>  <SCORE>
-39.293

>  <SCORE.INTER>
-35.6788

>  <SCORE.INTER.CONST>
1

>  <SCORE.INTER.POLAR>
-5.96709

>  <SCORE.INTER.ROT>
8

>  <SCORE.INTER.SOLV>
11.4752

>  <SCORE.INTER.VDW>
-16.6539

>  <SCORE.INTER.norm>
-3.24352

>  <SCORE.INTRA>
-3.61424

>  <SCORE.INTRA.DIHEDRAL>
-10.3808

>  <SCORE.INTRA.DIHEDRAL.0>
21.6454

>  <SCORE.INTRA.POLAR>
0

>  <SCORE.INTRA.POLAR.0>
0

>  <SCORE.INTRA.REPUL>
0

>  <SCORE.INTRA.REPUL.0>
0

>  <SCORE.INTRA.SOLV>
1.04628

>  <SCORE.INTRA.SOLV.lig_0>
-16.5947

>  <SCORE.INTRA.VDW>
1.05301

>  <SCORE.INTRA.VDW.0>
-0.691398

>  <SCORE.INTRA.norm>
-0.328567

>  <SCORE.RESTR>
0

>  <SCORE.RESTR.CAVITY>
0

>  <SCORE.RESTR.norm>
0

>  <SCORE.SYSTEM>
0

>  <SCORE.SYSTEM.CONST>
0

>  <SCORE.SYSTEM.DIHEDRAL>
0

>  <SCORE.SYSTEM.SOLV>
0

>  <SCORE.SYSTEM.norm>
0

>  <SCORE.heavy>
11

>  <SCORE.norm>
-3.57209

>  <RMSD>
13.426

$$$$
1akx_lig
 OpenBabel11021811383D
libRbt.so/2013.1/901 2013/11/27
 11 10  0  0  0  0  0  0  0  0999 V2000
  -10.8208    4.2589   -4.1804 N   0  0  0  0  0  0  0  0  0  0  0  0
  -10.1741    3.5382   -3.0444 C   0  0  2  0  0  0  0  0  0  0  0  0
  -10.0210    2.0541   -3.4004 C   0  0  0  0  0  0  0  0  0  0  0  0
  -10.9973    1.3355   -3.4817 O   0  0  0  0  0  0  0  0  0  0  0  0
  -11.0389    3.6810   -1.7846 C   0  0  0  0  0  0  0  0  0  0  0  0
  -10.8677    5.0854   -1.1966 C   0  0  0  0  0  0  0  0  0  0  0  0
  -11.6142    5.1764    0.1344 C   0  0  0  0  0  0  0  0  0  0  0  0
  -11.6355    6.5944    0.5939 N   0  0  0  0  0  0  0  0  0  0  0  0
  -11.1002    6.9237    1.7417 C   0  0  0  0  0  0  0  0  0  0  0  0
  -11.3419    6.2096    2.8108 N   0  0  0  0  0  0  0  0  0  0  0  0
  -10.3167    7.9659    1.8182 N   0  0  0  0  0  0  0  0  0  0  0  0
  2  1  1  6  0  0  0
  2  3  1  0  0  0  0
  2  5  1  0  0  0  0
  3  4  1  0  0  0  0
  5  6  1  0  0  0  0
  6  7  1  0  0  0  0
  7  8  1  0  0  0  0
  8  9  1  0  0  0  0
  9 10  1  0  0  0  0
  9 11  1  0  0  0  0
M  END
>  <CHROM.1>
-155.91999779,-69.62167650,-75.94665332,-174.14934620,-170.81981975,-120.34394510
-45.96375219,16.37563354,145.71150501,-10.91097790,4.82064478,-0.91771031
-1.22802722,1.37502222,0.55742281

>  <Name>
1akx_lig

>  <RI>
0

>  <Rbt.Current_Directory>
/home/afrankz/demos/rdock_decoys_rna/rnas/1akx

>  <Rbt.Executable>
rbdock ($Id: //depot/dev/client3/rdock/2013.1/src/exe/rbdock.cxx#4 $)

>  <Rbt.Library>
libRbt.so (2013.1, Build901 2013/11/27)

>  <Rbt.Parameter_File>
/export/apps/rDock/src/rDock_2013.1_src/data/scripts/dock_solv.prm

>  <Rbt.Receptor>
prm/blind_docking_100.prm

>  <SCORE>
-33.5208

>  <SCORE.INTER>
-27.3162

>  <SCORE.INTER.CONST>
1

>  <SCORE.INTER.POLAR>
-4.81274

>  <SCORE.INTER.ROT>
8

>  <SCORE.INTER.SOLV>
11.2631

>  <SCORE.INTER.VDW>
-14.856

>  <SCORE.INTER.norm>
-2.48329

>  <SCORE.INTRA>
-6.20462

>  <SCORE.INTRA.DIHEDRAL>
-13.8397

>  <SCORE.INTRA.DIHEDRAL.0>
21.6454

>  <SCORE.INTRA.POLAR>
0

>  <SCORE.INTRA.POLAR.0>
0

>  <SCORE.INTRA.REPUL>
0

>  <SCORE.INTRA.REPUL.0>
0

>  <SCORE.INTRA.SOLV>
0.315095

>  <SCORE.INTRA.SOLV.lig_0>
-16.5947

>  <SCORE.INTRA.VDW>
0.557661

>  <SCORE.INTRA.VDW.0>
-0.691398

>  <SCORE.INTRA.norm>
-0.564057

>  <SCORE.RESTR>
0

>  <SCORE.RESTR.CAVITY>
0

>  <SCORE.RESTR.norm>
0

>  <SCORE.SYSTEM>
0

>  <SCORE.SYSTEM.CONST>
0

>  <SCORE.SYSTEM.DIHEDRAL>
0

>  <SCORE.SYSTEM.SOLV>
0

>  <SCORE.SYSTEM.norm>
0

>  <SCORE.heavy>
11

>  <SCORE.norm>
-3.04734

>  <RMSD>
13.431

>  <RMSD>
13.431

$$$$
1akx_lig
 OpenBabel11021811383D
libRbt.so/2013.1/901 2013/11/27
 11 10  0  0  0  0  0  0  0  0999 V2000
  -10.8208    4.2589   -4.1804 N   0  0  0  0  0  0  0  0  0  0  0  0
  -10.1741    3.5382   -3.0444 C   0  0  2  0  0  0  0  0  0  0  0  0
  -10.0210    2.0541   -3.4004 C   0  0  0  0  0  0  0  0  0  0  0  0
  -10.9973    1.3355   -3.4817 O   0  0  0  0  0  0  0  0  0  0  0  0
  -11.0389    3.6810   -1.7846 C   0  0  0  0  0  0  0  0  0  0  0  0
  -10.8677    5.0854   -1.1966 C   0  0  0  0  0  0  0  0  0  0  0  0
  -11.6142    5.1764    0.1344 C   0  0  0  0  0  0  0  0  0  0  0  0
  -11.6355    6.5944    0.5939 N   0  0  0  0  0  0  0  0  0  0  0  0
  -11.1002    6.9237    1.7417 C   0  0  0  0  0  0  0  0  0  0  0  0
  -11.3419    6.2096    2.8108 N   0  0  0  0  0  0  0  0  0  0  0  0
  -10.3167    7.9659    1.8182 N   0  0  0  0  0  0  0  0  0  0  0  0
  2  1  1  6  0  0  0
  2  3  1  0  0  0  0
  2  5  1  0  0  0  0
  3  4  1  0  0  0  0
  5  6  1  0  0  0  0
  6  7  1  0  0  0  0
  7  8  1  0  0  0  0
  8  9  1  0  0  0  0
  9 10  1  0  0  0  0
  9 11  1  0  0  0  0
M  END
>  <CHROM.1>
-155.91999779,-69.62167650,-75.94665332,-174.14934620,-170.81981975,-120.34394510
-45.96375219,16.37563354,145.71150501,-10.91097790,4.82064478,-0.91771031
-1.22802722,1.37502222,0.55742281

>  <Name>
1akx_lig

>  <RI>
0

>  <Rbt.Current_Directory>
/home/afrankz/demos/rdock_decoys_rna/rnas/1akx

>  <Rbt.Executable>
rbdock ($Id: //depot/dev/client3/rdock/2013.1/src/exe/rbdock.cxx#4 $)

>  <Rbt.Library>
libRbt.so (2013.1, Build901 2013/11/27)

>  <Rbt.Parameter_File>
/export/apps/rDock/src/rDock_2013.1_src/data/scripts/dock_solv.prm

>  <Rbt.Receptor>
prm/blind_docking_100.prm

>  <SCORE>
-33.5208

>  <SCORE.INTER>
-27.3162

>  <SCORE.INTER.CONST>
1

>  <SCORE.INTER.POLAR>
-4.81274

>  <SCORE.INTER.ROT>
8

>  <SCORE.INTER.SOLV>
11.2631

>  <SCORE.INTER.VDW>
-14.856

>  <SCORE.INTER.norm>
-2.48329

>  <SCORE.INTRA>
-6.20462

>  <SCORE.INTRA.DIHEDRAL>
-13.8397

>  <SCORE.INTRA.DIHEDRAL.0>
21.6454

>  <SCORE.INTRA.POLAR>
0

>  <SCORE.INTRA.POLAR.0>
0

>  <SCORE.INTRA.REPUL>
0

>  <SCORE.INTRA.REPUL.0>
0

>  <SCORE.INTRA.SOLV>
0.315095

>  <SCORE.INTRA.SOLV.lig_0>
-16.5947

>  <SCORE.INTRA.VDW>
0.557661

>  <SCORE.INTRA.VDW.0>
-0.691398

>  <SCORE.INTRA.norm>
-0.564057

>  <SCORE.RESTR>
0

>  <SCORE.RESTR.CAVITY>
0

>  <SCORE.RESTR.norm>
0

>  <SCORE.SYSTEM>
0

>  <SCORE.SYSTEM.CONST>
0

>  <SCORE.SYSTEM.DIHEDRAL>
0

>  <SCORE.SYSTEM.SOLV>
0

>  <SCORE.SYSTEM.norm>
0

>  <SCORE.heavy>
11

>  <SCORE.norm>
-3.04734

>  <RMSD>
13.431

>  <RMSD>
13.431

$$$$
1akx_lig
 OpenBabel11021811383D
libRbt.so/2013.1/901 2013/11/27
 11 10  0  0  0  0  0  0  0  0999 V2000
  -10.8429    4.3348   -4.0128 N   0  0  0  0  0  0  0  0  0  0  0  0
  -10.3033    3.5184   -2.8856 C   0  0  2  0  0  0  0  0  0  0  0  0
  -10.2828    2.0388   -3.2892 C   0  0  0  0  0  0  0  0  0  0  0  0
  -11.3023    1.3783   -3.2635 O   0  0  0  0  0  0  0  0  0  0  0  0
  -11.1882    3.7038   -1.6455 C   0  0  0  0  0  0  0  0  0  0  0  0
  -11.1143    5.1585   -1.1705 C   0  0  0  0  0  0  0  0  0  0  0  0
  -11.7189    5.2702    0.2291 C   0  0  0  0  0  0  0  0  0  0  0  0
  -11.6932    6.6949    0.6671 N   0  0  0  0  0  0  0  0  0  0  0  0
  -10.6460    7.1753    1.2876 C   0  0  0  0  0  0  0  0  0  0  0  0
   -9.6915    6.3747    1.6865 N   0  0  0  0  0  0  0  0  0  0  0  0
  -10.5512    8.4600    1.5035 N   0  0  0  0  0  0  0  0  0  0  0  0
  2  1  1  6  0  0  0
  2  3  1  0  0  0  0
  2  5  1  0  0  0  0
  3  4  1  0  0  0  0
  5  6  1  0  0  0  0
  6  7  1  0  0  0  0
  7  8  1  0  0  0  0
  8  9  1  0  0  0  0
  9 10  1  0  0  0  0
  9 11  1  0  0  0  0
M  END
>  <CHROM.1>
-38.55940804,-78.67565280,-64.55431158,-166.83873462,-177.84312373,-88.39357874
-9.11354662,154.60984462,94.15850019,-10.84803820,4.94144736,-1.00562535
2.25478626,1.53381126,-3.04428059

>  <Name>
1akx_lig

>  <RI>
0

>  <Rbt.Current_Directory>
/home/itssahil/PROJECTS/Mol_Feturizer/New_Systems/rnas/1akx

>  <Rbt.Executable>
rbdock ($Id: //depot/dev/client3/rdock/2013.1/src/exe/rbdock.cxx#4 $)

>  <Rbt.Library>
libRbt.so (2013.1, Build901 2013/11/27)

>  <Rbt.Parameter_File>
/export/apps/rDock/src/rDock_2013.1_src/data/scripts/dock_solv.prm

>  <Rbt.Receptor>
prm/blind_docking_80.prm

>  <SCORE>
-38.9166

>  <SCORE.INTER>
-33.985

>  <SCORE.INTER.CONST>
1

>  <SCORE.INTER.POLAR>
-5.19501

>  <SCORE.INTER.ROT>
8

>  <SCORE.INTER.SOLV>
12.3149

>  <SCORE.INTER.VDW>
-18.3782

>  <SCORE.INTER.norm>
-3.08955

>  <SCORE.INTRA>
-5.01804

>  <SCORE.INTRA.DIHEDRAL>
-13.8641

>  <SCORE.INTRA.DIHEDRAL.0>
21.6454

>  <SCORE.INTRA.POLAR>
0

>  <SCORE.INTRA.POLAR.0>
0

>  <SCORE.INTRA.REPUL>
0

>  <SCORE.INTRA.REPUL.0>
0

>  <SCORE.INTRA.SOLV>
0.453194

>  <SCORE.INTRA.SOLV.lig_0>
-16.5947

>  <SCORE.INTRA.VDW>
1.68743

>  <SCORE.INTRA.VDW.0>
-0.691398

>  <SCORE.INTRA.norm>
-0.456185

>  <SCORE.RESTR>
0.0864879

>  <SCORE.RESTR.CAVITY>
0.0864879

>  <SCORE.RESTR.norm>
0.00786254

>  <SCORE.SYSTEM>
0

>  <SCORE.SYSTEM.CONST>
0

>  <SCORE.SYSTEM.DIHEDRAL>
0

>  <SCORE.SYSTEM.SOLV>
0

>  <SCORE.SYSTEM.norm>
0

>  <SCORE.heavy>
11

>  <SCORE.norm>
-3.53787

>  <RMSD>
13.431

$$$$
1akx_lig
 OpenBabel11021811383D
libRbt.so/2013.1/901 2013/11/27
 11 10  0  0  0  0  0  0  0  0999 V2000
  -10.5702    5.4563    1.5668 N   0  0  0  0  0  0  0  0  0  0  0  0
  -10.9927    6.4525    0.5385 C   0  0  2  0  0  0  0  0  0  0  0  0
  -10.9257    7.8639    1.1352 C   0  0  0  0  0  0  0  0  0  0  0  0
  -11.5883    8.1527    2.1119 O   0  0  0  0  0  0  0  0  0  0  0  0
  -12.4280    6.1497    0.0871 C   0  0  0  0  0  0  0  0  0  0  0  0
  -12.4482    4.8617   -0.7423 C   0  0  0  0  0  0  0  0  0  0  0  0
  -11.5204    5.0155   -1.9474 C   0  0  0  0  0  0  0  0  0  0  0  0
  -10.3625    4.0879   -1.8022 N   0  0  0  0  0  0  0  0  0  0  0  0
   -9.7678    3.6043   -2.8628 C   0  0  0  0  0  0  0  0  0  0  0  0
   -8.4999    3.2851   -2.8196 N   0  0  0  0  0  0  0  0  0  0  0  0
  -10.4450    3.4341   -3.9667 N   0  0  0  0  0  0  0  0  0  0  0  0
  2  1  1  1  0  0  0
  2  3  1  0  0  0  0
  2  5  1  0  0  0  0
  3  4  1  0  0  0  0
  5  6  1  0  0  0  0
  6  7  1  0  0  0  0
  7  8  1  0  0  0  0
  8  9  1  0  0  0  0
  9 10  1  0  0  0  0
  9 11  1  0  0  0  0
M  END
>  <CHROM.1>
-68.17450502,-59.67012386,-70.38727593,-58.14076598,113.12653300,150.66564263
151.22706125,-18.54126900,-80.41636014,-10.83338007,5.28314479,-0.77266038
-1.84269134,0.24907533,-2.18624538

>  <Name>
1akx_lig

>  <RI>
0

>  <Rbt.Current_Directory>
/home/itssahil/PROJECTS/Mol_Feturizer/New_Systems/rnas/1akx

>  <Rbt.Executable>
rbdock ($Id: //depot/dev/client3/rdock/2013.1/src/exe/rbdock.cxx#4 $)

>  <Rbt.Library>
libRbt.so (2013.1, Build901 2013/11/27)

>  <Rbt.Parameter_File>
/export/apps/rDock/src/rDock_2013.1_src/data/scripts/dock_solv.prm

>  <Rbt.Receptor>
prm/blind_docking_80.prm

>  <SCORE>
-25.7366

>  <SCORE.INTER>
-21.856

>  <SCORE.INTER.CONST>
1

>  <SCORE.INTER.POLAR>
-3.32934

>  <SCORE.INTER.ROT>
8

>  <SCORE.INTER.SOLV>
11.8026

>  <SCORE.INTER.VDW>
-16.3404

>  <SCORE.INTER.norm>
-1.98691

>  <SCORE.INTRA>
-3.89957

>  <SCORE.INTRA.DIHEDRAL>
-10.8955

>  <SCORE.INTRA.DIHEDRAL.0>
21.6454

>  <SCORE.INTRA.POLAR>
0

>  <SCORE.INTRA.POLAR.0>
0

>  <SCORE.INTRA.REPUL>
0.00672644

>  <SCORE.INTRA.REPUL.0>
0

>  <SCORE.INTRA.SOLV>
0.988543

>  <SCORE.INTRA.SOLV.lig_0>
-16.5947

>  <SCORE.INTRA.VDW>
1.02029

>  <SCORE.INTRA.VDW.0>
-0.691398

>  <SCORE.INTRA.norm>
-0.354506

>  <SCORE.RESTR>
0.0189427

>  <SCORE.RESTR.CAVITY>
0.0189427

>  <SCORE.RESTR.norm>
0.00172206

>  <SCORE.SYSTEM>
0

>  <SCORE.SYSTEM.CONST>
0

>  <SCORE.SYSTEM.DIHEDRAL>
0

>  <SCORE.SYSTEM.SOLV>
0

>  <SCORE.SYSTEM.norm>
0

>  <SCORE.heavy>
11

>  <SCORE.norm>
-2.33969

>  <RMSD>
13.433

$$$$
1akx_lig
 OpenBabel11021811383D
libRbt.so/2013.1/901 2013/11/27
 11 10  0  0  0  0  0  0  0  0999 V2000
   -8.4555    3.6887   -2.7767 N   0  0  0  0  0  0  0  0  0  0  0  0
   -9.8806    3.7000   -2.3328 C   0  0  2  0  0  0  0  0  0  0  0  0
  -10.7944    3.4479   -3.5388 C   0  0  0  0  0  0  0  0  0  0  0  0
  -10.8440    4.2471   -4.4526 O   0  0  0  0  0  0  0  0  0  0  0  0
  -10.2144    5.0609   -1.7068 C   0  0  0  0  0  0  0  0  0  0  0  0
  -11.6661    5.0625   -1.2170 C   0  0  0  0  0  0  0  0  0  0  0  0
  -11.6989    4.7774    0.2845 C   0  0  0  0  0  0  0  0  0  0  0  0
  -11.8126    6.0634    1.0300 N   0  0  0  0  0  0  0  0  0  0  0  0
  -10.7638    6.8304    1.1855 C   0  0  0  0  0  0  0  0  0  0  0  0
  -10.8468    8.1152    0.9538 N   0  0  0  0  0  0  0  0  0  0  0  0
   -9.6318    6.3115    1.5796 N   0  0  0  0  0  0  0  0  0  0  0  0
  2  1  1  6  0  0  0
  2  3  1  0  0  0  0
  2  5  1  0  0  0  0
  3  4  1  0  0  0  0
  5  6  1  0  0  0  0
  6  7  1  0  0  0  0
  7  8  1  0  0  0  0
  8  9  1  0  0  0  0
  9 10  1  0  0  0  0
  9 11  1  0  0  0  0
M  END
>  <CHROM.1>
-39.32369729,-64.55170836,-178.51866861,98.24504219,97.89056009,-77.44692311
133.08034510,57.71183749,171.71586428,-10.56018946,5.22879190,-1.01006036
-1.42766471,-0.12057734,1.00945526

>  <Name>
1akx_lig

>  <RI>
0

>  <Rbt.Current_Directory>
/home/itssahil/PROJECTS/Mol_Feturizer/New_Systems/rnas/1akx

>  <Rbt.Executable>
rbdock ($Id: //depot/dev/client3/rdock/2013.1/src/exe/rbdock.cxx#4 $)

>  <Rbt.Library>
libRbt.so (2013.1, Build901 2013/11/27)

>  <Rbt.Parameter_File>
/export/apps/rDock/src/rDock_2013.1_src/data/scripts/dock_solv.prm

>  <Rbt.Receptor>
prm/blind_docking_40.prm

>  <SCORE>
-39.0386

>  <SCORE.INTER>
-37.0083

>  <SCORE.INTER.CONST>
1

>  <SCORE.INTER.POLAR>
-5.50831

>  <SCORE.INTER.ROT>
8

>  <SCORE.INTER.SOLV>
13.2219

>  <SCORE.INTER.VDW>
-19.6518

>  <SCORE.INTER.norm>
-3.36439

>  <SCORE.INTRA>
-2.03063

>  <SCORE.INTRA.DIHEDRAL>
-7.59767

>  <SCORE.INTRA.DIHEDRAL.0>
21.6454

>  <SCORE.INTRA.POLAR>
0

>  <SCORE.INTRA.POLAR.0>
0

>  <SCORE.INTRA.REPUL>
0

>  <SCORE.INTRA.REPUL.0>
0

>  <SCORE.INTRA.SOLV>
0.879645

>  <SCORE.INTRA.SOLV.lig_0>
-16.5947

>  <SCORE.INTRA.VDW>
1.32838

>  <SCORE.INTRA.VDW.0>
-0.691398

>  <SCORE.INTRA.norm>
-0.184603

>  <SCORE.RESTR>
0.000311571

>  <SCORE.RESTR.CAVITY>
0.000311571

>  <SCORE.RESTR.norm>
2.83247e-05

>  <SCORE.SYSTEM>
0

>  <SCORE.SYSTEM.CONST>
0

>  <SCORE.SYSTEM.DIHEDRAL>
0

>  <SCORE.SYSTEM.SOLV>
0

>  <SCORE.SYSTEM.norm>
0

>  <SCORE.heavy>
11

>  <SCORE.norm>
-3.54897

>  <RMSD>
13.434

$$$$
1akx_lig
 OpenBabel11021811383D
libRbt.so/2013.1/901 2013/11/27
 11 10  0  0  0  0  0  0  0  0999 V2000
   -8.4535    3.1715   -2.5571 N   0  0  0  0  0  0  0  0  0  0  0  0
   -9.8252    3.7007   -2.2988 C   0  0  2  0  0  0  0  0  0  0  0  0
  -10.7285    3.3887   -3.4985 C   0  0  0  0  0  0  0  0  0  0  0  0
  -11.9005    3.7090   -3.4878 O   0  0  0  0  0  0  0  0  0  0  0  0
   -9.7594    5.2186   -2.0821 C   0  0  0  0  0  0  0  0  0  0  0  0
   -9.6710    5.5234   -0.5832 C   0  0  0  0  0  0  0  0  0  0  0  0
  -11.0329    5.2831    0.0682 C   0  0  0  0  0  0  0  0  0  0  0  0
  -11.0342    5.8635    1.4413 N   0  0  0  0  0  0  0  0  0  0  0  0
  -10.9519    7.1586    1.6099 C   0  0  0  0  0  0  0  0  0  0  0  0
  -11.9710    7.8274    2.0848 N   0  0  0  0  0  0  0  0  0  0  0  0
   -9.8457    7.7843    1.3085 N   0  0  0  0  0  0  0  0  0  0  0  0
  2  1  1  6  0  0  0
  2  3  1  0  0  0  0
  2  5  1  0  0  0  0
  3  4  1  0  0  0  0
  5  6  1  0  0  0  0
  6  7  1  0  0  0  0
  7  8  1  0  0  0  0
  8  9  1  0  0  0  0
  9 10  1  0  0  0  0
  9 11  1  0  0  0  0
M  END
>  <CHROM.1>
166.73366141,178.54147316,-94.75899041,-73.88746410,-167.38281005,66.57107509
112.05895707,43.23228320,129.52232553,-10.45963630,5.33333862,-0.72160114
-1.42048738,-0.08302945,0.90794227

>  <Name>
1akx_lig

>  <RI>
0

>  <Rbt.Current_Directory>
/home/itssahil/PROJECTS/Mol_Feturizer/New_Systems/rnas/1akx

>  <Rbt.Executable>
rbdock ($Id: //depot/dev/client3/rdock/2013.1/src/exe/rbdock.cxx#4 $)

>  <Rbt.Library>
libRbt.so (2013.1, Build901 2013/11/27)

>  <Rbt.Parameter_File>
/export/apps/rDock/src/rDock_2013.1_src/data/scripts/dock_solv.prm

>  <Rbt.Receptor>
prm/blind_docking_80.prm

>  <SCORE>
-33.1893

>  <SCORE.INTER>
-28.1492

>  <SCORE.INTER.CONST>
1

>  <SCORE.INTER.POLAR>
-4.24705

>  <SCORE.INTER.ROT>
8

>  <SCORE.INTER.SOLV>
11.9953

>  <SCORE.INTER.VDW>
-17.5411

>  <SCORE.INTER.norm>
-2.55902

>  <SCORE.INTRA>
-5.04008

>  <SCORE.INTRA.DIHEDRAL>
-11.3938

>  <SCORE.INTRA.DIHEDRAL.0>
21.6454

>  <SCORE.INTRA.POLAR>
0

>  <SCORE.INTRA.POLAR.0>
0

>  <SCORE.INTRA.REPUL>
0

>  <SCORE.INTRA.REPUL.0>
0

>  <SCORE.INTRA.SOLV>
0.445345

>  <SCORE.INTRA.SOLV.lig_0>
-16.5947

>  <SCORE.INTRA.VDW>
0.434132

>  <SCORE.INTRA.VDW.0>
-0.691398

>  <SCORE.INTRA.norm>
-0.458189

>  <SCORE.RESTR>
0

>  <SCORE.RESTR.CAVITY>
0

>  <SCORE.RESTR.norm>
0

>  <SCORE.SYSTEM>
0

>  <SCORE.SYSTEM.CONST>
0

>  <SCORE.SYSTEM.DIHEDRAL>
0

>  <SCORE.SYSTEM.SOLV>
0

>  <SCORE.SYSTEM.norm>
0

>  <SCORE.heavy>
11

>  <SCORE.norm>
-3.01721

>  <RMSD>
13.436

$$$$
1akx_lig
 OpenBabel11021811383D
libRbt.so/2013.1/901 2013/11/27
 11 10  0  0  0  0  0  0  0  0999 V2000
   -9.7426    6.6049    1.6279 N   0  0  0  0  0  0  0  0  0  0  0  0
  -10.8298    7.0067    0.6873 C   0  0  2  0  0  0  0  0  0  0  0  0
  -11.9569    7.6918    1.4704 C   0  0  0  0  0  0  0  0  0  0  0  0
  -12.5238    8.6637    1.0121 O   0  0  0  0  0  0  0  0  0  0  0  0
  -11.3782    5.7641   -0.0273 C   0  0  0  0  0  0  0  0  0  0  0  0
  -10.4347    5.3643   -1.1663 C   0  0  0  0  0  0  0  0  0  0  0  0
  -11.2482    4.7871   -2.3247 C   0  0  0  0  0  0  0  0  0  0  0  0
  -10.3322    4.4418   -3.4490 N   0  0  0  0  0  0  0  0  0  0  0  0
   -9.4435    3.4917   -3.3075 C   0  0  0  0  0  0  0  0  0  0  0  0
   -8.1891    3.7901   -3.0870 N   0  0  0  0  0  0  0  0  0  0  0  0
   -9.8122    2.2408   -3.3806 N   0  0  0  0  0  0  0  0  0  0  0  0
  2  1  1  1  0  0  0
  2  3  1  0  0  0  0
  2  5  1  0  0  0  0
  3  4  1  0  0  0  0
  5  6  1  0  0  0  0
  6  7  1  0  0  0  0
  7  8  1  0  0  0  0
  8  9  1  0  0  0  0
  9 10  1  0  0  0  0
  9 11  1  0  0  0  0
M  END
>  <CHROM.1>
-7.59029880,140.14645549,-79.36986549,-146.04478771,178.10906449,65.60948929
-102.01699832,143.94595369,-134.32073078,-10.50250248,5.43473562,-1.07506021
-1.92101893,0.43501382,-2.17242411

>  <Name>
1akx_lig

>  <RI>
0

>  <Rbt.Current_Directory>
/home/itssahil/PROJECTS/Mol_Feturizer/New_Systems/rnas/1akx

>  <Rbt.Executable>
rbdock ($Id: //depot/dev/client3/rdock/2013.1/src/exe/rbdock.cxx#4 $)

>  <Rbt.Library>
libRbt.so (2013.1, Build901 2013/11/27)

>  <Rbt.Parameter_File>
/export/apps/rDock/src/rDock_2013.1_src/data/scripts/dock_solv.prm

>  <Rbt.Receptor>
prm/blind_docking_80.prm

>  <SCORE>
-37.2537

>  <SCORE.INTER>
-36.715

>  <SCORE.INTER.CONST>
1

>  <SCORE.INTER.POLAR>
-5.73246

>  <SCORE.INTER.ROT>
8

>  <SCORE.INTER.SOLV>
14.2295

>  <SCORE.INTER.VDW>
-19.045

>  <SCORE.INTER.norm>
-3.33773

>  <SCORE.INTRA>
-1.19213

>  <SCORE.INTRA.DIHEDRAL>
-4.35291

>  <SCORE.INTRA.DIHEDRAL.0>
21.6454

>  <SCORE.INTRA.POLAR>
0

>  <SCORE.INTRA.POLAR.0>
0

>  <SCORE.INTRA.REPUL>
0

>  <SCORE.INTRA.REPUL.0>
0

>  <SCORE.INTRA.SOLV>
0.174968

>  <SCORE.INTRA.SOLV.lig_0>
-16.5947

>  <SCORE.INTRA.VDW>
0.896842

>  <SCORE.INTRA.VDW.0>
-0.691398

>  <SCORE.INTRA.norm>
-0.108375

>  <SCORE.RESTR>
0.653378

>  <SCORE.RESTR.CAVITY>
0.653378

>  <SCORE.RESTR.norm>
0.059398

>  <SCORE.SYSTEM>
0

>  <SCORE.SYSTEM.CONST>
0

>  <SCORE.SYSTEM.DIHEDRAL>
0

>  <SCORE.SYSTEM.SOLV>
0

>  <SCORE.SYSTEM.norm>
0

>  <SCORE.heavy>
11

>  <SCORE.norm>
-3.3867

>  <RMSD>
13.443

$$$$
1akx_lig
 OpenBabel11021811383D
libRbt.so/2013.1/901 2013/11/27
 11 10  0  0  0  0  0  0  0  0999 V2000
   -9.7518    6.4820    1.5973 N   0  0  0  0  0  0  0  0  0  0  0  0
  -10.8326    6.6483    0.5813 C   0  0  2  0  0  0  0  0  0  0  0  0
  -12.1112    7.1417    1.2701 C   0  0  0  0  0  0  0  0  0  0  0  0
  -12.1165    8.1916    1.8816 O   0  0  0  0  0  0  0  0  0  0  0  0
  -11.1027    5.3042   -0.1084 C   0  0  0  0  0  0  0  0  0  0  0  0
  -12.0824    5.5062   -1.2688 C   0  0  0  0  0  0  0  0  0  0  0  0
  -11.8001    4.4747   -2.3612 C   0  0  0  0  0  0  0  0  0  0  0  0
  -10.4314    4.6959   -2.9089 N   0  0  0  0  0  0  0  0  0  0  0  0
   -9.4237    3.9837   -2.4733 C   0  0  0  0  0  0  0  0  0  0  0  0
   -9.3084    2.7264   -2.8156 N   0  0  0  0  0  0  0  0  0  0  0  0
   -8.5265    4.5327   -1.6990 N   0  0  0  0  0  0  0  0  0  0  0  0
  2  1  1  1  0  0  0
  2  3  1  0  0  0  0
  2  5  1  0  0  0  0
  3  4  1  0  0  0  0
  5  6  1  0  0  0  0
  6  7  1  0  0  0  0
  7  8  1  0  0  0  0
  8  9  1  0  0  0  0
  9 10  1  0  0  0  0
  9 11  1  0  0  0  0
M  END
>  <CHROM.1>
-136.20534851,59.47919922,-172.93508409,149.80068703,-63.24726728,97.35164393
72.88884452,177.42766252,17.62985085,-10.63249195,5.43216030,-0.72484458
-1.91038397,0.28781045,-2.18687534

>  <Name>
1akx_lig

>  <RI>
0

>  <Rbt.Current_Directory>
/home/itssahil/PROJECTS/Mol_Feturizer/New_Systems/rnas/1akx

>  <Rbt.Executable>
rbdock ($Id: //depot/dev/client3/rdock/2013.1/src/exe/rbdock.cxx#4 $)

>  <Rbt.Library>
libRbt.so (2013.1, Build901 2013/11/27)

>  <Rbt.Parameter_File>
/export/apps/rDock/src/rDock_2013.1_src/data/scripts/dock_solv.prm

>  <Rbt.Receptor>
prm/blind_docking_80.prm

>  <SCORE>
-35.523

>  <SCORE.INTER>
-32.1135

>  <SCORE.INTER.CONST>
1

>  <SCORE.INTER.POLAR>
-4.93154

>  <SCORE.INTER.ROT>
8

>  <SCORE.INTER.SOLV>
11.8399

>  <SCORE.INTER.VDW>
-17.8505

>  <SCORE.INTER.norm>
-2.91941

>  <SCORE.INTRA>
-3.44206

>  <SCORE.INTRA.DIHEDRAL>
-10.5233

>  <SCORE.INTRA.DIHEDRAL.0>
21.6454

>  <SCORE.INTRA.POLAR>
0

>  <SCORE.INTRA.POLAR.0>
0

>  <SCORE.INTRA.REPUL>
0

>  <SCORE.INTRA.REPUL.0>
0

>  <SCORE.INTRA.SOLV>
1.14178

>  <SCORE.INTRA.SOLV.lig_0>
-16.5947

>  <SCORE.INTRA.VDW>
1.24868

>  <SCORE.INTRA.VDW.0>
-0.691398

>  <SCORE.INTRA.norm>
-0.312914

>  <SCORE.RESTR>
0.0325909

>  <SCORE.RESTR.CAVITY>
0.0325909

>  <SCORE.RESTR.norm>
0.00296281

>  <SCORE.SYSTEM>
0

>  <SCORE.SYSTEM.CONST>
0

>  <SCORE.SYSTEM.DIHEDRAL>
0

>  <SCORE.SYSTEM.SOLV>
0

>  <SCORE.SYSTEM.norm>
0

>  <SCORE.heavy>
11

>  <SCORE.norm>
-3.22936

>  <RMSD>
13.444

$$$$
1akx_lig
 OpenBabel11021811383D
libRbt.so/2013.1/901 2013/11/27
 11 10  0  0  0  0  0  0  0  0999 V2000
  -11.5280    8.8096    1.6442 N   0  0  0  0  0  0  0  0  0  0  0  0
  -11.5457    7.3860    1.1957 C   0  0  2  0  0  0  0  0  0  0  0  0
  -11.5341    6.4631    2.4208 C   0  0  0  0  0  0  0  0  0  0  0  0
  -12.2661    6.6826    3.3653 O   0  0  0  0  0  0  0  0  0  0  0  0
  -10.3136    7.1049    0.3249 C   0  0  0  0  0  0  0  0  0  0  0  0
  -10.5300    5.8172   -0.4766 C   0  0  0  0  0  0  0  0  0  0  0  0
   -9.2351    5.4396   -1.1960 C   0  0  0  0  0  0  0  0  0  0  0  0
   -9.5534    4.9725   -2.5754 N   0  0  0  0  0  0  0  0  0  0  0  0
   -9.3166    3.7334   -2.9232 C   0  0  0  0  0  0  0  0  0  0  0  0
   -8.0969    3.2615   -2.8912 N   0  0  0  0  0  0  0  0  0  0  0  0
  -10.3031    2.9636   -3.2975 N   0  0  0  0  0  0  0  0  0  0  0  0
  2  1  1  1  0  0  0
  2  3  1  0  0  0  0
  2  5  1  0  0  0  0
  3  4  1  0  0  0  0
  5  6  1  0  0  0  0
  6  7  1  0  0  0  0
  7  8  1  0  0  0  0
  8  9  1  0  0  0  0
  9 10  1  0  0  0  0
  9 11  1  0  0  0  0
M  END
>  <CHROM.1>
62.55176348,45.61069318,-162.82350135,-172.45242078,-138.57074963,-115.04835875
-60.92252951,41.85687730,44.03952321,-10.39440503,5.70161862,-0.39467723
-2.30028724,-1.00033220,-2.85761519

>  <Name>
1akx_lig

>  <RI>
0

>  <Rbt.Current_Directory>
/home/itssahil/PROJECTS/Mol_Feturizer/New_Systems/rnas/1akx

>  <Rbt.Executable>
rbdock ($Id: //depot/dev/client3/rdock/2013.1/src/exe/rbdock.cxx#4 $)

>  <Rbt.Library>
libRbt.so (2013.1, Build901 2013/11/27)

>  <Rbt.Parameter_File>
/export/apps/rDock/src/rDock_2013.1_src/data/scripts/dock_solv.prm

>  <Rbt.Receptor>
prm/blind_docking_100.prm

>  <SCORE>
-29.2605

>  <SCORE.INTER>
-25.2826

>  <SCORE.INTER.CONST>
1

>  <SCORE.INTER.POLAR>
-3.85751

>  <SCORE.INTER.ROT>
8

>  <SCORE.INTER.SOLV>
12.5104

>  <SCORE.INTER.VDW>
-17.1002

>  <SCORE.INTER.norm>
-2.29842

>  <SCORE.INTRA>
-5.05668

>  <SCORE.INTRA.DIHEDRAL>
-10.4498

>  <SCORE.INTRA.DIHEDRAL.0>
21.6454

>  <SCORE.INTRA.POLAR>
0

>  <SCORE.INTRA.POLAR.0>
0

>  <SCORE.INTRA.REPUL>
0

>  <SCORE.INTRA.REPUL.0>
0

>  <SCORE.INTRA.SOLV>
0.24182

>  <SCORE.INTRA.SOLV.lig_0>
-16.5947

>  <SCORE.INTRA.VDW>
0.0473271

>  <SCORE.INTRA.VDW.0>
-0.691398

>  <SCORE.INTRA.norm>
-0.459698

>  <SCORE.RESTR>
1.07883

>  <SCORE.RESTR.CAVITY>
1.07883

>  <SCORE.RESTR.norm>
0.0980757

>  <SCORE.SYSTEM>
0

>  <SCORE.SYSTEM.CONST>
0

>  <SCORE.SYSTEM.DIHEDRAL>
0

>  <SCORE.SYSTEM.SOLV>
0

>  <SCORE.SYSTEM.norm>
0

>  <SCORE.heavy>
11

>  <SCORE.norm>
-2.66004

>  <RMSD>
13.453

$$$$
1akx_lig
 OpenBabel11021811383D
libRbt.so/2013.1/901 2013/11/27
 11 10  0  0  0  0  0  0  0  0999 V2000
  -10.8027    4.5711   -3.6929 N   0  0  0  0  0  0  0  0  0  0  0  0
  -10.4705    3.6066   -2.6032 C   0  0  2  0  0  0  0  0  0  0  0  0
  -10.8726    2.1902   -3.0331 C   0  0  0  0  0  0  0  0  0  0  0  0
  -10.2602    1.6148   -3.9106 O   0  0  0  0  0  0  0  0  0  0  0  0
  -11.2268    3.9931   -1.3249 C   0  0  0  0  0  0  0  0  0  0  0  0
  -10.4929    5.1357   -0.6156 C   0  0  0  0  0  0  0  0  0  0  0  0
  -10.8749    5.1472    0.8646 C   0  0  0  0  0  0  0  0  0  0  0  0
  -10.0855    6.1958    1.5713 N   0  0  0  0  0  0  0  0  0  0  0  0
  -10.6865    7.2356    2.0909 C   0  0  0  0  0  0  0  0  0  0  0  0
  -11.5091    7.0868    3.0972 N   0  0  0  0  0  0  0  0  0  0  0  0
  -10.4589    8.4270    1.6065 N   0  0  0  0  0  0  0  0  0  0  0  0
  2  1  1  6  0  0  0
  2  3  1  0  0  0  0
  2  5  1  0  0  0  0
  3  4  1  0  0  0  0
  5  6  1  0  0  0  0
  6  7  1  0  0  0  0
  7  8  1  0  0  0  0
  8  9  1  0  0  0  0
  9 10  1  0  0  0  0
  9 11  1  0  0  0  0
M  END
>  <CHROM.1>
-173.93855977,69.94438884,-80.22488582,-157.33524840,175.93730581,114.49788140
66.10394403,63.39004790,-168.48587685,-10.70300199,5.04699331,-0.56150634
-1.38516190,1.44036739,0.70440804

>  <Name>
1akx_lig

>  <RI>
0

>  <Rbt.Current_Directory>
/home/itssahil/PROJECTS/Mol_Feturizer/New_Systems/rnas/1akx

>  <Rbt.Executable>
rbdock ($Id: //depot/dev/client3/rdock/2013.1/src/exe/rbdock.cxx#4 $)

>  <Rbt.Library>
libRbt.so (2013.1, Build901 2013/11/27)

>  <Rbt.Parameter_File>
/export/apps/rDock/src/rDock_2013.1_src/data/scripts/dock_solv.prm

>  <Rbt.Receptor>
prm/blind_docking_100.prm

>  <SCORE>
-42.557

>  <SCORE.INTER>
-35.6212

>  <SCORE.INTER.CONST>
1

>  <SCORE.INTER.POLAR>
-5.65

>  <SCORE.INTER.ROT>
8

>  <SCORE.INTER.SOLV>
11.9556

>  <SCORE.INTER.VDW>
-17.8327

>  <SCORE.INTER.norm>
-3.23829

>  <SCORE.INTRA>
-6.95202

>  <SCORE.INTRA.DIHEDRAL>
-12.9315

>  <SCORE.INTRA.DIHEDRAL.0>
21.6454

>  <SCORE.INTRA.POLAR>
0

>  <SCORE.INTRA.POLAR.0>
0

>  <SCORE.INTRA.REPUL>
0

>  <SCORE.INTRA.REPUL.0>
0

>  <SCORE.INTRA.SOLV>
0.164663

>  <SCORE.INTRA.SOLV.lig_0>
-16.5947

>  <SCORE.INTRA.VDW>
-0.56861

>  <SCORE.INTRA.VDW.0>
-0.691398

>  <SCORE.INTRA.norm>
-0.632001

>  <SCORE.RESTR>
0.0162306

>  <SCORE.RESTR.CAVITY>
0.0162306

>  <SCORE.RESTR.norm>
0.00147551

>  <SCORE.SYSTEM>
0

>  <SCORE.SYSTEM.CONST>
0

>  <SCORE.SYSTEM.DIHEDRAL>
0

>  <SCORE.SYSTEM.SOLV>
0

>  <SCORE.SYSTEM.norm>
0

>  <SCORE.heavy>
11

>  <SCORE.norm>
-3.86881

>  <RMSD>
13.455

$$$$
1akx_lig
 OpenBabel11021811383D
libRbt.so/2013.1/901 2013/11/27
 11 10  0  0  0  0  0  0  0  0999 V2000
   -9.2582    4.2190   -3.5779 N   0  0  0  0  0  0  0  0  0  0  0  0
   -9.9914    3.5128   -2.4861 C   0  0  2  0  0  0  0  0  0  0  0  0
  -10.8050    2.3564   -3.0806 C   0  0  0  0  0  0  0  0  0  0  0  0
  -10.2594    1.4926   -3.7381 O   0  0  0  0  0  0  0  0  0  0  0  0
  -10.9326    4.4965   -1.7777 C   0  0  0  0  0  0  0  0  0  0  0  0
  -10.1213    5.4225   -0.8658 C   0  0  0  0  0  0  0  0  0  0  0  0
  -10.9640    5.8093    0.3496 C   0  0  0  0  0  0  0  0  0  0  0  0
  -10.1563    6.6727    1.2575 N   0  0  0  0  0  0  0  0  0  0  0  0
  -10.7211    7.6608    1.9032 C   0  0  0  0  0  0  0  0  0  0  0  0
  -10.6036    8.8876    1.4644 N   0  0  0  0  0  0  0  0  0  0  0  0
  -11.4101    7.4198    2.9863 N   0  0  0  0  0  0  0  0  0  0  0  0
  2  1  1  6  0  0  0
  2  3  1  0  0  0  0
  2  5  1  0  0  0  0
  3  4  1  0  0  0  0
  5  6  1  0  0  0  0
  6  7  1  0  0  0  0
  7  8  1  0  0  0  0
  8  9  1  0  0  0  0
  9 10  1  0  0  0  0
  9 11  1  0  0  0  0
M  END
>  <CHROM.1>
-57.54253637,56.40027482,-75.37231821,-148.25487403,178.10149257,143.38972308
-100.31746287,-176.73784672,54.74736547,-10.45586689,5.28514411,-0.70069855
-1.40215517,0.98928641,0.67209122

>  <Name>
1akx_lig

>  <RI>
0

>  <Rbt.Current_Directory>
/home/itssahil/PROJECTS/Mol_Feturizer/New_Systems/rnas/1akx

>  <Rbt.Executable>
rbdock ($Id: //depot/dev/client3/rdock/2013.1/src/exe/rbdock.cxx#4 $)

>  <Rbt.Library>
libRbt.so (2013.1, Build901 2013/11/27)

>  <Rbt.Parameter_File>
/export/apps/rDock/src/rDock_2013.1_src/data/scripts/dock_solv.prm

>  <Rbt.Receptor>
prm/blind_docking_80.prm

>  <SCORE>
-40.2583

>  <SCORE.INTER>
-34.3915

>  <SCORE.INTER.CONST>
1

>  <SCORE.INTER.POLAR>
-5.41623

>  <SCORE.INTER.ROT>
8

>  <SCORE.INTER.SOLV>
12.5763

>  <SCORE.INTER.VDW>
-17.999

>  <SCORE.INTER.norm>
-3.1265

>  <SCORE.INTRA>
-6.6204

>  <SCORE.INTRA.DIHEDRAL>
-12.5258

>  <SCORE.INTRA.DIHEDRAL.0>
21.6454

>  <SCORE.INTRA.POLAR>
0

>  <SCORE.INTRA.POLAR.0>
0

>  <SCORE.INTRA.REPUL>
0

>  <SCORE.INTRA.REPUL.0>
0

>  <SCORE.INTRA.SOLV>
0.156292

>  <SCORE.INTRA.SOLV.lig_0>
-16.5947

>  <SCORE.INTRA.VDW>
-0.435633

>  <SCORE.INTRA.VDW.0>
-0.691398

>  <SCORE.INTRA.norm>
-0.601855

>  <SCORE.RESTR>
0.753591

>  <SCORE.RESTR.CAVITY>
0.753591

>  <SCORE.RESTR.norm>
0.0685083

>  <SCORE.SYSTEM>
0

>  <SCORE.SYSTEM.CONST>
0

>  <SCORE.SYSTEM.DIHEDRAL>
0

>  <SCORE.SYSTEM.SOLV>
0

>  <SCORE.SYSTEM.norm>
0

>  <SCORE.heavy>
11

>  <SCORE.norm>
-3.65985

>  <RMSD>
13.458

$$$$
1akx_lig
 OpenBabel11021811383D
libRbt.so/2013.1/901 2013/11/27
 11 10  0  0  0  0  0  0  0  0999 V2000
   -9.6776    6.8586    1.9922 N   0  0  0  0  0  0  0  0  0  0  0  0
  -10.6311    7.3845    0.9712 C   0  0  2  0  0  0  0  0  0  0  0  0
  -11.7346    8.1901    1.6684 C   0  0  0  0  0  0  0  0  0  0  0  0
  -12.4859    8.8938    1.0230 O   0  0  0  0  0  0  0  0  0  0  0  0
  -11.2549    6.2147    0.1981 C   0  0  0  0  0  0  0  0  0  0  0  0
  -10.1895    5.5469   -0.6773 C   0  0  0  0  0  0  0  0  0  0  0  0
  -10.8689    4.6703   -1.7294 C   0  0  0  0  0  0  0  0  0  0  0  0
   -9.9726    4.5330   -2.9127 N   0  0  0  0  0  0  0  0  0  0  0  0
   -9.4112    3.3826   -3.1847 C   0  0  0  0  0  0  0  0  0  0  0  0
   -8.1148    3.2411   -3.0814 N   0  0  0  0  0  0  0  0  0  0  0  0
  -10.1493    2.3705   -3.5546 N   0  0  0  0  0  0  0  0  0  0  0  0
  2  1  1  1  0  0  0
  2  3  1  0  0  0  0
  2  5  1  0  0  0  0
  3  4  1  0  0  0  0
  5  6  1  0  0  0  0
  6  7  1  0  0  0  0
  7  8  1  0  0  0  0
  8  9  1  0  0  0  0
  9 10  1  0  0  0  0
  9 11  1  0  0  0  0
M  END
>  <CHROM.1>
1.66505467,167.51349530,-68.83030913,-163.72190344,154.25796122,110.78762427
-112.80487070,35.41105298,179.40521051,-10.38286727,5.56067232,-0.83964496
-1.88790763,0.43519901,-2.22915762

>  <Name>
1akx_lig

>  <RI>
0

>  <Rbt.Current_Directory>
/home/afrankz/demos/rdock_decoys_rna/rnas/1akx

>  <Rbt.Executable>
rbdock ($Id: //depot/dev/client3/rdock/2013.1/src/exe/rbdock.cxx#4 $)

>  <Rbt.Library>
libRbt.so (2013.1, Build901 2013/11/27)

>  <Rbt.Parameter_File>
/export/apps/rDock/src/rDock_2013.1_src/data/scripts/dock_solv.prm

>  <Rbt.Receptor>
prm/blind_docking_80.prm

>  <SCORE>
-38.7822

>  <SCORE.INTER>
-35.1317

>  <SCORE.INTER.CONST>
1

>  <SCORE.INTER.POLAR>
-5.42492

>  <SCORE.INTER.ROT>
8

>  <SCORE.INTER.SOLV>
14.4727

>  <SCORE.INTER.VDW>
-19.0957

>  <SCORE.INTER.norm>
-3.19379

>  <SCORE.INTRA>
-3.65042

>  <SCORE.INTRA.DIHEDRAL>
-9.19978

>  <SCORE.INTRA.DIHEDRAL.0>
21.6454

>  <SCORE.INTRA.POLAR>
0

>  <SCORE.INTRA.POLAR.0>
0

>  <SCORE.INTRA.REPUL>
0

>  <SCORE.INTRA.REPUL.0>
0

>  <SCORE.INTRA.SOLV>
0.0617022

>  <SCORE.INTRA.SOLV.lig_0>
-16.5947

>  <SCORE.INTRA.VDW>
0.918622

>  <SCORE.INTRA.VDW.0>
-0.691398

>  <SCORE.INTRA.norm>
-0.331856

>  <SCORE.RESTR>
0

>  <SCORE.RESTR.CAVITY>
0

>  <SCORE.RESTR.norm>
0

>  <SCORE.SYSTEM>
0

>  <SCORE.SYSTEM.CONST>
0

>  <SCORE.SYSTEM.DIHEDRAL>
0

>  <SCORE.SYSTEM.SOLV>
0

>  <SCORE.SYSTEM.norm>
0

>  <SCORE.heavy>
11

>  <SCORE.norm>
-3.52565

>  <RMSD>
13.472

>  <RMSD>
13.472

$$$$
1akx_lig
 OpenBabel11021811383D
libRbt.so/2013.1/901 2013/11/27
 11 10  0  0  0  0  0  0  0  0999 V2000
   -9.6776    6.8586    1.9922 N   0  0  0  0  0  0  0  0  0  0  0  0
  -10.6311    7.3845    0.9712 C   0  0  2  0  0  0  0  0  0  0  0  0
  -11.7346    8.1901    1.6684 C   0  0  0  0  0  0  0  0  0  0  0  0
  -12.4859    8.8938    1.0230 O   0  0  0  0  0  0  0  0  0  0  0  0
  -11.2549    6.2147    0.1981 C   0  0  0  0  0  0  0  0  0  0  0  0
  -10.1895    5.5469   -0.6773 C   0  0  0  0  0  0  0  0  0  0  0  0
  -10.8689    4.6703   -1.7294 C   0  0  0  0  0  0  0  0  0  0  0  0
   -9.9726    4.5330   -2.9127 N   0  0  0  0  0  0  0  0  0  0  0  0
   -9.4112    3.3826   -3.1847 C   0  0  0  0  0  0  0  0  0  0  0  0
   -8.1148    3.2411   -3.0814 N   0  0  0  0  0  0  0  0  0  0  0  0
  -10.1493    2.3705   -3.5546 N   0  0  0  0  0  0  0  0  0  0  0  0
  2  1  1  1  0  0  0
  2  3  1  0  0  0  0
  2  5  1  0  0  0  0
  3  4  1  0  0  0  0
  5  6  1  0  0  0  0
  6  7  1  0  0  0  0
  7  8  1  0  0  0  0
  8  9  1  0  0  0  0
  9 10  1  0  0  0  0
  9 11  1  0  0  0  0
M  END
>  <CHROM.1>
1.66505467,167.51349530,-68.83030913,-163.72190344,154.25796122,110.78762427
-112.80487070,35.41105298,179.40521051,-10.38286727,5.56067232,-0.83964496
-1.88790763,0.43519901,-2.22915762

>  <Name>
1akx_lig

>  <RI>
0

>  <Rbt.Current_Directory>
/home/afrankz/demos/rdock_decoys_rna/rnas/1akx

>  <Rbt.Executable>
rbdock ($Id: //depot/dev/client3/rdock/2013.1/src/exe/rbdock.cxx#4 $)

>  <Rbt.Library>
libRbt.so (2013.1, Build901 2013/11/27)

>  <Rbt.Parameter_File>
/export/apps/rDock/src/rDock_2013.1_src/data/scripts/dock_solv.prm

>  <Rbt.Receptor>
prm/blind_docking_80.prm

>  <SCORE>
-38.7822

>  <SCORE.INTER>
-35.1317

>  <SCORE.INTER.CONST>
1

>  <SCORE.INTER.POLAR>
-5.42492

>  <SCORE.INTER.ROT>
8

>  <SCORE.INTER.SOLV>
14.4727

>  <SCORE.INTER.VDW>
-19.0957

>  <SCORE.INTER.norm>
-3.19379

>  <SCORE.INTRA>
-3.65042

>  <SCORE.INTRA.DIHEDRAL>
-9.19978

>  <SCORE.INTRA.DIHEDRAL.0>
21.6454

>  <SCORE.INTRA.POLAR>
0

>  <SCORE.INTRA.POLAR.0>
0

>  <SCORE.INTRA.REPUL>
0

>  <SCORE.INTRA.REPUL.0>
0

>  <SCORE.INTRA.SOLV>
0.0617022

>  <SCORE.INTRA.SOLV.lig_0>
-16.5947

>  <SCORE.INTRA.VDW>
0.918622

>  <SCORE.INTRA.VDW.0>
-0.691398

>  <SCORE.INTRA.norm>
-0.331856

>  <SCORE.RESTR>
0

>  <SCORE.RESTR.CAVITY>
0

>  <SCORE.RESTR.norm>
0

>  <SCORE.SYSTEM>
0

>  <SCORE.SYSTEM.CONST>
0

>  <SCORE.SYSTEM.DIHEDRAL>
0

>  <SCORE.SYSTEM.SOLV>
0

>  <SCORE.SYSTEM.norm>
0

>  <SCORE.heavy>
11

>  <SCORE.norm>
-3.52565

>  <RMSD>
13.472

>  <RMSD>
13.472

$$$$
1akx_lig
 OpenBabel11021811383D
libRbt.so/2013.1/901 2013/11/27
 11 10  0  0  0  0  0  0  0  0999 V2000
   -9.8585    7.1153    0.5412 N   0  0  0  0  0  0  0  0  0  0  0  0
  -11.2059    7.1884    1.1794 C   0  0  2  0  0  0  0  0  0  0  0  0
  -11.0721    7.7695    2.5926 C   0  0  0  0  0  0  0  0  0  0  0  0
  -10.3420    8.7176    2.8030 O   0  0  0  0  0  0  0  0  0  0  0  0
  -11.8174    5.7828    1.2542 C   0  0  0  0  0  0  0  0  0  0  0  0
  -12.0261    5.2339   -0.1609 C   0  0  0  0  0  0  0  0  0  0  0  0
  -10.7553    4.5225   -0.6255 C   0  0  0  0  0  0  0  0  0  0  0  0
  -10.9725    3.9617   -1.9895 N   0  0  0  0  0  0  0  0  0  0  0  0
   -9.9547    3.7440   -2.7827 C   0  0  0  0  0  0  0  0  0  0  0  0
   -9.3590    4.7438   -3.3801 N   0  0  0  0  0  0  0  0  0  0  0  0
   -9.5286    2.5242   -2.9734 N   0  0  0  0  0  0  0  0  0  0  0  0
  2  1  1  1  0  0  0
  2  3  1  0  0  0  0
  2  5  1  0  0  0  0
  3  4  1  0  0  0  0
  5  6  1  0  0  0  0
  6  7  1  0  0  0  0
  7  8  1  0  0  0  0
  8  9  1  0  0  0  0
  9 10  1  0  0  0  0
  9 11  1  0  0  0  0
M  END
>  <CHROM.1>
61.45172594,42.42003575,-62.98671487,87.89682252,178.67028050,155.40940315
-75.25625220,-62.91369399,78.73380906,-10.57738344,5.58102358,-0.35086929
-1.73972773,-0.61655170,-2.37339235

>  <Name>
1akx_lig

>  <RI>
0

>  <Rbt.Current_Directory>
/home/itssahil/PROJECTS/Mol_Feturizer/New_Systems/rnas/1akx

>  <Rbt.Executable>
rbdock ($Id: //depot/dev/client3/rdock/2013.1/src/exe/rbdock.cxx#4 $)

>  <Rbt.Library>
libRbt.so (2013.1, Build901 2013/11/27)

>  <Rbt.Parameter_File>
/export/apps/rDock/src/rDock_2013.1_src/data/scripts/dock_solv.prm

>  <Rbt.Receptor>
prm/blind_docking_40.prm

>  <SCORE>
-37.4838

>  <SCORE.INTER>
-32.3501

>  <SCORE.INTER.CONST>
1

>  <SCORE.INTER.POLAR>
-5.33075

>  <SCORE.INTER.ROT>
8

>  <SCORE.INTER.SOLV>
11.6593

>  <SCORE.INTER.VDW>
-16.6173

>  <SCORE.INTER.norm>
-2.94092

>  <SCORE.INTRA>
-5.1422

>  <SCORE.INTRA.DIHEDRAL>
-13.033

>  <SCORE.INTRA.DIHEDRAL.0>
21.6454

>  <SCORE.INTRA.POLAR>
0

>  <SCORE.INTRA.POLAR.0>
0

>  <SCORE.INTRA.REPUL>
0

>  <SCORE.INTRA.REPUL.0>
0

>  <SCORE.INTRA.SOLV>
0.541106

>  <SCORE.INTRA.SOLV.lig_0>
-16.5947

>  <SCORE.INTRA.VDW>
1.10374

>  <SCORE.INTRA.VDW.0>
-0.691398

>  <SCORE.INTRA.norm>
-0.467473

>  <SCORE.RESTR>
0.00851346

>  <SCORE.RESTR.CAVITY>
0.00851346

>  <SCORE.RESTR.norm>
0.000773951

>  <SCORE.SYSTEM>
0

>  <SCORE.SYSTEM.CONST>
0

>  <SCORE.SYSTEM.DIHEDRAL>
0

>  <SCORE.SYSTEM.SOLV>
0

>  <SCORE.SYSTEM.norm>
0

>  <SCORE.heavy>
11

>  <SCORE.norm>
-3.40762

>  <RMSD>
13.484

$$$$
1akx_lig
 OpenBabel11021811383D
libRbt.so/2013.1/901 2013/11/27
 11 10  0  0  0  0  0  0  0  0999 V2000
   -9.5333    6.4183    0.4768 N   0  0  0  0  0  0  0  0  0  0  0  0
  -10.9892    6.7339    0.3815 C   0  0  2  0  0  0  0  0  0  0  0  0
  -11.3482    7.8106    1.4132 C   0  0  0  0  0  0  0  0  0  0  0  0
  -12.1443    8.6865    1.1389 O   0  0  0  0  0  0  0  0  0  0  0  0
  -11.8100    5.4654    0.6511 C   0  0  0  0  0  0  0  0  0  0  0  0
  -11.5068    4.4155   -0.4227 C   0  0  0  0  0  0  0  0  0  0  0  0
  -11.6572    5.0436   -1.8082 C   0  0  0  0  0  0  0  0  0  0  0  0
  -10.9528    4.1983   -2.8139 N   0  0  0  0  0  0  0  0  0  0  0  0
   -9.7351    3.7773   -2.5847 C   0  0  0  0  0  0  0  0  0  0  0  0
   -8.8348    4.5950   -2.1027 N   0  0  0  0  0  0  0  0  0  0  0  0
   -9.4198    2.5343   -2.8324 N   0  0  0  0  0  0  0  0  0  0  0  0
  2  1  1  1  0  0  0
  2  3  1  0  0  0  0
  2  5  1  0  0  0  0
  3  4  1  0  0  0  0
  5  6  1  0  0  0  0
  6  7  1  0  0  0  0
  7  8  1  0  0  0  0
  8  9  1  0  0  0  0
  9 10  1  0  0  0  0
  9 11  1  0  0  0  0
M  END
>  <CHROM.1>
-48.10592904,141.59318115,-62.72211686,-50.94870970,161.68448375,-47.56007542
-44.55232781,152.58228027,-164.03759271,-10.67373014,5.42730574,-0.78029333
-1.86424372,-0.01218076,-2.41662645

>  <Name>
1akx_lig

>  <RI>
0

>  <Rbt.Current_Directory>
/home/itssahil/PROJECTS/Mol_Feturizer/New_Systems/rnas/1akx

>  <Rbt.Executable>
rbdock ($Id: //depot/dev/client3/rdock/2013.1/src/exe/rbdock.cxx#4 $)

>  <Rbt.Library>
libRbt.so (2013.1, Build901 2013/11/27)

>  <Rbt.Parameter_File>
/export/apps/rDock/src/rDock_2013.1_src/data/scripts/dock_solv.prm

>  <Rbt.Receptor>
prm/blind_docking_100.prm

>  <SCORE>
-32.0622

>  <SCORE.INTER>
-25.795

>  <SCORE.INTER.CONST>
1

>  <SCORE.INTER.POLAR>
-3.88101

>  <SCORE.INTER.ROT>
8

>  <SCORE.INTER.SOLV>
11.3379

>  <SCORE.INTER.VDW>
-16.9726

>  <SCORE.INTER.norm>
-2.345

>  <SCORE.INTRA>
-6.26721

>  <SCORE.INTRA.DIHEDRAL>
-11.2015

>  <SCORE.INTRA.DIHEDRAL.0>
21.6454

>  <SCORE.INTRA.POLAR>
-1

>  <SCORE.INTRA.POLAR.0>
0

>  <SCORE.INTRA.REPUL>
0

>  <SCORE.INTRA.REPUL.0>
0

>  <SCORE.INTRA.SOLV>
1.39739

>  <SCORE.INTRA.SOLV.lig_0>
-16.5947

>  <SCORE.INTRA.VDW>
2.03485

>  <SCORE.INTRA.VDW.0>
-0.691398

>  <SCORE.INTRA.norm>
-0.569746

>  <SCORE.RESTR>
0

>  <SCORE.RESTR.CAVITY>
0

>  <SCORE.RESTR.norm>
0

>  <SCORE.SYSTEM>
0

>  <SCORE.SYSTEM.CONST>
0

>  <SCORE.SYSTEM.DIHEDRAL>
0

>  <SCORE.SYSTEM.SOLV>
0

>  <SCORE.SYSTEM.norm>
0

>  <SCORE.heavy>
11

>  <SCORE.norm>
-2.91475

>  <RMSD>
13.488

$$$$
1akx_lig
 OpenBabel11021811383D
libRbt.so/2013.1/901 2013/11/27
 11 10  0  0  0  0  0  0  0  0999 V2000
  -10.7810    4.7077   -3.8860 N   0  0  0  0  0  0  0  0  0  0  0  0
  -10.3459    3.7543   -2.8230 C   0  0  2  0  0  0  0  0  0  0  0  0
  -10.6873    2.3211   -3.2498 C   0  0  0  0  0  0  0  0  0  0  0  0
  -10.4062    1.3808   -2.5336 O   0  0  0  0  0  0  0  0  0  0  0  0
  -11.0635    4.0868   -1.5077 C   0  0  0  0  0  0  0  0  0  0  0  0
  -10.3298    5.2256   -0.7921 C   0  0  0  0  0  0  0  0  0  0  0  0
  -10.9033    5.3987    0.6143 C   0  0  0  0  0  0  0  0  0  0  0  0
  -10.1297    6.4470    1.3387 N   0  0  0  0  0  0  0  0  0  0  0  0
  -10.7531    7.3709    2.0244 C   0  0  0  0  0  0  0  0  0  0  0  0
  -10.5918    8.6345    1.7264 N   0  0  0  0  0  0  0  0  0  0  0  0
  -11.5443    7.0292    3.0059 N   0  0  0  0  0  0  0  0  0  0  0  0
  2  1  1  6  0  0  0
  2  3  1  0  0  0  0
  2  5  1  0  0  0  0
  3  4  1  0  0  0  0
  5  6  1  0  0  0  0
  6  7  1  0  0  0  0
  7  8  1  0  0  0  0
  8  9  1  0  0  0  0
  9 10  1  0  0  0  0
  9 11  1  0  0  0  0
M  END
>  <CHROM.1>
-43.16218276,179.24991584,-82.49812978,-170.72962942,176.37506099,134.73631437
-120.49911385,13.71669365,74.66952719,-10.69002356,5.14788322,-0.55889851
-1.11334055,1.48893761,0.38997044

>  <Name>
1akx_lig

>  <RI>
0

>  <Rbt.Current_Directory>
/home/itssahil/PROJECTS/Mol_Feturizer/New_Systems/rnas/1akx

>  <Rbt.Executable>
rbdock ($Id: //depot/dev/client3/rdock/2013.1/src/exe/rbdock.cxx#4 $)

>  <Rbt.Library>
libRbt.so (2013.1, Build901 2013/11/27)

>  <Rbt.Parameter_File>
/export/apps/rDock/src/rDock_2013.1_src/data/scripts/dock_solv.prm

>  <Rbt.Receptor>
prm/blind_docking_40.prm

>  <SCORE>
-46.1889

>  <SCORE.INTER>
-39.0965

>  <SCORE.INTER.CONST>
1

>  <SCORE.INTER.POLAR>
-6.30355

>  <SCORE.INTER.ROT>
8

>  <SCORE.INTER.SOLV>
11.9855

>  <SCORE.INTER.VDW>
-17.981

>  <SCORE.INTER.norm>
-3.55423

>  <SCORE.INTRA>
-7.09236

>  <SCORE.INTRA.DIHEDRAL>
-13.9717

>  <SCORE.INTRA.DIHEDRAL.0>
21.6454

>  <SCORE.INTRA.POLAR>
0

>  <SCORE.INTRA.POLAR.0>
0

>  <SCORE.INTRA.REPUL>
0

>  <SCORE.INTRA.REPUL.0>
0

>  <SCORE.INTRA.SOLV>
-0.0236754

>  <SCORE.INTRA.SOLV.lig_0>
-16.5947

>  <SCORE.INTRA.VDW>
-0.0946825

>  <SCORE.INTRA.VDW.0>
-0.691398

>  <SCORE.INTRA.norm>
-0.64476

>  <SCORE.RESTR>
0

>  <SCORE.RESTR.CAVITY>
0

>  <SCORE.RESTR.norm>
0

>  <SCORE.SYSTEM>
0

>  <SCORE.SYSTEM.CONST>
0

>  <SCORE.SYSTEM.DIHEDRAL>
0

>  <SCORE.SYSTEM.SOLV>
0

>  <SCORE.SYSTEM.norm>
0

>  <SCORE.heavy>
11

>  <SCORE.norm>
-4.19899

>  <RMSD>
13.490

$$$$
1akx_lig
 OpenBabel11021811383D
libRbt.so/2013.1/901 2013/11/27
 11 10  0  0  0  0  0  0  0  0999 V2000
  -11.0580    5.6736    2.1063 N   0  0  0  0  0  0  0  0  0  0  0  0
  -11.3453    6.6542    1.0182 C   0  0  2  0  0  0  0  0  0  0  0  0
  -12.2492    7.7690    1.5593 C   0  0  0  0  0  0  0  0  0  0  0  0
  -12.4967    8.7461    0.8809 O   0  0  0  0  0  0  0  0  0  0  0  0
  -12.0452    5.9408   -0.1466 C   0  0  0  0  0  0  0  0  0  0  0  0
  -11.2355    4.7072   -0.5588 C   0  0  0  0  0  0  0  0  0  0  0  0
   -9.8953    5.1489   -1.1469 C   0  0  0  0  0  0  0  0  0  0  0  0
   -9.8768    4.8587   -2.6090 N   0  0  0  0  0  0  0  0  0  0  0  0
   -9.4480    3.7024   -3.0464 C   0  0  0  0  0  0  0  0  0  0  0  0
  -10.2875    2.7174   -3.2375 N   0  0  0  0  0  0  0  0  0  0  0  0
   -8.1777    3.5336   -3.2991 N   0  0  0  0  0  0  0  0  0  0  0  0
  2  1  1  1  0  0  0
  2  3  1  0  0  0  0
  2  5  1  0  0  0  0
  3  4  1  0  0  0  0
  5  6  1  0  0  0  0
  6  7  1  0  0  0  0
  7  8  1  0  0  0  0
  8  9  1  0  0  0  0
  9 10  1  0  0  0  0
  9 11  1  0  0  0  0
M  END
>  <CHROM.1>
90.10162350,172.43567151,-51.84421665,-66.42657091,-110.83370498,-89.52701310
92.14369886,151.89134055,-93.87164395,-10.72562827,5.38824325,-0.76845760
-2.77381234,1.11001308,-1.12425902

>  <Name>
1akx_lig

>  <RI>
0

>  <Rbt.Current_Directory>
/home/itssahil/PROJECTS/Mol_Feturizer/New_Systems/rnas/1akx

>  <Rbt.Executable>
rbdock ($Id: //depot/dev/client3/rdock/2013.1/src/exe/rbdock.cxx#4 $)

>  <Rbt.Library>
libRbt.so (2013.1, Build901 2013/11/27)

>  <Rbt.Parameter_File>
/export/apps/rDock/src/rDock_2013.1_src/data/scripts/dock_solv.prm

>  <Rbt.Receptor>
prm/blind_docking_40.prm

>  <SCORE>
-25.9153

>  <SCORE.INTER>
-22.5847

>  <SCORE.INTER.CONST>
1

>  <SCORE.INTER.POLAR>
-4.70446

>  <SCORE.INTER.ROT>
8

>  <SCORE.INTER.SOLV>
12.1125

>  <SCORE.INTER.VDW>
-12.3458

>  <SCORE.INTER.norm>
-2.05316

>  <SCORE.INTRA>
-3.53996

>  <SCORE.INTRA.DIHEDRAL>
-9.18558

>  <SCORE.INTRA.DIHEDRAL.0>
21.6454

>  <SCORE.INTRA.POLAR>
0

>  <SCORE.INTRA.POLAR.0>
0

>  <SCORE.INTRA.REPUL>
0

>  <SCORE.INTRA.REPUL.0>
0

>  <SCORE.INTRA.SOLV>
0.365148

>  <SCORE.INTRA.SOLV.lig_0>
-16.5947

>  <SCORE.INTRA.VDW>
0.870251

>  <SCORE.INTRA.VDW.0>
-0.691398

>  <SCORE.INTRA.norm>
-0.321815

>  <SCORE.RESTR>
0.209369

>  <SCORE.RESTR.CAVITY>
0.209369

>  <SCORE.RESTR.norm>
0.0190336

>  <SCORE.SYSTEM>
0

>  <SCORE.SYSTEM.CONST>
0

>  <SCORE.SYSTEM.DIHEDRAL>
0

>  <SCORE.SYSTEM.SOLV>
0

>  <SCORE.SYSTEM.norm>
0

>  <SCORE.heavy>
11

>  <SCORE.norm>
-2.35594

>  <RMSD>
13.494

$$$$
1akx_lig
 OpenBabel11021811383D
libRbt.so/2013.1/901 2013/11/27
 11 10  0  0  0  0  0  0  0  0999 V2000
  -10.8525    4.5888   -4.0946 N   0  0  0  0  0  0  0  0  0  0  0  0
  -10.1395    3.6019   -3.2310 C   0  0  2  0  0  0  0  0  0  0  0  0
  -11.0982    2.4659   -2.8528 C   0  0  0  0  0  0  0  0  0  0  0  0
  -10.7166    1.5402   -2.1647 O   0  0  0  0  0  0  0  0  0  0  0  0
   -9.6365    4.2987   -1.9595 C   0  0  0  0  0  0  0  0  0  0  0  0
  -10.7933    5.0448   -1.2868 C   0  0  0  0  0  0  0  0  0  0  0  0
  -10.3529    5.5323    0.0935 C   0  0  0  0  0  0  0  0  0  0  0  0
  -11.4236    6.3867    0.6815 N   0  0  0  0  0  0  0  0  0  0  0  0
  -11.1300    7.5579    1.1861 C   0  0  0  0  0  0  0  0  0  0  0  0
  -12.0005    8.5332    1.1383 N   0  0  0  0  0  0  0  0  0  0  0  0
   -9.9655    7.7512    1.7452 N   0  0  0  0  0  0  0  0  0  0  0  0
  2  1  1  6  0  0  0
  2  3  1  0  0  0  0
  2  5  1  0  0  0  0
  3  4  1  0  0  0  0
  5  6  1  0  0  0  0
  6  7  1  0  0  0  0
  7  8  1  0  0  0  0
  8  9  1  0  0  0  0
  9 10  1  0  0  0  0
  9 11  1  0  0  0  0
M  END
>  <CHROM.1>
167.47002673,178.99951663,52.33029849,170.29824460,173.68869137,-130.66612709
148.62257987,-138.00567652,74.68287227,-10.75805825,5.23576068,-0.98007524
1.19943223,1.37241167,-2.04475499

>  <Name>
1akx_lig

>  <RI>
0

>  <Rbt.Current_Directory>
/home/itssahil/PROJECTS/Mol_Feturizer/New_Systems/rnas/1akx

>  <Rbt.Executable>
rbdock ($Id: //depot/dev/client3/rdock/2013.1/src/exe/rbdock.cxx#4 $)

>  <Rbt.Library>
libRbt.so (2013.1, Build901 2013/11/27)

>  <Rbt.Parameter_File>
/export/apps/rDock/src/rDock_2013.1_src/data/scripts/dock_solv.prm

>  <Rbt.Receptor>
prm/blind_docking_80.prm

>  <SCORE>
-40.3682

>  <SCORE.INTER>
-34.2857

>  <SCORE.INTER.CONST>
1

>  <SCORE.INTER.POLAR>
-5.11747

>  <SCORE.INTER.ROT>
8

>  <SCORE.INTER.SOLV>
12.1519

>  <SCORE.INTER.VDW>
-18.7828

>  <SCORE.INTER.norm>
-3.11688

>  <SCORE.INTRA>
-6.08257

>  <SCORE.INTRA.DIHEDRAL>
-15.6986

>  <SCORE.INTRA.DIHEDRAL.0>
21.6454

>  <SCORE.INTRA.POLAR>
0

>  <SCORE.INTRA.POLAR.0>
0

>  <SCORE.INTRA.REPUL>
0

>  <SCORE.INTRA.REPUL.0>
0

>  <SCORE.INTRA.SOLV>
0.140804

>  <SCORE.INTRA.SOLV.lig_0>
-16.5947

>  <SCORE.INTRA.VDW>
1.69632

>  <SCORE.INTRA.VDW.0>
-0.691398

>  <SCORE.INTRA.norm>
-0.552961

>  <SCORE.RESTR>
0

>  <SCORE.RESTR.CAVITY>
0

>  <SCORE.RESTR.norm>
0

>  <SCORE.SYSTEM>
0

>  <SCORE.SYSTEM.CONST>
0

>  <SCORE.SYSTEM.DIHEDRAL>
0

>  <SCORE.SYSTEM.SOLV>
0

>  <SCORE.SYSTEM.norm>
0

>  <SCORE.heavy>
11

>  <SCORE.norm>
-3.66984

>  <RMSD>
13.496

$$$$
1akx_lig
 OpenBabel11021811383D
libRbt.so/2013.1/901 2013/11/27
 11 10  0  0  0  0  0  0  0  0999 V2000
  -10.7899    4.3587   -4.1604 N   0  0  0  0  0  0  0  0  0  0  0  0
   -9.9827    3.7307   -3.0731 C   0  0  2  0  0  0  0  0  0  0  0  0
   -9.9314    2.2125   -3.2854 C   0  0  0  0  0  0  0  0  0  0  0  0
  -10.9557    1.5600   -3.3231 O   0  0  0  0  0  0  0  0  0  0  0  0
  -10.6213    4.0411   -1.7125 C   0  0  0  0  0  0  0  0  0  0  0  0
  -10.0242    5.3324   -1.1438 C   0  0  0  0  0  0  0  0  0  0  0  0
  -10.5646    5.5672    0.2667 C   0  0  0  0  0  0  0  0  0  0  0  0
  -10.1393    6.9147    0.7417 N   0  0  0  0  0  0  0  0  0  0  0  0
  -11.0099    7.7284    1.2824 C   0  0  0  0  0  0  0  0  0  0  0  0
  -10.7260    8.9975    1.4248 N   0  0  0  0  0  0  0  0  0  0  0  0
  -12.1690    7.2723    1.6754 N   0  0  0  0  0  0  0  0  0  0  0  0
  2  1  1  6  0  0  0
  2  3  1  0  0  0  0
  2  5  1  0  0  0  0
  3  4  1  0  0  0  0
  5  6  1  0  0  0  0
  6  7  1  0  0  0  0
  7  8  1  0  0  0  0
  8  9  1  0  0  0  0
  9 10  1  0  0  0  0
  9 11  1  0  0  0  0
M  END
>  <CHROM.1>
93.84632842,-58.69813412,-90.85963984,-174.70274676,-171.97810822,131.95139530
-164.67402524,-146.04912618,94.60985538,-10.65617102,5.26915861,-1.04404312
-1.32682585,1.23631132,0.52447469

>  <Name>
1akx_lig

>  <RI>
0

>  <Rbt.Current_Directory>
/home/itssahil/PROJECTS/Mol_Feturizer/New_Systems/rnas/1akx

>  <Rbt.Executable>
rbdock ($Id: //depot/dev/client3/rdock/2013.1/src/exe/rbdock.cxx#4 $)

>  <Rbt.Library>
libRbt.so (2013.1, Build901 2013/11/27)

>  <Rbt.Parameter_File>
/export/apps/rDock/src/rDock_2013.1_src/data/scripts/dock_solv.prm

>  <Rbt.Receptor>
prm/blind_docking_40.prm

>  <SCORE>
-36.6126

>  <SCORE.INTER>
-32.1653

>  <SCORE.INTER.CONST>
1

>  <SCORE.INTER.POLAR>
-4.45522

>  <SCORE.INTER.ROT>
8

>  <SCORE.INTER.SOLV>
12.4391

>  <SCORE.INTER.VDW>
-19.6725

>  <SCORE.INTER.norm>
-2.92412

>  <SCORE.INTRA>
-4.44729

>  <SCORE.INTRA.DIHEDRAL>
-11.2551

>  <SCORE.INTRA.DIHEDRAL.0>
21.6454

>  <SCORE.INTRA.POLAR>
0

>  <SCORE.INTRA.POLAR.0>
0

>  <SCORE.INTRA.REPUL>
0

>  <SCORE.INTRA.REPUL.0>
0

>  <SCORE.INTRA.SOLV>
0.28064

>  <SCORE.INTRA.SOLV.lig_0>
-16.5947

>  <SCORE.INTRA.VDW>
1.03994

>  <SCORE.INTRA.VDW.0>
-0.691398

>  <SCORE.INTRA.norm>
-0.404299

>  <SCORE.RESTR>
0

>  <SCORE.RESTR.CAVITY>
0

>  <SCORE.RESTR.norm>
0

>  <SCORE.SYSTEM>
0

>  <SCORE.SYSTEM.CONST>
0

>  <SCORE.SYSTEM.DIHEDRAL>
0

>  <SCORE.SYSTEM.SOLV>
0

>  <SCORE.SYSTEM.norm>
0

>  <SCORE.heavy>
11

>  <SCORE.norm>
-3.32842

>  <RMSD>
13.501

$$$$
1akx_lig
 OpenBabel11021811383D
libRbt.so/2013.1/901 2013/11/27
 11 10  0  0  0  0  0  0  0  0999 V2000
  -10.8270    8.6899    1.0322 N   0  0  0  0  0  0  0  0  0  0  0  0
  -11.4312    7.3389    0.8370 C   0  0  2  0  0  0  0  0  0  0  0  0
  -12.5320    7.1147    1.8814 C   0  0  0  0  0  0  0  0  0  0  0  0
  -13.0898    6.0389    1.9683 O   0  0  0  0  0  0  0  0  0  0  0  0
  -10.3474    6.2630    0.9891 C   0  0  0  0  0  0  0  0  0  0  0  0
   -9.6628    6.0244   -0.3606 C   0  0  0  0  0  0  0  0  0  0  0  0
  -10.5292    5.1007   -1.2167 C   0  0  0  0  0  0  0  0  0  0  0  0
   -9.8703    4.8870   -2.5367 N   0  0  0  0  0  0  0  0  0  0  0  0
   -9.4602    3.6936   -2.8835 C   0  0  0  0  0  0  0  0  0  0  0  0
   -8.1816    3.4185   -2.9119 N   0  0  0  0  0  0  0  0  0  0  0  0
  -10.3317    2.7724   -3.1962 N   0  0  0  0  0  0  0  0  0  0  0  0
  2  1  1  1  0  0  0
  2  3  1  0  0  0  0
  2  5  1  0  0  0  0
  3  4  1  0  0  0  0
  5  6  1  0  0  0  0
  6  7  1  0  0  0  0
  7  8  1  0  0  0  0
  8  9  1  0  0  0  0
  9 10  1  0  0  0  0
  9 11  1  0  0  0  0
M  END
>  <CHROM.1>
168.50202523,-174.51232998,-87.54220044,-80.59982316,179.16456209,115.79238396
-107.75500975,-144.08504811,38.52444012,-10.56444174,5.58020421,-0.59257685
-2.04588850,-0.54542063,-2.53668496

>  <Name>
1akx_lig

>  <RI>
0

>  <Rbt.Current_Directory>
/home/itssahil/PROJECTS/Mol_Feturizer/New_Systems/rnas/1akx

>  <Rbt.Executable>
rbdock ($Id: //depot/dev/client3/rdock/2013.1/src/exe/rbdock.cxx#4 $)

>  <Rbt.Library>
libRbt.so (2013.1, Build901 2013/11/27)

>  <Rbt.Parameter_File>
/export/apps/rDock/src/rDock_2013.1_src/data/scripts/dock_solv.prm

>  <Rbt.Receptor>
prm/blind_docking_40.prm

>  <SCORE>
-38.6409

>  <SCORE.INTER>
-32.6616

>  <SCORE.INTER.CONST>
1

>  <SCORE.INTER.POLAR>
-5.00783

>  <SCORE.INTER.ROT>
8

>  <SCORE.INTER.SOLV>
12.2299

>  <SCORE.INTER.VDW>
-18.0916

>  <SCORE.INTER.norm>
-2.96924

>  <SCORE.INTRA>
-6.20665

>  <SCORE.INTRA.DIHEDRAL>
-12.2353

>  <SCORE.INTRA.DIHEDRAL.0>
21.6454

>  <SCORE.INTRA.POLAR>
0

>  <SCORE.INTRA.POLAR.0>
0

>  <SCORE.INTRA.REPUL>
0

>  <SCORE.INTRA.REPUL.0>
0

>  <SCORE.INTRA.SOLV>
0.174155

>  <SCORE.INTRA.SOLV.lig_0>
-16.5947

>  <SCORE.INTRA.VDW>
-0.1761

>  <SCORE.INTRA.VDW.0>
-0.691398

>  <SCORE.INTRA.norm>
-0.564241

>  <SCORE.RESTR>
0.227394

>  <SCORE.RESTR.CAVITY>
0.227394

>  <SCORE.RESTR.norm>
0.0206722

>  <SCORE.SYSTEM>
0

>  <SCORE.SYSTEM.CONST>
0

>  <SCORE.SYSTEM.DIHEDRAL>
0

>  <SCORE.SYSTEM.SOLV>
0

>  <SCORE.SYSTEM.norm>
0

>  <SCORE.heavy>
11

>  <SCORE.norm>
-3.51281

>  <RMSD>
13.503

$$$$
1akx_lig
 OpenBabel11021811383D
libRbt.so/2013.1/901 2013/11/27
 11 10  0  0  0  0  0  0  0  0999 V2000
   -9.6639    6.9777    0.9599 N   0  0  0  0  0  0  0  0  0  0  0  0
  -11.1182    7.0365    0.6286 C   0  0  2  0  0  0  0  0  0  0  0  0
  -11.8735    7.7412    1.7625 C   0  0  0  0  0  0  0  0  0  0  0  0
  -11.6040    7.5045    2.9234 O   0  0  0  0  0  0  0  0  0  0  0  0
  -11.6640    5.6132    0.4504 C   0  0  0  0  0  0  0  0  0  0  0  0
  -10.9151    4.9111   -0.6869 C   0  0  0  0  0  0  0  0  0  0  0  0
  -11.8178    3.8482   -1.3133 C   0  0  0  0  0  0  0  0  0  0  0  0
  -11.0724    3.1392   -2.3921 N   0  0  0  0  0  0  0  0  0  0  0  0
  -10.4590    3.8194   -3.3267 C   0  0  0  0  0  0  0  0  0  0  0  0
  -11.1453    4.5429   -4.1734 N   0  0  0  0  0  0  0  0  0  0  0  0
   -9.1561    3.7805   -3.4099 N   0  0  0  0  0  0  0  0  0  0  0  0
  2  1  1  1  0  0  0
  2  3  1  0  0  0  0
  2  5  1  0  0  0  0
  3  4  1  0  0  0  0
  5  6  1  0  0  0  0
  6  7  1  0  0  0  0
  7  8  1  0  0  0  0
  8  9  1  0  0  0  0
  9 10  1  0  0  0  0
  9 11  1  0  0  0  0
M  END
>  <CHROM.1>
45.34938109,-41.82712478,-60.04507550,-152.86490432,-178.31400646,-50.98863272
-65.37619248,17.71044807,48.19581561,-10.91116382,5.36514621,-0.78246487
-1.70311226,-0.44315187,-2.22521577

>  <Name>
1akx_lig

>  <RI>
0

>  <Rbt.Current_Directory>
/home/afrankz/demos/rdock_decoys_rna/rnas/1akx

>  <Rbt.Executable>
rbdock ($Id: //depot/dev/client3/rdock/2013.1/src/exe/rbdock.cxx#4 $)

>  <Rbt.Library>
libRbt.so (2013.1, Build901 2013/11/27)

>  <Rbt.Parameter_File>
/export/apps/rDock/src/rDock_2013.1_src/data/scripts/dock_solv.prm

>  <Rbt.Receptor>
prm/blind_docking_80.prm

>  <SCORE>
-29.7311

>  <SCORE.INTER>
-25.205

>  <SCORE.INTER.CONST>
1

>  <SCORE.INTER.POLAR>
-3.46161

>  <SCORE.INTER.ROT>
8

>  <SCORE.INTER.SOLV>
11.7428

>  <SCORE.INTER.VDW>
-18.1122

>  <SCORE.INTER.norm>
-2.29136

>  <SCORE.INTRA>
-4.53144

>  <SCORE.INTRA.DIHEDRAL>
-12.6163

>  <SCORE.INTRA.DIHEDRAL.0>
21.6454

>  <SCORE.INTRA.POLAR>
0

>  <SCORE.INTRA.POLAR.0>
0

>  <SCORE.INTRA.REPUL>
0

>  <SCORE.INTRA.REPUL.0>
0

>  <SCORE.INTRA.SOLV>
0.616637

>  <SCORE.INTRA.SOLV.lig_0>
-16.5947

>  <SCORE.INTRA.VDW>
1.4684

>  <SCORE.INTRA.VDW.0>
-0.691398

>  <SCORE.INTRA.norm>
-0.411949

>  <SCORE.RESTR>
0.00531044

>  <SCORE.RESTR.CAVITY>
0.00531044

>  <SCORE.RESTR.norm>
0.000482767

>  <SCORE.SYSTEM>
0

>  <SCORE.SYSTEM.CONST>
0

>  <SCORE.SYSTEM.DIHEDRAL>
0

>  <SCORE.SYSTEM.SOLV>
0

>  <SCORE.SYSTEM.norm>
0

>  <SCORE.heavy>
11

>  <SCORE.norm>
-2.70283

>  <RMSD>
13.505

>  <RMSD>
13.505

$$$$
1akx_lig
 OpenBabel11021811383D
libRbt.so/2013.1/901 2013/11/27
 11 10  0  0  0  0  0  0  0  0999 V2000
   -9.6639    6.9777    0.9599 N   0  0  0  0  0  0  0  0  0  0  0  0
  -11.1182    7.0365    0.6286 C   0  0  2  0  0  0  0  0  0  0  0  0
  -11.8735    7.7412    1.7625 C   0  0  0  0  0  0  0  0  0  0  0  0
  -11.6040    7.5045    2.9234 O   0  0  0  0  0  0  0  0  0  0  0  0
  -11.6640    5.6132    0.4504 C   0  0  0  0  0  0  0  0  0  0  0  0
  -10.9151    4.9111   -0.6869 C   0  0  0  0  0  0  0  0  0  0  0  0
  -11.8178    3.8482   -1.3133 C   0  0  0  0  0  0  0  0  0  0  0  0
  -11.0724    3.1392   -2.3921 N   0  0  0  0  0  0  0  0  0  0  0  0
  -10.4590    3.8194   -3.3267 C   0  0  0  0  0  0  0  0  0  0  0  0
  -11.1453    4.5429   -4.1734 N   0  0  0  0  0  0  0  0  0  0  0  0
   -9.1561    3.7805   -3.4099 N   0  0  0  0  0  0  0  0  0  0  0  0
  2  1  1  1  0  0  0
  2  3  1  0  0  0  0
  2  5  1  0  0  0  0
  3  4  1  0  0  0  0
  5  6  1  0  0  0  0
  6  7  1  0  0  0  0
  7  8  1  0  0  0  0
  8  9  1  0  0  0  0
  9 10  1  0  0  0  0
  9 11  1  0  0  0  0
M  END
>  <CHROM.1>
45.34938109,-41.82712478,-60.04507550,-152.86490432,-178.31400646,-50.98863272
-65.37619248,17.71044807,48.19581561,-10.91116382,5.36514621,-0.78246487
-1.70311226,-0.44315187,-2.22521577

>  <Name>
1akx_lig

>  <RI>
0

>  <Rbt.Current_Directory>
/home/afrankz/demos/rdock_decoys_rna/rnas/1akx

>  <Rbt.Executable>
rbdock ($Id: //depot/dev/client3/rdock/2013.1/src/exe/rbdock.cxx#4 $)

>  <Rbt.Library>
libRbt.so (2013.1, Build901 2013/11/27)

>  <Rbt.Parameter_File>
/export/apps/rDock/src/rDock_2013.1_src/data/scripts/dock_solv.prm

>  <Rbt.Receptor>
prm/blind_docking_80.prm

>  <SCORE>
-29.7311

>  <SCORE.INTER>
-25.205

>  <SCORE.INTER.CONST>
1

>  <SCORE.INTER.POLAR>
-3.46161

>  <SCORE.INTER.ROT>
8

>  <SCORE.INTER.SOLV>
11.7428

>  <SCORE.INTER.VDW>
-18.1122

>  <SCORE.INTER.norm>
-2.29136

>  <SCORE.INTRA>
-4.53144

>  <SCORE.INTRA.DIHEDRAL>
-12.6163

>  <SCORE.INTRA.DIHEDRAL.0>
21.6454

>  <SCORE.INTRA.POLAR>
0

>  <SCORE.INTRA.POLAR.0>
0

>  <SCORE.INTRA.REPUL>
0

>  <SCORE.INTRA.REPUL.0>
0

>  <SCORE.INTRA.SOLV>
0.616637

>  <SCORE.INTRA.SOLV.lig_0>
-16.5947

>  <SCORE.INTRA.VDW>
1.4684

>  <SCORE.INTRA.VDW.0>
-0.691398

>  <SCORE.INTRA.norm>
-0.411949

>  <SCORE.RESTR>
0.00531044

>  <SCORE.RESTR.CAVITY>
0.00531044

>  <SCORE.RESTR.norm>
0.000482767

>  <SCORE.SYSTEM>
0

>  <SCORE.SYSTEM.CONST>
0

>  <SCORE.SYSTEM.DIHEDRAL>
0

>  <SCORE.SYSTEM.SOLV>
0

>  <SCORE.SYSTEM.norm>
0

>  <SCORE.heavy>
11

>  <SCORE.norm>
-2.70283

>  <RMSD>
13.505

>  <RMSD>
13.505

$$$$
1akx_lig
 OpenBabel11021811383D
libRbt.so/2013.1/901 2013/11/27
 11 10  0  0  0  0  0  0  0  0999 V2000
  -10.8067    4.4689   -3.7500 N   0  0  0  0  0  0  0  0  0  0  0  0
  -10.4770    3.4987   -2.6646 C   0  0  2  0  0  0  0  0  0  0  0  0
  -10.7211    2.0692   -3.1643 C   0  0  0  0  0  0  0  0  0  0  0  0
   -9.9910    1.5750   -4.0003 O   0  0  0  0  0  0  0  0  0  0  0  0
  -11.3597    3.7760   -1.4401 C   0  0  0  0  0  0  0  0  0  0  0  0
  -10.8494    5.0202   -0.7061 C   0  0  0  0  0  0  0  0  0  0  0  0
  -11.7332    5.2939    0.5108 C   0  0  0  0  0  0  0  0  0  0  0  0
  -11.7269    6.7546    0.8085 N   0  0  0  0  0  0  0  0  0  0  0  0
  -10.9750    7.2287    1.7689 C   0  0  0  0  0  0  0  0  0  0  0  0
  -11.4096    7.2380    3.0027 N   0  0  0  0  0  0  0  0  0  0  0  0
   -9.7836    7.6884    1.4946 N   0  0  0  0  0  0  0  0  0  0  0  0
  2  1  1  6  0  0  0
  2  3  1  0  0  0  0
  2  5  1  0  0  0  0
  3  4  1  0  0  0  0
  5  6  1  0  0  0  0
  6  7  1  0  0  0  0
  7  8  1  0  0  0  0
  8  9  1  0  0  0  0
  9 10  1  0  0  0  0
  9 11  1  0  0  0  0
M  END
>  <CHROM.1>
-49.28678014,70.38648073,-75.68743693,179.89009978,-151.57315061,-100.57688546
-85.38968506,-35.65509152,-125.97630575,-10.88250639,4.99190301,-0.75946410
-1.42087439,1.06633497,0.73938667

>  <Name>
1akx_lig

>  <RI>
0

>  <Rbt.Current_Directory>
/home/itssahil/PROJECTS/Mol_Feturizer/New_Systems/rnas/1akx

>  <Rbt.Executable>
rbdock ($Id: //depot/dev/client3/rdock/2013.1/src/exe/rbdock.cxx#4 $)

>  <Rbt.Library>
libRbt.so (2013.1, Build901 2013/11/27)

>  <Rbt.Parameter_File>
/export/apps/rDock/src/rDock_2013.1_src/data/scripts/dock_solv.prm

>  <Rbt.Receptor>
prm/blind_docking_100.prm

>  <SCORE>
-39.5538

>  <SCORE.INTER>
-32.7407

>  <SCORE.INTER.CONST>
1

>  <SCORE.INTER.POLAR>
-5.66318

>  <SCORE.INTER.ROT>
8

>  <SCORE.INTER.SOLV>
11.5177

>  <SCORE.INTER.VDW>
-15.7224

>  <SCORE.INTER.norm>
-2.97643

>  <SCORE.INTRA>
-6.85687

>  <SCORE.INTRA.DIHEDRAL>
-12.721

>  <SCORE.INTRA.DIHEDRAL.0>
21.6454

>  <SCORE.INTRA.POLAR>
0

>  <SCORE.INTRA.POLAR.0>
0

>  <SCORE.INTRA.REPUL>
0

>  <SCORE.INTRA.REPUL.0>
0

>  <SCORE.INTRA.SOLV>
0.228485

>  <SCORE.INTRA.SOLV.lig_0>
-16.5947

>  <SCORE.INTRA.VDW>
-0.610599

>  <SCORE.INTRA.VDW.0>
-0.691398

>  <SCORE.INTRA.norm>
-0.623352

>  <SCORE.RESTR>
0.0437741

>  <SCORE.RESTR.CAVITY>
0.0437741

>  <SCORE.RESTR.norm>
0.00397947

>  <SCORE.SYSTEM>
0

>  <SCORE.SYSTEM.CONST>
0

>  <SCORE.SYSTEM.DIHEDRAL>
0

>  <SCORE.SYSTEM.SOLV>
0

>  <SCORE.SYSTEM.norm>
0

>  <SCORE.heavy>
11

>  <SCORE.norm>
-3.5958

>  <RMSD>
13.505

$$$$
1akx_lig
 OpenBabel11021811383D
libRbt.so/2013.1/901 2013/11/27
 11 10  0  0  0  0  0  0  0  0999 V2000
   -9.7070    6.6337    1.7591 N   0  0  0  0  0  0  0  0  0  0  0  0
  -10.7682    6.9858    0.7700 C   0  0  2  0  0  0  0  0  0  0  0  0
  -11.3672    8.3521    1.1265 C   0  0  0  0  0  0  0  0  0  0  0  0
  -11.9602    8.5109    2.1749 O   0  0  0  0  0  0  0  0  0  0  0  0
  -11.8691    5.9167    0.7931 C   0  0  0  0  0  0  0  0  0  0  0  0
  -11.3697    4.6453    0.0992 C   0  0  0  0  0  0  0  0  0  0  0  0
  -11.4537    4.8241   -1.4167 C   0  0  0  0  0  0  0  0  0  0  0  0
  -10.8004    3.6648   -2.0887 N   0  0  0  0  0  0  0  0  0  0  0  0
   -9.6096    3.7934   -2.6157 C   0  0  0  0  0  0  0  0  0  0  0  0
   -8.6856    2.8969   -2.3831 N   0  0  0  0  0  0  0  0  0  0  0  0
   -9.3451    4.8176   -3.3818 N   0  0  0  0  0  0  0  0  0  0  0  0
  2  1  1  1  0  0  0
  2  3  1  0  0  0  0
  2  5  1  0  0  0  0
  3  4  1  0  0  0  0
  5  6  1  0  0  0  0
  6  7  1  0  0  0  0
  7  8  1  0  0  0  0
  8  9  1  0  0  0  0
  9 10  1  0  0  0  0
  9 11  1  0  0  0  0
M  END
>  <CHROM.1>
37.15545350,-63.42563693,-74.25741113,-78.97095662,172.47195060,-103.74267930
132.95060685,-110.65758949,-19.94395066,-10.58900751,5.54791113,-0.45807938
-1.86111492,-0.17955014,-2.38073936

>  <Name>
1akx_lig

>  <RI>
0

>  <Rbt.Current_Directory>
/home/itssahil/PROJECTS/Mol_Feturizer/New_Systems/rnas/1akx

>  <Rbt.Executable>
rbdock ($Id: //depot/dev/client3/rdock/2013.1/src/exe/rbdock.cxx#4 $)

>  <Rbt.Library>
libRbt.so (2013.1, Build901 2013/11/27)

>  <Rbt.Parameter_File>
/export/apps/rDock/src/rDock_2013.1_src/data/scripts/dock_solv.prm

>  <Rbt.Receptor>
prm/blind_docking_80.prm

>  <SCORE>
-37.3451

>  <SCORE.INTER>
-31.9969

>  <SCORE.INTER.CONST>
1

>  <SCORE.INTER.POLAR>
-5.28853

>  <SCORE.INTER.ROT>
8

>  <SCORE.INTER.SOLV>
12.2543

>  <SCORE.INTER.VDW>
-16.7209

>  <SCORE.INTER.norm>
-2.90881

>  <SCORE.INTRA>
-5.83688

>  <SCORE.INTRA.DIHEDRAL>
-13.2766

>  <SCORE.INTRA.DIHEDRAL.0>
21.6454

>  <SCORE.INTRA.POLAR>
0

>  <SCORE.INTRA.POLAR.0>
0

>  <SCORE.INTRA.REPUL>
0

>  <SCORE.INTRA.REPUL.0>
0

>  <SCORE.INTRA.SOLV>
0.45281

>  <SCORE.INTRA.SOLV.lig_0>
-16.5947

>  <SCORE.INTRA.VDW>
0.575019

>  <SCORE.INTRA.VDW.0>
-0.691398

>  <SCORE.INTRA.norm>
-0.530625

>  <SCORE.RESTR>
0.488674

>  <SCORE.RESTR.CAVITY>
0.488674

>  <SCORE.RESTR.norm>
0.0444249

>  <SCORE.SYSTEM>
0

>  <SCORE.SYSTEM.CONST>
0

>  <SCORE.SYSTEM.DIHEDRAL>
0

>  <SCORE.SYSTEM.SOLV>
0

>  <SCORE.SYSTEM.norm>
0

>  <SCORE.heavy>
11

>  <SCORE.norm>
-3.39501

>  <RMSD>
13.506

$$$$
1akx_lig
 OpenBabel11021811383D
libRbt.so/2013.1/901 2013/11/27
 11 10  0  0  0  0  0  0  0  0999 V2000
   -9.7255    5.7968    0.6385 N   0  0  0  0  0  0  0  0  0  0  0  0
  -10.9887    6.4731    0.2200 C   0  0  2  0  0  0  0  0  0  0  0  0
  -11.4341    7.4494    1.3160 C   0  0  0  0  0  0  0  0  0  0  0  0
  -12.2537    8.3136    1.0762 O   0  0  0  0  0  0  0  0  0  0  0  0
  -12.0830    5.4224   -0.0123 C   0  0  0  0  0  0  0  0  0  0  0  0
  -12.5101    5.4375   -1.4836 C   0  0  0  0  0  0  0  0  0  0  0  0
  -11.8987    4.2366   -2.2053 C   0  0  0  0  0  0  0  0  0  0  0  0
  -10.5969    4.6346   -2.8131 N   0  0  0  0  0  0  0  0  0  0  0  0
   -9.4966    4.0072   -2.4845 C   0  0  0  0  0  0  0  0  0  0  0  0
   -8.5421    4.6384   -1.8506 N   0  0  0  0  0  0  0  0  0  0  0  0
   -9.3540    2.7442   -2.7854 N   0  0  0  0  0  0  0  0  0  0  0  0
  2  1  1  1  0  0  0
  2  3  1  0  0  0  0
  2  5  1  0  0  0  0
  3  4  1  0  0  0  0
  5  6  1  0  0  0  0
  6  7  1  0  0  0  0
  7  8  1  0  0  0  0
  8  9  1  0  0  0  0
  9 10  1  0  0  0  0
  9 11  1  0  0  0  0
M  END
>  <CHROM.1>
65.56400405,163.57857211,-116.54996228,103.77963590,-92.56352797,121.61846781
-114.93083517,-12.99490155,8.55692193,-10.75419314,5.37539207,-0.93366584
-1.96581915,0.19786721,-2.29404380

>  <Name>
1akx_lig

>  <RI>
0

>  <Rbt.Current_Directory>
/home/afrankz/demos/rdock_decoys_rna/rnas/1akx

>  <Rbt.Executable>
rbdock ($Id: //depot/dev/client3/rdock/2013.1/src/exe/rbdock.cxx#4 $)

>  <Rbt.Library>
libRbt.so (2013.1, Build901 2013/11/27)

>  <Rbt.Parameter_File>
/export/apps/rDock/src/rDock_2013.1_src/data/scripts/dock_solv.prm

>  <Rbt.Receptor>
prm/blind_docking_40.prm

>  <SCORE>
-30.0023

>  <SCORE.INTER>
-26.7104

>  <SCORE.INTER.CONST>
1

>  <SCORE.INTER.POLAR>
-4.4981

>  <SCORE.INTER.ROT>
8

>  <SCORE.INTER.SOLV>
11.3791

>  <SCORE.INTER.VDW>
-15.5397

>  <SCORE.INTER.norm>
-2.42822

>  <SCORE.INTRA>
-3.29189

>  <SCORE.INTRA.DIHEDRAL>
-1.80741

>  <SCORE.INTRA.DIHEDRAL.0>
21.6454

>  <SCORE.INTRA.POLAR>
-0.605404

>  <SCORE.INTRA.POLAR.0>
0

>  <SCORE.INTRA.REPUL>
0

>  <SCORE.INTRA.REPUL.0>
0

>  <SCORE.INTRA.SOLV>
1.73828

>  <SCORE.INTRA.SOLV.lig_0>
-16.5947

>  <SCORE.INTRA.VDW>
-1.19895

>  <SCORE.INTRA.VDW.0>
-0.691398

>  <SCORE.INTRA.norm>
-0.299263

>  <SCORE.RESTR>
0

>  <SCORE.RESTR.CAVITY>
0

>  <SCORE.RESTR.norm>
0

>  <SCORE.SYSTEM>
0

>  <SCORE.SYSTEM.CONST>
0

>  <SCORE.SYSTEM.DIHEDRAL>
0

>  <SCORE.SYSTEM.SOLV>
0

>  <SCORE.SYSTEM.norm>
0

>  <SCORE.heavy>
11

>  <SCORE.norm>
-2.72748

>  <RMSD>
13.508

>  <RMSD>
13.508

$$$$
1akx_lig
 OpenBabel11021811383D
libRbt.so/2013.1/901 2013/11/27
 11 10  0  0  0  0  0  0  0  0999 V2000
   -9.7255    5.7968    0.6385 N   0  0  0  0  0  0  0  0  0  0  0  0
  -10.9887    6.4731    0.2200 C   0  0  2  0  0  0  0  0  0  0  0  0
  -11.4341    7.4494    1.3160 C   0  0  0  0  0  0  0  0  0  0  0  0
  -12.2537    8.3136    1.0762 O   0  0  0  0  0  0  0  0  0  0  0  0
  -12.0830    5.4224   -0.0123 C   0  0  0  0  0  0  0  0  0  0  0  0
  -12.5101    5.4375   -1.4836 C   0  0  0  0  0  0  0  0  0  0  0  0
  -11.8987    4.2366   -2.2053 C   0  0  0  0  0  0  0  0  0  0  0  0
  -10.5969    4.6346   -2.8131 N   0  0  0  0  0  0  0  0  0  0  0  0
   -9.4966    4.0072   -2.4845 C   0  0  0  0  0  0  0  0  0  0  0  0
   -8.5421    4.6384   -1.8506 N   0  0  0  0  0  0  0  0  0  0  0  0
   -9.3540    2.7442   -2.7854 N   0  0  0  0  0  0  0  0  0  0  0  0
  2  1  1  1  0  0  0
  2  3  1  0  0  0  0
  2  5  1  0  0  0  0
  3  4  1  0  0  0  0
  5  6  1  0  0  0  0
  6  7  1  0  0  0  0
  7  8  1  0  0  0  0
  8  9  1  0  0  0  0
  9 10  1  0  0  0  0
  9 11  1  0  0  0  0
M  END
>  <CHROM.1>
65.56400405,163.57857211,-116.54996228,103.77963590,-92.56352797,121.61846781
-114.93083517,-12.99490155,8.55692193,-10.75419314,5.37539207,-0.93366584
-1.96581915,0.19786721,-2.29404380

>  <Name>
1akx_lig

>  <RI>
0

>  <Rbt.Current_Directory>
/home/afrankz/demos/rdock_decoys_rna/rnas/1akx

>  <Rbt.Executable>
rbdock ($Id: //depot/dev/client3/rdock/2013.1/src/exe/rbdock.cxx#4 $)

>  <Rbt.Library>
libRbt.so (2013.1, Build901 2013/11/27)

>  <Rbt.Parameter_File>
/export/apps/rDock/src/rDock_2013.1_src/data/scripts/dock_solv.prm

>  <Rbt.Receptor>
prm/blind_docking_40.prm

>  <SCORE>
-30.0023

>  <SCORE.INTER>
-26.7104

>  <SCORE.INTER.CONST>
1

>  <SCORE.INTER.POLAR>
-4.4981

>  <SCORE.INTER.ROT>
8

>  <SCORE.INTER.SOLV>
11.3791

>  <SCORE.INTER.VDW>
-15.5397

>  <SCORE.INTER.norm>
-2.42822

>  <SCORE.INTRA>
-3.29189

>  <SCORE.INTRA.DIHEDRAL>
-1.80741

>  <SCORE.INTRA.DIHEDRAL.0>
21.6454

>  <SCORE.INTRA.POLAR>
-0.605404

>  <SCORE.INTRA.POLAR.0>
0

>  <SCORE.INTRA.REPUL>
0

>  <SCORE.INTRA.REPUL.0>
0

>  <SCORE.INTRA.SOLV>
1.73828

>  <SCORE.INTRA.SOLV.lig_0>
-16.5947

>  <SCORE.INTRA.VDW>
-1.19895

>  <SCORE.INTRA.VDW.0>
-0.691398

>  <SCORE.INTRA.norm>
-0.299263

>  <SCORE.RESTR>
0

>  <SCORE.RESTR.CAVITY>
0

>  <SCORE.RESTR.norm>
0

>  <SCORE.SYSTEM>
0

>  <SCORE.SYSTEM.CONST>
0

>  <SCORE.SYSTEM.DIHEDRAL>
0

>  <SCORE.SYSTEM.SOLV>
0

>  <SCORE.SYSTEM.norm>
0

>  <SCORE.heavy>
11

>  <SCORE.norm>
-2.72748

>  <RMSD>
13.508

>  <RMSD>
13.508

$$$$
1akx_lig
 OpenBabel11021811383D
libRbt.so/2013.1/901 2013/11/27
 11 10  0  0  0  0  0  0  0  0999 V2000
   -9.7642    6.9570    0.2012 N   0  0  0  0  0  0  0  0  0  0  0  0
  -11.2063    6.9619    0.5865 C   0  0  2  0  0  0  0  0  0  0  0  0
  -11.4687    8.1063    1.5735 C   0  0  0  0  0  0  0  0  0  0  0  0
  -10.9670    8.0937    2.6800 O   0  0  0  0  0  0  0  0  0  0  0  0
  -11.5693    5.6218    1.2406 C   0  0  0  0  0  0  0  0  0  0  0  0
  -11.0584    4.4675    0.3723 C   0  0  0  0  0  0  0  0  0  0  0  0
  -11.7342    4.5212   -0.9979 C   0  0  0  0  0  0  0  0  0  0  0  0
  -11.0934    3.5269   -1.9051 N   0  0  0  0  0  0  0  0  0  0  0  0
  -10.2841    3.9248   -2.8532 C   0  0  0  0  0  0  0  0  0  0  0  0
  -10.7641    4.4203   -3.9647 N   0  0  0  0  0  0  0  0  0  0  0  0
   -8.9920    3.8325   -2.6860 N   0  0  0  0  0  0  0  0  0  0  0  0
  2  1  1  1  0  0  0
  2  3  1  0  0  0  0
  2  5  1  0  0  0  0
  3  4  1  0  0  0  0
  5  6  1  0  0  0  0
  6  7  1  0  0  0  0
  7  8  1  0  0  0  0
  8  9  1  0  0  0  0
  9 10  1  0  0  0  0
  9 11  1  0  0  0  0
M  END
>  <CHROM.1>
67.53443190,-65.77708322,-48.79719064,-61.68183292,171.73068576,-105.62324244
-78.61608936,132.02319660,33.45046067,-10.76244784,5.50361553,-0.54589237
-1.75413143,-0.82319094,-2.36613079

>  <Name>
1akx_lig

>  <RI>
0

>  <Rbt.Current_Directory>
/home/itssahil/PROJECTS/Mol_Feturizer/New_Systems/rnas/1akx

>  <Rbt.Executable>
rbdock ($Id: //depot/dev/client3/rdock/2013.1/src/exe/rbdock.cxx#4 $)

>  <Rbt.Library>
libRbt.so (2013.1, Build901 2013/11/27)

>  <Rbt.Parameter_File>
/export/apps/rDock/src/rDock_2013.1_src/data/scripts/dock_solv.prm

>  <Rbt.Receptor>
prm/blind_docking_80.prm

>  <SCORE>
-33.938

>  <SCORE.INTER>
-27.8183

>  <SCORE.INTER.CONST>
1

>  <SCORE.INTER.POLAR>
-4.35743

>  <SCORE.INTER.ROT>
8

>  <SCORE.INTER.SOLV>
11.6218

>  <SCORE.INTER.VDW>
-16.828

>  <SCORE.INTER.norm>
-2.52894

>  <SCORE.INTRA>
-6.43198

>  <SCORE.INTRA.DIHEDRAL>
-15.8262

>  <SCORE.INTRA.DIHEDRAL.0>
21.6454

>  <SCORE.INTRA.POLAR>
0

>  <SCORE.INTRA.POLAR.0>
0

>  <SCORE.INTRA.REPUL>
0

>  <SCORE.INTRA.REPUL.0>
0

>  <SCORE.INTRA.SOLV>
0.835211

>  <SCORE.INTRA.SOLV.lig_0>
-16.5947

>  <SCORE.INTRA.VDW>
1.06353

>  <SCORE.INTRA.VDW.0>
-0.691398

>  <SCORE.INTRA.norm>
-0.584726

>  <SCORE.RESTR>
0.3123

>  <SCORE.RESTR.CAVITY>
0.3123

>  <SCORE.RESTR.norm>
0.0283909

>  <SCORE.SYSTEM>
0

>  <SCORE.SYSTEM.CONST>
0

>  <SCORE.SYSTEM.DIHEDRAL>
0

>  <SCORE.SYSTEM.SOLV>
0

>  <SCORE.SYSTEM.norm>
0

>  <SCORE.heavy>
11

>  <SCORE.norm>
-3.08527

>  <RMSD>
13.511

$$$$
1akx_lig
 OpenBabel11021811383D
libRbt.so/2013.1/901 2013/11/27
 11 10  0  0  0  0  0  0  0  0999 V2000
   -9.5938    6.6187    0.0710 N   0  0  0  0  0  0  0  0  0  0  0  0
  -10.9481    6.7313    0.6885 C   0  0  2  0  0  0  0  0  0  0  0  0
  -10.8405    7.4731    2.0267 C   0  0  0  0  0  0  0  0  0  0  0  0
  -10.1739    8.4846    2.1193 O   0  0  0  0  0  0  0  0  0  0  0  0
  -11.5270    5.3289    0.9199 C   0  0  0  0  0  0  0  0  0  0  0  0
  -12.5831    5.0230   -0.1470 C   0  0  0  0  0  0  0  0  0  0  0  0
  -11.9840    5.2417   -1.5363 C   0  0  0  0  0  0  0  0  0  0  0  0
  -10.7679    4.3933   -1.6900 N   0  0  0  0  0  0  0  0  0  0  0  0
  -10.2371    4.2097   -2.8719 C   0  0  0  0  0  0  0  0  0  0  0  0
   -8.9438    4.0570   -2.9971 N   0  0  0  0  0  0  0  0  0  0  0  0
  -11.0026    4.1725   -3.9296 N   0  0  0  0  0  0  0  0  0  0  0  0
  2  1  1  1  0  0  0
  2  3  1  0  0  0  0
  2  5  1  0  0  0  0
  3  4  1  0  0  0  0
  5  6  1  0  0  0  0
  6  7  1  0  0  0  0
  7  8  1  0  0  0  0
  8  9  1  0  0  0  0
  9 10  1  0  0  0  0
  9 11  1  0  0  0  0
M  END
>  <CHROM.1>
44.33742286,45.13596732,-103.63736352,53.45468541,56.71599133,166.55826151
147.43792077,-92.59447495,143.15068347,-10.72406019,5.61916908,-0.69346548
-1.61445992,-0.32642285,-2.19285885

>  <Name>
1akx_lig

>  <RI>
0

>  <Rbt.Current_Directory>
/home/itssahil/PROJECTS/Mol_Feturizer/New_Systems/rnas/1akx

>  <Rbt.Executable>
rbdock ($Id: //depot/dev/client3/rdock/2013.1/src/exe/rbdock.cxx#4 $)

>  <Rbt.Library>
libRbt.so (2013.1, Build901 2013/11/27)

>  <Rbt.Parameter_File>
/export/apps/rDock/src/rDock_2013.1_src/data/scripts/dock_solv.prm

>  <Rbt.Receptor>
prm/blind_docking_80.prm

>  <SCORE>
-44.0528

>  <SCORE.INTER>
-39.7431

>  <SCORE.INTER.CONST>
1

>  <SCORE.INTER.POLAR>
-6.33978

>  <SCORE.INTER.ROT>
8

>  <SCORE.INTER.SOLV>
12.353

>  <SCORE.INTER.VDW>
-18.4138

>  <SCORE.INTER.norm>
-3.61301

>  <SCORE.INTRA>
-4.39236

>  <SCORE.INTRA.DIHEDRAL>
-10.4194

>  <SCORE.INTRA.DIHEDRAL.0>
21.6454

>  <SCORE.INTRA.POLAR>
-0.513834

>  <SCORE.INTRA.POLAR.0>
0

>  <SCORE.INTRA.REPUL>
0

>  <SCORE.INTRA.REPUL.0>
0

>  <SCORE.INTRA.SOLV>
1.54982

>  <SCORE.INTRA.SOLV.lig_0>
-16.5947

>  <SCORE.INTRA.VDW>
1.78945

>  <SCORE.INTRA.VDW.0>
-0.691398

>  <SCORE.INTRA.norm>
-0.399305

>  <SCORE.RESTR>
0.0826048

>  <SCORE.RESTR.CAVITY>
0.0826048

>  <SCORE.RESTR.norm>
0.00750953

>  <SCORE.SYSTEM>
0

>  <SCORE.SYSTEM.CONST>
0

>  <SCORE.SYSTEM.DIHEDRAL>
0

>  <SCORE.SYSTEM.SOLV>
0

>  <SCORE.SYSTEM.norm>
0

>  <SCORE.heavy>
11

>  <SCORE.norm>
-4.0048

>  <RMSD>
13.516

$$$$
1akx_lig
 OpenBabel11021811383D
libRbt.so/2013.1/901 2013/11/27
 11 10  0  0  0  0  0  0  0  0999 V2000
   -9.8436    6.7330    0.0644 N   0  0  0  0  0  0  0  0  0  0  0  0
  -11.0805    6.5851    0.8868 C   0  0  2  0  0  0  0  0  0  0  0  0
  -10.8442    7.1841    2.2789 C   0  0  0  0  0  0  0  0  0  0  0  0
  -10.2497    8.2362    2.4048 O   0  0  0  0  0  0  0  0  0  0  0  0
  -11.4374    5.0982    1.0176 C   0  0  0  0  0  0  0  0  0  0  0  0
  -12.6450    4.7765    0.1314 C   0  0  0  0  0  0  0  0  0  0  0  0
  -12.2651    4.9640   -1.3374 C   0  0  0  0  0  0  0  0  0  0  0  0
  -11.2457    3.9454   -1.7189 N   0  0  0  0  0  0  0  0  0  0  0  0
  -10.8568    3.8356   -2.9635 C   0  0  0  0  0  0  0  0  0  0  0  0
  -11.2363    4.7167   -3.8528 N   0  0  0  0  0  0  0  0  0  0  0  0
  -10.0815    2.8457   -3.3172 N   0  0  0  0  0  0  0  0  0  0  0  0
  2  1  1  6  0  0  0
  2  3  1  0  0  0  0
  2  5  1  0  0  0  0
  3  4  1  0  0  0  0
  5  6  1  0  0  0  0
  6  7  1  0  0  0  0
  7  8  1  0  0  0  0
  8  9  1  0  0  0  0
  9 10  1  0  0  0  0
  9 11  1  0  0  0  0
M  END
>  <CHROM.1>
-70.58501592,41.99893968,-105.83439058,65.26346442,66.21885328,173.89815769
8.13067928,123.22790413,-49.73216037,-11.02127834,5.36777886,-0.61438930
-1.51833658,-0.61987735,-2.15862141

>  <Name>
1akx_lig

>  <RI>
0

>  <Rbt.Current_Directory>
/home/itssahil/PROJECTS/Mol_Feturizer/New_Systems/rnas/1akx

>  <Rbt.Executable>
rbdock ($Id: //depot/dev/client3/rdock/2013.1/src/exe/rbdock.cxx#4 $)

>  <Rbt.Library>
libRbt.so (2013.1, Build901 2013/11/27)

>  <Rbt.Parameter_File>
/export/apps/rDock/src/rDock_2013.1_src/data/scripts/dock_solv.prm

>  <Rbt.Receptor>
prm/blind_docking_100.prm

>  <SCORE>
-38.4982

>  <SCORE.INTER>
-35.1196

>  <SCORE.INTER.CONST>
1

>  <SCORE.INTER.POLAR>
-5.62291

>  <SCORE.INTER.ROT>
8

>  <SCORE.INTER.SOLV>
11.2737

>  <SCORE.INTER.VDW>
-17.3613

>  <SCORE.INTER.norm>
-3.19269

>  <SCORE.INTRA>
-3.38397

>  <SCORE.INTRA.DIHEDRAL>
-10.1163

>  <SCORE.INTRA.DIHEDRAL.0>
21.6454

>  <SCORE.INTRA.POLAR>
0

>  <SCORE.INTRA.POLAR.0>
0

>  <SCORE.INTRA.REPUL>
0

>  <SCORE.INTRA.REPUL.0>
0

>  <SCORE.INTRA.SOLV>
1.0048

>  <SCORE.INTRA.SOLV.lig_0>
-16.5947

>  <SCORE.INTRA.VDW>
1.17176

>  <SCORE.INTRA.VDW.0>
-0.691398

>  <SCORE.INTRA.norm>
-0.307634

>  <SCORE.RESTR>
0.00541979

>  <SCORE.RESTR.CAVITY>
0.00541979

>  <SCORE.RESTR.norm>
0.000492708

>  <SCORE.SYSTEM>
0

>  <SCORE.SYSTEM.CONST>
0

>  <SCORE.SYSTEM.DIHEDRAL>
0

>  <SCORE.SYSTEM.SOLV>
0

>  <SCORE.SYSTEM.norm>
0

>  <SCORE.heavy>
11

>  <SCORE.norm>
-3.49984

>  <RMSD>
13.518

$$$$
1akx_lig
 OpenBabel11021811383D
libRbt.so/2013.1/901 2013/11/27
 11 10  0  0  0  0  0  0  0  0999 V2000
   -9.5744    6.4855    0.6239 N   0  0  0  0  0  0  0  0  0  0  0  0
  -11.0205    6.8161    0.7901 C   0  0  2  0  0  0  0  0  0  0  0  0
  -11.1896    7.8038    1.9513 C   0  0  0  0  0  0  0  0  0  0  0  0
  -10.4288    8.7426    2.0783 O   0  0  0  0  0  0  0  0  0  0  0  0
  -11.8118    5.5341    1.0824 C   0  0  0  0  0  0  0  0  0  0  0  0
  -11.4524    4.4585    0.0523 C   0  0  0  0  0  0  0  0  0  0  0  0
  -12.0807    4.8119   -1.2957 C   0  0  0  0  0  0  0  0  0  0  0  0
  -11.9020    3.6716   -2.2392 N   0  0  0  0  0  0  0  0  0  0  0  0
  -10.8002    3.5588   -2.9361 C   0  0  0  0  0  0  0  0  0  0  0  0
  -10.5048    4.4466   -3.8504 N   0  0  0  0  0  0  0  0  0  0  0  0
   -9.9896    2.5592   -2.7131 N   0  0  0  0  0  0  0  0  0  0  0  0
  2  1  1  1  0  0  0
  2  3  1  0  0  0  0
  2  5  1  0  0  0  0
  3  4  1  0  0  0  0
  5  6  1  0  0  0  0
  6  7  1  0  0  0  0
  7  8  1  0  0  0  0
  8  9  1  0  0  0  0
  9 10  1  0  0  0  0
  9 11  1  0  0  0  0
M  END
>  <CHROM.1>
71.43058043,43.08088912,-49.92093282,-72.82737567,-171.68921400,-85.51913517
-65.98672679,-108.83915005,-134.70303116,-10.92642792,5.35584849,-0.60703798
-1.55403880,-0.63461421,-2.29748702

>  <Name>
1akx_lig

>  <RI>
0

>  <Rbt.Current_Directory>
/home/itssahil/PROJECTS/Mol_Feturizer/New_Systems/rnas/1akx

>  <Rbt.Executable>
rbdock ($Id: //depot/dev/client3/rdock/2013.1/src/exe/rbdock.cxx#4 $)

>  <Rbt.Library>
libRbt.so (2013.1, Build901 2013/11/27)

>  <Rbt.Parameter_File>
/export/apps/rDock/src/rDock_2013.1_src/data/scripts/dock_solv.prm

>  <Rbt.Receptor>
prm/blind_docking_40.prm

>  <SCORE>
-35.9923

>  <SCORE.INTER>
-29.6778

>  <SCORE.INTER.CONST>
1

>  <SCORE.INTER.POLAR>
-4.64649

>  <SCORE.INTER.ROT>
8

>  <SCORE.INTER.SOLV>
11.066

>  <SCORE.INTER.VDW>
-16.9189

>  <SCORE.INTER.norm>
-2.69799

>  <SCORE.INTRA>
-6.31441

>  <SCORE.INTRA.DIHEDRAL>
-14.2436

>  <SCORE.INTRA.DIHEDRAL.0>
21.6454

>  <SCORE.INTRA.POLAR>
0

>  <SCORE.INTRA.POLAR.0>
0

>  <SCORE.INTRA.REPUL>
0

>  <SCORE.INTRA.REPUL.0>
0

>  <SCORE.INTRA.SOLV>
0.538721

>  <SCORE.INTRA.SOLV.lig_0>
-16.5947

>  <SCORE.INTRA.VDW>
0.538028

>  <SCORE.INTRA.VDW.0>
-0.691398

>  <SCORE.INTRA.norm>
-0.574037

>  <SCORE.RESTR>
0

>  <SCORE.RESTR.CAVITY>
0

>  <SCORE.RESTR.norm>
0

>  <SCORE.SYSTEM>
0

>  <SCORE.SYSTEM.CONST>
0

>  <SCORE.SYSTEM.DIHEDRAL>
0

>  <SCORE.SYSTEM.SOLV>
0

>  <SCORE.SYSTEM.norm>
0

>  <SCORE.heavy>
11

>  <SCORE.norm>
-3.27202

>  <RMSD>
13.520

$$$$
1akx_lig
 OpenBabel11021811383D
libRbt.so/2013.1/901 2013/11/27
 11 10  0  0  0  0  0  0  0  0999 V2000
   -9.5877    6.9170    1.5737 N   0  0  0  0  0  0  0  0  0  0  0  0
  -10.8664    6.7704    0.8176 C   0  0  2  0  0  0  0  0  0  0  0  0
  -11.9042    7.7548    1.3712 C   0  0  0  0  0  0  0  0  0  0  0  0
  -12.0810    7.8557    2.5690 O   0  0  0  0  0  0  0  0  0  0  0  0
  -11.3880    5.3342    0.9612 C   0  0  0  0  0  0  0  0  0  0  0  0
  -12.3611    5.0211   -0.1800 C   0  0  0  0  0  0  0  0  0  0  0  0
  -11.6254    5.1088   -1.5172 C   0  0  0  0  0  0  0  0  0  0  0  0
  -10.6208    4.0107   -1.6023 N   0  0  0  0  0  0  0  0  0  0  0  0
   -9.8651    3.8891   -2.6636 C   0  0  0  0  0  0  0  0  0  0  0  0
   -8.5730    4.0748   -2.5775 N   0  0  0  0  0  0  0  0  0  0  0  0
  -10.4027    3.5749   -3.8118 N   0  0  0  0  0  0  0  0  0  0  0  0
  2  1  1  1  0  0  0
  2  3  1  0  0  0  0
  2  5  1  0  0  0  0
  3  4  1  0  0  0  0
  5  6  1  0  0  0  0
  6  7  1  0  0  0  0
  7  8  1  0  0  0  0
  8  9  1  0  0  0  0
  9 10  1  0  0  0  0
  9 11  1  0  0  0  0
M  END
>  <CHROM.1>
146.05508082,-47.15588317,-159.06402867,62.34545116,67.09823893,-179.79471924
113.99891269,-120.70232339,116.76526763,-10.79650854,5.48651758,-0.45114150
-1.82161812,-0.05682279,-2.21965026

>  <Name>
1akx_lig

>  <RI>
0

>  <Rbt.Current_Directory>
/home/itssahil/PROJECTS/Mol_Feturizer/New_Systems/rnas/1akx

>  <Rbt.Executable>
rbdock ($Id: //depot/dev/client3/rdock/2013.1/src/exe/rbdock.cxx#4 $)

>  <Rbt.Library>
libRbt.so (2013.1, Build901 2013/11/27)

>  <Rbt.Parameter_File>
/export/apps/rDock/src/rDock_2013.1_src/data/scripts/dock_solv.prm

>  <Rbt.Receptor>
prm/blind_docking_100.prm

>  <SCORE>
-37.228

>  <SCORE.INTER>
-32.9201

>  <SCORE.INTER.CONST>
1

>  <SCORE.INTER.POLAR>
-5.43465

>  <SCORE.INTER.ROT>
8

>  <SCORE.INTER.SOLV>
11.645

>  <SCORE.INTER.VDW>
-16.6463

>  <SCORE.INTER.norm>
-2.99274

>  <SCORE.INTRA>
-4.30785

>  <SCORE.INTRA.DIHEDRAL>
-12.2945

>  <SCORE.INTRA.DIHEDRAL.0>
21.6454

>  <SCORE.INTRA.POLAR>
0

>  <SCORE.INTRA.POLAR.0>
0

>  <SCORE.INTRA.REPUL>
0

>  <SCORE.INTRA.REPUL.0>
0

>  <SCORE.INTRA.SOLV>
0.620925

>  <SCORE.INTRA.SOLV.lig_0>
-16.5947

>  <SCORE.INTRA.VDW>
1.52895

>  <SCORE.INTRA.VDW.0>
-0.691398

>  <SCORE.INTRA.norm>
-0.391622

>  <SCORE.RESTR>
0

>  <SCORE.RESTR.CAVITY>
0

>  <SCORE.RESTR.norm>
0

>  <SCORE.SYSTEM>
0

>  <SCORE.SYSTEM.CONST>
0

>  <SCORE.SYSTEM.DIHEDRAL>
0

>  <SCORE.SYSTEM.SOLV>
0

>  <SCORE.SYSTEM.norm>
0

>  <SCORE.heavy>
11

>  <SCORE.norm>
-3.38436

>  <RMSD>
13.521

$$$$
1akx_lig
 OpenBabel11021811383D
libRbt.so/2013.1/901 2013/11/27
 11 10  0  0  0  0  0  0  0  0999 V2000
   -9.6930    6.9495    1.2752 N   0  0  0  0  0  0  0  0  0  0  0  0
  -11.0047    6.7971    0.5793 C   0  0  2  0  0  0  0  0  0  0  0  0
  -12.1231    7.3578    1.4667 C   0  0  0  0  0  0  0  0  0  0  0  0
  -12.0751    8.5030    1.8696 O   0  0  0  0  0  0  0  0  0  0  0  0
  -11.2668    5.3121    0.2938 C   0  0  0  0  0  0  0  0  0  0  0  0
  -12.1308    5.1722   -0.9637 C   0  0  0  0  0  0  0  0  0  0  0  0
  -11.7475    3.8927   -1.7072 C   0  0  0  0  0  0  0  0  0  0  0  0
  -10.2633    3.8121   -1.8208 N   0  0  0  0  0  0  0  0  0  0  0  0
   -9.6811    3.9715   -2.9819 C   0  0  0  0  0  0  0  0  0  0  0  0
   -8.3991    3.7466   -3.1128 N   0  0  0  0  0  0  0  0  0  0  0  0
  -10.3847    4.3505   -4.0150 N   0  0  0  0  0  0  0  0  0  0  0  0
  2  1  1  1  0  0  0
  2  3  1  0  0  0  0
  2  5  1  0  0  0  0
  3  4  1  0  0  0  0
  5  6  1  0  0  0  0
  6  7  1  0  0  0  0
  7  8  1  0  0  0  0
  8  9  1  0  0  0  0
  9 10  1  0  0  0  0
  9 11  1  0  0  0  0
M  END
>  <CHROM.1>
-88.32210766,55.92709921,-150.82912067,147.08016224,-47.12281449,-109.63903875
-171.94932131,170.97087807,-72.02006220,-10.74831996,5.46423668,-0.82327649
-1.85619162,-0.04445808,-2.25581381

>  <Name>
1akx_lig

>  <RI>
0

>  <Rbt.Current_Directory>
/home/itssahil/PROJECTS/Mol_Feturizer/New_Systems/rnas/1akx

>  <Rbt.Executable>
rbdock ($Id: //depot/dev/client3/rdock/2013.1/src/exe/rbdock.cxx#4 $)

>  <Rbt.Library>
libRbt.so (2013.1, Build901 2013/11/27)

>  <Rbt.Parameter_File>
/export/apps/rDock/src/rDock_2013.1_src/data/scripts/dock_solv.prm

>  <Rbt.Receptor>
prm/blind_docking_80.prm

>  <SCORE>
-29.3355

>  <SCORE.INTER>
-27.1439

>  <SCORE.INTER.CONST>
1

>  <SCORE.INTER.POLAR>
-4.39332

>  <SCORE.INTER.ROT>
8

>  <SCORE.INTER.SOLV>
12.6252

>  <SCORE.INTER.VDW>
-16.5933

>  <SCORE.INTER.norm>
-2.46763

>  <SCORE.INTRA>
-2.21567

>  <SCORE.INTRA.DIHEDRAL>
-8.19739

>  <SCORE.INTRA.DIHEDRAL.0>
21.6454

>  <SCORE.INTRA.POLAR>
0

>  <SCORE.INTRA.POLAR.0>
0

>  <SCORE.INTRA.REPUL>
0

>  <SCORE.INTRA.REPUL.0>
0

>  <SCORE.INTRA.SOLV>
0.584243

>  <SCORE.INTRA.SOLV.lig_0>
-16.5947

>  <SCORE.INTRA.VDW>
1.5909

>  <SCORE.INTRA.VDW.0>
-0.691398

>  <SCORE.INTRA.norm>
-0.201425

>  <SCORE.RESTR>
0.024037

>  <SCORE.RESTR.CAVITY>
0.024037

>  <SCORE.RESTR.norm>
0.00218518

>  <SCORE.SYSTEM>
0

>  <SCORE.SYSTEM.CONST>
0

>  <SCORE.SYSTEM.DIHEDRAL>
0

>  <SCORE.SYSTEM.SOLV>
0

>  <SCORE.SYSTEM.norm>
0

>  <SCORE.heavy>
11

>  <SCORE.norm>
-2.66687

>  <RMSD>
13.521

$$$$
1akx_lig
 OpenBabel11021811383D
libRbt.so/2013.1/901 2013/11/27
 11 10  0  0  0  0  0  0  0  0999 V2000
   -9.6768    6.6439    0.1216 N   0  0  0  0  0  0  0  0  0  0  0  0
  -11.0278    6.7848    0.7405 C   0  0  2  0  0  0  0  0  0  0  0  0
  -10.9376    7.7085    1.9618 C   0  0  0  0  0  0  0  0  0  0  0  0
  -10.1657    8.6467    1.9697 O   0  0  0  0  0  0  0  0  0  0  0  0
  -11.5430    5.4052    1.1726 C   0  0  0  0  0  0  0  0  0  0  0  0
  -11.3636    4.4043    0.0267 C   0  0  0  0  0  0  0  0  0  0  0  0
  -12.1539    4.8774   -1.1933 C   0  0  0  0  0  0  0  0  0  0  0  0
  -11.8822    3.9674   -2.3424 N   0  0  0  0  0  0  0  0  0  0  0  0
  -10.7325    4.0171   -2.9653 C   0  0  0  0  0  0  0  0  0  0  0  0
   -9.7452    4.7193   -2.4718 N   0  0  0  0  0  0  0  0  0  0  0  0
  -10.5687    3.3576   -4.0808 N   0  0  0  0  0  0  0  0  0  0  0  0
  2  1  1  1  0  0  0
  2  3  1  0  0  0  0
  2  5  1  0  0  0  0
  3  4  1  0  0  0  0
  5  6  1  0  0  0  0
  6  7  1  0  0  0  0
  7  8  1  0  0  0  0
  8  9  1  0  0  0  0
  9 10  1  0  0  0  0
  9 11  1  0  0  0  0
M  END
>  <CHROM.1>
175.86166037,34.57452645,-48.20373972,-60.10773029,175.05742686,-73.61105431
9.98052143,-100.27229241,116.17598646,-10.84034570,5.51380711,-0.67275918
-1.50903171,-0.63327663,-2.21117763

>  <Name>
1akx_lig

>  <RI>
0

>  <Rbt.Current_Directory>
/home/afrankz/demos/rdock_decoys_rna/rnas/1akx

>  <Rbt.Executable>
rbdock ($Id: //depot/dev/client3/rdock/2013.1/src/exe/rbdock.cxx#4 $)

>  <Rbt.Library>
libRbt.so (2013.1, Build901 2013/11/27)

>  <Rbt.Parameter_File>
/export/apps/rDock/src/rDock_2013.1_src/data/scripts/dock_solv.prm

>  <Rbt.Receptor>
prm/blind_docking_60.prm

>  <SCORE>
-39.0134

>  <SCORE.INTER>
-32.0274

>  <SCORE.INTER.CONST>
1

>  <SCORE.INTER.POLAR>
-5.17377

>  <SCORE.INTER.ROT>
8

>  <SCORE.INTER.SOLV>
11.1466

>  <SCORE.INTER.VDW>
-16.7546

>  <SCORE.INTER.norm>
-2.91158

>  <SCORE.INTRA>
-6.98605

>  <SCORE.INTRA.DIHEDRAL>
-14.1528

>  <SCORE.INTRA.DIHEDRAL.0>
21.6454

>  <SCORE.INTRA.POLAR>
-1

>  <SCORE.INTRA.POLAR.0>
0

>  <SCORE.INTRA.REPUL>
0

>  <SCORE.INTRA.REPUL.0>
0

>  <SCORE.INTRA.SOLV>
1.58752

>  <SCORE.INTRA.SOLV.lig_0>
-16.5947

>  <SCORE.INTRA.VDW>
2.69658

>  <SCORE.INTRA.VDW.0>
-0.691398

>  <SCORE.INTRA.norm>
-0.635096

>  <SCORE.RESTR>
0

>  <SCORE.RESTR.CAVITY>
0

>  <SCORE.RESTR.norm>
0

>  <SCORE.SYSTEM>
0

>  <SCORE.SYSTEM.CONST>
0

>  <SCORE.SYSTEM.DIHEDRAL>
0

>  <SCORE.SYSTEM.SOLV>
0

>  <SCORE.SYSTEM.norm>
0

>  <SCORE.heavy>
11

>  <SCORE.norm>
-3.54668

>  <RMSD>
13.524

>  <RMSD>
13.524

$$$$
1akx_lig
 OpenBabel11021811383D
libRbt.so/2013.1/901 2013/11/27
 11 10  0  0  0  0  0  0  0  0999 V2000
   -9.6768    6.6439    0.1216 N   0  0  0  0  0  0  0  0  0  0  0  0
  -11.0278    6.7848    0.7405 C   0  0  2  0  0  0  0  0  0  0  0  0
  -10.9376    7.7085    1.9618 C   0  0  0  0  0  0  0  0  0  0  0  0
  -10.1657    8.6467    1.9697 O   0  0  0  0  0  0  0  0  0  0  0  0
  -11.5430    5.4052    1.1726 C   0  0  0  0  0  0  0  0  0  0  0  0
  -11.3636    4.4043    0.0267 C   0  0  0  0  0  0  0  0  0  0  0  0
  -12.1539    4.8774   -1.1933 C   0  0  0  0  0  0  0  0  0  0  0  0
  -11.8822    3.9674   -2.3424 N   0  0  0  0  0  0  0  0  0  0  0  0
  -10.7325    4.0171   -2.9653 C   0  0  0  0  0  0  0  0  0  0  0  0
   -9.7452    4.7193   -2.4718 N   0  0  0  0  0  0  0  0  0  0  0  0
  -10.5687    3.3576   -4.0808 N   0  0  0  0  0  0  0  0  0  0  0  0
  2  1  1  1  0  0  0
  2  3  1  0  0  0  0
  2  5  1  0  0  0  0
  3  4  1  0  0  0  0
  5  6  1  0  0  0  0
  6  7  1  0  0  0  0
  7  8  1  0  0  0  0
  8  9  1  0  0  0  0
  9 10  1  0  0  0  0
  9 11  1  0  0  0  0
M  END
>  <CHROM.1>
175.86166037,34.57452645,-48.20373972,-60.10773029,175.05742686,-73.61105431
9.98052143,-100.27229241,116.17598646,-10.84034570,5.51380711,-0.67275918
-1.50903171,-0.63327663,-2.21117763

>  <Name>
1akx_lig

>  <RI>
0

>  <Rbt.Current_Directory>
/home/afrankz/demos/rdock_decoys_rna/rnas/1akx

>  <Rbt.Executable>
rbdock ($Id: //depot/dev/client3/rdock/2013.1/src/exe/rbdock.cxx#4 $)

>  <Rbt.Library>
libRbt.so (2013.1, Build901 2013/11/27)

>  <Rbt.Parameter_File>
/export/apps/rDock/src/rDock_2013.1_src/data/scripts/dock_solv.prm

>  <Rbt.Receptor>
prm/blind_docking_60.prm

>  <SCORE>
-39.0134

>  <SCORE.INTER>
-32.0274

>  <SCORE.INTER.CONST>
1

>  <SCORE.INTER.POLAR>
-5.17377

>  <SCORE.INTER.ROT>
8

>  <SCORE.INTER.SOLV>
11.1466

>  <SCORE.INTER.VDW>
-16.7546

>  <SCORE.INTER.norm>
-2.91158

>  <SCORE.INTRA>
-6.98605

>  <SCORE.INTRA.DIHEDRAL>
-14.1528

>  <SCORE.INTRA.DIHEDRAL.0>
21.6454

>  <SCORE.INTRA.POLAR>
-1

>  <SCORE.INTRA.POLAR.0>
0

>  <SCORE.INTRA.REPUL>
0

>  <SCORE.INTRA.REPUL.0>
0

>  <SCORE.INTRA.SOLV>
1.58752

>  <SCORE.INTRA.SOLV.lig_0>
-16.5947

>  <SCORE.INTRA.VDW>
2.69658

>  <SCORE.INTRA.VDW.0>
-0.691398

>  <SCORE.INTRA.norm>
-0.635096

>  <SCORE.RESTR>
0

>  <SCORE.RESTR.CAVITY>
0

>  <SCORE.RESTR.norm>
0

>  <SCORE.SYSTEM>
0

>  <SCORE.SYSTEM.CONST>
0

>  <SCORE.SYSTEM.DIHEDRAL>
0

>  <SCORE.SYSTEM.SOLV>
0

>  <SCORE.SYSTEM.norm>
0

>  <SCORE.heavy>
11

>  <SCORE.norm>
-3.54668

>  <RMSD>
13.524

>  <RMSD>
13.524

$$$$
1akx_lig
 OpenBabel11021811383D
libRbt.so/2013.1/901 2013/11/27
 11 10  0  0  0  0  0  0  0  0999 V2000
   -9.7013    6.8257    1.8447 N   0  0  0  0  0  0  0  0  0  0  0  0
  -10.8536    6.8122    0.8958 C   0  0  2  0  0  0  0  0  0  0  0  0
  -11.9123    7.8194    1.3618 C   0  0  0  0  0  0  0  0  0  0  0  0
  -12.3445    7.7792    2.4966 O   0  0  0  0  0  0  0  0  0  0  0  0
  -11.4645    5.4051    0.8474 C   0  0  0  0  0  0  0  0  0  0  0  0
  -12.2702    5.2356   -0.4447 C   0  0  0  0  0  0  0  0  0  0  0  0
  -11.3336    5.3406   -1.6483 C   0  0  0  0  0  0  0  0  0  0  0  0
  -10.3834    4.1920   -1.6376 N   0  0  0  0  0  0  0  0  0  0  0  0
   -9.8496    3.7673   -2.7544 C   0  0  0  0  0  0  0  0  0  0  0  0
  -10.5676    3.7047   -3.8461 N   0  0  0  0  0  0  0  0  0  0  0  0
   -8.5933    3.4109   -2.7798 N   0  0  0  0  0  0  0  0  0  0  0  0
  2  1  1  1  0  0  0
  2  3  1  0  0  0  0
  2  5  1  0  0  0  0
  3  4  1  0  0  0  0
  5  6  1  0  0  0  0
  6  7  1  0  0  0  0
  7  8  1  0  0  0  0
  8  9  1  0  0  0  0
  9 10  1  0  0  0  0
  9 11  1  0  0  0  0
M  END
>  <CHROM.1>
-94.09128939,-53.05116884,-159.34718483,63.57889122,65.62537508,153.99381328
-39.84759204,-73.99399046,164.65132154,-10.80347988,5.47654522,-0.50109147
-1.84530240,0.20558425,-2.15346582

>  <Name>
1akx_lig

>  <RI>
0

>  <Rbt.Current_Directory>
/home/itssahil/PROJECTS/Mol_Feturizer/New_Systems/rnas/1akx

>  <Rbt.Executable>
rbdock ($Id: //depot/dev/client3/rdock/2013.1/src/exe/rbdock.cxx#4 $)

>  <Rbt.Library>
libRbt.so (2013.1, Build901 2013/11/27)

>  <Rbt.Parameter_File>
/export/apps/rDock/src/rDock_2013.1_src/data/scripts/dock_solv.prm

>  <Rbt.Receptor>
prm/blind_docking_40.prm

>  <SCORE>
-34.8037

>  <SCORE.INTER>
-30.5599

>  <SCORE.INTER.CONST>
1

>  <SCORE.INTER.POLAR>
-4.74395

>  <SCORE.INTER.ROT>
8

>  <SCORE.INTER.SOLV>
12.0501

>  <SCORE.INTER.VDW>
-17.5101

>  <SCORE.INTER.norm>
-2.77818

>  <SCORE.INTRA>
-4.24382

>  <SCORE.INTRA.DIHEDRAL>
-12.7561

>  <SCORE.INTRA.DIHEDRAL.0>
21.6454

>  <SCORE.INTRA.POLAR>
0

>  <SCORE.INTRA.POLAR.0>
0

>  <SCORE.INTRA.REPUL>
0

>  <SCORE.INTRA.REPUL.0>
0

>  <SCORE.INTRA.SOLV>
0.656297

>  <SCORE.INTRA.SOLV.lig_0>
-16.5947

>  <SCORE.INTRA.VDW>
1.80607

>  <SCORE.INTRA.VDW.0>
-0.691398

>  <SCORE.INTRA.norm>
-0.385802

>  <SCORE.RESTR>
0

>  <SCORE.RESTR.CAVITY>
0

>  <SCORE.RESTR.norm>
0

>  <SCORE.SYSTEM>
0

>  <SCORE.SYSTEM.CONST>
0

>  <SCORE.SYSTEM.DIHEDRAL>
0

>  <SCORE.SYSTEM.SOLV>
0

>  <SCORE.SYSTEM.norm>
0

>  <SCORE.heavy>
11

>  <SCORE.norm>
-3.16398

>  <RMSD>
13.531

$$$$
1akx_lig
 OpenBabel11021811383D
libRbt.so/2013.1/901 2013/11/27
 11 10  0  0  0  0  0  0  0  0999 V2000
   -8.4049    3.5492   -2.8615 N   0  0  0  0  0  0  0  0  0  0  0  0
   -9.8581    3.5164   -2.5219 C   0  0  2  0  0  0  0  0  0  0  0  0
  -10.6675    3.1463   -3.7711 C   0  0  0  0  0  0  0  0  0  0  0  0
  -10.7443    3.9173   -4.7070 O   0  0  0  0  0  0  0  0  0  0  0  0
  -10.2987    4.8944   -2.0098 C   0  0  0  0  0  0  0  0  0  0  0  0
  -10.2233    4.9258   -0.4799 C   0  0  0  0  0  0  0  0  0  0  0  0
  -10.3216    6.3716    0.0069 C   0  0  0  0  0  0  0  0  0  0  0  0
  -10.1398    6.4092    1.4860 N   0  0  0  0  0  0  0  0  0  0  0  0
  -10.6994    7.3558    2.1953 C   0  0  0  0  0  0  0  0  0  0  0  0
  -11.4257    7.0543    3.2408 N   0  0  0  0  0  0  0  0  0  0  0  0
  -10.5265    8.6067    1.8614 N   0  0  0  0  0  0  0  0  0  0  0  0
  2  1  1  6  0  0  0
  2  3  1  0  0  0  0
  2  5  1  0  0  0  0
  3  4  1  0  0  0  0
  5  6  1  0  0  0  0
  6  7  1  0  0  0  0
  7  8  1  0  0  0  0
  8  9  1  0  0  0  0
  9 10  1  0  0  0  0
  9 11  1  0  0  0  0
M  END
>  <CHROM.1>
-161.82691867,-68.54069986,-94.24116839,166.07579008,-175.55662330,-151.64291615
128.60071889,-102.16116995,-166.75465669,-10.28001679,5.44357287,-0.68542734
-1.42908582,-0.64678031,1.07514979

>  <Name>
1akx_lig

>  <RI>
0

>  <Rbt.Current_Directory>
/home/itssahil/PROJECTS/Mol_Feturizer/New_Systems/rnas/1akx

>  <Rbt.Executable>
rbdock ($Id: //depot/dev/client3/rdock/2013.1/src/exe/rbdock.cxx#4 $)

>  <Rbt.Library>
libRbt.so (2013.1, Build901 2013/11/27)

>  <Rbt.Parameter_File>
/export/apps/rDock/src/rDock_2013.1_src/data/scripts/dock_solv.prm

>  <Rbt.Receptor>
prm/blind_docking_40.prm

>  <SCORE>
-41.809

>  <SCORE.INTER>
-36.7251

>  <SCORE.INTER.CONST>
1

>  <SCORE.INTER.POLAR>
-5.9223

>  <SCORE.INTER.ROT>
8

>  <SCORE.INTER.SOLV>
13.8012

>  <SCORE.INTER.VDW>
-18.2761

>  <SCORE.INTER.norm>
-3.33865

>  <SCORE.INTRA>
-5.19851

>  <SCORE.INTRA.DIHEDRAL>
-11.391

>  <SCORE.INTRA.DIHEDRAL.0>
21.6454

>  <SCORE.INTRA.POLAR>
0

>  <SCORE.INTRA.POLAR.0>
0

>  <SCORE.INTRA.REPUL>
0

>  <SCORE.INTRA.REPUL.0>
0

>  <SCORE.INTRA.SOLV>
0.219023

>  <SCORE.INTRA.SOLV.lig_0>
-16.5947

>  <SCORE.INTRA.VDW>
0.387496

>  <SCORE.INTRA.VDW.0>
-0.691398

>  <SCORE.INTRA.norm>
-0.472592

>  <SCORE.RESTR>
0.114618

>  <SCORE.RESTR.CAVITY>
0.114618

>  <SCORE.RESTR.norm>
0.0104198

>  <SCORE.SYSTEM>
0

>  <SCORE.SYSTEM.CONST>
0

>  <SCORE.SYSTEM.DIHEDRAL>
0

>  <SCORE.SYSTEM.SOLV>
0

>  <SCORE.SYSTEM.norm>
0

>  <SCORE.heavy>
11

>  <SCORE.norm>
-3.80082

>  <RMSD>
13.538

$$$$
1akx_lig
 OpenBabel11021811383D
libRbt.so/2013.1/901 2013/11/27
 11 10  0  0  0  0  0  0  0  0999 V2000
  -10.8270    4.3552   -4.2529 N   0  0  0  0  0  0  0  0  0  0  0  0
  -10.8730    3.9358   -2.8211 C   0  0  2  0  0  0  0  0  0  0  0  0
  -11.1426    2.4282   -2.7377 C   0  0  0  0  0  0  0  0  0  0  0  0
  -10.3392    1.6325   -3.1823 O   0  0  0  0  0  0  0  0  0  0  0  0
  -11.9881    4.7012   -2.0957 C   0  0  0  0  0  0  0  0  0  0  0  0
  -11.7147    4.7074   -0.5882 C   0  0  0  0  0  0  0  0  0  0  0  0
  -10.4288    5.4841   -0.3054 C   0  0  0  0  0  0  0  0  0  0  0  0
  -10.3518    5.8012    1.1491 N   0  0  0  0  0  0  0  0  0  0  0  0
  -10.7669    6.9596    1.5944 C   0  0  0  0  0  0  0  0  0  0  0  0
   -9.9710    7.7160    2.3055 N   0  0  0  0  0  0  0  0  0  0  0  0
  -11.9786    7.3642    1.3222 N   0  0  0  0  0  0  0  0  0  0  0  0
  2  1  1  6  0  0  0
  2  3  1  0  0  0  0
  2  5  1  0  0  0  0
  3  4  1  0  0  0  0
  5  6  1  0  0  0  0
  6  7  1  0  0  0  0
  7  8  1  0  0  0  0
  8  9  1  0  0  0  0
  9 10  1  0  0  0  0
  9 11  1  0  0  0  0
M  END
>  <CHROM.1>
-159.99217536,63.93536349,-158.30403471,64.41659108,165.11317838,-95.53355836
-125.27572620,-161.84693240,-57.67497885,-10.93252668,5.01948976,-0.88950287
1.60632858,1.01759388,-2.28979452

>  <Name>
1akx_lig

>  <RI>
0

>  <Rbt.Current_Directory>
/home/itssahil/PROJECTS/Mol_Feturizer/New_Systems/rnas/1akx

>  <Rbt.Executable>
rbdock ($Id: //depot/dev/client3/rdock/2013.1/src/exe/rbdock.cxx#4 $)

>  <Rbt.Library>
libRbt.so (2013.1, Build901 2013/11/27)

>  <Rbt.Parameter_File>
/export/apps/rDock/src/rDock_2013.1_src/data/scripts/dock_solv.prm

>  <Rbt.Receptor>
prm/blind_docking_80.prm

>  <SCORE>
-37.6778

>  <SCORE.INTER>
-32.1634

>  <SCORE.INTER.CONST>
1

>  <SCORE.INTER.POLAR>
-5.35479

>  <SCORE.INTER.ROT>
8

>  <SCORE.INTER.SOLV>
12.279

>  <SCORE.INTER.VDW>
-16.6193

>  <SCORE.INTER.norm>
-2.92394

>  <SCORE.INTRA>
-5.73857

>  <SCORE.INTRA.DIHEDRAL>
-13.3149

>  <SCORE.INTRA.DIHEDRAL.0>
21.6454

>  <SCORE.INTRA.POLAR>
0

>  <SCORE.INTRA.POLAR.0>
0

>  <SCORE.INTRA.REPUL>
0

>  <SCORE.INTRA.REPUL.0>
0

>  <SCORE.INTRA.SOLV>
0.411456

>  <SCORE.INTRA.SOLV.lig_0>
-16.5947

>  <SCORE.INTRA.VDW>
0.713135

>  <SCORE.INTRA.VDW.0>
-0.691398

>  <SCORE.INTRA.norm>
-0.521688

>  <SCORE.RESTR>
0.224134

>  <SCORE.RESTR.CAVITY>
0.224134

>  <SCORE.RESTR.norm>
0.0203758

>  <SCORE.SYSTEM>
0

>  <SCORE.SYSTEM.CONST>
0

>  <SCORE.SYSTEM.DIHEDRAL>
0

>  <SCORE.SYSTEM.SOLV>
0

>  <SCORE.SYSTEM.norm>
0

>  <SCORE.heavy>
11

>  <SCORE.norm>
-3.42526

>  <RMSD>
13.548

$$$$
1akx_lig
 OpenBabel11021811383D
libRbt.so/2013.1/901 2013/11/27
 11 10  0  0  0  0  0  0  0  0999 V2000
   -9.8253    4.7884   -3.5475 N   0  0  0  0  0  0  0  0  0  0  0  0
  -10.1006    3.7951   -2.4679 C   0  0  2  0  0  0  0  0  0  0  0  0
  -10.4142    2.4309   -3.0951 C   0  0  0  0  0  0  0  0  0  0  0  0
  -10.4468    1.4292   -2.4083 O   0  0  0  0  0  0  0  0  0  0  0  0
  -11.2962    4.2650   -1.6281 C   0  0  0  0  0  0  0  0  0  0  0  0
  -10.8114    5.2035   -0.5184 C   0  0  0  0  0  0  0  0  0  0  0  0
  -12.0001    5.6373    0.3394 C   0  0  0  0  0  0  0  0  0  0  0  0
  -11.5010    6.2413    1.6076 N   0  0  0  0  0  0  0  0  0  0  0  0
  -11.1156    7.4916    1.6356 C   0  0  0  0  0  0  0  0  0  0  0  0
   -9.8828    7.8082    1.3331 N   0  0  0  0  0  0  0  0  0  0  0  0
  -11.9671    8.4270    1.9607 N   0  0  0  0  0  0  0  0  0  0  0  0
  2  1  1  6  0  0  0
  2  3  1  0  0  0  0
  2  5  1  0  0  0  0
  3  4  1  0  0  0  0
  5  6  1  0  0  0  0
  6  7  1  0  0  0  0
  7  8  1  0  0  0  0
  8  9  1  0  0  0  0
  9 10  1  0  0  0  0
  9 11  1  0  0  0  0
M  END
>  <CHROM.1>
138.18226370,167.53099417,-86.42367205,-178.40204152,165.16097398,82.01072993
-87.15322924,-53.74816919,16.24507857,-10.83261149,5.25347558,-0.62594849
-1.31178758,0.98401513,0.54343533

>  <Name>
1akx_lig

>  <RI>
0

>  <Rbt.Current_Directory>
/home/itssahil/PROJECTS/Mol_Feturizer/New_Systems/rnas/1akx

>  <Rbt.Executable>
rbdock ($Id: //depot/dev/client3/rdock/2013.1/src/exe/rbdock.cxx#4 $)

>  <Rbt.Library>
libRbt.so (2013.1, Build901 2013/11/27)

>  <Rbt.Parameter_File>
/export/apps/rDock/src/rDock_2013.1_src/data/scripts/dock_solv.prm

>  <Rbt.Receptor>
prm/blind_docking_80.prm

>  <SCORE>
-34.0788

>  <SCORE.INTER>
-29.4642

>  <SCORE.INTER.CONST>
1

>  <SCORE.INTER.POLAR>
-4.88866

>  <SCORE.INTER.ROT>
8

>  <SCORE.INTER.SOLV>
10.743

>  <SCORE.INTER.VDW>
-15.8616

>  <SCORE.INTER.norm>
-2.67856

>  <SCORE.INTRA>
-4.623

>  <SCORE.INTRA.DIHEDRAL>
-10.2547

>  <SCORE.INTRA.DIHEDRAL.0>
21.6454

>  <SCORE.INTRA.POLAR>
0

>  <SCORE.INTRA.POLAR.0>
0

>  <SCORE.INTRA.REPUL>
0

>  <SCORE.INTRA.REPUL.0>
0

>  <SCORE.INTRA.SOLV>
0.147341

>  <SCORE.INTRA.SOLV.lig_0>
-16.5947

>  <SCORE.INTRA.VDW>
0.430656

>  <SCORE.INTRA.VDW.0>
-0.691398

>  <SCORE.INTRA.norm>
-0.420273

>  <SCORE.RESTR>
0.00843631

>  <SCORE.RESTR.CAVITY>
0.00843631

>  <SCORE.RESTR.norm>
0.000766938

>  <SCORE.SYSTEM>
0

>  <SCORE.SYSTEM.CONST>
0

>  <SCORE.SYSTEM.DIHEDRAL>
0

>  <SCORE.SYSTEM.SOLV>
0

>  <SCORE.SYSTEM.norm>
0

>  <SCORE.heavy>
11

>  <SCORE.norm>
-3.09807

>  <RMSD>
13.561

$$$$
1akx_lig
 OpenBabel11021811383D
libRbt.so/2013.1/901 2013/11/27
 11 10  0  0  0  0  0  0  0  0999 V2000
  -11.0221    4.2165   -3.9363 N   0  0  0  0  0  0  0  0  0  0  0  0
  -10.0208    4.6716   -2.9271 C   0  0  2  0  0  0  0  0  0  0  0  0
   -8.8326    3.7018   -2.9115 C   0  0  0  0  0  0  0  0  0  0  0  0
   -8.9680    2.5672   -2.4984 O   0  0  0  0  0  0  0  0  0  0  0  0
  -10.6720    4.7138   -1.5381 C   0  0  0  0  0  0  0  0  0  0  0  0
   -9.8367    5.5931   -0.6020 C   0  0  0  0  0  0  0  0  0  0  0  0
  -10.5819    5.7850    0.7189 C   0  0  0  0  0  0  0  0  0  0  0  0
   -9.9276    6.8710    1.5030 N   0  0  0  0  0  0  0  0  0  0  0  0
  -10.6155    7.9185    1.8799 C   0  0  0  0  0  0  0  0  0  0  0  0
  -11.0826    7.9965    3.0994 N   0  0  0  0  0  0  0  0  0  0  0  0
  -10.8309    8.8923    1.0365 N   0  0  0  0  0  0  0  0  0  0  0  0
  2  1  1  6  0  0  0
  2  3  1  0  0  0  0
  2  5  1  0  0  0  0
  3  4  1  0  0  0  0
  5  6  1  0  0  0  0
  6  7  1  0  0  0  0
  7  8  1  0  0  0  0
  8  9  1  0  0  0  0
  9 10  1  0  0  0  0
  9 11  1  0  0  0  0
M  END
>  <CHROM.1>
48.29932587,-68.39598610,-161.42796415,172.47780589,-167.45558289,122.54018119
99.50320589,25.02380482,154.96866810,-10.23389666,5.72396215,-0.57179121
1.33131781,0.94424090,-2.07331974

>  <Name>
1akx_lig

>  <RI>
0

>  <Rbt.Current_Directory>
/home/afrankz/demos/rdock_decoys_rna/rnas/1akx

>  <Rbt.Executable>
rbdock ($Id: //depot/dev/client3/rdock/2013.1/src/exe/rbdock.cxx#4 $)

>  <Rbt.Library>
libRbt.so (2013.1, Build901 2013/11/27)

>  <Rbt.Parameter_File>
/export/apps/rDock/src/rDock_2013.1_src/data/scripts/dock_solv.prm

>  <Rbt.Receptor>
prm/blind_docking_100.prm

>  <SCORE>
-45.475

>  <SCORE.INTER>
-38.636

>  <SCORE.INTER.CONST>
1

>  <SCORE.INTER.POLAR>
-4.89337

>  <SCORE.INTER.ROT>
8

>  <SCORE.INTER.SOLV>
14.3528

>  <SCORE.INTER.VDW>
-23.1637

>  <SCORE.INTER.norm>
-3.51237

>  <SCORE.INTRA>
-6.83893

>  <SCORE.INTRA.DIHEDRAL>
-14.1689

>  <SCORE.INTRA.DIHEDRAL.0>
21.6454

>  <SCORE.INTRA.POLAR>
0

>  <SCORE.INTRA.POLAR.0>
0

>  <SCORE.INTRA.REPUL>
0

>  <SCORE.INTRA.REPUL.0>
0

>  <SCORE.INTRA.SOLV>
0.310367

>  <SCORE.INTRA.SOLV.lig_0>
-16.5947

>  <SCORE.INTRA.VDW>
0.0903228

>  <SCORE.INTRA.VDW.0>
-0.691398

>  <SCORE.INTRA.norm>
-0.621721

>  <SCORE.RESTR>
0

>  <SCORE.RESTR.CAVITY>
0

>  <SCORE.RESTR.norm>
0

>  <SCORE.SYSTEM>
0

>  <SCORE.SYSTEM.CONST>
0

>  <SCORE.SYSTEM.DIHEDRAL>
0

>  <SCORE.SYSTEM.SOLV>
0

>  <SCORE.SYSTEM.norm>
0

>  <SCORE.heavy>
11

>  <SCORE.norm>
-4.13409

>  <RMSD>
13.575

>  <RMSD>
13.575

$$$$
1akx_lig
 OpenBabel11021811383D
libRbt.so/2013.1/901 2013/11/27
 11 10  0  0  0  0  0  0  0  0999 V2000
  -11.0221    4.2165   -3.9363 N   0  0  0  0  0  0  0  0  0  0  0  0
  -10.0208    4.6716   -2.9271 C   0  0  2  0  0  0  0  0  0  0  0  0
   -8.8326    3.7018   -2.9115 C   0  0  0  0  0  0  0  0  0  0  0  0
   -8.9680    2.5672   -2.4984 O   0  0  0  0  0  0  0  0  0  0  0  0
  -10.6720    4.7138   -1.5381 C   0  0  0  0  0  0  0  0  0  0  0  0
   -9.8367    5.5931   -0.6020 C   0  0  0  0  0  0  0  0  0  0  0  0
  -10.5819    5.7850    0.7189 C   0  0  0  0  0  0  0  0  0  0  0  0
   -9.9276    6.8710    1.5030 N   0  0  0  0  0  0  0  0  0  0  0  0
  -10.6155    7.9185    1.8799 C   0  0  0  0  0  0  0  0  0  0  0  0
  -11.0826    7.9965    3.0994 N   0  0  0  0  0  0  0  0  0  0  0  0
  -10.8309    8.8923    1.0365 N   0  0  0  0  0  0  0  0  0  0  0  0
  2  1  1  6  0  0  0
  2  3  1  0  0  0  0
  2  5  1  0  0  0  0
  3  4  1  0  0  0  0
  5  6  1  0  0  0  0
  6  7  1  0  0  0  0
  7  8  1  0  0  0  0
  8  9  1  0  0  0  0
  9 10  1  0  0  0  0
  9 11  1  0  0  0  0
M  END
>  <CHROM.1>
48.29932587,-68.39598610,-161.42796415,172.47780589,-167.45558289,122.54018119
99.50320589,25.02380482,154.96866810,-10.23389666,5.72396215,-0.57179121
1.33131781,0.94424090,-2.07331974

>  <Name>
1akx_lig

>  <RI>
0

>  <Rbt.Current_Directory>
/home/afrankz/demos/rdock_decoys_rna/rnas/1akx

>  <Rbt.Executable>
rbdock ($Id: //depot/dev/client3/rdock/2013.1/src/exe/rbdock.cxx#4 $)

>  <Rbt.Library>
libRbt.so (2013.1, Build901 2013/11/27)

>  <Rbt.Parameter_File>
/export/apps/rDock/src/rDock_2013.1_src/data/scripts/dock_solv.prm

>  <Rbt.Receptor>
prm/blind_docking_100.prm

>  <SCORE>
-45.475

>  <SCORE.INTER>
-38.636

>  <SCORE.INTER.CONST>
1

>  <SCORE.INTER.POLAR>
-4.89337

>  <SCORE.INTER.ROT>
8

>  <SCORE.INTER.SOLV>
14.3528

>  <SCORE.INTER.VDW>
-23.1637

>  <SCORE.INTER.norm>
-3.51237

>  <SCORE.INTRA>
-6.83893

>  <SCORE.INTRA.DIHEDRAL>
-14.1689

>  <SCORE.INTRA.DIHEDRAL.0>
21.6454

>  <SCORE.INTRA.POLAR>
0

>  <SCORE.INTRA.POLAR.0>
0

>  <SCORE.INTRA.REPUL>
0

>  <SCORE.INTRA.REPUL.0>
0

>  <SCORE.INTRA.SOLV>
0.310367

>  <SCORE.INTRA.SOLV.lig_0>
-16.5947

>  <SCORE.INTRA.VDW>
0.0903228

>  <SCORE.INTRA.VDW.0>
-0.691398

>  <SCORE.INTRA.norm>
-0.621721

>  <SCORE.RESTR>
0

>  <SCORE.RESTR.CAVITY>
0

>  <SCORE.RESTR.norm>
0

>  <SCORE.SYSTEM>
0

>  <SCORE.SYSTEM.CONST>
0

>  <SCORE.SYSTEM.DIHEDRAL>
0

>  <SCORE.SYSTEM.SOLV>
0

>  <SCORE.SYSTEM.norm>
0

>  <SCORE.heavy>
11

>  <SCORE.norm>
-4.13409

>  <RMSD>
13.575

>  <RMSD>
13.575

$$$$
1akx_lig
 OpenBabel11021811383D
libRbt.so/2013.1/901 2013/11/27
 11 10  0  0  0  0  0  0  0  0999 V2000
  -11.2228    4.3840   -3.9498 N   0  0  0  0  0  0  0  0  0  0  0  0
  -10.1338    4.4799   -2.9334 C   0  0  2  0  0  0  0  0  0  0  0  0
   -9.2303    3.2445   -3.0330 C   0  0  0  0  0  0  0  0  0  0  0  0
   -8.1156    3.3323   -3.5082 O   0  0  0  0  0  0  0  0  0  0  0  0
  -10.7462    4.5607   -1.5284 C   0  0  0  0  0  0  0  0  0  0  0  0
   -9.9494    5.5514   -0.6734 C   0  0  0  0  0  0  0  0  0  0  0  0
  -10.6105    5.6895    0.6980 C   0  0  0  0  0  0  0  0  0  0  0  0
   -9.9422    6.7814    1.4618 N   0  0  0  0  0  0  0  0  0  0  0  0
  -10.6187    7.8402    1.8272 C   0  0  0  0  0  0  0  0  0  0  0  0
  -11.1345    7.9111    3.0274 N   0  0  0  0  0  0  0  0  0  0  0  0
  -10.7740    8.8324    0.9921 N   0  0  0  0  0  0  0  0  0  0  0  0
  2  1  1  6  0  0  0
  2  3  1  0  0  0  0
  2  5  1  0  0  0  0
  3  4  1  0  0  0  0
  5  6  1  0  0  0  0
  6  7  1  0  0  0  0
  7  8  1  0  0  0  0
  8  9  1  0  0  0  0
  9 10  1  0  0  0  0
  9 11  1  0  0  0  0
M  END
>  <CHROM.1>
165.81560614,107.06349840,-140.85105205,176.74247950,-172.65665974,117.78984134
96.08921141,27.64852181,157.96964965,-10.23438886,5.70962963,-0.71061226
1.37310640,0.62391475,-2.10627111

>  <Name>
1akx_lig

>  <RI>
0

>  <Rbt.Current_Directory>
/home/itssahil/PROJECTS/Mol_Feturizer/New_Systems/rnas/1akx

>  <Rbt.Executable>
rbdock ($Id: //depot/dev/client3/rdock/2013.1/src/exe/rbdock.cxx#4 $)

>  <Rbt.Library>
libRbt.so (2013.1, Build901 2013/11/27)

>  <Rbt.Parameter_File>
/export/apps/rDock/src/rDock_2013.1_src/data/scripts/dock_solv.prm

>  <Rbt.Receptor>
prm/blind_docking_100.prm

>  <SCORE>
-47.7403

>  <SCORE.INTER>
-44.0942

>  <SCORE.INTER.CONST>
1

>  <SCORE.INTER.POLAR>
-5.92252

>  <SCORE.INTER.ROT>
8

>  <SCORE.INTER.SOLV>
14.7439

>  <SCORE.INTER.VDW>
-23.5023

>  <SCORE.INTER.norm>
-4.00856

>  <SCORE.INTRA>
-4.02203

>  <SCORE.INTRA.DIHEDRAL>
-7.13022

>  <SCORE.INTRA.DIHEDRAL.0>
21.6454

>  <SCORE.INTRA.POLAR>
0

>  <SCORE.INTRA.POLAR.0>
0

>  <SCORE.INTRA.REPUL>
0

>  <SCORE.INTRA.REPUL.0>
0

>  <SCORE.INTRA.SOLV>
0.0572943

>  <SCORE.INTRA.SOLV.lig_0>
-16.5947

>  <SCORE.INTRA.VDW>
-0.485562

>  <SCORE.INTRA.VDW.0>
-0.691398

>  <SCORE.INTRA.norm>
-0.365639

>  <SCORE.RESTR>
0.375916

>  <SCORE.RESTR.CAVITY>
0.375916

>  <SCORE.RESTR.norm>
0.0341742

>  <SCORE.SYSTEM>
0

>  <SCORE.SYSTEM.CONST>
0

>  <SCORE.SYSTEM.DIHEDRAL>
0

>  <SCORE.SYSTEM.SOLV>
0

>  <SCORE.SYSTEM.norm>
0

>  <SCORE.heavy>
11

>  <SCORE.norm>
-4.34003

>  <RMSD>
13.590

$$$$
1akx_lig
 OpenBabel11021811383D
libRbt.so/2013.1/901 2013/11/27
 11 10  0  0  0  0  0  0  0  0999 V2000
   -9.7757    4.7892   -3.5302 N   0  0  0  0  0  0  0  0  0  0  0  0
   -9.9776    3.7977   -2.4328 C   0  0  2  0  0  0  0  0  0  0  0  0
  -10.6048    2.5206   -3.0058 C   0  0  0  0  0  0  0  0  0  0  0  0
  -10.7210    1.5273   -2.3157 O   0  0  0  0  0  0  0  0  0  0  0  0
  -10.9037    4.3938   -1.3640 C   0  0  0  0  0  0  0  0  0  0  0  0
  -10.1555    5.4738   -0.5759 C   0  0  0  0  0  0  0  0  0  0  0  0
  -10.9304    5.8045    0.6997 C   0  0  0  0  0  0  0  0  0  0  0  0
  -10.1899    6.8411    1.4739 N   0  0  0  0  0  0  0  0  0  0  0  0
  -10.7883    7.9477    1.8344 C   0  0  0  0  0  0  0  0  0  0  0  0
  -11.2181    8.0951    3.0611 N   0  0  0  0  0  0  0  0  0  0  0  0
  -10.9510    8.9107    0.9672 N   0  0  0  0  0  0  0  0  0  0  0  0
  2  1  1  6  0  0  0
  2  3  1  0  0  0  0
  2  5  1  0  0  0  0
  3  4  1  0  0  0  0
  5  6  1  0  0  0  0
  6  7  1  0  0  0  0
  7  8  1  0  0  0  0
  8  9  1  0  0  0  0
  9 10  1  0  0  0  0
  9 11  1  0  0  0  0
M  END
>  <CHROM.1>
-116.70313789,171.89471864,-72.31540016,-165.31702366,179.18159358,125.85821584
101.46136344,-69.31833304,149.08285808,-10.56124195,5.49016907,-0.48139632
-1.29945363,1.29411277,0.49113959

>  <Name>
1akx_lig

>  <RI>
0

>  <Rbt.Current_Directory>
/home/itssahil/PROJECTS/Mol_Feturizer/New_Systems/rnas/1akx

>  <Rbt.Executable>
rbdock ($Id: //depot/dev/client3/rdock/2013.1/src/exe/rbdock.cxx#4 $)

>  <Rbt.Library>
libRbt.so (2013.1, Build901 2013/11/27)

>  <Rbt.Parameter_File>
/export/apps/rDock/src/rDock_2013.1_src/data/scripts/dock_solv.prm

>  <Rbt.Receptor>
prm/blind_docking_40.prm

>  <SCORE>
-38.5778

>  <SCORE.INTER>
-33.6099

>  <SCORE.INTER.CONST>
1

>  <SCORE.INTER.POLAR>
-5.00059

>  <SCORE.INTER.ROT>
8

>  <SCORE.INTER.SOLV>
12.5145

>  <SCORE.INTER.VDW>
-18.8428

>  <SCORE.INTER.norm>
-3.05544

>  <SCORE.INTRA>
-4.96791

>  <SCORE.INTRA.DIHEDRAL>
-11.5774

>  <SCORE.INTRA.DIHEDRAL.0>
21.6454

>  <SCORE.INTRA.POLAR>
0

>  <SCORE.INTRA.POLAR.0>
0

>  <SCORE.INTRA.REPUL>
0

>  <SCORE.INTRA.REPUL.0>
0

>  <SCORE.INTRA.SOLV>
0.00117072

>  <SCORE.INTRA.SOLV.lig_0>
-16.5947

>  <SCORE.INTRA.VDW>
0.82019

>  <SCORE.INTRA.VDW.0>
-0.691398

>  <SCORE.INTRA.norm>
-0.451629

>  <SCORE.RESTR>
0

>  <SCORE.RESTR.CAVITY>
0

>  <SCORE.RESTR.norm>
0

>  <SCORE.SYSTEM>
0

>  <SCORE.SYSTEM.CONST>
0

>  <SCORE.SYSTEM.DIHEDRAL>
0

>  <SCORE.SYSTEM.SOLV>
0

>  <SCORE.SYSTEM.norm>
0

>  <SCORE.heavy>
11

>  <SCORE.norm>
-3.50707

>  <RMSD>
13.593

$$$$
1akx_lig
 OpenBabel11021811383D
libRbt.so/2013.1/901 2013/11/27
 11 10  0  0  0  0  0  0  0  0999 V2000
  -10.7686    4.5260   -3.8561 N   0  0  0  0  0  0  0  0  0  0  0  0
  -10.3777    3.6089   -2.7451 C   0  0  2  0  0  0  0  0  0  0  0  0
  -10.7881    2.1736   -3.0977 C   0  0  0  0  0  0  0  0  0  0  0  0
  -10.2072    1.5635   -3.9732 O   0  0  0  0  0  0  0  0  0  0  0  0
  -11.0760    4.0427   -1.4491 C   0  0  0  0  0  0  0  0  0  0  0  0
  -10.3672    5.2693   -0.8656 C   0  0  0  0  0  0  0  0  0  0  0  0
  -10.8636    5.5165    0.5589 C   0  0  0  0  0  0  0  0  0  0  0  0
  -10.2528    6.7703    1.0852 N   0  0  0  0  0  0  0  0  0  0  0  0
  -11.0136    7.7530    1.4950 C   0  0  0  0  0  0  0  0  0  0  0  0
  -10.5981    8.9902    1.4045 N   0  0  0  0  0  0  0  0  0  0  0  0
  -12.1949    7.4973    1.9902 N   0  0  0  0  0  0  0  0  0  0  0  0
  2  1  1  6  0  0  0
  2  3  1  0  0  0  0
  2  5  1  0  0  0  0
  3  4  1  0  0  0  0
  5  6  1  0  0  0  0
  6  7  1  0  0  0  0
  7  8  1  0  0  0  0
  8  9  1  0  0  0  0
  9 10  1  0  0  0  0
  9 11  1  0  0  0  0
M  END
>  <CHROM.1>
72.55805966,70.43298925,-76.93217825,-167.92526596,-175.61429350,122.24276515
-150.17129497,-140.88996342,-82.76042258,-10.77884822,5.27514909,-0.88352841
-1.29259607,1.29793301,0.50571247

>  <Name>
1akx_lig

>  <RI>
0

>  <Rbt.Current_Directory>
/home/itssahil/PROJECTS/Mol_Feturizer/New_Systems/rnas/1akx

>  <Rbt.Executable>
rbdock ($Id: //depot/dev/client3/rdock/2013.1/src/exe/rbdock.cxx#4 $)

>  <Rbt.Library>
libRbt.so (2013.1, Build901 2013/11/27)

>  <Rbt.Parameter_File>
/export/apps/rDock/src/rDock_2013.1_src/data/scripts/dock_solv.prm

>  <Rbt.Receptor>
prm/blind_docking_80.prm

>  <SCORE>
-38.1396

>  <SCORE.INTER>
-31.2263

>  <SCORE.INTER.CONST>
1

>  <SCORE.INTER.POLAR>
-4.64926

>  <SCORE.INTER.ROT>
8

>  <SCORE.INTER.SOLV>
12.1644

>  <SCORE.INTER.VDW>
-18.3081

>  <SCORE.INTER.norm>
-2.83875

>  <SCORE.INTRA>
-7.01023

>  <SCORE.INTRA.DIHEDRAL>
-14.3381

>  <SCORE.INTRA.DIHEDRAL.0>
21.6454

>  <SCORE.INTRA.POLAR>
0

>  <SCORE.INTRA.POLAR.0>
0

>  <SCORE.INTRA.REPUL>
0

>  <SCORE.INTRA.REPUL.0>
0

>  <SCORE.INTRA.SOLV>
0.150037

>  <SCORE.INTRA.SOLV.lig_0>
-16.5947

>  <SCORE.INTRA.VDW>
0.0838217

>  <SCORE.INTRA.VDW.0>
-0.691398

>  <SCORE.INTRA.norm>
-0.637294

>  <SCORE.RESTR>
0.0969028

>  <SCORE.RESTR.CAVITY>
0.0969028

>  <SCORE.RESTR.norm>
0.00880935

>  <SCORE.SYSTEM>
0

>  <SCORE.SYSTEM.CONST>
0

>  <SCORE.SYSTEM.DIHEDRAL>
0

>  <SCORE.SYSTEM.SOLV>
0

>  <SCORE.SYSTEM.norm>
0

>  <SCORE.heavy>
11

>  <SCORE.norm>
-3.46724

>  <RMSD>
13.595

$$$$
1akx_lig
 OpenBabel11021811383D
libRbt.so/2013.1/901 2013/11/27
 11 10  0  0  0  0  0  0  0  0999 V2000
  -11.0372    4.0239   -3.9190 N   0  0  0  0  0  0  0  0  0  0  0  0
  -10.1372    4.5272   -2.8396 C   0  0  2  0  0  0  0  0  0  0  0  0
   -8.8085    3.7621   -2.8828 C   0  0  0  0  0  0  0  0  0  0  0  0
   -8.1726    3.6884   -3.9155 O   0  0  0  0  0  0  0  0  0  0  0  0
  -10.8069    4.3234   -1.4738 C   0  0  0  0  0  0  0  0  0  0  0  0
  -10.5347    5.5366   -0.5785 C   0  0  0  0  0  0  0  0  0  0  0  0
  -11.0364    5.2499    0.8367 C   0  0  0  0  0  0  0  0  0  0  0  0
  -11.7460    6.4506    1.3630 N   0  0  0  0  0  0  0  0  0  0  0  0
  -11.1372    7.6079    1.4113 C   0  0  0  0  0  0  0  0  0  0  0  0
  -11.7745    8.7021    1.0827 N   0  0  0  0  0  0  0  0  0  0  0  0
   -9.8903    7.6709    1.7951 N   0  0  0  0  0  0  0  0  0  0  0  0
  2  1  1  6  0  0  0
  2  3  1  0  0  0  0
  2  5  1  0  0  0  0
  3  4  1  0  0  0  0
  5  6  1  0  0  0  0
  6  7  1  0  0  0  0
  7  8  1  0  0  0  0
  8  9  1  0  0  0  0
  9 10  1  0  0  0  0
  9 11  1  0  0  0  0
M  END
>  <CHROM.1>
178.07564020,52.99908991,-140.40794645,-172.30441932,-136.84739873,-56.32742993
138.99248109,-147.56461059,106.13861615,-10.46628382,5.60850430,-0.85864523
1.30742569,0.02546136,-2.21016520

>  <Name>
1akx_lig

>  <RI>
0

>  <Rbt.Current_Directory>
/home/itssahil/PROJECTS/Mol_Feturizer/New_Systems/rnas/1akx

>  <Rbt.Executable>
rbdock ($Id: //depot/dev/client3/rdock/2013.1/src/exe/rbdock.cxx#4 $)

>  <Rbt.Library>
libRbt.so (2013.1, Build901 2013/11/27)

>  <Rbt.Parameter_File>
/export/apps/rDock/src/rDock_2013.1_src/data/scripts/dock_solv.prm

>  <Rbt.Receptor>
prm/blind_docking_40.prm

>  <SCORE>
-42.4747

>  <SCORE.INTER>
-39.6466

>  <SCORE.INTER.CONST>
1

>  <SCORE.INTER.POLAR>
-5.90032

>  <SCORE.INTER.ROT>
8

>  <SCORE.INTER.SOLV>
13.1975

>  <SCORE.INTER.VDW>
-20.0959

>  <SCORE.INTER.norm>
-3.60424

>  <SCORE.INTRA>
-3.03463

>  <SCORE.INTRA.DIHEDRAL>
-7.55076

>  <SCORE.INTRA.DIHEDRAL.0>
21.6454

>  <SCORE.INTRA.POLAR>
0

>  <SCORE.INTRA.POLAR.0>
0

>  <SCORE.INTRA.REPUL>
0

>  <SCORE.INTRA.REPUL.0>
0

>  <SCORE.INTRA.SOLV>
0.415483

>  <SCORE.INTRA.SOLV.lig_0>
-16.5947

>  <SCORE.INTRA.VDW>
0.533014

>  <SCORE.INTRA.VDW.0>
-0.691398

>  <SCORE.INTRA.norm>
-0.275875

>  <SCORE.RESTR>
0.206562

>  <SCORE.RESTR.CAVITY>
0.206562

>  <SCORE.RESTR.norm>
0.0187784

>  <SCORE.SYSTEM>
0

>  <SCORE.SYSTEM.CONST>
0

>  <SCORE.SYSTEM.DIHEDRAL>
0

>  <SCORE.SYSTEM.SOLV>
0

>  <SCORE.SYSTEM.norm>
0

>  <SCORE.heavy>
11

>  <SCORE.norm>
-3.86134

>  <RMSD>
13.597

$$$$
1akx_lig
 OpenBabel11021811383D
libRbt.so/2013.1/901 2013/11/27
 11 10  0  0  0  0  0  0  0  0999 V2000
   -9.7142    6.7374    1.9202 N   0  0  0  0  0  0  0  0  0  0  0  0
  -10.7788    7.2136    0.9885 C   0  0  2  0  0  0  0  0  0  0  0  0
  -11.4179    8.4896    1.5507 C   0  0  0  0  0  0  0  0  0  0  0  0
  -10.7611    9.2681    2.2129 O   0  0  0  0  0  0  0  0  0  0  0  0
  -11.8495    6.1255    0.8305 C   0  0  0  0  0  0  0  0  0  0  0  0
  -11.2656    4.9326    0.0667 C   0  0  0  0  0  0  0  0  0  0  0  0
  -11.1992    5.2636   -1.4242 C   0  0  0  0  0  0  0  0  0  0  0  0
   -9.8360    4.9514   -1.9403 N   0  0  0  0  0  0  0  0  0  0  0  0
   -9.6671    4.0010   -2.8239 C   0  0  0  0  0  0  0  0  0  0  0  0
   -8.6077    3.2352   -2.7739 N   0  0  0  0  0  0  0  0  0  0  0  0
  -10.5632    3.8129   -3.7554 N   0  0  0  0  0  0  0  0  0  0  0  0
  2  1  1  1  0  0  0
  2  3  1  0  0  0  0
  2  5  1  0  0  0  0
  3  4  1  0  0  0  0
  5  6  1  0  0  0  0
  6  7  1  0  0  0  0
  7  8  1  0  0  0  0
  8  9  1  0  0  0  0
  9 10  1  0  0  0  0
  9 11  1  0  0  0  0
M  END
>  <CHROM.1>
29.27383096,31.73248319,-68.69004368,-77.22692341,130.15351669,114.63484398
-143.02176354,-6.02564471,95.61621787,-10.46918221,5.81723736,-0.46151916
-1.74882254,0.23900243,-2.25768089

>  <Name>
1akx_lig

>  <RI>
0

>  <Rbt.Current_Directory>
/home/itssahil/PROJECTS/Mol_Feturizer/New_Systems/rnas/1akx

>  <Rbt.Executable>
rbdock ($Id: //depot/dev/client3/rdock/2013.1/src/exe/rbdock.cxx#4 $)

>  <Rbt.Library>
libRbt.so (2013.1, Build901 2013/11/27)

>  <Rbt.Parameter_File>
/export/apps/rDock/src/rDock_2013.1_src/data/scripts/dock_solv.prm

>  <Rbt.Receptor>
prm/blind_docking_40.prm

>  <SCORE>
-39.2814

>  <SCORE.INTER>
-37.6124

>  <SCORE.INTER.CONST>
1

>  <SCORE.INTER.POLAR>
-5.58058

>  <SCORE.INTER.ROT>
8

>  <SCORE.INTER.SOLV>
13.6224

>  <SCORE.INTER.VDW>
-19.9471

>  <SCORE.INTER.norm>
-3.4193

>  <SCORE.INTRA>
-1.72302

>  <SCORE.INTRA.DIHEDRAL>
-5.97319

>  <SCORE.INTRA.DIHEDRAL.0>
21.6454

>  <SCORE.INTRA.POLAR>
0

>  <SCORE.INTRA.POLAR.0>
0

>  <SCORE.INTRA.REPUL>
0

>  <SCORE.INTRA.REPUL.0>
0

>  <SCORE.INTRA.SOLV>
0.619724

>  <SCORE.INTRA.SOLV.lig_0>
-16.5947

>  <SCORE.INTRA.VDW>
0.953711

>  <SCORE.INTRA.VDW.0>
-0.691398

>  <SCORE.INTRA.norm>
-0.156638

>  <SCORE.RESTR>
0.0539505

>  <SCORE.RESTR.CAVITY>
0.0539505

>  <SCORE.RESTR.norm>
0.00490459

>  <SCORE.SYSTEM>
0

>  <SCORE.SYSTEM.CONST>
0

>  <SCORE.SYSTEM.DIHEDRAL>
0

>  <SCORE.SYSTEM.SOLV>
0

>  <SCORE.SYSTEM.norm>
0

>  <SCORE.heavy>
11

>  <SCORE.norm>
-3.57104

>  <RMSD>
13.602

$$$$
1akx_lig
 OpenBabel11021811383D
libRbt.so/2013.1/901 2013/11/27
 11 10  0  0  0  0  0  0  0  0999 V2000
   -9.6314    6.3993    0.0237 N   0  0  0  0  0  0  0  0  0  0  0  0
  -11.0387    6.7703    0.3552 C   0  0  2  0  0  0  0  0  0  0  0  0
  -11.1024    7.3051    1.7914 C   0  0  0  0  0  0  0  0  0  0  0  0
  -10.4528    8.2791    2.1162 O   0  0  0  0  0  0  0  0  0  0  0  0
  -11.9417    5.5365    0.2225 C   0  0  0  0  0  0  0  0  0  0  0  0
  -12.6208    5.5381   -1.1508 C   0  0  0  0  0  0  0  0  0  0  0  0
  -12.6212    4.1203   -1.7223 C   0  0  0  0  0  0  0  0  0  0  0  0
  -11.2190    3.6217   -1.8100 N   0  0  0  0  0  0  0  0  0  0  0  0
  -10.4115    4.0829   -2.7306 C   0  0  0  0  0  0  0  0  0  0  0  0
   -9.1190    4.0929   -2.5287 N   0  0  0  0  0  0  0  0  0  0  0  0
  -10.8980    4.5290   -3.8576 N   0  0  0  0  0  0  0  0  0  0  0  0
  2  1  1  1  0  0  0
  2  3  1  0  0  0  0
  2  5  1  0  0  0  0
  3  4  1  0  0  0  0
  5  6  1  0  0  0  0
  6  7  1  0  0  0  0
  7  8  1  0  0  0  0
  8  9  1  0  0  0  0
  9 10  1  0  0  0  0
  9 11  1  0  0  0  0
M  END
>  <CHROM.1>
61.81872680,59.28811311,-96.85338597,138.58601348,-57.66814891,-73.50208950
152.82412053,17.15178683,146.19644989,-10.94130460,5.48754959,-0.85388270
-1.56321550,-0.17792022,-2.23449349

>  <Name>
1akx_lig

>  <RI>
0

>  <Rbt.Current_Directory>
/home/itssahil/PROJECTS/Mol_Feturizer/New_Systems/rnas/1akx

>  <Rbt.Executable>
rbdock ($Id: //depot/dev/client3/rdock/2013.1/src/exe/rbdock.cxx#4 $)

>  <Rbt.Library>
libRbt.so (2013.1, Build901 2013/11/27)

>  <Rbt.Parameter_File>
/export/apps/rDock/src/rDock_2013.1_src/data/scripts/dock_solv.prm

>  <Rbt.Receptor>
prm/blind_docking_80.prm

>  <SCORE>
-38.3186

>  <SCORE.INTER>
-34.8627

>  <SCORE.INTER.CONST>
1

>  <SCORE.INTER.POLAR>
-6.08115

>  <SCORE.INTER.ROT>
8

>  <SCORE.INTER.SOLV>
11.1514

>  <SCORE.INTER.VDW>
-15.6217

>  <SCORE.INTER.norm>
-3.16933

>  <SCORE.INTRA>
-3.47213

>  <SCORE.INTRA.DIHEDRAL>
-8.05373

>  <SCORE.INTRA.DIHEDRAL.0>
21.6454

>  <SCORE.INTRA.POLAR>
0

>  <SCORE.INTRA.POLAR.0>
0

>  <SCORE.INTRA.REPUL>
0

>  <SCORE.INTRA.REPUL.0>
0

>  <SCORE.INTRA.SOLV>
1.70367

>  <SCORE.INTRA.SOLV.lig_0>
-16.5947

>  <SCORE.INTRA.VDW>
-0.297105

>  <SCORE.INTRA.VDW.0>
-0.691398

>  <SCORE.INTRA.norm>
-0.315649

>  <SCORE.RESTR>
0.0161645

>  <SCORE.RESTR.CAVITY>
0.0161645

>  <SCORE.RESTR.norm>
0.0014695

>  <SCORE.SYSTEM>
0

>  <SCORE.SYSTEM.CONST>
0

>  <SCORE.SYSTEM.DIHEDRAL>
0

>  <SCORE.SYSTEM.SOLV>
0

>  <SCORE.SYSTEM.norm>
0

>  <SCORE.heavy>
11

>  <SCORE.norm>
-3.48351

>  <RMSD>
13.604

$$$$
1akx_lig
 OpenBabel11021811383D
libRbt.so/2013.1/901 2013/11/27
 11 10  0  0  0  0  0  0  0  0999 V2000
  -10.8686    4.4154   -4.1172 N   0  0  0  0  0  0  0  0  0  0  0  0
  -10.1531    3.8678   -2.9271 C   0  0  2  0  0  0  0  0  0  0  0  0
  -10.0660    2.3406   -3.0401 C   0  0  0  0  0  0  0  0  0  0  0  0
  -11.0617    1.6809   -3.2629 O   0  0  0  0  0  0  0  0  0  0  0  0
  -10.9123    4.2492   -1.6490 C   0  0  0  0  0  0  0  0  0  0  0  0
  -10.1331    5.3258   -0.8867 C   0  0  0  0  0  0  0  0  0  0  0  0
  -10.9505    5.7911    0.3184 C   0  0  0  0  0  0  0  0  0  0  0  0
  -10.1284    6.7197    1.1453 N   0  0  0  0  0  0  0  0  0  0  0  0
  -10.6508    7.8247    1.6126 C   0  0  0  0  0  0  0  0  0  0  0  0
  -10.7994    8.8647    0.8331 N   0  0  0  0  0  0  0  0  0  0  0  0
  -11.0311    7.8868    2.8606 N   0  0  0  0  0  0  0  0  0  0  0  0
  2  1  1  6  0  0  0
  2  3  1  0  0  0  0
  2  5  1  0  0  0  0
  3  4  1  0  0  0  0
  5  6  1  0  0  0  0
  6  7  1  0  0  0  0
  7  8  1  0  0  0  0
  8  9  1  0  0  0  0
  9 10  1  0  0  0  0
  9 11  1  0  0  0  0
M  END
>  <CHROM.1>
-146.19195288,-51.17045347,-107.68995670,175.02482622,173.49053192,135.86216278
-78.25822028,145.72924444,-140.98173060,-10.63116702,5.38100999,-0.84496053
1.08973158,1.53689983,-1.86720190

>  <Name>
1akx_lig

>  <RI>
0

>  <Rbt.Current_Directory>
/home/itssahil/PROJECTS/Mol_Feturizer/New_Systems/rnas/1akx

>  <Rbt.Executable>
rbdock ($Id: //depot/dev/client3/rdock/2013.1/src/exe/rbdock.cxx#4 $)

>  <Rbt.Library>
libRbt.so (2013.1, Build901 2013/11/27)

>  <Rbt.Parameter_File>
/export/apps/rDock/src/rDock_2013.1_src/data/scripts/dock_solv.prm

>  <Rbt.Receptor>
prm/blind_docking_80.prm

>  <SCORE>
-39.6467

>  <SCORE.INTER>
-35.8748

>  <SCORE.INTER.CONST>
1

>  <SCORE.INTER.POLAR>
-4.9829

>  <SCORE.INTER.ROT>
8

>  <SCORE.INTER.SOLV>
13.2139

>  <SCORE.INTER.VDW>
-20.6448

>  <SCORE.INTER.norm>
-3.26134

>  <SCORE.INTRA>
-4.11347

>  <SCORE.INTRA.DIHEDRAL>
-8.86415

>  <SCORE.INTRA.DIHEDRAL.0>
21.6454

>  <SCORE.INTRA.POLAR>
0

>  <SCORE.INTRA.POLAR.0>
0

>  <SCORE.INTRA.REPUL>
0

>  <SCORE.INTRA.REPUL.0>
0

>  <SCORE.INTRA.SOLV>
0.257474

>  <SCORE.INTRA.SOLV.lig_0>
-16.5947

>  <SCORE.INTRA.VDW>
0.189871

>  <SCORE.INTRA.VDW.0>
-0.691398

>  <SCORE.INTRA.norm>
-0.373952

>  <SCORE.RESTR>
0.341531

>  <SCORE.RESTR.CAVITY>
0.341531

>  <SCORE.RESTR.norm>
0.0310483

>  <SCORE.SYSTEM>
0

>  <SCORE.SYSTEM.CONST>
0

>  <SCORE.SYSTEM.DIHEDRAL>
0

>  <SCORE.SYSTEM.SOLV>
0

>  <SCORE.SYSTEM.norm>
0

>  <SCORE.heavy>
11

>  <SCORE.norm>
-3.60425

>  <RMSD>
13.609

$$$$
1akx_lig
 OpenBabel11021811383D
libRbt.so/2013.1/901 2013/11/27
 11 10  0  0  0  0  0  0  0  0999 V2000
  -10.9914    4.3155   -3.9685 N   0  0  0  0  0  0  0  0  0  0  0  0
   -9.9952    4.7143   -2.9309 C   0  0  2  0  0  0  0  0  0  0  0  0
   -8.8105    3.7404   -2.9575 C   0  0  0  0  0  0  0  0  0  0  0  0
   -8.1485    3.6019   -3.9669 O   0  0  0  0  0  0  0  0  0  0  0  0
  -10.6554    4.6875   -1.5457 C   0  0  0  0  0  0  0  0  0  0  0  0
   -9.8366    5.5348   -0.5663 C   0  0  0  0  0  0  0  0  0  0  0  0
  -10.6140    5.7004    0.7395 C   0  0  0  0  0  0  0  0  0  0  0  0
   -9.9370    6.7182    1.5928 N   0  0  0  0  0  0  0  0  0  0  0  0
  -10.6322    7.6701    2.1611 C   0  0  0  0  0  0  0  0  0  0  0  0
  -10.7458    8.8382    1.5832 N   0  0  0  0  0  0  0  0  0  0  0  0
  -11.2200    7.4503    3.3066 N   0  0  0  0  0  0  0  0  0  0  0  0
  2  1  1  6  0  0  0
  2  3  1  0  0  0  0
  2  5  1  0  0  0  0
  3  4  1  0  0  0  0
  5  6  1  0  0  0  0
  6  7  1  0  0  0  0
  7  8  1  0  0  0  0
  8  9  1  0  0  0  0
  9 10  1  0  0  0  0
  9 11  1  0  0  0  0
M  END
>  <CHROM.1>
171.05541538,59.37530403,-160.42701390,170.50585286,-169.86581729,132.71348318
-94.87949157,-3.04795914,-129.81344391,-10.15453492,5.73502270,-0.61461867
1.36809530,0.42720813,-2.04985321

>  <Name>
1akx_lig

>  <RI>
0

>  <Rbt.Current_Directory>
/home/afrankz/demos/rdock_decoys_rna/rnas/1akx

>  <Rbt.Executable>
rbdock ($Id: //depot/dev/client3/rdock/2013.1/src/exe/rbdock.cxx#4 $)

>  <Rbt.Library>
libRbt.so (2013.1, Build901 2013/11/27)

>  <Rbt.Parameter_File>
/export/apps/rDock/src/rDock_2013.1_src/data/scripts/dock_solv.prm

>  <Rbt.Receptor>
prm/blind_docking_60.prm

>  <SCORE>
-49.4227

>  <SCORE.INTER>
-42.5099

>  <SCORE.INTER.CONST>
1

>  <SCORE.INTER.POLAR>
-5.93838

>  <SCORE.INTER.ROT>
8

>  <SCORE.INTER.SOLV>
14.4148

>  <SCORE.INTER.VDW>
-22.2836

>  <SCORE.INTER.norm>
-3.86454

>  <SCORE.INTRA>
-7.27881

>  <SCORE.INTRA.DIHEDRAL>
-14.4891

>  <SCORE.INTRA.DIHEDRAL.0>
21.6454

>  <SCORE.INTRA.POLAR>
0

>  <SCORE.INTRA.POLAR.0>
0

>  <SCORE.INTRA.REPUL>
0

>  <SCORE.INTRA.REPUL.0>
0

>  <SCORE.INTRA.SOLV>
0.144404

>  <SCORE.INTRA.SOLV.lig_0>
-16.5947

>  <SCORE.INTRA.VDW>
-0.106471

>  <SCORE.INTRA.VDW.0>
-0.691398

>  <SCORE.INTRA.norm>
-0.66171

>  <SCORE.RESTR>
0.366065

>  <SCORE.RESTR.CAVITY>
0.366065

>  <SCORE.RESTR.norm>
0.0332786

>  <SCORE.SYSTEM>
0

>  <SCORE.SYSTEM.CONST>
0

>  <SCORE.SYSTEM.DIHEDRAL>
0

>  <SCORE.SYSTEM.SOLV>
0

>  <SCORE.SYSTEM.norm>
0

>  <SCORE.heavy>
11

>  <SCORE.norm>
-4.49297

>  <RMSD>
13.614

>  <RMSD>
13.614

$$$$
1akx_lig
 OpenBabel11021811383D
libRbt.so/2013.1/901 2013/11/27
 11 10  0  0  0  0  0  0  0  0999 V2000
  -10.9914    4.3155   -3.9685 N   0  0  0  0  0  0  0  0  0  0  0  0
   -9.9952    4.7143   -2.9309 C   0  0  2  0  0  0  0  0  0  0  0  0
   -8.8105    3.7404   -2.9575 C   0  0  0  0  0  0  0  0  0  0  0  0
   -8.1485    3.6019   -3.9669 O   0  0  0  0  0  0  0  0  0  0  0  0
  -10.6554    4.6875   -1.5457 C   0  0  0  0  0  0  0  0  0  0  0  0
   -9.8366    5.5348   -0.5663 C   0  0  0  0  0  0  0  0  0  0  0  0
  -10.6140    5.7004    0.7395 C   0  0  0  0  0  0  0  0  0  0  0  0
   -9.9370    6.7182    1.5928 N   0  0  0  0  0  0  0  0  0  0  0  0
  -10.6322    7.6701    2.1611 C   0  0  0  0  0  0  0  0  0  0  0  0
  -10.7458    8.8382    1.5832 N   0  0  0  0  0  0  0  0  0  0  0  0
  -11.2200    7.4503    3.3066 N   0  0  0  0  0  0  0  0  0  0  0  0
  2  1  1  6  0  0  0
  2  3  1  0  0  0  0
  2  5  1  0  0  0  0
  3  4  1  0  0  0  0
  5  6  1  0  0  0  0
  6  7  1  0  0  0  0
  7  8  1  0  0  0  0
  8  9  1  0  0  0  0
  9 10  1  0  0  0  0
  9 11  1  0  0  0  0
M  END
>  <CHROM.1>
171.05541538,59.37530403,-160.42701390,170.50585286,-169.86581729,132.71348318
-94.87949157,-3.04795914,-129.81344391,-10.15453492,5.73502270,-0.61461867
1.36809530,0.42720813,-2.04985321

>  <Name>
1akx_lig

>  <RI>
0

>  <Rbt.Current_Directory>
/home/afrankz/demos/rdock_decoys_rna/rnas/1akx

>  <Rbt.Executable>
rbdock ($Id: //depot/dev/client3/rdock/2013.1/src/exe/rbdock.cxx#4 $)

>  <Rbt.Library>
libRbt.so (2013.1, Build901 2013/11/27)

>  <Rbt.Parameter_File>
/export/apps/rDock/src/rDock_2013.1_src/data/scripts/dock_solv.prm

>  <Rbt.Receptor>
prm/blind_docking_60.prm

>  <SCORE>
-49.4227

>  <SCORE.INTER>
-42.5099

>  <SCORE.INTER.CONST>
1

>  <SCORE.INTER.POLAR>
-5.93838

>  <SCORE.INTER.ROT>
8

>  <SCORE.INTER.SOLV>
14.4148

>  <SCORE.INTER.VDW>
-22.2836

>  <SCORE.INTER.norm>
-3.86454

>  <SCORE.INTRA>
-7.27881

>  <SCORE.INTRA.DIHEDRAL>
-14.4891

>  <SCORE.INTRA.DIHEDRAL.0>
21.6454

>  <SCORE.INTRA.POLAR>
0

>  <SCORE.INTRA.POLAR.0>
0

>  <SCORE.INTRA.REPUL>
0

>  <SCORE.INTRA.REPUL.0>
0

>  <SCORE.INTRA.SOLV>
0.144404

>  <SCORE.INTRA.SOLV.lig_0>
-16.5947

>  <SCORE.INTRA.VDW>
-0.106471

>  <SCORE.INTRA.VDW.0>
-0.691398

>  <SCORE.INTRA.norm>
-0.66171

>  <SCORE.RESTR>
0.366065

>  <SCORE.RESTR.CAVITY>
0.366065

>  <SCORE.RESTR.norm>
0.0332786

>  <SCORE.SYSTEM>
0

>  <SCORE.SYSTEM.CONST>
0

>  <SCORE.SYSTEM.DIHEDRAL>
0

>  <SCORE.SYSTEM.SOLV>
0

>  <SCORE.SYSTEM.norm>
0

>  <SCORE.heavy>
11

>  <SCORE.norm>
-4.49297

>  <RMSD>
13.614

>  <RMSD>
13.614

$$$$
1akx_lig
 OpenBabel11021811383D
libRbt.so/2013.1/901 2013/11/27
 11 10  0  0  0  0  0  0  0  0999 V2000
   -9.5927    6.9544    1.5057 N   0  0  0  0  0  0  0  0  0  0  0  0
  -10.7668    6.7124    0.6162 C   0  0  2  0  0  0  0  0  0  0  0  0
  -12.0183    7.3461    1.2367 C   0  0  0  0  0  0  0  0  0  0  0  0
  -12.0788    8.5467    1.4131 O   0  0  0  0  0  0  0  0  0  0  0  0
  -10.9820    5.2023    0.4466 C   0  0  0  0  0  0  0  0  0  0  0  0
  -11.7952    4.9355   -0.8241 C   0  0  0  0  0  0  0  0  0  0  0  0
  -11.9774    3.4288   -1.0071 C   0  0  0  0  0  0  0  0  0  0  0  0
  -12.0017    3.1064   -2.4623 N   0  0  0  0  0  0  0  0  0  0  0  0
  -11.0873    3.5942   -3.2612 C   0  0  0  0  0  0  0  0  0  0  0  0
   -9.9374    2.9853   -3.3966 N   0  0  0  0  0  0  0  0  0  0  0  0
  -11.3268    4.6900   -3.9306 N   0  0  0  0  0  0  0  0  0  0  0  0
  2  1  1  1  0  0  0
  2  3  1  0  0  0  0
  2  5  1  0  0  0  0
  3  4  1  0  0  0  0
  5  6  1  0  0  0  0
  6  7  1  0  0  0  0
  7  8  1  0  0  0  0
  8  9  1  0  0  0  0
  9 10  1  0  0  0  0
  9 11  1  0  0  0  0
M  END
>  <CHROM.1>
-111.41583425,62.34252730,-158.79476476,178.61744893,-146.93186220,48.01888324
84.88186942,74.57701073,168.90326287,-11.20170835,5.25336708,-0.88138354
-1.58325773,0.26600762,-2.29900784

>  <Name>
1akx_lig

>  <RI>
0

>  <Rbt.Current_Directory>
/home/itssahil/PROJECTS/Mol_Feturizer/New_Systems/rnas/1akx

>  <Rbt.Executable>
rbdock ($Id: //depot/dev/client3/rdock/2013.1/src/exe/rbdock.cxx#4 $)

>  <Rbt.Library>
libRbt.so (2013.1, Build901 2013/11/27)

>  <Rbt.Parameter_File>
/export/apps/rDock/src/rDock_2013.1_src/data/scripts/dock_solv.prm

>  <Rbt.Receptor>
prm/blind_docking_80.prm

>  <SCORE>
-24.3951

>  <SCORE.INTER>
-22.2471

>  <SCORE.INTER.CONST>
1

>  <SCORE.INTER.POLAR>
-3.13216

>  <SCORE.INTER.ROT>
8

>  <SCORE.INTER.SOLV>
11.5744

>  <SCORE.INTER.VDW>
-17.1824

>  <SCORE.INTER.norm>
-2.02247

>  <SCORE.INTRA>
-2.14794

>  <SCORE.INTRA.DIHEDRAL>
-8.56107

>  <SCORE.INTRA.DIHEDRAL.0>
21.6454

>  <SCORE.INTRA.POLAR>
0

>  <SCORE.INTRA.POLAR.0>
0

>  <SCORE.INTRA.REPUL>
0

>  <SCORE.INTRA.REPUL.0>
0

>  <SCORE.INTRA.SOLV>
0.477014

>  <SCORE.INTRA.SOLV.lig_0>
-16.5947

>  <SCORE.INTRA.VDW>
1.89409

>  <SCORE.INTRA.VDW.0>
-0.691398

>  <SCORE.INTRA.norm>
-0.195267

>  <SCORE.RESTR>
0

>  <SCORE.RESTR.CAVITY>
0

>  <SCORE.RESTR.norm>
0

>  <SCORE.SYSTEM>
0

>  <SCORE.SYSTEM.CONST>
0

>  <SCORE.SYSTEM.DIHEDRAL>
0

>  <SCORE.SYSTEM.SOLV>
0

>  <SCORE.SYSTEM.norm>
0

>  <SCORE.heavy>
11

>  <SCORE.norm>
-2.21773

>  <RMSD>
13.619

$$$$
1akx_lig
 OpenBabel11021811383D
libRbt.so/2013.1/901 2013/11/27
 11 10  0  0  0  0  0  0  0  0999 V2000
   -9.8684    7.3274    1.6601 N   0  0  0  0  0  0  0  0  0  0  0  0
  -11.1794    7.3631    0.9473 C   0  0  2  0  0  0  0  0  0  0  0  0
  -12.2900    7.7377    1.9367 C   0  0  0  0  0  0  0  0  0  0  0  0
  -12.2954    8.8273    2.4742 O   0  0  0  0  0  0  0  0  0  0  0  0
  -11.4725    5.9850    0.3386 C   0  0  0  0  0  0  0  0  0  0  0  0
  -10.3184    5.5692   -0.5792 C   0  0  0  0  0  0  0  0  0  0  0  0
  -10.8744    5.1411   -1.9373 C   0  0  0  0  0  0  0  0  0  0  0  0
   -9.7448    4.8691   -2.8711 N   0  0  0  0  0  0  0  0  0  0  0  0
   -9.4179    3.6376   -3.1697 C   0  0  0  0  0  0  0  0  0  0  0  0
  -10.0358    3.0073   -4.1352 N   0  0  0  0  0  0  0  0  0  0  0  0
   -8.4667    3.0384   -2.5049 N   0  0  0  0  0  0  0  0  0  0  0  0
  2  1  1  1  0  0  0
  2  3  1  0  0  0  0
  2  5  1  0  0  0  0
  3  4  1  0  0  0  0
  5  6  1  0  0  0  0
  6  7  1  0  0  0  0
  7  8  1  0  0  0  0
  8  9  1  0  0  0  0
  9 10  1  0  0  0  0
  9 11  1  0  0  0  0
M  END
>  <CHROM.1>
-18.87023490,64.05790105,-56.04391728,-129.17879371,174.33940746,104.79313032
85.26791136,34.12774156,-28.16065122,-10.50701265,5.68132958,-0.70316334
-1.89442941,0.33244102,-2.17058040

>  <Name>
1akx_lig

>  <RI>
0

>  <Rbt.Current_Directory>
/home/itssahil/PROJECTS/Mol_Feturizer/New_Systems/rnas/1akx

>  <Rbt.Executable>
rbdock ($Id: //depot/dev/client3/rdock/2013.1/src/exe/rbdock.cxx#4 $)

>  <Rbt.Library>
libRbt.so (2013.1, Build901 2013/11/27)

>  <Rbt.Parameter_File>
/export/apps/rDock/src/rDock_2013.1_src/data/scripts/dock_solv.prm

>  <Rbt.Receptor>
prm/blind_docking_100.prm

>  <SCORE>
-34.331

>  <SCORE.INTER>
-31.0406

>  <SCORE.INTER.CONST>
1

>  <SCORE.INTER.POLAR>
-4.5426

>  <SCORE.INTER.ROT>
8

>  <SCORE.INTER.SOLV>
13.6494

>  <SCORE.INTER.VDW>
-19.0349

>  <SCORE.INTER.norm>
-2.82187

>  <SCORE.INTRA>
-3.29036

>  <SCORE.INTRA.DIHEDRAL>
-8.04443

>  <SCORE.INTRA.DIHEDRAL.0>
21.6454

>  <SCORE.INTRA.POLAR>
0

>  <SCORE.INTRA.POLAR.0>
0

>  <SCORE.INTRA.REPUL>
0

>  <SCORE.INTRA.REPUL.0>
0

>  <SCORE.INTRA.SOLV>
0.269557

>  <SCORE.INTRA.SOLV.lig_0>
-16.5947

>  <SCORE.INTRA.VDW>
0.597079

>  <SCORE.INTRA.VDW.0>
-0.691398

>  <SCORE.INTRA.norm>
-0.299123

>  <SCORE.RESTR>
0

>  <SCORE.RESTR.CAVITY>
0

>  <SCORE.RESTR.norm>
0

>  <SCORE.SYSTEM>
0

>  <SCORE.SYSTEM.CONST>
0

>  <SCORE.SYSTEM.DIHEDRAL>
0

>  <SCORE.SYSTEM.SOLV>
0

>  <SCORE.SYSTEM.norm>
0

>  <SCORE.heavy>
11

>  <SCORE.norm>
-3.121

>  <RMSD>
13.620

$$$$
1akx_lig
 OpenBabel11021811383D
libRbt.so/2013.1/901 2013/11/27
 11 10  0  0  0  0  0  0  0  0999 V2000
  -11.8205    6.9401    3.6485 N   0  0  0  0  0  0  0  0  0  0  0  0
  -10.9816    7.2107    2.4438 C   0  0  2  0  0  0  0  0  0  0  0  0
  -11.4579    8.5028    1.7681 C   0  0  0  0  0  0  0  0  0  0  0  0
  -10.6548    9.3270    1.3782 O   0  0  0  0  0  0  0  0  0  0  0  0
  -11.0999    6.0389    1.4598 C   0  0  0  0  0  0  0  0  0  0  0  0
  -10.0460    6.1815    0.3570 C   0  0  0  0  0  0  0  0  0  0  0  0
  -10.2676    5.1034   -0.7039 C   0  0  0  0  0  0  0  0  0  0  0  0
   -9.1764    5.1744   -1.7170 N   0  0  0  0  0  0  0  0  0  0  0  0
   -9.1596    4.3430   -2.7275 C   0  0  0  0  0  0  0  0  0  0  0  0
   -8.2203    3.4372   -2.8202 N   0  0  0  0  0  0  0  0  0  0  0  0
  -10.0881    4.4144   -3.6433 N   0  0  0  0  0  0  0  0  0  0  0  0
  2  1  1  1  0  0  0
  2  3  1  0  0  0  0
  2  5  1  0  0  0  0
  3  4  1  0  0  0  0
  5  6  1  0  0  0  0
  6  7  1  0  0  0  0
  7  8  1  0  0  0  0
  8  9  1  0  0  0  0
  9 10  1  0  0  0  0
  9 11  1  0  0  0  0
M  END
>  <CHROM.1>
81.17417175,135.97827852,-169.23254198,-173.68141010,-175.44077326,-179.89854101
-112.61228381,-2.54146350,61.04580417,-10.27116256,6.06180475,-0.05101376
2.80345939,1.22588233,-0.24396622

>  <Name>
1akx_lig

>  <RI>
0

>  <Rbt.Current_Directory>
/home/itssahil/PROJECTS/Mol_Feturizer/New_Systems/rnas/1akx

>  <Rbt.Executable>
rbdock ($Id: //depot/dev/client3/rdock/2013.1/src/exe/rbdock.cxx#4 $)

>  <Rbt.Library>
libRbt.so (2013.1, Build901 2013/11/27)

>  <Rbt.Parameter_File>
/export/apps/rDock/src/rDock_2013.1_src/data/scripts/dock_solv.prm

>  <Rbt.Receptor>
prm/blind_docking_100.prm

>  <SCORE>
-33.2106

>  <SCORE.INTER>
-29.3687

>  <SCORE.INTER.CONST>
1

>  <SCORE.INTER.POLAR>
-4.22544

>  <SCORE.INTER.ROT>
8

>  <SCORE.INTER.SOLV>
13.7819

>  <SCORE.INTER.VDW>
-19.0216

>  <SCORE.INTER.norm>
-2.66988

>  <SCORE.INTRA>
-4.68592

>  <SCORE.INTRA.DIHEDRAL>
-10.7425

>  <SCORE.INTRA.DIHEDRAL.0>
21.6454

>  <SCORE.INTRA.POLAR>
0

>  <SCORE.INTRA.POLAR.0>
0

>  <SCORE.INTRA.REPUL>
0

>  <SCORE.INTRA.REPUL.0>
0

>  <SCORE.INTRA.SOLV>
-0.0175378

>  <SCORE.INTRA.SOLV.lig_0>
-16.5947

>  <SCORE.INTRA.VDW>
0.69408

>  <SCORE.INTRA.VDW.0>
-0.691398

>  <SCORE.INTRA.norm>
-0.425993

>  <SCORE.RESTR>
0.843957

>  <SCORE.RESTR.CAVITY>
0.843957

>  <SCORE.RESTR.norm>
0.0767234

>  <SCORE.SYSTEM>
0

>  <SCORE.SYSTEM.CONST>
0

>  <SCORE.SYSTEM.DIHEDRAL>
0

>  <SCORE.SYSTEM.SOLV>
0

>  <SCORE.SYSTEM.norm>
0

>  <SCORE.heavy>
11

>  <SCORE.norm>
-3.01915

>  <RMSD>
13.621

$$$$
1akx_lig
 OpenBabel11021811383D
libRbt.so/2013.1/901 2013/11/27
 11 10  0  0  0  0  0  0  0  0999 V2000
  -10.6026    8.3039    0.8765 N   0  0  0  0  0  0  0  0  0  0  0  0
  -11.3991    7.3100    1.6550 C   0  0  2  0  0  0  0  0  0  0  0  0
  -11.0810    7.4561    3.1484 C   0  0  0  0  0  0  0  0  0  0  0  0
  -11.0936    8.5497    3.6775 O   0  0  0  0  0  0  0  0  0  0  0  0
  -11.0492    5.8904    1.1884 C   0  0  0  0  0  0  0  0  0  0  0  0
  -11.7301    5.6050   -0.1541 C   0  0  0  0  0  0  0  0  0  0  0  0
  -11.1150    4.3550   -0.7834 C   0  0  0  0  0  0  0  0  0  0  0  0
  -10.2725    4.7505   -1.9479 N   0  0  0  0  0  0  0  0  0  0  0  0
   -9.7746    3.8374   -2.7420 C   0  0  0  0  0  0  0  0  0  0  0  0
  -10.3608    3.5617   -3.8786 N   0  0  0  0  0  0  0  0  0  0  0  0
   -8.6847    3.2036   -2.4008 N   0  0  0  0  0  0  0  0  0  0  0  0
  2  1  1  6  0  0  0
  2  3  1  0  0  0  0
  2  5  1  0  0  0  0
  3  4  1  0  0  0  0
  5  6  1  0  0  0  0
  6  7  1  0  0  0  0
  7  8  1  0  0  0  0
  8  9  1  0  0  0  0
  9 10  1  0  0  0  0
  9 11  1  0  0  0  0
M  END
>  <CHROM.1>
-56.16260298,48.69906407,-76.36235884,165.89837471,-107.87952687,-171.69847668
98.91934681,174.43302196,135.79082024,-10.61939361,5.73817606,-0.14733796
2.47259862,-1.34287621,1.79847709

>  <Name>
1akx_lig

>  <RI>
0

>  <Rbt.Current_Directory>
/home/afrankz/demos/rdock_decoys_rna/rnas/1akx

>  <Rbt.Executable>
rbdock ($Id: //depot/dev/client3/rdock/2013.1/src/exe/rbdock.cxx#4 $)

>  <Rbt.Library>
libRbt.so (2013.1, Build901 2013/11/27)

>  <Rbt.Parameter_File>
/export/apps/rDock/src/rDock_2013.1_src/data/scripts/dock_solv.prm

>  <Rbt.Receptor>
prm/blind_docking_80.prm

>  <SCORE>
-19.1258

>  <SCORE.INTER>
-14.0224

>  <SCORE.INTER.CONST>
1

>  <SCORE.INTER.POLAR>
-2.09458

>  <SCORE.INTER.ROT>
8

>  <SCORE.INTER.SOLV>
12.3805

>  <SCORE.INTER.VDW>
-15.4265

>  <SCORE.INTER.norm>
-1.27477

>  <SCORE.INTRA>
-5.11262

>  <SCORE.INTRA.DIHEDRAL>
-9.5603

>  <SCORE.INTRA.DIHEDRAL.0>
21.6454

>  <SCORE.INTRA.POLAR>
0

>  <SCORE.INTRA.POLAR.0>
0

>  <SCORE.INTRA.REPUL>
0

>  <SCORE.INTRA.REPUL.0>
0

>  <SCORE.INTRA.SOLV>
0.247702

>  <SCORE.INTRA.SOLV.lig_0>
-16.5947

>  <SCORE.INTRA.VDW>
-0.456322

>  <SCORE.INTRA.VDW.0>
-0.691398

>  <SCORE.INTRA.norm>
-0.464784

>  <SCORE.RESTR>
0.00927268

>  <SCORE.RESTR.CAVITY>
0.00927268

>  <SCORE.RESTR.norm>
0.000842971

>  <SCORE.SYSTEM>
0

>  <SCORE.SYSTEM.CONST>
0

>  <SCORE.SYSTEM.DIHEDRAL>
0

>  <SCORE.SYSTEM.SOLV>
0

>  <SCORE.SYSTEM.norm>
0

>  <SCORE.heavy>
11

>  <SCORE.norm>
-1.73871

>  <RMSD>
13.626

>  <RMSD>
13.626

$$$$
1akx_lig
 OpenBabel11021811383D
libRbt.so/2013.1/901 2013/11/27
 11 10  0  0  0  0  0  0  0  0999 V2000
  -10.6026    8.3039    0.8765 N   0  0  0  0  0  0  0  0  0  0  0  0
  -11.3991    7.3100    1.6550 C   0  0  2  0  0  0  0  0  0  0  0  0
  -11.0810    7.4561    3.1484 C   0  0  0  0  0  0  0  0  0  0  0  0
  -11.0936    8.5497    3.6775 O   0  0  0  0  0  0  0  0  0  0  0  0
  -11.0492    5.8904    1.1884 C   0  0  0  0  0  0  0  0  0  0  0  0
  -11.7301    5.6050   -0.1541 C   0  0  0  0  0  0  0  0  0  0  0  0
  -11.1150    4.3550   -0.7834 C   0  0  0  0  0  0  0  0  0  0  0  0
  -10.2725    4.7505   -1.9479 N   0  0  0  0  0  0  0  0  0  0  0  0
   -9.7746    3.8374   -2.7420 C   0  0  0  0  0  0  0  0  0  0  0  0
  -10.3608    3.5617   -3.8786 N   0  0  0  0  0  0  0  0  0  0  0  0
   -8.6847    3.2036   -2.4008 N   0  0  0  0  0  0  0  0  0  0  0  0
  2  1  1  6  0  0  0
  2  3  1  0  0  0  0
  2  5  1  0  0  0  0
  3  4  1  0  0  0  0
  5  6  1  0  0  0  0
  6  7  1  0  0  0  0
  7  8  1  0  0  0  0
  8  9  1  0  0  0  0
  9 10  1  0  0  0  0
  9 11  1  0  0  0  0
M  END
>  <CHROM.1>
-56.16260298,48.69906407,-76.36235884,165.89837471,-107.87952687,-171.69847668
98.91934681,174.43302196,135.79082024,-10.61939361,5.73817606,-0.14733796
2.47259862,-1.34287621,1.79847709

>  <Name>
1akx_lig

>  <RI>
0

>  <Rbt.Current_Directory>
/home/afrankz/demos/rdock_decoys_rna/rnas/1akx

>  <Rbt.Executable>
rbdock ($Id: //depot/dev/client3/rdock/2013.1/src/exe/rbdock.cxx#4 $)

>  <Rbt.Library>
libRbt.so (2013.1, Build901 2013/11/27)

>  <Rbt.Parameter_File>
/export/apps/rDock/src/rDock_2013.1_src/data/scripts/dock_solv.prm

>  <Rbt.Receptor>
prm/blind_docking_80.prm

>  <SCORE>
-19.1258

>  <SCORE.INTER>
-14.0224

>  <SCORE.INTER.CONST>
1

>  <SCORE.INTER.POLAR>
-2.09458

>  <SCORE.INTER.ROT>
8

>  <SCORE.INTER.SOLV>
12.3805

>  <SCORE.INTER.VDW>
-15.4265

>  <SCORE.INTER.norm>
-1.27477

>  <SCORE.INTRA>
-5.11262

>  <SCORE.INTRA.DIHEDRAL>
-9.5603

>  <SCORE.INTRA.DIHEDRAL.0>
21.6454

>  <SCORE.INTRA.POLAR>
0

>  <SCORE.INTRA.POLAR.0>
0

>  <SCORE.INTRA.REPUL>
0

>  <SCORE.INTRA.REPUL.0>
0

>  <SCORE.INTRA.SOLV>
0.247702

>  <SCORE.INTRA.SOLV.lig_0>
-16.5947

>  <SCORE.INTRA.VDW>
-0.456322

>  <SCORE.INTRA.VDW.0>
-0.691398

>  <SCORE.INTRA.norm>
-0.464784

>  <SCORE.RESTR>
0.00927268

>  <SCORE.RESTR.CAVITY>
0.00927268

>  <SCORE.RESTR.norm>
0.000842971

>  <SCORE.SYSTEM>
0

>  <SCORE.SYSTEM.CONST>
0

>  <SCORE.SYSTEM.DIHEDRAL>
0

>  <SCORE.SYSTEM.SOLV>
0

>  <SCORE.SYSTEM.norm>
0

>  <SCORE.heavy>
11

>  <SCORE.norm>
-1.73871

>  <RMSD>
13.626

>  <RMSD>
13.626

$$$$
1akx_lig
 OpenBabel11021811383D
libRbt.so/2013.1/901 2013/11/27
 11 10  0  0  0  0  0  0  0  0999 V2000
  -10.0555    2.5046   -3.5502 N   0  0  0  0  0  0  0  0  0  0  0  0
  -10.4952    3.4059   -2.4446 C   0  0  2  0  0  0  0  0  0  0  0  0
  -12.0203    3.5637   -2.4886 C   0  0  0  0  0  0  0  0  0  0  0  0
  -12.7451    2.6147   -2.2647 O   0  0  0  0  0  0  0  0  0  0  0  0
   -9.8287    4.7792   -2.6036 C   0  0  0  0  0  0  0  0  0  0  0  0
   -9.3796    5.2976   -1.2336 C   0  0  0  0  0  0  0  0  0  0  0  0
  -10.5998    5.7605   -0.4376 C   0  0  0  0  0  0  0  0  0  0  0  0
  -10.1584    6.6600    0.6662 N   0  0  0  0  0  0  0  0  0  0  0  0
  -10.9645    7.5816    1.1282 C   0  0  0  0  0  0  0  0  0  0  0  0
  -11.8328    7.2898    2.0622 N   0  0  0  0  0  0  0  0  0  0  0  0
  -10.8971    8.7986    0.6590 N   0  0  0  0  0  0  0  0  0  0  0  0
  2  1  1  6  0  0  0
  2  3  1  0  0  0  0
  2  5  1  0  0  0  0
  3  4  1  0  0  0  0
  5  6  1  0  0  0  0
  6  7  1  0  0  0  0
  7  8  1  0  0  0  0
  8  9  1  0  0  0  0
  9 10  1  0  0  0  0
  9 11  1  0  0  0  0
M  END
>  <CHROM.1>
-54.58711606,66.11615344,-138.78647453,-74.14514975,-161.29644764,152.31621760
85.67031056,-165.08793701,-8.85509325,-10.83238274,5.28507274,-0.95628874
-1.56768884,0.40619284,0.70827053

>  <Name>
1akx_lig

>  <RI>
0

>  <Rbt.Current_Directory>
/home/itssahil/PROJECTS/Mol_Feturizer/New_Systems/rnas/1akx

>  <Rbt.Executable>
rbdock ($Id: //depot/dev/client3/rdock/2013.1/src/exe/rbdock.cxx#4 $)

>  <Rbt.Library>
libRbt.so (2013.1, Build901 2013/11/27)

>  <Rbt.Parameter_File>
/export/apps/rDock/src/rDock_2013.1_src/data/scripts/dock_solv.prm

>  <Rbt.Receptor>
prm/blind_docking_80.prm

>  <SCORE>
-29.7275

>  <SCORE.INTER>
-24.8764

>  <SCORE.INTER.CONST>
1

>  <SCORE.INTER.POLAR>
-2.98663

>  <SCORE.INTER.ROT>
8

>  <SCORE.INTER.SOLV>
11.1547

>  <SCORE.INTER.VDW>
-19.2804

>  <SCORE.INTER.norm>
-2.26149

>  <SCORE.INTRA>
-4.94305

>  <SCORE.INTRA.DIHEDRAL>
-10.0535

>  <SCORE.INTRA.DIHEDRAL.0>
21.6454

>  <SCORE.INTRA.POLAR>
0

>  <SCORE.INTRA.POLAR.0>
0

>  <SCORE.INTRA.REPUL>
0

>  <SCORE.INTRA.REPUL.0>
0

>  <SCORE.INTRA.SOLV>
0.189406

>  <SCORE.INTRA.SOLV.lig_0>
-16.5947

>  <SCORE.INTRA.VDW>
-0.0109941

>  <SCORE.INTRA.VDW.0>
-0.691398

>  <SCORE.INTRA.norm>
-0.449368

>  <SCORE.RESTR>
0.0919165

>  <SCORE.RESTR.CAVITY>
0.0919165

>  <SCORE.RESTR.norm>
0.00835604

>  <SCORE.SYSTEM>
0

>  <SCORE.SYSTEM.CONST>
0

>  <SCORE.SYSTEM.DIHEDRAL>
0

>  <SCORE.SYSTEM.SOLV>
0

>  <SCORE.SYSTEM.norm>
0

>  <SCORE.heavy>
11

>  <SCORE.norm>
-2.7025

>  <RMSD>
13.629

$$$$
1akx_lig
 OpenBabel11021811383D
libRbt.so/2013.1/901 2013/11/27
 11 10  0  0  0  0  0  0  0  0999 V2000
  -10.6442    4.7804   -3.7541 N   0  0  0  0  0  0  0  0  0  0  0  0
  -10.1951    3.8416   -2.6840 C   0  0  2  0  0  0  0  0  0  0  0  0
  -10.6513    2.4180   -3.0273 C   0  0  0  0  0  0  0  0  0  0  0  0
  -10.3104    1.4778   -2.3373 O   0  0  0  0  0  0  0  0  0  0  0  0
  -10.7984    4.2675   -1.3386 C   0  0  0  0  0  0  0  0  0  0  0  0
  -10.1026    5.5378   -0.8390 C   0  0  0  0  0  0  0  0  0  0  0  0
  -10.5955    5.8699    0.5694 C   0  0  0  0  0  0  0  0  0  0  0  0
  -10.0912    7.2157    0.9656 N   0  0  0  0  0  0  0  0  0  0  0  0
  -10.8413    8.0177    1.6773 C   0  0  0  0  0  0  0  0  0  0  0  0
  -10.6020    8.1853    2.9525 N   0  0  0  0  0  0  0  0  0  0  0  0
  -11.8287    8.6578    1.1104 N   0  0  0  0  0  0  0  0  0  0  0  0
  2  1  1  6  0  0  0
  2  3  1  0  0  0  0
  2  5  1  0  0  0  0
  3  4  1  0  0  0  0
  5  6  1  0  0  0  0
  6  7  1  0  0  0  0
  7  8  1  0  0  0  0
  8  9  1  0  0  0  0
  9 10  1  0  0  0  0
  9 11  1  0  0  0  0
M  END
>  <CHROM.1>
68.79400234,174.74837332,-72.66002754,-173.73055726,-170.87970273,143.12637612
104.17754075,129.73360148,88.43801868,-10.61554787,5.50453787,-0.61848932
1.29929757,1.34951859,-2.13651814

>  <Name>
1akx_lig

>  <RI>
0

>  <Rbt.Current_Directory>
/home/afrankz/demos/rdock_decoys_rna/rnas/1akx

>  <Rbt.Executable>
rbdock ($Id: //depot/dev/client3/rdock/2013.1/src/exe/rbdock.cxx#4 $)

>  <Rbt.Library>
libRbt.so (2013.1, Build901 2013/11/27)

>  <Rbt.Parameter_File>
/export/apps/rDock/src/rDock_2013.1_src/data/scripts/dock_solv.prm

>  <Rbt.Receptor>
prm/blind_docking_80.prm

>  <SCORE>
-43.5624

>  <SCORE.INTER>
-35.5497

>  <SCORE.INTER.CONST>
1

>  <SCORE.INTER.POLAR>
-5.91943

>  <SCORE.INTER.ROT>
8

>  <SCORE.INTER.SOLV>
12.8937

>  <SCORE.INTER.VDW>
-17.1996

>  <SCORE.INTER.norm>
-3.2318

>  <SCORE.INTRA>
-8.01266

>  <SCORE.INTRA.DIHEDRAL>
-15.4659

>  <SCORE.INTRA.DIHEDRAL.0>
21.6454

>  <SCORE.INTRA.POLAR>
0

>  <SCORE.INTRA.POLAR.0>
0

>  <SCORE.INTRA.REPUL>
0

>  <SCORE.INTRA.REPUL.0>
0

>  <SCORE.INTRA.SOLV>
-0.0630488

>  <SCORE.INTRA.SOLV.lig_0>
-16.5947

>  <SCORE.INTRA.VDW>
-0.24819

>  <SCORE.INTRA.VDW.0>
-0.691398

>  <SCORE.INTRA.norm>
-0.728424

>  <SCORE.RESTR>
0

>  <SCORE.RESTR.CAVITY>
0

>  <SCORE.RESTR.norm>
0

>  <SCORE.SYSTEM>
0

>  <SCORE.SYSTEM.CONST>
0

>  <SCORE.SYSTEM.DIHEDRAL>
0

>  <SCORE.SYSTEM.SOLV>
0

>  <SCORE.SYSTEM.norm>
0

>  <SCORE.heavy>
11

>  <SCORE.norm>
-3.96022

>  <RMSD>
13.630

>  <RMSD>
13.630

$$$$
1akx_lig
 OpenBabel11021811383D
libRbt.so/2013.1/901 2013/11/27
 11 10  0  0  0  0  0  0  0  0999 V2000
  -10.6442    4.7804   -3.7541 N   0  0  0  0  0  0  0  0  0  0  0  0
  -10.1951    3.8416   -2.6840 C   0  0  2  0  0  0  0  0  0  0  0  0
  -10.6513    2.4180   -3.0273 C   0  0  0  0  0  0  0  0  0  0  0  0
  -10.3104    1.4778   -2.3373 O   0  0  0  0  0  0  0  0  0  0  0  0
  -10.7984    4.2675   -1.3386 C   0  0  0  0  0  0  0  0  0  0  0  0
  -10.1026    5.5378   -0.8390 C   0  0  0  0  0  0  0  0  0  0  0  0
  -10.5955    5.8699    0.5694 C   0  0  0  0  0  0  0  0  0  0  0  0
  -10.0912    7.2157    0.9656 N   0  0  0  0  0  0  0  0  0  0  0  0
  -10.8413    8.0177    1.6773 C   0  0  0  0  0  0  0  0  0  0  0  0
  -10.6020    8.1853    2.9525 N   0  0  0  0  0  0  0  0  0  0  0  0
  -11.8287    8.6578    1.1104 N   0  0  0  0  0  0  0  0  0  0  0  0
  2  1  1  6  0  0  0
  2  3  1  0  0  0  0
  2  5  1  0  0  0  0
  3  4  1  0  0  0  0
  5  6  1  0  0  0  0
  6  7  1  0  0  0  0
  7  8  1  0  0  0  0
  8  9  1  0  0  0  0
  9 10  1  0  0  0  0
  9 11  1  0  0  0  0
M  END
>  <CHROM.1>
68.79400234,174.74837332,-72.66002754,-173.73055726,-170.87970273,143.12637612
104.17754075,129.73360148,88.43801868,-10.61554787,5.50453787,-0.61848932
1.29929757,1.34951859,-2.13651814

>  <Name>
1akx_lig

>  <RI>
0

>  <Rbt.Current_Directory>
/home/afrankz/demos/rdock_decoys_rna/rnas/1akx

>  <Rbt.Executable>
rbdock ($Id: //depot/dev/client3/rdock/2013.1/src/exe/rbdock.cxx#4 $)

>  <Rbt.Library>
libRbt.so (2013.1, Build901 2013/11/27)

>  <Rbt.Parameter_File>
/export/apps/rDock/src/rDock_2013.1_src/data/scripts/dock_solv.prm

>  <Rbt.Receptor>
prm/blind_docking_80.prm

>  <SCORE>
-43.5624

>  <SCORE.INTER>
-35.5497

>  <SCORE.INTER.CONST>
1

>  <SCORE.INTER.POLAR>
-5.91943

>  <SCORE.INTER.ROT>
8

>  <SCORE.INTER.SOLV>
12.8937

>  <SCORE.INTER.VDW>
-17.1996

>  <SCORE.INTER.norm>
-3.2318

>  <SCORE.INTRA>
-8.01266

>  <SCORE.INTRA.DIHEDRAL>
-15.4659

>  <SCORE.INTRA.DIHEDRAL.0>
21.6454

>  <SCORE.INTRA.POLAR>
0

>  <SCORE.INTRA.POLAR.0>
0

>  <SCORE.INTRA.REPUL>
0

>  <SCORE.INTRA.REPUL.0>
0

>  <SCORE.INTRA.SOLV>
-0.0630488

>  <SCORE.INTRA.SOLV.lig_0>
-16.5947

>  <SCORE.INTRA.VDW>
-0.24819

>  <SCORE.INTRA.VDW.0>
-0.691398

>  <SCORE.INTRA.norm>
-0.728424

>  <SCORE.RESTR>
0

>  <SCORE.RESTR.CAVITY>
0

>  <SCORE.RESTR.norm>
0

>  <SCORE.SYSTEM>
0

>  <SCORE.SYSTEM.CONST>
0

>  <SCORE.SYSTEM.DIHEDRAL>
0

>  <SCORE.SYSTEM.SOLV>
0

>  <SCORE.SYSTEM.norm>
0

>  <SCORE.heavy>
11

>  <SCORE.norm>
-3.96022

>  <RMSD>
13.630

>  <RMSD>
13.630

$$$$
1akx_lig
 OpenBabel11021811383D
libRbt.so/2013.1/901 2013/11/27
 11 10  0  0  0  0  0  0  0  0999 V2000
   -9.1436    4.6808   -2.9650 N   0  0  0  0  0  0  0  0  0  0  0  0
  -10.2137    3.8552   -2.3313 C   0  0  2  0  0  0  0  0  0  0  0  0
  -10.8956    2.9927   -3.4007 C   0  0  0  0  0  0  0  0  0  0  0  0
  -10.2855    2.0994   -3.9539 O   0  0  0  0  0  0  0  0  0  0  0  0
  -11.2499    4.7743   -1.6704 C   0  0  0  0  0  0  0  0  0  0  0  0
  -10.7047    5.2922   -0.3355 C   0  0  0  0  0  0  0  0  0  0  0  0
  -11.8045    6.0535    0.4047 C   0  0  0  0  0  0  0  0  0  0  0  0
  -11.4435    6.1668    1.8466 N   0  0  0  0  0  0  0  0  0  0  0  0
  -10.7650    7.1995    2.2774 C   0  0  0  0  0  0  0  0  0  0  0  0
  -11.1162    7.8041    3.3831 N   0  0  0  0  0  0  0  0  0  0  0  0
   -9.7296    7.6238    1.6037 N   0  0  0  0  0  0  0  0  0  0  0  0
  2  1  1  6  0  0  0
  2  3  1  0  0  0  0
  2  5  1  0  0  0  0
  3  4  1  0  0  0  0
  5  6  1  0  0  0  0
  6  7  1  0  0  0  0
  7  8  1  0  0  0  0
  8  9  1  0  0  0  0
  9 10  1  0  0  0  0
  9 11  1  0  0  0  0
M  END
>  <CHROM.1>
-51.79137959,67.09876119,-77.93008283,-172.55079885,161.60792436,90.85058687
135.67586939,-85.39550793,89.97908202,-10.63015746,5.33656145,-0.47135917
-1.47040366,0.51222626,0.90132322

>  <Name>
1akx_lig

>  <RI>
0

>  <Rbt.Current_Directory>
/home/itssahil/PROJECTS/Mol_Feturizer/New_Systems/rnas/1akx

>  <Rbt.Executable>
rbdock ($Id: //depot/dev/client3/rdock/2013.1/src/exe/rbdock.cxx#4 $)

>  <Rbt.Library>
libRbt.so (2013.1, Build901 2013/11/27)

>  <Rbt.Parameter_File>
/export/apps/rDock/src/rDock_2013.1_src/data/scripts/dock_solv.prm

>  <Rbt.Receptor>
prm/blind_docking_40.prm

>  <SCORE>
-34.8534

>  <SCORE.INTER>
-27.8185

>  <SCORE.INTER.CONST>
1

>  <SCORE.INTER.POLAR>
-4.22844

>  <SCORE.INTER.ROT>
8

>  <SCORE.INTER.SOLV>
11.2388

>  <SCORE.INTER.VDW>
-17.1305

>  <SCORE.INTER.norm>
-2.52896

>  <SCORE.INTRA>
-7.04686

>  <SCORE.INTRA.DIHEDRAL>
-13.8866

>  <SCORE.INTRA.DIHEDRAL.0>
21.6454

>  <SCORE.INTRA.POLAR>
0

>  <SCORE.INTRA.POLAR.0>
0

>  <SCORE.INTRA.REPUL>
0

>  <SCORE.INTRA.REPUL.0>
0

>  <SCORE.INTRA.SOLV>
0.288115

>  <SCORE.INTRA.SOLV.lig_0>
-16.5947

>  <SCORE.INTRA.VDW>
-0.247637

>  <SCORE.INTRA.VDW.0>
-0.691398

>  <SCORE.INTRA.norm>
-0.640624

>  <SCORE.RESTR>
0.0119663

>  <SCORE.RESTR.CAVITY>
0.0119663

>  <SCORE.RESTR.norm>
0.00108784

>  <SCORE.SYSTEM>
0

>  <SCORE.SYSTEM.CONST>
0

>  <SCORE.SYSTEM.DIHEDRAL>
0

>  <SCORE.SYSTEM.SOLV>
0

>  <SCORE.SYSTEM.norm>
0

>  <SCORE.heavy>
11

>  <SCORE.norm>
-3.16849

>  <RMSD>
13.630

$$$$
1akx_lig
 OpenBabel11021811383D
libRbt.so/2013.1/901 2013/11/27
 11 10  0  0  0  0  0  0  0  0999 V2000
   -8.3326    3.7416   -2.7875 N   0  0  0  0  0  0  0  0  0  0  0  0
   -9.7734    3.6996   -2.3994 C   0  0  2  0  0  0  0  0  0  0  0  0
  -10.6117    3.2269   -3.5937 C   0  0  0  0  0  0  0  0  0  0  0  0
  -11.8121    3.4136   -3.6171 O   0  0  0  0  0  0  0  0  0  0  0  0
  -10.2316    5.0993   -1.9679 C   0  0  0  0  0  0  0  0  0  0  0  0
   -9.4219    5.5557   -0.7499 C   0  0  0  0  0  0  0  0  0  0  0  0
  -10.3695    5.8442    0.4145 C   0  0  0  0  0  0  0  0  0  0  0  0
  -10.0466    7.1780    0.9966 N   0  0  0  0  0  0  0  0  0  0  0  0
  -10.9168    7.7950    1.7545 C   0  0  0  0  0  0  0  0  0  0  0  0
  -11.7750    7.1095    2.4652 N   0  0  0  0  0  0  0  0  0  0  0  0
  -10.9239    9.1001    1.8061 N   0  0  0  0  0  0  0  0  0  0  0  0
  2  1  1  6  0  0  0
  2  3  1  0  0  0  0
  2  5  1  0  0  0  0
  3  4  1  0  0  0  0
  5  6  1  0  0  0  0
  6  7  1  0  0  0  0
  7  8  1  0  0  0  0
  8  9  1  0  0  0  0
  9 10  1  0  0  0  0
  9 11  1  0  0  0  0
M  END
>  <CHROM.1>
-33.38399802,-162.55080773,-61.36134434,-121.12390762,-130.75975031,162.04033668
28.96345711,127.68102718,-115.85519148,-10.37722729,5.62829807,-0.69607992
-1.44542676,0.04338738,0.85245110

>  <Name>
1akx_lig

>  <RI>
0

>  <Rbt.Current_Directory>
/home/itssahil/PROJECTS/Mol_Feturizer/New_Systems/rnas/1akx

>  <Rbt.Executable>
rbdock ($Id: //depot/dev/client3/rdock/2013.1/src/exe/rbdock.cxx#4 $)

>  <Rbt.Library>
libRbt.so (2013.1, Build901 2013/11/27)

>  <Rbt.Parameter_File>
/export/apps/rDock/src/rDock_2013.1_src/data/scripts/dock_solv.prm

>  <Rbt.Receptor>
prm/blind_docking_80.prm

>  <SCORE>
-33.6567

>  <SCORE.INTER>
-34.0708

>  <SCORE.INTER.CONST>
1

>  <SCORE.INTER.POLAR>
-5.12485

>  <SCORE.INTER.ROT>
8

>  <SCORE.INTER.SOLV>
12.8591

>  <SCORE.INTER.VDW>
-18.8507

>  <SCORE.INTER.norm>
-3.09734

>  <SCORE.INTRA>
-0.0819116

>  <SCORE.INTRA.DIHEDRAL>
-3.12244

>  <SCORE.INTRA.DIHEDRAL.0>
21.6454

>  <SCORE.INTRA.POLAR>
0

>  <SCORE.INTRA.POLAR.0>
0

>  <SCORE.INTRA.REPUL>
0

>  <SCORE.INTRA.REPUL.0>
0

>  <SCORE.INTRA.SOLV>
0.045383

>  <SCORE.INTRA.SOLV.lig_0>
-16.5947

>  <SCORE.INTRA.VDW>
1.45662

>  <SCORE.INTRA.VDW.0>
-0.691398

>  <SCORE.INTRA.norm>
-0.00744651

>  <SCORE.RESTR>
0.495951

>  <SCORE.RESTR.CAVITY>
0.495951

>  <SCORE.RESTR.norm>
0.0450865

>  <SCORE.SYSTEM>
0

>  <SCORE.SYSTEM.CONST>
0

>  <SCORE.SYSTEM.DIHEDRAL>
0

>  <SCORE.SYSTEM.SOLV>
0

>  <SCORE.SYSTEM.norm>
0

>  <SCORE.heavy>
11

>  <SCORE.norm>
-3.0597

>  <RMSD>
13.635

$$$$
1akx_lig
 OpenBabel11021811383D
libRbt.so/2013.1/901 2013/11/27
 11 10  0  0  0  0  0  0  0  0999 V2000
   -9.9555    7.2030    0.4558 N   0  0  0  0  0  0  0  0  0  0  0  0
  -11.2147    7.2243    1.2572 C   0  0  2  0  0  0  0  0  0  0  0  0
  -10.9168    7.7559    2.6648 C   0  0  0  0  0  0  0  0  0  0  0  0
  -10.1807    8.7099    2.8207 O   0  0  0  0  0  0  0  0  0  0  0  0
  -11.7891    5.8043    1.3518 C   0  0  0  0  0  0  0  0  0  0  0  0
  -12.2269    5.3301   -0.0378 C   0  0  0  0  0  0  0  0  0  0  0  0
  -11.0859    4.5544   -0.6958 C   0  0  0  0  0  0  0  0  0  0  0  0
  -11.4870    4.1602   -2.0764 N   0  0  0  0  0  0  0  0  0  0  0  0
  -10.5790    3.8199   -2.9551 C   0  0  0  0  0  0  0  0  0  0  0  0
   -9.8219    4.7325   -3.5078 N   0  0  0  0  0  0  0  0  0  0  0  0
  -10.4243    2.5634   -3.2765 N   0  0  0  0  0  0  0  0  0  0  0  0
  2  1  1  6  0  0  0
  2  3  1  0  0  0  0
  2  5  1  0  0  0  0
  3  4  1  0  0  0  0
  5  6  1  0  0  0  0
  6  7  1  0  0  0  0
  7  8  1  0  0  0  0
  8  9  1  0  0  0  0
  9 10  1  0  0  0  0
  9 11  1  0  0  0  0
M  END
>  <CHROM.1>
49.62108629,42.33900702,-65.80029021,93.28585346,-176.86070071,161.28078131
-74.22183664,-76.83789520,158.41187309,-10.83546836,5.63220416,-0.39777850
-1.59840602,-0.68127039,-2.26584370

>  <Name>
1akx_lig

>  <RI>
0

>  <Rbt.Current_Directory>
/home/afrankz/demos/rdock_decoys_rna/rnas/1akx

>  <Rbt.Executable>
rbdock ($Id: //depot/dev/client3/rdock/2013.1/src/exe/rbdock.cxx#4 $)

>  <Rbt.Library>
libRbt.so (2013.1, Build901 2013/11/27)

>  <Rbt.Parameter_File>
/export/apps/rDock/src/rDock_2013.1_src/data/scripts/dock_solv.prm

>  <Rbt.Receptor>
prm/blind_docking_100.prm

>  <SCORE>
-36.4921

>  <SCORE.INTER>
-32.1122

>  <SCORE.INTER.CONST>
1

>  <SCORE.INTER.POLAR>
-5.05623

>  <SCORE.INTER.ROT>
8

>  <SCORE.INTER.SOLV>
10.8959

>  <SCORE.INTER.VDW>
-17.1194

>  <SCORE.INTER.norm>
-2.91929

>  <SCORE.INTRA>
-4.37987

>  <SCORE.INTRA.DIHEDRAL>
-11.7715

>  <SCORE.INTRA.DIHEDRAL.0>
21.6454

>  <SCORE.INTRA.POLAR>
0

>  <SCORE.INTRA.POLAR.0>
0

>  <SCORE.INTRA.REPUL>
0

>  <SCORE.INTRA.REPUL.0>
0

>  <SCORE.INTRA.SOLV>
0.515812

>  <SCORE.INTRA.SOLV.lig_0>
-16.5947

>  <SCORE.INTRA.VDW>
1.24798

>  <SCORE.INTRA.VDW.0>
-0.691398

>  <SCORE.INTRA.norm>
-0.39817

>  <SCORE.RESTR>
0

>  <SCORE.RESTR.CAVITY>
0

>  <SCORE.RESTR.norm>
0

>  <SCORE.SYSTEM>
0

>  <SCORE.SYSTEM.CONST>
0

>  <SCORE.SYSTEM.DIHEDRAL>
0

>  <SCORE.SYSTEM.SOLV>
0

>  <SCORE.SYSTEM.norm>
0

>  <SCORE.heavy>
11

>  <SCORE.norm>
-3.31746

>  <RMSD>
13.638

>  <RMSD>
13.638

$$$$
1akx_lig
 OpenBabel11021811383D
libRbt.so/2013.1/901 2013/11/27
 11 10  0  0  0  0  0  0  0  0999 V2000
   -9.9555    7.2030    0.4558 N   0  0  0  0  0  0  0  0  0  0  0  0
  -11.2147    7.2243    1.2572 C   0  0  2  0  0  0  0  0  0  0  0  0
  -10.9168    7.7559    2.6648 C   0  0  0  0  0  0  0  0  0  0  0  0
  -10.1807    8.7099    2.8207 O   0  0  0  0  0  0  0  0  0  0  0  0
  -11.7891    5.8043    1.3518 C   0  0  0  0  0  0  0  0  0  0  0  0
  -12.2269    5.3301   -0.0378 C   0  0  0  0  0  0  0  0  0  0  0  0
  -11.0859    4.5544   -0.6958 C   0  0  0  0  0  0  0  0  0  0  0  0
  -11.4870    4.1602   -2.0764 N   0  0  0  0  0  0  0  0  0  0  0  0
  -10.5790    3.8199   -2.9551 C   0  0  0  0  0  0  0  0  0  0  0  0
   -9.8219    4.7325   -3.5078 N   0  0  0  0  0  0  0  0  0  0  0  0
  -10.4243    2.5634   -3.2765 N   0  0  0  0  0  0  0  0  0  0  0  0
  2  1  1  6  0  0  0
  2  3  1  0  0  0  0
  2  5  1  0  0  0  0
  3  4  1  0  0  0  0
  5  6  1  0  0  0  0
  6  7  1  0  0  0  0
  7  8  1  0  0  0  0
  8  9  1  0  0  0  0
  9 10  1  0  0  0  0
  9 11  1  0  0  0  0
M  END
>  <CHROM.1>
49.62108629,42.33900702,-65.80029021,93.28585346,-176.86070071,161.28078131
-74.22183664,-76.83789520,158.41187309,-10.83546836,5.63220416,-0.39777850
-1.59840602,-0.68127039,-2.26584370

>  <Name>
1akx_lig

>  <RI>
0

>  <Rbt.Current_Directory>
/home/afrankz/demos/rdock_decoys_rna/rnas/1akx

>  <Rbt.Executable>
rbdock ($Id: //depot/dev/client3/rdock/2013.1/src/exe/rbdock.cxx#4 $)

>  <Rbt.Library>
libRbt.so (2013.1, Build901 2013/11/27)

>  <Rbt.Parameter_File>
/export/apps/rDock/src/rDock_2013.1_src/data/scripts/dock_solv.prm

>  <Rbt.Receptor>
prm/blind_docking_100.prm

>  <SCORE>
-36.4921

>  <SCORE.INTER>
-32.1122

>  <SCORE.INTER.CONST>
1

>  <SCORE.INTER.POLAR>
-5.05623

>  <SCORE.INTER.ROT>
8

>  <SCORE.INTER.SOLV>
10.8959

>  <SCORE.INTER.VDW>
-17.1194

>  <SCORE.INTER.norm>
-2.91929

>  <SCORE.INTRA>
-4.37987

>  <SCORE.INTRA.DIHEDRAL>
-11.7715

>  <SCORE.INTRA.DIHEDRAL.0>
21.6454

>  <SCORE.INTRA.POLAR>
0

>  <SCORE.INTRA.POLAR.0>
0

>  <SCORE.INTRA.REPUL>
0

>  <SCORE.INTRA.REPUL.0>
0

>  <SCORE.INTRA.SOLV>
0.515812

>  <SCORE.INTRA.SOLV.lig_0>
-16.5947

>  <SCORE.INTRA.VDW>
1.24798

>  <SCORE.INTRA.VDW.0>
-0.691398

>  <SCORE.INTRA.norm>
-0.39817

>  <SCORE.RESTR>
0

>  <SCORE.RESTR.CAVITY>
0

>  <SCORE.RESTR.norm>
0

>  <SCORE.SYSTEM>
0

>  <SCORE.SYSTEM.CONST>
0

>  <SCORE.SYSTEM.DIHEDRAL>
0

>  <SCORE.SYSTEM.SOLV>
0

>  <SCORE.SYSTEM.norm>
0

>  <SCORE.heavy>
11

>  <SCORE.norm>
-3.31746

>  <RMSD>
13.638

>  <RMSD>
13.638

$$$$
1akx_lig
 OpenBabel11021811383D
libRbt.so/2013.1/901 2013/11/27
 11 10  0  0  0  0  0  0  0  0999 V2000
   -9.8548    7.1407    0.5926 N   0  0  0  0  0  0  0  0  0  0  0  0
  -11.1885    7.2232    1.2577 C   0  0  2  0  0  0  0  0  0  0  0  0
  -11.0199    7.7847    2.6751 C   0  0  0  0  0  0  0  0  0  0  0  0
  -10.3129    8.7524    2.8750 O   0  0  0  0  0  0  0  0  0  0  0  0
  -11.8170    5.8248    1.3270 C   0  0  0  0  0  0  0  0  0  0  0  0
  -12.0686    5.3003   -0.0904 C   0  0  0  0  0  0  0  0  0  0  0  0
  -10.8147    4.5922   -0.6032 C   0  0  0  0  0  0  0  0  0  0  0  0
  -11.1301    3.8896   -1.8796 N   0  0  0  0  0  0  0  0  0  0  0  0
  -10.4070    4.1071   -2.9483 C   0  0  0  0  0  0  0  0  0  0  0  0
   -9.1558    3.7270   -2.9860 N   0  0  0  0  0  0  0  0  0  0  0  0
  -10.9388    4.7004   -3.9832 N   0  0  0  0  0  0  0  0  0  0  0  0
  2  1  1  1  0  0  0
  2  3  1  0  0  0  0
  2  5  1  0  0  0  0
  3  4  1  0  0  0  0
  5  6  1  0  0  0  0
  6  7  1  0  0  0  0
  7  8  1  0  0  0  0
  8  9  1  0  0  0  0
  9 10  1  0  0  0  0
  9 11  1  0  0  0  0
M  END
>  <CHROM.1>
178.01054189,45.23112586,-63.36108681,87.30688744,170.64886014,126.35664023
66.74119350,-118.62032412,151.51760829,-10.74760370,5.74298063,-0.37434918
-1.63738710,-0.54304303,-2.22238924

>  <Name>
1akx_lig

>  <RI>
0

>  <Rbt.Current_Directory>
/home/itssahil/PROJECTS/Mol_Feturizer/New_Systems/rnas/1akx

>  <Rbt.Executable>
rbdock ($Id: //depot/dev/client3/rdock/2013.1/src/exe/rbdock.cxx#4 $)

>  <Rbt.Library>
libRbt.so (2013.1, Build901 2013/11/27)

>  <Rbt.Parameter_File>
/export/apps/rDock/src/rDock_2013.1_src/data/scripts/dock_solv.prm

>  <Rbt.Receptor>
prm/blind_docking_40.prm

>  <SCORE>
-37.9568

>  <SCORE.INTER>
-33.2281

>  <SCORE.INTER.CONST>
1

>  <SCORE.INTER.POLAR>
-5.22254

>  <SCORE.INTER.ROT>
8

>  <SCORE.INTER.SOLV>
12.0186

>  <SCORE.INTER.VDW>
-17.6832

>  <SCORE.INTER.norm>
-3.02074

>  <SCORE.INTRA>
-4.75096

>  <SCORE.INTRA.DIHEDRAL>
-13.0788

>  <SCORE.INTRA.DIHEDRAL.0>
21.6454

>  <SCORE.INTRA.POLAR>
0

>  <SCORE.INTRA.POLAR.0>
0

>  <SCORE.INTRA.REPUL>
0

>  <SCORE.INTRA.REPUL.0>
0

>  <SCORE.INTRA.SOLV>
0.537766

>  <SCORE.INTRA.SOLV.lig_0>
-16.5947

>  <SCORE.INTRA.VDW>
1.51955

>  <SCORE.INTRA.VDW.0>
-0.691398

>  <SCORE.INTRA.norm>
-0.431906

>  <SCORE.RESTR>
0.0222559

>  <SCORE.RESTR.CAVITY>
0.0222559

>  <SCORE.RESTR.norm>
0.00202326

>  <SCORE.SYSTEM>
0

>  <SCORE.SYSTEM.CONST>
0

>  <SCORE.SYSTEM.DIHEDRAL>
0

>  <SCORE.SYSTEM.SOLV>
0

>  <SCORE.SYSTEM.norm>
0

>  <SCORE.heavy>
11

>  <SCORE.norm>
-3.45062

>  <RMSD>
13.642

$$$$
1akx_lig
 OpenBabel11021811383D
libRbt.so/2013.1/901 2013/11/27
 11 10  0  0  0  0  0  0  0  0999 V2000
  -10.8049    4.6746   -3.7790 N   0  0  0  0  0  0  0  0  0  0  0  0
  -10.5093    3.7444   -2.6497 C   0  0  2  0  0  0  0  0  0  0  0  0
  -10.7925    2.3018   -3.0872 C   0  0  0  0  0  0  0  0  0  0  0  0
  -10.5412    1.3721   -2.3465 O   0  0  0  0  0  0  0  0  0  0  0  0
  -11.3897    4.1013   -1.4443 C   0  0  0  0  0  0  0  0  0  0  0  0
  -10.9366    5.4394   -0.8514 C   0  0  0  0  0  0  0  0  0  0  0  0
  -12.0230    5.9802    0.0783 C   0  0  0  0  0  0  0  0  0  0  0  0
  -11.4160    6.3420    1.3909 N   0  0  0  0  0  0  0  0  0  0  0  0
  -10.8063    7.4900    1.5415 C   0  0  0  0  0  0  0  0  0  0  0  0
  -11.2178    8.5456    0.8874 N   0  0  0  0  0  0  0  0  0  0  0  0
   -9.7871    7.5831    2.3530 N   0  0  0  0  0  0  0  0  0  0  0  0
  2  1  1  6  0  0  0
  2  3  1  0  0  0  0
  2  5  1  0  0  0  0
  3  4  1  0  0  0  0
  5  6  1  0  0  0  0
  6  7  1  0  0  0  0
  7  8  1  0  0  0  0
  8  9  1  0  0  0  0
  9 10  1  0  0  0  0
  9 11  1  0  0  0  0
M  END
>  <CHROM.1>
78.52925377,175.49263581,-69.80529798,164.46218087,129.22554066,81.67151304
32.90181491,58.18053281,90.57938639,-10.91702762,5.25401199,-0.72639128,1.49085546
1.42922094,-2.31525982

>  <Name>
1akx_lig

>  <RI>
0

>  <Rbt.Current_Directory>
/home/itssahil/PROJECTS/Mol_Feturizer/New_Systems/rnas/1akx

>  <Rbt.Executable>
rbdock ($Id: //depot/dev/client3/rdock/2013.1/src/exe/rbdock.cxx#4 $)

>  <Rbt.Library>
libRbt.so (2013.1, Build901 2013/11/27)

>  <Rbt.Parameter_File>
/export/apps/rDock/src/rDock_2013.1_src/data/scripts/dock_solv.prm

>  <Rbt.Receptor>
prm/blind_docking_80.prm

>  <SCORE>
-36.4457

>  <SCORE.INTER>
-32.563

>  <SCORE.INTER.CONST>
1

>  <SCORE.INTER.POLAR>
-5.29412

>  <SCORE.INTER.ROT>
8

>  <SCORE.INTER.SOLV>
12.3344

>  <SCORE.INTER.VDW>
-17.1064

>  <SCORE.INTER.norm>
-2.96027

>  <SCORE.INTRA>
-4.26056

>  <SCORE.INTRA.DIHEDRAL>
-9.45192

>  <SCORE.INTRA.DIHEDRAL.0>
21.6454

>  <SCORE.INTRA.POLAR>
0

>  <SCORE.INTRA.POLAR.0>
0

>  <SCORE.INTRA.REPUL>
0

>  <SCORE.INTRA.REPUL.0>
0

>  <SCORE.INTRA.SOLV>
0.192179

>  <SCORE.INTRA.SOLV.lig_0>
-16.5947

>  <SCORE.INTRA.VDW>
0.369314

>  <SCORE.INTRA.VDW.0>
-0.691398

>  <SCORE.INTRA.norm>
-0.387323

>  <SCORE.RESTR>
0.377841

>  <SCORE.RESTR.CAVITY>
0.377841

>  <SCORE.RESTR.norm>
0.0343492

>  <SCORE.SYSTEM>
0

>  <SCORE.SYSTEM.CONST>
0

>  <SCORE.SYSTEM.DIHEDRAL>
0

>  <SCORE.SYSTEM.SOLV>
0

>  <SCORE.SYSTEM.norm>
0

>  <SCORE.heavy>
11

>  <SCORE.norm>
-3.31325

>  <RMSD>
13.642

$$$$
1akx_lig
 OpenBabel11021811383D
libRbt.so/2013.1/901 2013/11/27
 11 10  0  0  0  0  0  0  0  0999 V2000
   -8.4426    3.7941   -2.7902 N   0  0  0  0  0  0  0  0  0  0  0  0
   -9.8933    3.7930   -2.4385 C   0  0  2  0  0  0  0  0  0  0  0  0
  -10.7143    4.2500   -3.6508 C   0  0  0  0  0  0  0  0  0  0  0  0
  -11.9181    4.3896   -3.5632 O   0  0  0  0  0  0  0  0  0  0  0  0
  -10.1383    4.7448   -1.2597 C   0  0  0  0  0  0  0  0  0  0  0  0
  -11.5199    4.4743   -0.6554 C   0  0  0  0  0  0  0  0  0  0  0  0
  -11.5592    4.9930    0.7821 C   0  0  0  0  0  0  0  0  0  0  0  0
  -11.5483    6.4836    0.7709 N   0  0  0  0  0  0  0  0  0  0  0  0
  -10.8843    7.1451    1.6841 C   0  0  0  0  0  0  0  0  0  0  0  0
  -11.3975    7.3205    2.8746 N   0  0  0  0  0  0  0  0  0  0  0  0
   -9.7021    7.6264    1.4073 N   0  0  0  0  0  0  0  0  0  0  0  0
  2  1  1  6  0  0  0
  2  3  1  0  0  0  0
  2  5  1  0  0  0  0
  3  4  1  0  0  0  0
  5  6  1  0  0  0  0
  6  7  1  0  0  0  0
  7  8  1  0  0  0  0
  8  9  1  0  0  0  0
  9 10  1  0  0  0  0
  9 11  1  0  0  0  0
M  END
>  <CHROM.1>
55.05152689,-176.14182901,-164.92445451,158.23266272,70.48218513,-142.61965924
-80.00011358,-52.62541216,-116.81783459,-10.67346279,5.38752585,-0.62574359
-1.44603719,0.04327956,1.01630043

>  <Name>
1akx_lig

>  <RI>
0

>  <Rbt.Current_Directory>
/home/itssahil/PROJECTS/Mol_Feturizer/New_Systems/rnas/1akx

>  <Rbt.Executable>
rbdock ($Id: //depot/dev/client3/rdock/2013.1/src/exe/rbdock.cxx#4 $)

>  <Rbt.Library>
libRbt.so (2013.1, Build901 2013/11/27)

>  <Rbt.Parameter_File>
/export/apps/rDock/src/rDock_2013.1_src/data/scripts/dock_solv.prm

>  <Rbt.Receptor>
prm/blind_docking_40.prm

>  <SCORE>
-46.802

>  <SCORE.INTER>
-40.592

>  <SCORE.INTER.CONST>
1

>  <SCORE.INTER.POLAR>
-6.39486

>  <SCORE.INTER.ROT>
8

>  <SCORE.INTER.SOLV>
12.0201

>  <SCORE.INTER.VDW>
-18.6852

>  <SCORE.INTER.norm>
-3.69018

>  <SCORE.INTRA>
-6.28349

>  <SCORE.INTRA.DIHEDRAL>
-13.676

>  <SCORE.INTRA.DIHEDRAL.0>
21.6454

>  <SCORE.INTRA.POLAR>
0

>  <SCORE.INTRA.POLAR.0>
0

>  <SCORE.INTRA.REPUL>
0

>  <SCORE.INTRA.REPUL.0>
0

>  <SCORE.INTRA.SOLV>
0.359454

>  <SCORE.INTRA.SOLV.lig_0>
-16.5947

>  <SCORE.INTRA.VDW>
0.374788

>  <SCORE.INTRA.VDW.0>
-0.691398

>  <SCORE.INTRA.norm>
-0.571227

>  <SCORE.RESTR>
0.0734856

>  <SCORE.RESTR.CAVITY>
0.0734856

>  <SCORE.RESTR.norm>
0.00668051

>  <SCORE.SYSTEM>
0

>  <SCORE.SYSTEM.CONST>
0

>  <SCORE.SYSTEM.DIHEDRAL>
0

>  <SCORE.SYSTEM.SOLV>
0

>  <SCORE.SYSTEM.norm>
0

>  <SCORE.heavy>
11

>  <SCORE.norm>
-4.25473

>  <RMSD>
13.644

$$$$
1akx_lig
 OpenBabel11021811383D
libRbt.so/2013.1/901 2013/11/27
 11 10  0  0  0  0  0  0  0  0999 V2000
   -8.4151    3.3356   -2.5968 N   0  0  0  0  0  0  0  0  0  0  0  0
   -9.7803    3.8345   -2.2570 C   0  0  2  0  0  0  0  0  0  0  0  0
  -10.5734    4.0746   -3.5478 C   0  0  0  0  0  0  0  0  0  0  0  0
  -11.7015    4.5236   -3.5039 O   0  0  0  0  0  0  0  0  0  0  0  0
   -9.6678    5.1460   -1.4679 C   0  0  0  0  0  0  0  0  0  0  0  0
  -10.9942    5.4381   -0.7590 C   0  0  0  0  0  0  0  0  0  0  0  0
  -10.8151    5.2694    0.7498 C   0  0  0  0  0  0  0  0  0  0  0  0
  -10.1779    6.4939    1.3125 N   0  0  0  0  0  0  0  0  0  0  0  0
  -10.9166    7.4517    1.8119 C   0  0  0  0  0  0  0  0  0  0  0  0
  -10.4360    8.2395    2.7391 N   0  0  0  0  0  0  0  0  0  0  0  0
  -12.1363    7.6251    1.3779 N   0  0  0  0  0  0  0  0  0  0  0  0
  2  1  1  6  0  0  0
  2  3  1  0  0  0  0
  2  5  1  0  0  0  0
  3  4  1  0  0  0  0
  5  6  1  0  0  0  0
  6  7  1  0  0  0  0
  7  8  1  0  0  0  0
  8  9  1  0  0  0  0
  9 10  1  0  0  0  0
  9 11  1  0  0  0  0
M  END
>  <CHROM.1>
25.11478270,-177.70011098,-162.91308807,110.38087129,80.30266147,94.39084333
153.10472297,138.04754645,-40.59225232,-10.49666917,5.59568069,-0.55938828
-1.40044895,-0.41109572,1.00830462

>  <Name>
1akx_lig

>  <RI>
0

>  <Rbt.Current_Directory>
/home/itssahil/PROJECTS/Mol_Feturizer/New_Systems/rnas/1akx

>  <Rbt.Executable>
rbdock ($Id: //depot/dev/client3/rdock/2013.1/src/exe/rbdock.cxx#4 $)

>  <Rbt.Library>
libRbt.so (2013.1, Build901 2013/11/27)

>  <Rbt.Parameter_File>
/export/apps/rDock/src/rDock_2013.1_src/data/scripts/dock_solv.prm

>  <Rbt.Receptor>
prm/blind_docking_100.prm

>  <SCORE>
-36.7131

>  <SCORE.INTER>
-35.4087

>  <SCORE.INTER.CONST>
1

>  <SCORE.INTER.POLAR>
-5.15639

>  <SCORE.INTER.ROT>
8

>  <SCORE.INTER.SOLV>
12.2746

>  <SCORE.INTER.VDW>
-19.4427

>  <SCORE.INTER.norm>
-3.21897

>  <SCORE.INTRA>
-1.30435

>  <SCORE.INTRA.DIHEDRAL>
-6.31392

>  <SCORE.INTRA.DIHEDRAL.0>
21.6454

>  <SCORE.INTRA.POLAR>
0

>  <SCORE.INTRA.POLAR.0>
0

>  <SCORE.INTRA.REPUL>
0

>  <SCORE.INTRA.REPUL.0>
0

>  <SCORE.INTRA.SOLV>
0.470717

>  <SCORE.INTRA.SOLV.lig_0>
-16.5947

>  <SCORE.INTRA.VDW>
1.61725

>  <SCORE.INTRA.VDW.0>
-0.691398

>  <SCORE.INTRA.norm>
-0.118577

>  <SCORE.RESTR>
0

>  <SCORE.RESTR.CAVITY>
0

>  <SCORE.RESTR.norm>
0

>  <SCORE.SYSTEM>
0

>  <SCORE.SYSTEM.CONST>
0

>  <SCORE.SYSTEM.DIHEDRAL>
0

>  <SCORE.SYSTEM.SOLV>
0

>  <SCORE.SYSTEM.norm>
0

>  <SCORE.heavy>
11

>  <SCORE.norm>
-3.33755

>  <RMSD>
13.662

$$$$
1akx_lig
 OpenBabel11021811383D
libRbt.so/2013.1/901 2013/11/27
 11 10  0  0  0  0  0  0  0  0999 V2000
   -8.3102    3.6429   -2.8671 N   0  0  0  0  0  0  0  0  0  0  0  0
   -9.6833    3.7263   -2.2878 C   0  0  2  0  0  0  0  0  0  0  0  0
  -10.7185    3.7054   -3.4194 C   0  0  0  0  0  0  0  0  0  0  0  0
  -10.7623    4.6077   -4.2319 O   0  0  0  0  0  0  0  0  0  0  0  0
   -9.8245    5.0247   -1.4819 C   0  0  0  0  0  0  0  0  0  0  0  0
  -10.7989    4.8084   -0.3196 C   0  0  0  0  0  0  0  0  0  0  0  0
  -11.5147    6.1213   -0.0020 C   0  0  0  0  0  0  0  0  0  0  0  0
  -10.5147    7.1373    0.4339 N   0  0  0  0  0  0  0  0  0  0  0  0
  -10.6432    7.7349    1.5910 C   0  0  0  0  0  0  0  0  0  0  0  0
  -10.5996    9.0401    1.6672 N   0  0  0  0  0  0  0  0  0  0  0  0
  -10.8219    7.0250    2.6727 N   0  0  0  0  0  0  0  0  0  0  0  0
  2  1  1  6  0  0  0
  2  3  1  0  0  0  0
  2  5  1  0  0  0  0
  3  4  1  0  0  0  0
  5  6  1  0  0  0  0
  6  7  1  0  0  0  0
  7  8  1  0  0  0  0
  8  9  1  0  0  0  0
  9 10  1  0  0  0  0
  9 11  1  0  0  0  0
M  END
>  <CHROM.1>
-46.93827755,-64.13638322,-148.78875128,-149.69918848,-62.39377677,-123.90859453
-128.60333843,-14.17799192,-37.15661583,-10.34893752,5.70732882,-0.75767736
-1.36689397,-0.78191370,1.05529883

>  <Name>
1akx_lig

>  <RI>
0

>  <Rbt.Current_Directory>
/home/afrankz/demos/rdock_decoys_rna/rnas/1akx

>  <Rbt.Executable>
rbdock ($Id: //depot/dev/client3/rdock/2013.1/src/exe/rbdock.cxx#4 $)

>  <Rbt.Library>
libRbt.so (2013.1, Build901 2013/11/27)

>  <Rbt.Parameter_File>
/export/apps/rDock/src/rDock_2013.1_src/data/scripts/dock_solv.prm

>  <Rbt.Receptor>
prm/blind_docking_20.prm

>  <SCORE>
-34.2549

>  <SCORE.INTER>
-30.0834

>  <SCORE.INTER.CONST>
1

>  <SCORE.INTER.POLAR>
-4.25525

>  <SCORE.INTER.ROT>
8

>  <SCORE.INTER.SOLV>
14.0132

>  <SCORE.INTER.VDW>
-19.4759

>  <SCORE.INTER.norm>
-2.73486

>  <SCORE.INTRA>
-4.42117

>  <SCORE.INTRA.DIHEDRAL>
-10.1301

>  <SCORE.INTRA.DIHEDRAL.0>
21.6454

>  <SCORE.INTRA.POLAR>
0

>  <SCORE.INTRA.POLAR.0>
0

>  <SCORE.INTRA.REPUL>
0

>  <SCORE.INTRA.REPUL.0>
0

>  <SCORE.INTRA.SOLV>
0.516248

>  <SCORE.INTRA.SOLV.lig_0>
-16.5947

>  <SCORE.INTRA.VDW>
0.385779

>  <SCORE.INTRA.VDW.0>
-0.691398

>  <SCORE.INTRA.norm>
-0.401924

>  <SCORE.RESTR>
0.249699

>  <SCORE.RESTR.CAVITY>
0.249699

>  <SCORE.RESTR.norm>
0.0226999

>  <SCORE.SYSTEM>
0

>  <SCORE.SYSTEM.CONST>
0

>  <SCORE.SYSTEM.DIHEDRAL>
0

>  <SCORE.SYSTEM.SOLV>
0

>  <SCORE.SYSTEM.norm>
0

>  <SCORE.heavy>
11

>  <SCORE.norm>
-3.11408

>  <RMSD>
13.670

>  <RMSD>
13.670

$$$$
1akx_lig
 OpenBabel11021811383D
libRbt.so/2013.1/901 2013/11/27
 11 10  0  0  0  0  0  0  0  0999 V2000
   -8.3102    3.6429   -2.8671 N   0  0  0  0  0  0  0  0  0  0  0  0
   -9.6833    3.7263   -2.2878 C   0  0  2  0  0  0  0  0  0  0  0  0
  -10.7185    3.7054   -3.4194 C   0  0  0  0  0  0  0  0  0  0  0  0
  -10.7623    4.6077   -4.2319 O   0  0  0  0  0  0  0  0  0  0  0  0
   -9.8245    5.0247   -1.4819 C   0  0  0  0  0  0  0  0  0  0  0  0
  -10.7989    4.8084   -0.3196 C   0  0  0  0  0  0  0  0  0  0  0  0
  -11.5147    6.1213   -0.0020 C   0  0  0  0  0  0  0  0  0  0  0  0
  -10.5147    7.1373    0.4339 N   0  0  0  0  0  0  0  0  0  0  0  0
  -10.6432    7.7349    1.5910 C   0  0  0  0  0  0  0  0  0  0  0  0
  -10.5996    9.0401    1.6672 N   0  0  0  0  0  0  0  0  0  0  0  0
  -10.8219    7.0250    2.6727 N   0  0  0  0  0  0  0  0  0  0  0  0
  2  1  1  6  0  0  0
  2  3  1  0  0  0  0
  2  5  1  0  0  0  0
  3  4  1  0  0  0  0
  5  6  1  0  0  0  0
  6  7  1  0  0  0  0
  7  8  1  0  0  0  0
  8  9  1  0  0  0  0
  9 10  1  0  0  0  0
  9 11  1  0  0  0  0
M  END
>  <CHROM.1>
-46.93827755,-64.13638322,-148.78875128,-149.69918848,-62.39377677,-123.90859453
-128.60333843,-14.17799192,-37.15661583,-10.34893752,5.70732882,-0.75767736
-1.36689397,-0.78191370,1.05529883

>  <Name>
1akx_lig

>  <RI>
0

>  <Rbt.Current_Directory>
/home/afrankz/demos/rdock_decoys_rna/rnas/1akx

>  <Rbt.Executable>
rbdock ($Id: //depot/dev/client3/rdock/2013.1/src/exe/rbdock.cxx#4 $)

>  <Rbt.Library>
libRbt.so (2013.1, Build901 2013/11/27)

>  <Rbt.Parameter_File>
/export/apps/rDock/src/rDock_2013.1_src/data/scripts/dock_solv.prm

>  <Rbt.Receptor>
prm/blind_docking_20.prm

>  <SCORE>
-34.2549

>  <SCORE.INTER>
-30.0834

>  <SCORE.INTER.CONST>
1

>  <SCORE.INTER.POLAR>
-4.25525

>  <SCORE.INTER.ROT>
8

>  <SCORE.INTER.SOLV>
14.0132

>  <SCORE.INTER.VDW>
-19.4759

>  <SCORE.INTER.norm>
-2.73486

>  <SCORE.INTRA>
-4.42117

>  <SCORE.INTRA.DIHEDRAL>
-10.1301

>  <SCORE.INTRA.DIHEDRAL.0>
21.6454

>  <SCORE.INTRA.POLAR>
0

>  <SCORE.INTRA.POLAR.0>
0

>  <SCORE.INTRA.REPUL>
0

>  <SCORE.INTRA.REPUL.0>
0

>  <SCORE.INTRA.SOLV>
0.516248

>  <SCORE.INTRA.SOLV.lig_0>
-16.5947

>  <SCORE.INTRA.VDW>
0.385779

>  <SCORE.INTRA.VDW.0>
-0.691398

>  <SCORE.INTRA.norm>
-0.401924

>  <SCORE.RESTR>
0.249699

>  <SCORE.RESTR.CAVITY>
0.249699

>  <SCORE.RESTR.norm>
0.0226999

>  <SCORE.SYSTEM>
0

>  <SCORE.SYSTEM.CONST>
0

>  <SCORE.SYSTEM.DIHEDRAL>
0

>  <SCORE.SYSTEM.SOLV>
0

>  <SCORE.SYSTEM.norm>
0

>  <SCORE.heavy>
11

>  <SCORE.norm>
-3.11408

>  <RMSD>
13.670

>  <RMSD>
13.670

$$$$
1akx_lig
 OpenBabel11021811383D
libRbt.so/2013.1/901 2013/11/27
 11 10  0  0  0  0  0  0  0  0999 V2000
   -9.7022    6.7243    1.8912 N   0  0  0  0  0  0  0  0  0  0  0  0
  -10.7112    7.2104    0.9044 C   0  0  2  0  0  0  0  0  0  0  0  0
  -11.6060    8.2666    1.5653 C   0  0  0  0  0  0  0  0  0  0  0  0
  -12.4615    8.8405    0.9212 O   0  0  0  0  0  0  0  0  0  0  0  0
  -11.5701    6.0330    0.4233 C   0  0  0  0  0  0  0  0  0  0  0  0
  -10.7771    5.1914   -0.5817 C   0  0  0  0  0  0  0  0  0  0  0  0
  -11.7389    4.3207   -1.3903 C   0  0  0  0  0  0  0  0  0  0  0  0
  -10.9656    3.2778   -2.1228 N   0  0  0  0  0  0  0  0  0  0  0  0
  -10.3108    3.5864   -3.2129 C   0  0  0  0  0  0  0  0  0  0  0  0
   -9.1587    3.0231   -3.4714 N   0  0  0  0  0  0  0  0  0  0  0  0
  -10.8129    4.4556   -4.0486 N   0  0  0  0  0  0  0  0  0  0  0  0
  2  1  1  1  0  0  0
  2  3  1  0  0  0  0
  2  5  1  0  0  0  0
  3  4  1  0  0  0  0
  5  6  1  0  0  0  0
  6  7  1  0  0  0  0
  7  8  1  0  0  0  0
  8  9  1  0  0  0  0
  9 10  1  0  0  0  0
  9 11  1  0  0  0  0
M  END
>  <CHROM.1>
136.66384035,176.71979453,-76.40748253,-161.64340677,-166.42561830,-77.53218220
143.69826939,-118.17097745,-57.35187719,-10.86462973,5.53852400,-0.83238002
-1.78511892,0.68425878,-2.18640322

>  <Name>
1akx_lig

>  <RI>
0

>  <Rbt.Current_Directory>
/home/itssahil/PROJECTS/Mol_Feturizer/New_Systems/rnas/1akx

>  <Rbt.Executable>
rbdock ($Id: //depot/dev/client3/rdock/2013.1/src/exe/rbdock.cxx#4 $)

>  <Rbt.Library>
libRbt.so (2013.1, Build901 2013/11/27)

>  <Rbt.Parameter_File>
/export/apps/rDock/src/rDock_2013.1_src/data/scripts/dock_solv.prm

>  <Rbt.Receptor>
prm/blind_docking_40.prm

>  <SCORE>
-32.5163

>  <SCORE.INTER>
-28.3808

>  <SCORE.INTER.CONST>
1

>  <SCORE.INTER.POLAR>
-4.16159

>  <SCORE.INTER.ROT>
8

>  <SCORE.INTER.SOLV>
13.2115

>  <SCORE.INTER.VDW>
-18.3858

>  <SCORE.INTER.norm>
-2.58008

>  <SCORE.INTRA>
-4.13542

>  <SCORE.INTRA.DIHEDRAL>
-10.8494

>  <SCORE.INTRA.DIHEDRAL.0>
21.6454

>  <SCORE.INTRA.POLAR>
0

>  <SCORE.INTRA.POLAR.0>
0

>  <SCORE.INTRA.REPUL>
0

>  <SCORE.INTRA.REPUL.0>
0

>  <SCORE.INTRA.SOLV>
0.162815

>  <SCORE.INTRA.SOLV.lig_0>
-16.5947

>  <SCORE.INTRA.VDW>
1.20786

>  <SCORE.INTRA.VDW.0>
-0.691398

>  <SCORE.INTRA.norm>
-0.375947

>  <SCORE.RESTR>
0

>  <SCORE.RESTR.CAVITY>
0

>  <SCORE.RESTR.norm>
0

>  <SCORE.SYSTEM>
0

>  <SCORE.SYSTEM.CONST>
0

>  <SCORE.SYSTEM.DIHEDRAL>
0

>  <SCORE.SYSTEM.SOLV>
0

>  <SCORE.SYSTEM.norm>
0

>  <SCORE.heavy>
11

>  <SCORE.norm>
-2.95602

>  <RMSD>
13.672

$$$$
1akx_lig
 OpenBabel11021811383D
libRbt.so/2013.1/901 2013/11/27
 11 10  0  0  0  0  0  0  0  0999 V2000
   -9.7158    6.6332    1.7510 N   0  0  0  0  0  0  0  0  0  0  0  0
  -10.6618    7.1785    0.7332 C   0  0  2  0  0  0  0  0  0  0  0  0
  -11.4164    8.3755    1.3253 C   0  0  0  0  0  0  0  0  0  0  0  0
  -10.8316    9.2029    1.9958 O   0  0  0  0  0  0  0  0  0  0  0  0
  -11.6615    6.0887    0.3230 C   0  0  0  0  0  0  0  0  0  0  0  0
  -11.0098    5.1455   -0.6933 C   0  0  0  0  0  0  0  0  0  0  0  0
  -12.0634    4.1886   -1.2510 C   0  0  0  0  0  0  0  0  0  0  0  0
  -11.4083    3.2081   -2.1630 N   0  0  0  0  0  0  0  0  0  0  0  0
  -10.6791    3.6258   -3.1661 C   0  0  0  0  0  0  0  0  0  0  0  0
   -9.4378    3.2311   -3.2879 N   0  0  0  0  0  0  0  0  0  0  0  0
  -11.1951    4.4348   -4.0522 N   0  0  0  0  0  0  0  0  0  0  0  0
  2  1  1  1  0  0  0
  2  3  1  0  0  0  0
  2  5  1  0  0  0  0
  3  4  1  0  0  0  0
  5  6  1  0  0  0  0
  6  7  1  0  0  0  0
  7  8  1  0  0  0  0
  8  9  1  0  0  0  0
  9 10  1  0  0  0  0
  9 11  1  0  0  0  0
M  END
>  <CHROM.1>
29.05804562,42.17202187,-79.90003583,-171.83214207,-175.87021925,-54.63689413
124.11824501,79.90893772,-164.62277133,-10.87764564,5.57610147,-0.76477036
-1.57713144,0.42850061,-2.32305557

>  <Name>
1akx_lig

>  <RI>
0

>  <Rbt.Current_Directory>
/home/itssahil/PROJECTS/Mol_Feturizer/New_Systems/rnas/1akx

>  <Rbt.Executable>
rbdock ($Id: //depot/dev/client3/rdock/2013.1/src/exe/rbdock.cxx#4 $)

>  <Rbt.Library>
libRbt.so (2013.1, Build901 2013/11/27)

>  <Rbt.Parameter_File>
/export/apps/rDock/src/rDock_2013.1_src/data/scripts/dock_solv.prm

>  <Rbt.Receptor>
prm/blind_docking_80.prm

>  <SCORE>
-33.8882

>  <SCORE.INTER>
-29.4042

>  <SCORE.INTER.CONST>
1

>  <SCORE.INTER.POLAR>
-4.23972

>  <SCORE.INTER.ROT>
8

>  <SCORE.INTER.SOLV>
12.6389

>  <SCORE.INTER.VDW>
-18.6167

>  <SCORE.INTER.norm>
-2.67311

>  <SCORE.INTRA>
-4.7378

>  <SCORE.INTRA.DIHEDRAL>
-12.088

>  <SCORE.INTRA.DIHEDRAL.0>
21.6454

>  <SCORE.INTRA.POLAR>
0

>  <SCORE.INTRA.POLAR.0>
0

>  <SCORE.INTRA.REPUL>
0

>  <SCORE.INTRA.REPUL.0>
0

>  <SCORE.INTRA.SOLV>
0.48028

>  <SCORE.INTRA.SOLV.lig_0>
-16.5947

>  <SCORE.INTRA.VDW>
1.06605

>  <SCORE.INTRA.VDW.0>
-0.691398

>  <SCORE.INTRA.norm>
-0.430709

>  <SCORE.RESTR>
0.253856

>  <SCORE.RESTR.CAVITY>
0.253856

>  <SCORE.RESTR.norm>
0.0230778

>  <SCORE.SYSTEM>
0

>  <SCORE.SYSTEM.CONST>
0

>  <SCORE.SYSTEM.DIHEDRAL>
0

>  <SCORE.SYSTEM.SOLV>
0

>  <SCORE.SYSTEM.norm>
0

>  <SCORE.heavy>
11

>  <SCORE.norm>
-3.08074

>  <RMSD>
13.678

$$$$
1akx_lig
 OpenBabel11021811383D
libRbt.so/2013.1/901 2013/11/27
 11 10  0  0  0  0  0  0  0  0999 V2000
   -9.1488    4.3836   -3.4769 N   0  0  0  0  0  0  0  0  0  0  0  0
   -9.9158    3.6891   -2.4010 C   0  0  2  0  0  0  0  0  0  0  0  0
  -10.7943    2.5962   -3.0226 C   0  0  0  0  0  0  0  0  0  0  0  0
  -11.5008    1.8997   -2.3212 O   0  0  0  0  0  0  0  0  0  0  0  0
  -10.7986    4.7033   -1.6610 C   0  0  0  0  0  0  0  0  0  0  0  0
   -9.9310    5.5717   -0.7442 C   0  0  0  0  0  0  0  0  0  0  0  0
  -10.7755    6.0856    0.4219 C   0  0  0  0  0  0  0  0  0  0  0  0
  -10.1530    7.3211    0.9770 N   0  0  0  0  0  0  0  0  0  0  0  0
  -10.8623    8.1489    1.7010 C   0  0  0  0  0  0  0  0  0  0  0  0
  -11.8567    8.8081    1.1644 N   0  0  0  0  0  0  0  0  0  0  0  0
  -10.5798    8.3122    2.9657 N   0  0  0  0  0  0  0  0  0  0  0  0
  2  1  1  6  0  0  0
  2  3  1  0  0  0  0
  2  5  1  0  0  0  0
  3  4  1  0  0  0  0
  5  6  1  0  0  0  0
  6  7  1  0  0  0  0
  7  8  1  0  0  0  0
  8  9  1  0  0  0  0
  9 10  1  0  0  0  0
  9 11  1  0  0  0  0
M  END
>  <CHROM.1>
82.75528454,179.62746807,-74.52306226,-153.62987717,-156.96285037,160.23869183
-65.75173070,-86.14960364,-39.62393345,-10.56883881,5.61300840,-0.58686112
-1.47932214,0.73564323,0.67624883

>  <Name>
1akx_lig

>  <RI>
0

>  <Rbt.Current_Directory>
/home/itssahil/PROJECTS/Mol_Feturizer/New_Systems/rnas/1akx

>  <Rbt.Executable>
rbdock ($Id: //depot/dev/client3/rdock/2013.1/src/exe/rbdock.cxx#4 $)

>  <Rbt.Library>
libRbt.so (2013.1, Build901 2013/11/27)

>  <Rbt.Parameter_File>
/export/apps/rDock/src/rDock_2013.1_src/data/scripts/dock_solv.prm

>  <Rbt.Receptor>
prm/blind_docking_80.prm

>  <SCORE>
-38.7826

>  <SCORE.INTER>
-34.2544

>  <SCORE.INTER.CONST>
1

>  <SCORE.INTER.POLAR>
-5.65336

>  <SCORE.INTER.ROT>
8

>  <SCORE.INTER.SOLV>
12.3

>  <SCORE.INTER.VDW>
-17.025

>  <SCORE.INTER.norm>
-3.11403

>  <SCORE.INTRA>
-5.18526

>  <SCORE.INTRA.DIHEDRAL>
-10.6465

>  <SCORE.INTRA.DIHEDRAL.0>
21.6454

>  <SCORE.INTRA.POLAR>
0

>  <SCORE.INTRA.POLAR.0>
0

>  <SCORE.INTRA.REPUL>
0

>  <SCORE.INTRA.REPUL.0>
0

>  <SCORE.INTRA.SOLV>
-0.0626038

>  <SCORE.INTRA.SOLV.lig_0>
-16.5947

>  <SCORE.INTRA.VDW>
0.169301

>  <SCORE.INTRA.VDW.0>
-0.691398

>  <SCORE.INTRA.norm>
-0.471387

>  <SCORE.RESTR>
0.656972

>  <SCORE.RESTR.CAVITY>
0.656972

>  <SCORE.RESTR.norm>
0.0597247

>  <SCORE.SYSTEM>
0

>  <SCORE.SYSTEM.CONST>
0

>  <SCORE.SYSTEM.DIHEDRAL>
0

>  <SCORE.SYSTEM.SOLV>
0

>  <SCORE.SYSTEM.norm>
0

>  <SCORE.heavy>
11

>  <SCORE.norm>
-3.5257

>  <RMSD>
13.697

$$$$
1akx_lig
 OpenBabel11021811383D
libRbt.so/2013.1/901 2013/11/27
 11 10  0  0  0  0  0  0  0  0999 V2000
   -9.2163    4.4900   -3.4073 N   0  0  0  0  0  0  0  0  0  0  0  0
   -9.9206    4.0181   -2.1787 C   0  0  2  0  0  0  0  0  0  0  0  0
  -11.2499    3.3611   -2.5711 C   0  0  0  0  0  0  0  0  0  0  0  0
  -11.2627    2.2923   -3.1487 O   0  0  0  0  0  0  0  0  0  0  0  0
  -10.1874    5.2092   -1.2484 C   0  0  0  0  0  0  0  0  0  0  0  0
  -10.6384    4.7016    0.1250 C   0  0  0  0  0  0  0  0  0  0  0  0
  -11.2858    5.8457    0.9052 C   0  0  0  0  0  0  0  0  0  0  0  0
  -10.2349    6.8177    1.3214 N   0  0  0  0  0  0  0  0  0  0  0  0
  -10.5713    7.9945    1.7845 C   0  0  0  0  0  0  0  0  0  0  0  0
  -10.6834    8.1882    3.0734 N   0  0  0  0  0  0  0  0  0  0  0  0
  -10.7897    8.9806    0.9563 N   0  0  0  0  0  0  0  0  0  0  0  0
  2  1  1  6  0  0  0
  2  3  1  0  0  0  0
  2  5  1  0  0  0  0
  3  4  1  0  0  0  0
  5  6  1  0  0  0  0
  6  7  1  0  0  0  0
  7  8  1  0  0  0  0
  8  9  1  0  0  0  0
  9 10  1  0  0  0  0
  9 11  1  0  0  0  0
M  END
>  <CHROM.1>
-52.50964694,70.00947463,-168.26109201,-163.59576627,-71.35355518,167.43198002
94.40462782,-179.02199858,131.66821801,-10.53222187,5.64706059,-0.42432018
-1.51649435,1.00639335,0.76164603

>  <Name>
1akx_lig

>  <RI>
0

>  <Rbt.Current_Directory>
/home/itssahil/PROJECTS/Mol_Feturizer/New_Systems/rnas/1akx

>  <Rbt.Executable>
rbdock ($Id: //depot/dev/client3/rdock/2013.1/src/exe/rbdock.cxx#4 $)

>  <Rbt.Library>
libRbt.so (2013.1, Build901 2013/11/27)

>  <Rbt.Parameter_File>
/export/apps/rDock/src/rDock_2013.1_src/data/scripts/dock_solv.prm

>  <Rbt.Receptor>
prm/blind_docking_100.prm

>  <SCORE>
-42.6695

>  <SCORE.INTER>
-35.9325

>  <SCORE.INTER.CONST>
1

>  <SCORE.INTER.POLAR>
-5.97904

>  <SCORE.INTER.ROT>
8

>  <SCORE.INTER.SOLV>
12.5249

>  <SCORE.INTER.VDW>
-17.1331

>  <SCORE.INTER.norm>
-3.26659

>  <SCORE.INTRA>
-6.73699

>  <SCORE.INTRA.DIHEDRAL>
-14.2826

>  <SCORE.INTRA.DIHEDRAL.0>
21.6454

>  <SCORE.INTRA.POLAR>
0

>  <SCORE.INTRA.POLAR.0>
0

>  <SCORE.INTRA.REPUL>
0

>  <SCORE.INTRA.REPUL.0>
0

>  <SCORE.INTRA.SOLV>
0.26785

>  <SCORE.INTRA.SOLV.lig_0>
-16.5947

>  <SCORE.INTRA.VDW>
0.270368

>  <SCORE.INTRA.VDW.0>
-0.691398

>  <SCORE.INTRA.norm>
-0.612453

>  <SCORE.RESTR>
0

>  <SCORE.RESTR.CAVITY>
0

>  <SCORE.RESTR.norm>
0

>  <SCORE.SYSTEM>
0

>  <SCORE.SYSTEM.CONST>
0

>  <SCORE.SYSTEM.DIHEDRAL>
0

>  <SCORE.SYSTEM.SOLV>
0

>  <SCORE.SYSTEM.norm>
0

>  <SCORE.heavy>
11

>  <SCORE.norm>
-3.87904

>  <RMSD>
13.706

$$$$
1akx_lig
 OpenBabel11021811383D
libRbt.so/2013.1/901 2013/11/27
 11 10  0  0  0  0  0  0  0  0999 V2000
   -9.7037    6.8159    1.9408 N   0  0  0  0  0  0  0  0  0  0  0  0
  -10.6426    7.4027    0.9397 C   0  0  2  0  0  0  0  0  0  0  0  0
  -11.5032    8.4785    1.6142 C   0  0  0  0  0  0  0  0  0  0  0  0
  -12.3771    9.0488    0.9919 O   0  0  0  0  0  0  0  0  0  0  0  0
  -11.5457    6.2993    0.3719 C   0  0  0  0  0  0  0  0  0  0  0  0
  -10.7344    5.3985   -0.5650 C   0  0  0  0  0  0  0  0  0  0  0  0
  -11.6837    4.6361   -1.4894 C   0  0  0  0  0  0  0  0  0  0  0  0
  -11.0364    3.3658   -1.9249 N   0  0  0  0  0  0  0  0  0  0  0  0
  -10.3561    3.3215   -3.0419 C   0  0  0  0  0  0  0  0  0  0  0  0
  -10.3744    4.3377   -3.8656 N   0  0  0  0  0  0  0  0  0  0  0  0
   -9.6512    2.2608   -3.3318 N   0  0  0  0  0  0  0  0  0  0  0  0
  2  1  1  1  0  0  0
  2  3  1  0  0  0  0
  2  5  1  0  0  0  0
  3  4  1  0  0  0  0
  5  6  1  0  0  0  0
  6  7  1  0  0  0  0
  7  8  1  0  0  0  0
  8  9  1  0  0  0  0
  9 10  1  0  0  0  0
  9 11  1  0  0  0  0
M  END
>  <CHROM.1>
136.86815310,-176.94985886,-72.45337168,-160.22388718,-153.93065369,-93.01907027
-8.46485766,-129.55534017,117.40430537,-10.84775137,5.56916466,-0.75954529
-1.77871896,0.79391671,-2.24206644

>  <Name>
1akx_lig

>  <RI>
0

>  <Rbt.Current_Directory>
/home/itssahil/PROJECTS/Mol_Feturizer/New_Systems/rnas/1akx

>  <Rbt.Executable>
rbdock ($Id: //depot/dev/client3/rdock/2013.1/src/exe/rbdock.cxx#4 $)

>  <Rbt.Library>
libRbt.so (2013.1, Build901 2013/11/27)

>  <Rbt.Parameter_File>
/export/apps/rDock/src/rDock_2013.1_src/data/scripts/dock_solv.prm

>  <Rbt.Receptor>
prm/blind_docking_40.prm

>  <SCORE>
-31.4721

>  <SCORE.INTER>
-28.5897

>  <SCORE.INTER.CONST>
1

>  <SCORE.INTER.POLAR>
-4.27008

>  <SCORE.INTER.ROT>
8

>  <SCORE.INTER.SOLV>
13.1994

>  <SCORE.INTER.VDW>
-18.1593

>  <SCORE.INTER.norm>
-2.59906

>  <SCORE.INTRA>
-2.88244

>  <SCORE.INTRA.DIHEDRAL>
-9.56887

>  <SCORE.INTRA.DIHEDRAL.0>
21.6454

>  <SCORE.INTRA.POLAR>
0

>  <SCORE.INTRA.POLAR.0>
0

>  <SCORE.INTRA.REPUL>
0

>  <SCORE.INTRA.REPUL.0>
0

>  <SCORE.INTRA.SOLV>
0.157381

>  <SCORE.INTRA.SOLV.lig_0>
-16.5947

>  <SCORE.INTRA.VDW>
1.8233

>  <SCORE.INTRA.VDW.0>
-0.691398

>  <SCORE.INTRA.norm>
-0.26204

>  <SCORE.RESTR>
0

>  <SCORE.RESTR.CAVITY>
0

>  <SCORE.RESTR.norm>
0

>  <SCORE.SYSTEM>
0

>  <SCORE.SYSTEM.CONST>
0

>  <SCORE.SYSTEM.DIHEDRAL>
0

>  <SCORE.SYSTEM.SOLV>
0

>  <SCORE.SYSTEM.norm>
0

>  <SCORE.heavy>
11

>  <SCORE.norm>
-2.8611

>  <RMSD>
13.726

$$$$
1akx_lig
 OpenBabel11021811383D
libRbt.so/2013.1/901 2013/11/27
 11 10  0  0  0  0  0  0  0  0999 V2000
  -11.0334    9.0143    1.3305 N   0  0  0  0  0  0  0  0  0  0  0  0
  -11.4487    7.6206    0.9939 C   0  0  2  0  0  0  0  0  0  0  0  0
  -12.8009    7.3165    1.6511 C   0  0  0  0  0  0  0  0  0  0  0  0
  -13.3633    6.2596    1.4442 O   0  0  0  0  0  0  0  0  0  0  0  0
  -10.3921    6.6310    1.5035 C   0  0  0  0  0  0  0  0  0  0  0  0
  -10.5067    5.3109    0.7343 C   0  0  0  0  0  0  0  0  0  0  0  0
  -10.0435    5.5180   -0.7077 C   0  0  0  0  0  0  0  0  0  0  0  0
  -10.3802    4.3102   -1.5140 N   0  0  0  0  0  0  0  0  0  0  0  0
   -9.6326    3.9674   -2.5319 C   0  0  0  0  0  0  0  0  0  0  0  0
   -8.5180    3.3102   -2.3393 N   0  0  0  0  0  0  0  0  0  0  0  0
  -10.0046    4.2773   -3.7450 N   0  0  0  0  0  0  0  0  0  0  0  0
  2  1  1  1  0  0  0
  2  3  1  0  0  0  0
  2  5  1  0  0  0  0
  3  4  1  0  0  0  0
  5  6  1  0  0  0  0
  6  7  1  0  0  0  0
  7  8  1  0  0  0  0
  8  9  1  0  0  0  0
  9 10  1  0  0  0  0
  9 11  1  0  0  0  0
M  END
>  <CHROM.1>
-51.38647023,175.76060780,-158.53022157,69.91346032,-170.00775671,-149.78130286
80.82531248,-82.94857847,72.68480112,-10.73935987,5.78496099,-0.30923014
-2.02328864,-0.38544989,-2.47829056

>  <Name>
1akx_lig

>  <RI>
0

>  <Rbt.Current_Directory>
/home/itssahil/PROJECTS/Mol_Feturizer/New_Systems/rnas/1akx

>  <Rbt.Executable>
rbdock ($Id: //depot/dev/client3/rdock/2013.1/src/exe/rbdock.cxx#4 $)

>  <Rbt.Library>
libRbt.so (2013.1, Build901 2013/11/27)

>  <Rbt.Parameter_File>
/export/apps/rDock/src/rDock_2013.1_src/data/scripts/dock_solv.prm

>  <Rbt.Receptor>
prm/blind_docking_100.prm

>  <SCORE>
-37.0054

>  <SCORE.INTER>
-30.8682

>  <SCORE.INTER.CONST>
1

>  <SCORE.INTER.POLAR>
-4.71774

>  <SCORE.INTER.ROT>
8

>  <SCORE.INTER.SOLV>
12.15

>  <SCORE.INTER.VDW>
-17.8364

>  <SCORE.INTER.norm>
-2.8062

>  <SCORE.INTRA>
-6.52314

>  <SCORE.INTRA.DIHEDRAL>
-14.1618

>  <SCORE.INTRA.DIHEDRAL.0>
21.6454

>  <SCORE.INTRA.POLAR>
0

>  <SCORE.INTRA.POLAR.0>
0

>  <SCORE.INTRA.REPUL>
0

>  <SCORE.INTRA.REPUL.0>
0

>  <SCORE.INTRA.SOLV>
0.20445

>  <SCORE.INTRA.SOLV.lig_0>
-16.5947

>  <SCORE.INTRA.VDW>
0.455533

>  <SCORE.INTRA.VDW.0>
-0.691398

>  <SCORE.INTRA.norm>
-0.593013

>  <SCORE.RESTR>
0.385989

>  <SCORE.RESTR.CAVITY>
0.385989

>  <SCORE.RESTR.norm>
0.0350899

>  <SCORE.SYSTEM>
0

>  <SCORE.SYSTEM.CONST>
0

>  <SCORE.SYSTEM.DIHEDRAL>
0

>  <SCORE.SYSTEM.SOLV>
0

>  <SCORE.SYSTEM.norm>
0

>  <SCORE.heavy>
11

>  <SCORE.norm>
-3.36413

>  <RMSD>
13.738

$$$$
1akx_lig
 OpenBabel11021811383D
libRbt.so/2013.1/901 2013/11/27
 11 10  0  0  0  0  0  0  0  0999 V2000
   -9.8225    7.5665    1.2621 N   0  0  0  0  0  0  0  0  0  0  0  0
  -11.0169    6.8560    0.7172 C   0  0  2  0  0  0  0  0  0  0  0  0
  -12.2865    7.4086    1.3771 C   0  0  0  0  0  0  0  0  0  0  0  0
  -12.7924    8.4377    0.9755 O   0  0  0  0  0  0  0  0  0  0  0  0
  -10.8975    5.3530    1.0039 C   0  0  0  0  0  0  0  0  0  0  0  0
  -11.8742    4.5778    0.1138 C   0  0  0  0  0  0  0  0  0  0  0  0
  -11.6575    4.9724   -1.3471 C   0  0  0  0  0  0  0  0  0  0  0  0
  -10.7526    3.9827   -1.9981 N   0  0  0  0  0  0  0  0  0  0  0  0
  -10.2999    4.1985   -3.2068 C   0  0  0  0  0  0  0  0  0  0  0  0
  -11.0999    4.6456   -4.1402 N   0  0  0  0  0  0  0  0  0  0  0  0
   -9.0428    3.9723   -3.4800 N   0  0  0  0  0  0  0  0  0  0  0  0
  2  1  1  1  0  0  0
  2  3  1  0  0  0  0
  2  5  1  0  0  0  0
  3  4  1  0  0  0  0
  5  6  1  0  0  0  0
  6  7  1  0  0  0  0
  7  8  1  0  0  0  0
  8  9  1  0  0  0  0
  9 10  1  0  0  0  0
  9 11  1  0  0  0  0
M  END
>  <CHROM.1>
149.78592533,81.59432320,-163.39430102,53.06786526,95.92210357,-172.08258296
-43.58088716,-13.90331126,-105.52946928,-11.01782148,5.66137187,-0.80973002
-1.81500740,0.25055606,-2.13867371

>  <Name>
1akx_lig

>  <RI>
0

>  <Rbt.Current_Directory>
/home/itssahil/PROJECTS/Mol_Feturizer/New_Systems/rnas/1akx

>  <Rbt.Executable>
rbdock ($Id: //depot/dev/client3/rdock/2013.1/src/exe/rbdock.cxx#4 $)

>  <Rbt.Library>
libRbt.so (2013.1, Build901 2013/11/27)

>  <Rbt.Parameter_File>
/export/apps/rDock/src/rDock_2013.1_src/data/scripts/dock_solv.prm

>  <Rbt.Receptor>
prm/blind_docking_80.prm

>  <SCORE>
-35.9249

>  <SCORE.INTER>
-34.6866

>  <SCORE.INTER.CONST>
1

>  <SCORE.INTER.POLAR>
-5.63707

>  <SCORE.INTER.ROT>
8

>  <SCORE.INTER.SOLV>
12.8147

>  <SCORE.INTER.VDW>
-17.539

>  <SCORE.INTER.norm>
-3.15332

>  <SCORE.INTRA>
-1.92799

>  <SCORE.INTRA.DIHEDRAL>
-8.66417

>  <SCORE.INTRA.DIHEDRAL.0>
21.6454

>  <SCORE.INTRA.POLAR>
0

>  <SCORE.INTRA.POLAR.0>
0

>  <SCORE.INTRA.REPUL>
0

>  <SCORE.INTRA.REPUL.0>
0

>  <SCORE.INTRA.SOLV>
0.359319

>  <SCORE.INTRA.SOLV.lig_0>
-16.5947

>  <SCORE.INTRA.VDW>
2.22444

>  <SCORE.INTRA.VDW.0>
-0.691398

>  <SCORE.INTRA.norm>
-0.175271

>  <SCORE.RESTR>
0.689634

>  <SCORE.RESTR.CAVITY>
0.689634

>  <SCORE.RESTR.norm>
0.062694

>  <SCORE.SYSTEM>
0

>  <SCORE.SYSTEM.CONST>
0

>  <SCORE.SYSTEM.DIHEDRAL>
0

>  <SCORE.SYSTEM.SOLV>
0

>  <SCORE.SYSTEM.norm>
0

>  <SCORE.heavy>
11

>  <SCORE.norm>
-3.2659

>  <RMSD>
13.767

$$$$
1akx_lig
 OpenBabel11021811383D
libRbt.so/2013.1/901 2013/11/27
 11 10  0  0  0  0  0  0  0  0999 V2000
  -12.0138    6.4910    2.6008 N   0  0  0  0  0  0  0  0  0  0  0  0
  -10.8563    7.4131    2.4060 C   0  0  2  0  0  0  0  0  0  0  0  0
  -11.2808    8.8469    2.7478 C   0  0  0  0  0  0  0  0  0  0  0  0
  -12.1611    9.3966    2.1162 O   0  0  0  0  0  0  0  0  0  0  0  0
  -10.3852    7.3474    0.9468 C   0  0  0  0  0  0  0  0  0  0  0  0
  -10.1451    5.8882    0.5464 C   0  0  0  0  0  0  0  0  0  0  0  0
   -9.5796    5.8344   -0.8729 C   0  0  0  0  0  0  0  0  0  0  0  0
   -9.6727    4.4394   -1.3901 N   0  0  0  0  0  0  0  0  0  0  0  0
   -9.3782    4.1778   -2.6380 C   0  0  0  0  0  0  0  0  0  0  0  0
   -8.2209    3.6511   -2.9457 N   0  0  0  0  0  0  0  0  0  0  0  0
  -10.2460    4.4378   -3.5789 N   0  0  0  0  0  0  0  0  0  0  0  0
  2  1  1  6  0  0  0
  2  3  1  0  0  0  0
  2  5  1  0  0  0  0
  3  4  1  0  0  0  0
  5  6  1  0  0  0  0
  6  7  1  0  0  0  0
  7  8  1  0  0  0  0
  8  9  1  0  0  0  0
  9 10  1  0  0  0  0
  9 11  1  0  0  0  0
M  END
>  <CHROM.1>
-170.12993376,-61.78675698,-51.99906770,-175.91273681,-165.62862533,172.79525670
101.53330419,-177.68011899,-79.80083151,-10.38731532,6.15191612,-0.02007964
-2.54222697,1.15522354,-1.30546791

>  <Name>
1akx_lig

>  <RI>
0

>  <Rbt.Current_Directory>
/home/itssahil/PROJECTS/Mol_Feturizer/New_Systems/rnas/1akx

>  <Rbt.Executable>
rbdock ($Id: //depot/dev/client3/rdock/2013.1/src/exe/rbdock.cxx#4 $)

>  <Rbt.Library>
libRbt.so (2013.1, Build901 2013/11/27)

>  <Rbt.Parameter_File>
/export/apps/rDock/src/rDock_2013.1_src/data/scripts/dock_solv.prm

>  <Rbt.Receptor>
prm/blind_docking_40.prm

>  <SCORE>
-32.3759

>  <SCORE.INTER>
-25.5633

>  <SCORE.INTER.CONST>
1

>  <SCORE.INTER.POLAR>
-3.83195

>  <SCORE.INTER.ROT>
8

>  <SCORE.INTER.SOLV>
12.6604

>  <SCORE.INTER.VDW>
-17.4225

>  <SCORE.INTER.norm>
-2.32393

>  <SCORE.INTRA>
-7.00451

>  <SCORE.INTRA.DIHEDRAL>
-15.528

>  <SCORE.INTRA.DIHEDRAL.0>
21.6454

>  <SCORE.INTRA.POLAR>
0

>  <SCORE.INTRA.POLAR.0>
0

>  <SCORE.INTRA.REPUL>
0

>  <SCORE.INTRA.REPUL.0>
0

>  <SCORE.INTRA.SOLV>
0.283182

>  <SCORE.INTRA.SOLV.lig_0>
-16.5947

>  <SCORE.INTRA.VDW>
0.61788

>  <SCORE.INTRA.VDW.0>
-0.691398

>  <SCORE.INTRA.norm>
-0.636773

>  <SCORE.RESTR>
0.191908

>  <SCORE.RESTR.CAVITY>
0.191908

>  <SCORE.RESTR.norm>
0.0174462

>  <SCORE.SYSTEM>
0

>  <SCORE.SYSTEM.CONST>
0

>  <SCORE.SYSTEM.DIHEDRAL>
0

>  <SCORE.SYSTEM.SOLV>
0

>  <SCORE.SYSTEM.norm>
0

>  <SCORE.heavy>
11

>  <SCORE.norm>
-2.94326

>  <RMSD>
13.799

$$$$
1akx_lig
 OpenBabel11021811383D
libRbt.so/2013.1/901 2013/11/27
 11 10  0  0  0  0  0  0  0  0999 V2000
   -8.6899    4.3584   -2.3482 N   0  0  0  0  0  0  0  0  0  0  0  0
  -10.1391    4.1727   -2.0424 C   0  0  2  0  0  0  0  0  0  0  0  0
  -10.9534    4.2794   -3.3379 C   0  0  0  0  0  0  0  0  0  0  0  0
  -10.7090    3.5540   -4.2815 O   0  0  0  0  0  0  0  0  0  0  0  0
  -10.5991    5.2514   -1.0524 C   0  0  0  0  0  0  0  0  0  0  0  0
  -10.7285    4.6456    0.3489 C   0  0  0  0  0  0  0  0  0  0  0  0
  -11.2603    5.7036    1.3157 C   0  0  0  0  0  0  0  0  0  0  0  0
  -10.2304    6.7648    1.5035 N   0  0  0  0  0  0  0  0  0  0  0  0
  -10.5845    7.9699    1.8707 C   0  0  0  0  0  0  0  0  0  0  0  0
  -10.7962    8.2387    3.1334 N   0  0  0  0  0  0  0  0  0  0  0  0
  -10.7208    8.9090    0.9732 N   0  0  0  0  0  0  0  0  0  0  0  0
  2  1  1  6  0  0  0
  2  3  1  0  0  0  0
  2  5  1  0  0  0  0
  3  4  1  0  0  0  0
  5  6  1  0  0  0  0
  6  7  1  0  0  0  0
  7  8  1  0  0  0  0
  8  9  1  0  0  0  0
  9 10  1  0  0  0  0
  9 11  1  0  0  0  0
M  END
>  <CHROM.1>
-166.80218931,56.39728501,-103.38671675,-176.90549757,-67.82816295,155.54150195
82.46400540,20.85608864,-39.95118394,-10.45728149,5.82610918,-0.37404869
-0.58906827,1.48169650,-0.05158313

>  <Name>
1akx_lig

>  <RI>
0

>  <Rbt.Current_Directory>
/home/itssahil/PROJECTS/Mol_Feturizer/New_Systems/rnas/1akx

>  <Rbt.Executable>
rbdock ($Id: //depot/dev/client3/rdock/2013.1/src/exe/rbdock.cxx#4 $)

>  <Rbt.Library>
libRbt.so (2013.1, Build901 2013/11/27)

>  <Rbt.Parameter_File>
/export/apps/rDock/src/rDock_2013.1_src/data/scripts/dock_solv.prm

>  <Rbt.Receptor>
prm/blind_docking_100.prm

>  <SCORE>
-36.0723

>  <SCORE.INTER>
-30.1653

>  <SCORE.INTER.CONST>
1

>  <SCORE.INTER.POLAR>
-4.64956

>  <SCORE.INTER.ROT>
8

>  <SCORE.INTER.SOLV>
13.5954

>  <SCORE.INTER.VDW>
-18.0768

>  <SCORE.INTER.norm>
-2.7423

>  <SCORE.INTRA>
-5.907

>  <SCORE.INTRA.DIHEDRAL>
-11.2825

>  <SCORE.INTRA.DIHEDRAL.0>
21.6454

>  <SCORE.INTRA.POLAR>
0

>  <SCORE.INTRA.POLAR.0>
0

>  <SCORE.INTRA.REPUL>
0

>  <SCORE.INTRA.REPUL.0>
0

>  <SCORE.INTRA.SOLV>
0.355529

>  <SCORE.INTRA.SOLV.lig_0>
-16.5947

>  <SCORE.INTRA.VDW>
-0.443529

>  <SCORE.INTRA.VDW.0>
-0.691398

>  <SCORE.INTRA.norm>
-0.537

>  <SCORE.RESTR>
0

>  <SCORE.RESTR.CAVITY>
0

>  <SCORE.RESTR.norm>
0

>  <SCORE.SYSTEM>
0

>  <SCORE.SYSTEM.CONST>
0

>  <SCORE.SYSTEM.DIHEDRAL>
0

>  <SCORE.SYSTEM.SOLV>
0

>  <SCORE.SYSTEM.norm>
0

>  <SCORE.heavy>
11

>  <SCORE.norm>
-3.2793

>  <RMSD>
13.812

$$$$
1akx_lig
 OpenBabel11021811383D
libRbt.so/2013.1/901 2013/11/27
 11 10  0  0  0  0  0  0  0  0999 V2000
  -11.0545    8.8165    1.1560 N   0  0  0  0  0  0  0  0  0  0  0  0
  -11.8698    7.5679    1.2218 C   0  0  2  0  0  0  0  0  0  0  0  0
  -12.2785    7.2994    2.6757 C   0  0  0  0  0  0  0  0  0  0  0  0
  -11.4674    7.4057    3.5740 O   0  0  0  0  0  0  0  0  0  0  0  0
  -11.0471    6.3867    0.6896 C   0  0  0  0  0  0  0  0  0  0  0  0
  -11.8320    5.6636   -0.4097 C   0  0  0  0  0  0  0  0  0  0  0  0
  -11.1811    4.3105   -0.6965 C   0  0  0  0  0  0  0  0  0  0  0  0
  -10.0061    4.5067   -1.5927 N   0  0  0  0  0  0  0  0  0  0  0  0
   -9.9053    3.8268   -2.7063 C   0  0  0  0  0  0  0  0  0  0  0  0
   -9.3469    2.6438   -2.7081 N   0  0  0  0  0  0  0  0  0  0  0  0
  -10.3700    4.3292   -3.8188 N   0  0  0  0  0  0  0  0  0  0  0  0
  2  1  1  1  0  0  0
  2  3  1  0  0  0  0
  2  5  1  0  0  0  0
  3  4  1  0  0  0  0
  5  6  1  0  0  0  0
  6  7  1  0  0  0  0
  7  8  1  0  0  0  0
  8  9  1  0  0  0  0
  9 10  1  0  0  0  0
  9 11  1  0  0  0  0
M  END
>  <CHROM.1>
141.63222887,-44.96386120,-126.68260160,-166.25635677,-80.58192242,-126.53405591
-87.26180347,-51.54453189,-126.18478509,-10.91021495,5.72786978,-0.24602975
-3.11694119,-1.32082168,2.49156607

>  <Name>
1akx_lig

>  <RI>
0

>  <Rbt.Current_Directory>
/home/itssahil/PROJECTS/Mol_Feturizer/New_Systems/rnas/1akx

>  <Rbt.Executable>
rbdock ($Id: //depot/dev/client3/rdock/2013.1/src/exe/rbdock.cxx#4 $)

>  <Rbt.Library>
libRbt.so (2013.1, Build901 2013/11/27)

>  <Rbt.Parameter_File>
/export/apps/rDock/src/rDock_2013.1_src/data/scripts/dock_solv.prm

>  <Rbt.Receptor>
prm/blind_docking_40.prm

>  <SCORE>
-26.5588

>  <SCORE.INTER>
-24.2199

>  <SCORE.INTER.CONST>
1

>  <SCORE.INTER.POLAR>
-3.95101

>  <SCORE.INTER.ROT>
8

>  <SCORE.INTER.SOLV>
11.5782

>  <SCORE.INTER.VDW>
-15.7693

>  <SCORE.INTER.norm>
-2.20181

>  <SCORE.INTRA>
-2.33894

>  <SCORE.INTRA.DIHEDRAL>
-5.59246

>  <SCORE.INTRA.DIHEDRAL.0>
21.6454

>  <SCORE.INTRA.POLAR>
0

>  <SCORE.INTRA.POLAR.0>
0

>  <SCORE.INTRA.REPUL>
0

>  <SCORE.INTRA.REPUL.0>
0

>  <SCORE.INTRA.SOLV>
0.404139

>  <SCORE.INTRA.SOLV.lig_0>
-16.5947

>  <SCORE.INTRA.VDW>
0.255217

>  <SCORE.INTRA.VDW.0>
-0.691398

>  <SCORE.INTRA.norm>
-0.212631

>  <SCORE.RESTR>
0

>  <SCORE.RESTR.CAVITY>
0

>  <SCORE.RESTR.norm>
0

>  <SCORE.SYSTEM>
0

>  <SCORE.SYSTEM.CONST>
0

>  <SCORE.SYSTEM.DIHEDRAL>
0

>  <SCORE.SYSTEM.SOLV>
0

>  <SCORE.SYSTEM.norm>
0

>  <SCORE.heavy>
11

>  <SCORE.norm>
-2.41444

>  <RMSD>
13.812

$$$$
1akx_lig
 OpenBabel11021811383D
libRbt.so/2013.1/901 2013/11/27
 11 10  0  0  0  0  0  0  0  0999 V2000
   -9.7058    6.7233    1.8514 N   0  0  0  0  0  0  0  0  0  0  0  0
  -10.8417    7.2045    1.0110 C   0  0  2  0  0  0  0  0  0  0  0  0
  -11.3594    8.5378    1.5651 C   0  0  0  0  0  0  0  0  0  0  0  0
  -12.2194    9.1593    0.9732 O   0  0  0  0  0  0  0  0  0  0  0  0
  -11.9706    6.1650    1.0266 C   0  0  0  0  0  0  0  0  0  0  0  0
  -12.0411    5.4581   -0.3308 C   0  0  0  0  0  0  0  0  0  0  0  0
  -10.7471    4.6801   -0.5695 C   0  0  0  0  0  0  0  0  0  0  0  0
  -10.8980    3.8292   -1.7843 N   0  0  0  0  0  0  0  0  0  0  0  0
  -10.1818    4.0716   -2.8523 C   0  0  0  0  0  0  0  0  0  0  0  0
   -8.8935    3.8444   -2.8475 N   0  0  0  0  0  0  0  0  0  0  0  0
  -10.7571    4.5362   -3.9289 N   0  0  0  0  0  0  0  0  0  0  0  0
  2  1  1  1  0  0  0
  2  3  1  0  0  0  0
  2  5  1  0  0  0  0
  3  4  1  0  0  0  0
  5  6  1  0  0  0  0
  6  7  1  0  0  0  0
  7  8  1  0  0  0  0
  8  9  1  0  0  0  0
  9 10  1  0  0  0  0
  9 11  1  0  0  0  0
M  END
>  <CHROM.1>
151.29257267,174.47505224,-107.85213738,63.75687661,171.38401140,113.83170547
69.81613225,41.83074425,-44.67272922,-10.84337147,5.83820610,-0.54703409
-1.83714038,0.67598753,-2.14097906

>  <Name>
1akx_lig

>  <RI>
0

>  <Rbt.Current_Directory>
/home/afrankz/demos/rdock_decoys_rna/rnas/1akx

>  <Rbt.Executable>
rbdock ($Id: //depot/dev/client3/rdock/2013.1/src/exe/rbdock.cxx#4 $)

>  <Rbt.Library>
libRbt.so (2013.1, Build901 2013/11/27)

>  <Rbt.Parameter_File>
/export/apps/rDock/src/rDock_2013.1_src/data/scripts/dock_solv.prm

>  <Rbt.Receptor>
prm/blind_docking_80.prm

>  <SCORE>
-35.3069

>  <SCORE.INTER>
-31.2583

>  <SCORE.INTER.CONST>
1

>  <SCORE.INTER.POLAR>
-5.05027

>  <SCORE.INTER.ROT>
8

>  <SCORE.INTER.SOLV>
13.0855

>  <SCORE.INTER.VDW>
-17.2998

>  <SCORE.INTER.norm>
-2.84166

>  <SCORE.INTRA>
-4.04859

>  <SCORE.INTRA.DIHEDRAL>
-9.41416

>  <SCORE.INTRA.DIHEDRAL.0>
21.6454

>  <SCORE.INTRA.POLAR>
0

>  <SCORE.INTRA.POLAR.0>
0

>  <SCORE.INTRA.REPUL>
0

>  <SCORE.INTRA.REPUL.0>
0

>  <SCORE.INTRA.SOLV>
0.231498

>  <SCORE.INTRA.SOLV.lig_0>
-16.5947

>  <SCORE.INTRA.VDW>
0.542745

>  <SCORE.INTRA.VDW.0>
-0.691398

>  <SCORE.INTRA.norm>
-0.368053

>  <SCORE.RESTR>
0

>  <SCORE.RESTR.CAVITY>
0

>  <SCORE.RESTR.norm>
0

>  <SCORE.SYSTEM>
0

>  <SCORE.SYSTEM.CONST>
0

>  <SCORE.SYSTEM.DIHEDRAL>
0

>  <SCORE.SYSTEM.SOLV>
0

>  <SCORE.SYSTEM.norm>
0

>  <SCORE.heavy>
11

>  <SCORE.norm>
-3.20971

>  <RMSD>
13.830

>  <RMSD>
13.830

$$$$
1akx_lig
 OpenBabel11021811383D
libRbt.so/2013.1/901 2013/11/27
 11 10  0  0  0  0  0  0  0  0999 V2000
   -9.7058    6.7233    1.8514 N   0  0  0  0  0  0  0  0  0  0  0  0
  -10.8417    7.2045    1.0110 C   0  0  2  0  0  0  0  0  0  0  0  0
  -11.3594    8.5378    1.5651 C   0  0  0  0  0  0  0  0  0  0  0  0
  -12.2194    9.1593    0.9732 O   0  0  0  0  0  0  0  0  0  0  0  0
  -11.9706    6.1650    1.0266 C   0  0  0  0  0  0  0  0  0  0  0  0
  -12.0411    5.4581   -0.3308 C   0  0  0  0  0  0  0  0  0  0  0  0
  -10.7471    4.6801   -0.5695 C   0  0  0  0  0  0  0  0  0  0  0  0
  -10.8980    3.8292   -1.7843 N   0  0  0  0  0  0  0  0  0  0  0  0
  -10.1818    4.0716   -2.8523 C   0  0  0  0  0  0  0  0  0  0  0  0
   -8.8935    3.8444   -2.8475 N   0  0  0  0  0  0  0  0  0  0  0  0
  -10.7571    4.5362   -3.9289 N   0  0  0  0  0  0  0  0  0  0  0  0
  2  1  1  1  0  0  0
  2  3  1  0  0  0  0
  2  5  1  0  0  0  0
  3  4  1  0  0  0  0
  5  6  1  0  0  0  0
  6  7  1  0  0  0  0
  7  8  1  0  0  0  0
  8  9  1  0  0  0  0
  9 10  1  0  0  0  0
  9 11  1  0  0  0  0
M  END
>  <CHROM.1>
151.29257267,174.47505224,-107.85213738,63.75687661,171.38401140,113.83170547
69.81613225,41.83074425,-44.67272922,-10.84337147,5.83820610,-0.54703409
-1.83714038,0.67598753,-2.14097906

>  <Name>
1akx_lig

>  <RI>
0

>  <Rbt.Current_Directory>
/home/afrankz/demos/rdock_decoys_rna/rnas/1akx

>  <Rbt.Executable>
rbdock ($Id: //depot/dev/client3/rdock/2013.1/src/exe/rbdock.cxx#4 $)

>  <Rbt.Library>
libRbt.so (2013.1, Build901 2013/11/27)

>  <Rbt.Parameter_File>
/export/apps/rDock/src/rDock_2013.1_src/data/scripts/dock_solv.prm

>  <Rbt.Receptor>
prm/blind_docking_80.prm

>  <SCORE>
-35.3069

>  <SCORE.INTER>
-31.2583

>  <SCORE.INTER.CONST>
1

>  <SCORE.INTER.POLAR>
-5.05027

>  <SCORE.INTER.ROT>
8

>  <SCORE.INTER.SOLV>
13.0855

>  <SCORE.INTER.VDW>
-17.2998

>  <SCORE.INTER.norm>
-2.84166

>  <SCORE.INTRA>
-4.04859

>  <SCORE.INTRA.DIHEDRAL>
-9.41416

>  <SCORE.INTRA.DIHEDRAL.0>
21.6454

>  <SCORE.INTRA.POLAR>
0

>  <SCORE.INTRA.POLAR.0>
0

>  <SCORE.INTRA.REPUL>
0

>  <SCORE.INTRA.REPUL.0>
0

>  <SCORE.INTRA.SOLV>
0.231498

>  <SCORE.INTRA.SOLV.lig_0>
-16.5947

>  <SCORE.INTRA.VDW>
0.542745

>  <SCORE.INTRA.VDW.0>
-0.691398

>  <SCORE.INTRA.norm>
-0.368053

>  <SCORE.RESTR>
0

>  <SCORE.RESTR.CAVITY>
0

>  <SCORE.RESTR.norm>
0

>  <SCORE.SYSTEM>
0

>  <SCORE.SYSTEM.CONST>
0

>  <SCORE.SYSTEM.DIHEDRAL>
0

>  <SCORE.SYSTEM.SOLV>
0

>  <SCORE.SYSTEM.norm>
0

>  <SCORE.heavy>
11

>  <SCORE.norm>
-3.20971

>  <RMSD>
13.830

>  <RMSD>
13.830

$$$$
1akx_lig
 OpenBabel11021811383D
libRbt.so/2013.1/901 2013/11/27
 11 10  0  0  0  0  0  0  0  0999 V2000
   -9.3016    4.4812   -3.4164 N   0  0  0  0  0  0  0  0  0  0  0  0
  -10.0878    3.9974   -2.2433 C   0  0  2  0  0  0  0  0  0  0  0  0
  -11.3304    3.2445   -2.7352 C   0  0  0  0  0  0  0  0  0  0  0  0
  -11.9876    2.5707   -1.9669 O   0  0  0  0  0  0  0  0  0  0  0  0
  -10.5154    5.1930   -1.3813 C   0  0  0  0  0  0  0  0  0  0  0  0
  -11.1575    4.6915   -0.0838 C   0  0  0  0  0  0  0  0  0  0  0  0
  -11.7320    5.8761    0.6930 C   0  0  0  0  0  0  0  0  0  0  0  0
  -10.6276    6.5894    1.3958 N   0  0  0  0  0  0  0  0  0  0  0  0
  -10.7911    7.8234    1.7992 C   0  0  0  0  0  0  0  0  0  0  0  0
  -10.9807    8.0827    3.0674 N   0  0  0  0  0  0  0  0  0  0  0  0
  -10.7586    8.8001    0.9326 N   0  0  0  0  0  0  0  0  0  0  0  0
  2  1  1  6  0  0  0
  2  3  1  0  0  0  0
  2  5  1  0  0  0  0
  3  4  1  0  0  0  0
  5  6  1  0  0  0  0
  6  7  1  0  0  0  0
  7  8  1  0  0  0  0
  8  9  1  0  0  0  0
  9 10  1  0  0  0  0
  9 11  1  0  0  0  0
M  END
>  <CHROM.1>
72.74250068,167.24826392,-172.46747582,-173.24990316,-78.39583924,160.31498900
104.80083948,-143.34558382,136.94385916,-10.82450755,5.59806055,-0.36943376
-1.52482319,0.86394164,0.77402956

>  <Name>
1akx_lig

>  <RI>
0

>  <Rbt.Current_Directory>
/home/itssahil/PROJECTS/Mol_Feturizer/New_Systems/rnas/1akx

>  <Rbt.Executable>
rbdock ($Id: //depot/dev/client3/rdock/2013.1/src/exe/rbdock.cxx#4 $)

>  <Rbt.Library>
libRbt.so (2013.1, Build901 2013/11/27)

>  <Rbt.Parameter_File>
/export/apps/rDock/src/rDock_2013.1_src/data/scripts/dock_solv.prm

>  <Rbt.Receptor>
prm/blind_docking_100.prm

>  <SCORE>
-38.6426

>  <SCORE.INTER>
-32.3629

>  <SCORE.INTER.CONST>
1

>  <SCORE.INTER.POLAR>
-5.11386

>  <SCORE.INTER.ROT>
8

>  <SCORE.INTER.SOLV>
10.9936

>  <SCORE.INTER.VDW>
-17.127

>  <SCORE.INTER.norm>
-2.94209

>  <SCORE.INTRA>
-6.2797

>  <SCORE.INTRA.DIHEDRAL>
-14.2923

>  <SCORE.INTRA.DIHEDRAL.0>
21.6454

>  <SCORE.INTRA.POLAR>
0

>  <SCORE.INTRA.POLAR.0>
0

>  <SCORE.INTRA.REPUL>
0

>  <SCORE.INTRA.REPUL.0>
0

>  <SCORE.INTRA.SOLV>
0.290855

>  <SCORE.INTRA.SOLV.lig_0>
-16.5947

>  <SCORE.INTRA.VDW>
0.721029

>  <SCORE.INTRA.VDW.0>
-0.691398

>  <SCORE.INTRA.norm>
-0.570882

>  <SCORE.RESTR>
0

>  <SCORE.RESTR.CAVITY>
0

>  <SCORE.RESTR.norm>
0

>  <SCORE.SYSTEM>
0

>  <SCORE.SYSTEM.CONST>
0

>  <SCORE.SYSTEM.DIHEDRAL>
0

>  <SCORE.SYSTEM.SOLV>
0

>  <SCORE.SYSTEM.norm>
0

>  <SCORE.heavy>
11

>  <SCORE.norm>
-3.51297

>  <RMSD>
13.834

$$$$
1akx_lig
 OpenBabel11021811383D
libRbt.so/2013.1/901 2013/11/27
 11 10  0  0  0  0  0  0  0  0999 V2000
   -9.7717    7.1302    1.5170 N   0  0  0  0  0  0  0  0  0  0  0  0
  -11.1158    7.3941    0.9236 C   0  0  2  0  0  0  0  0  0  0  0  0
  -11.9054    8.3345    1.8428 C   0  0  0  0  0  0  0  0  0  0  0  0
  -13.0015    8.7422    1.5132 O   0  0  0  0  0  0  0  0  0  0  0  0
  -11.8762    6.0709    0.7616 C   0  0  0  0  0  0  0  0  0  0  0  0
  -11.8250    5.6211   -0.7021 C   0  0  0  0  0  0  0  0  0  0  0  0
  -10.3683    5.5194   -1.1546 C   0  0  0  0  0  0  0  0  0  0  0  0
  -10.0833    4.1243   -1.5956 N   0  0  0  0  0  0  0  0  0  0  0  0
   -9.6579    3.8907   -2.8109 C   0  0  0  0  0  0  0  0  0  0  0  0
  -10.5110    3.7581   -3.7938 N   0  0  0  0  0  0  0  0  0  0  0  0
   -8.3762    3.7961   -3.0439 N   0  0  0  0  0  0  0  0  0  0  0  0
  2  1  1  1  0  0  0
  2  3  1  0  0  0  0
  2  5  1  0  0  0  0
  3  4  1  0  0  0  0
  5  6  1  0  0  0  0
  6  7  1  0  0  0  0
  7  8  1  0  0  0  0
  8  9  1  0  0  0  0
  9 10  1  0  0  0  0
  9 11  1  0  0  0  0
M  END
>  <CHROM.1>
17.16603067,175.81181782,-102.00901141,55.99156444,120.61927962,121.79106071
-85.27734963,-53.98336440,-154.79740113,-10.74147314,5.84582989,-0.60062821
-1.93601394,0.21130902,-2.22863066

>  <Name>
1akx_lig

>  <RI>
0

>  <Rbt.Current_Directory>
/home/itssahil/PROJECTS/Mol_Feturizer/New_Systems/rnas/1akx

>  <Rbt.Executable>
rbdock ($Id: //depot/dev/client3/rdock/2013.1/src/exe/rbdock.cxx#4 $)

>  <Rbt.Library>
libRbt.so (2013.1, Build901 2013/11/27)

>  <Rbt.Parameter_File>
/export/apps/rDock/src/rDock_2013.1_src/data/scripts/dock_solv.prm

>  <Rbt.Receptor>
prm/blind_docking_100.prm

>  <SCORE>
-29.8636

>  <SCORE.INTER>
-29.585

>  <SCORE.INTER.CONST>
1

>  <SCORE.INTER.POLAR>
-4.93181

>  <SCORE.INTER.ROT>
8

>  <SCORE.INTER.SOLV>
12.9138

>  <SCORE.INTER.VDW>
-16.5219

>  <SCORE.INTER.norm>
-2.68955

>  <SCORE.INTRA>
-0.278553

>  <SCORE.INTRA.DIHEDRAL>
-3.60619

>  <SCORE.INTRA.DIHEDRAL.0>
21.6454

>  <SCORE.INTRA.POLAR>
0

>  <SCORE.INTRA.POLAR.0>
0

>  <SCORE.INTRA.REPUL>
0

>  <SCORE.INTRA.REPUL.0>
0

>  <SCORE.INTRA.SOLV>
0.352342

>  <SCORE.INTRA.SOLV.lig_0>
-16.5947

>  <SCORE.INTRA.VDW>
1.34837

>  <SCORE.INTRA.VDW.0>
-0.691398

>  <SCORE.INTRA.norm>
-0.025323

>  <SCORE.RESTR>
0

>  <SCORE.RESTR.CAVITY>
0

>  <SCORE.RESTR.norm>
0

>  <SCORE.SYSTEM>
0

>  <SCORE.SYSTEM.CONST>
0

>  <SCORE.SYSTEM.DIHEDRAL>
0

>  <SCORE.SYSTEM.SOLV>
0

>  <SCORE.SYSTEM.norm>
0

>  <SCORE.heavy>
11

>  <SCORE.norm>
-2.71487

>  <RMSD>
13.838

$$$$
1akx_lig
 OpenBabel11021811383D
libRbt.so/2013.1/901 2013/11/27
 11 10  0  0  0  0  0  0  0  0999 V2000
   -8.5524    3.5756   -2.9561 N   0  0  0  0  0  0  0  0  0  0  0  0
   -9.7923    3.9830   -2.2317 C   0  0  2  0  0  0  0  0  0  0  0  0
  -10.8769    4.3637   -3.2473 C   0  0  0  0  0  0  0  0  0  0  0  0
  -11.9984    4.6463   -2.8751 O   0  0  0  0  0  0  0  0  0  0  0  0
   -9.4885    5.1837   -1.3254 C   0  0  0  0  0  0  0  0  0  0  0  0
  -10.5921    5.3291   -0.2726 C   0  0  0  0  0  0  0  0  0  0  0  0
  -10.0084    5.9481    0.9973 C   0  0  0  0  0  0  0  0  0  0  0  0
  -11.0742    6.7045    1.7144 N   0  0  0  0  0  0  0  0  0  0  0  0
  -10.8828    7.9543    2.0517 C   0  0  0  0  0  0  0  0  0  0  0  0
  -10.8391    8.2972    3.3133 N   0  0  0  0  0  0  0  0  0  0  0  0
  -10.7285    8.8613    1.1246 N   0  0  0  0  0  0  0  0  0  0  0  0
  2  1  1  6  0  0  0
  2  3  1  0  0  0  0
  2  5  1  0  0  0  0
  3  4  1  0  0  0  0
  5  6  1  0  0  0  0
  6  7  1  0  0  0  0
  7  8  1  0  0  0  0
  8  9  1  0  0  0  0
  9 10  1  0  0  0  0
  9 11  1  0  0  0  0
M  END
>  <CHROM.1>
59.28106984,175.32896559,-162.23245830,150.24391209,151.69106572,-126.92358946
-115.32006292,-146.63828280,119.20550323,-10.43597790,5.90852544,-0.34420730
-1.43575364,-0.42423189,0.96694911

>  <Name>
1akx_lig

>  <RI>
0

>  <Rbt.Current_Directory>
/home/afrankz/demos/rdock_decoys_rna/rnas/1akx

>  <Rbt.Executable>
rbdock ($Id: //depot/dev/client3/rdock/2013.1/src/exe/rbdock.cxx#4 $)

>  <Rbt.Library>
libRbt.so (2013.1, Build901 2013/11/27)

>  <Rbt.Parameter_File>
/export/apps/rDock/src/rDock_2013.1_src/data/scripts/dock_solv.prm

>  <Rbt.Receptor>
prm/blind_docking_60.prm

>  <SCORE>
-41.4081

>  <SCORE.INTER>
-36.7794

>  <SCORE.INTER.CONST>
1

>  <SCORE.INTER.POLAR>
-5.0951

>  <SCORE.INTER.ROT>
8

>  <SCORE.INTER.SOLV>
12.2792

>  <SCORE.INTER.VDW>
-20.5623

>  <SCORE.INTER.norm>
-3.34358

>  <SCORE.INTRA>
-4.86775

>  <SCORE.INTRA.DIHEDRAL>
-10.0475

>  <SCORE.INTRA.DIHEDRAL.0>
21.6454

>  <SCORE.INTRA.POLAR>
0

>  <SCORE.INTRA.POLAR.0>
0

>  <SCORE.INTRA.REPUL>
0

>  <SCORE.INTRA.REPUL.0>
0

>  <SCORE.INTRA.SOLV>
0.116693

>  <SCORE.INTRA.SOLV.lig_0>
-16.5947

>  <SCORE.INTRA.VDW>
0.0976722

>  <SCORE.INTRA.VDW.0>
-0.691398

>  <SCORE.INTRA.norm>
-0.442523

>  <SCORE.RESTR>
0.239063

>  <SCORE.RESTR.CAVITY>
0.239063

>  <SCORE.RESTR.norm>
0.021733

>  <SCORE.SYSTEM>
0

>  <SCORE.SYSTEM.CONST>
0

>  <SCORE.SYSTEM.DIHEDRAL>
0

>  <SCORE.SYSTEM.SOLV>
0

>  <SCORE.SYSTEM.norm>
0

>  <SCORE.heavy>
11

>  <SCORE.norm>
-3.76437

>  <RMSD>
13.876

>  <RMSD>
13.876

$$$$
1akx_lig
 OpenBabel11021811383D
libRbt.so/2013.1/901 2013/11/27
 11 10  0  0  0  0  0  0  0  0999 V2000
   -8.5524    3.5756   -2.9561 N   0  0  0  0  0  0  0  0  0  0  0  0
   -9.7923    3.9830   -2.2317 C   0  0  2  0  0  0  0  0  0  0  0  0
  -10.8769    4.3637   -3.2473 C   0  0  0  0  0  0  0  0  0  0  0  0
  -11.9984    4.6463   -2.8751 O   0  0  0  0  0  0  0  0  0  0  0  0
   -9.4885    5.1837   -1.3254 C   0  0  0  0  0  0  0  0  0  0  0  0
  -10.5921    5.3291   -0.2726 C   0  0  0  0  0  0  0  0  0  0  0  0
  -10.0084    5.9481    0.9973 C   0  0  0  0  0  0  0  0  0  0  0  0
  -11.0742    6.7045    1.7144 N   0  0  0  0  0  0  0  0  0  0  0  0
  -10.8828    7.9543    2.0517 C   0  0  0  0  0  0  0  0  0  0  0  0
  -10.8391    8.2972    3.3133 N   0  0  0  0  0  0  0  0  0  0  0  0
  -10.7285    8.8613    1.1246 N   0  0  0  0  0  0  0  0  0  0  0  0
  2  1  1  6  0  0  0
  2  3  1  0  0  0  0
  2  5  1  0  0  0  0
  3  4  1  0  0  0  0
  5  6  1  0  0  0  0
  6  7  1  0  0  0  0
  7  8  1  0  0  0  0
  8  9  1  0  0  0  0
  9 10  1  0  0  0  0
  9 11  1  0  0  0  0
M  END
>  <CHROM.1>
59.28106984,175.32896559,-162.23245830,150.24391209,151.69106572,-126.92358946
-115.32006292,-146.63828280,119.20550323,-10.43597790,5.90852544,-0.34420730
-1.43575364,-0.42423189,0.96694911

>  <Name>
1akx_lig

>  <RI>
0

>  <Rbt.Current_Directory>
/home/afrankz/demos/rdock_decoys_rna/rnas/1akx

>  <Rbt.Executable>
rbdock ($Id: //depot/dev/client3/rdock/2013.1/src/exe/rbdock.cxx#4 $)

>  <Rbt.Library>
libRbt.so (2013.1, Build901 2013/11/27)

>  <Rbt.Parameter_File>
/export/apps/rDock/src/rDock_2013.1_src/data/scripts/dock_solv.prm

>  <Rbt.Receptor>
prm/blind_docking_60.prm

>  <SCORE>
-41.4081

>  <SCORE.INTER>
-36.7794

>  <SCORE.INTER.CONST>
1

>  <SCORE.INTER.POLAR>
-5.0951

>  <SCORE.INTER.ROT>
8

>  <SCORE.INTER.SOLV>
12.2792

>  <SCORE.INTER.VDW>
-20.5623

>  <SCORE.INTER.norm>
-3.34358

>  <SCORE.INTRA>
-4.86775

>  <SCORE.INTRA.DIHEDRAL>
-10.0475

>  <SCORE.INTRA.DIHEDRAL.0>
21.6454

>  <SCORE.INTRA.POLAR>
0

>  <SCORE.INTRA.POLAR.0>
0

>  <SCORE.INTRA.REPUL>
0

>  <SCORE.INTRA.REPUL.0>
0

>  <SCORE.INTRA.SOLV>
0.116693

>  <SCORE.INTRA.SOLV.lig_0>
-16.5947

>  <SCORE.INTRA.VDW>
0.0976722

>  <SCORE.INTRA.VDW.0>
-0.691398

>  <SCORE.INTRA.norm>
-0.442523

>  <SCORE.RESTR>
0.239063

>  <SCORE.RESTR.CAVITY>
0.239063

>  <SCORE.RESTR.norm>
0.021733

>  <SCORE.SYSTEM>
0

>  <SCORE.SYSTEM.CONST>
0

>  <SCORE.SYSTEM.DIHEDRAL>
0

>  <SCORE.SYSTEM.SOLV>
0

>  <SCORE.SYSTEM.norm>
0

>  <SCORE.heavy>
11

>  <SCORE.norm>
-3.76437

>  <RMSD>
13.876

>  <RMSD>
13.876

$$$$
1akx_lig
 OpenBabel11021811383D
libRbt.so/2013.1/901 2013/11/27
 11 10  0  0  0  0  0  0  0  0999 V2000
    6.5330  -17.8140    1.4459 N   0  0  0  0  0  0  0  0  0  0  0  0
    6.0929  -17.5900    0.0372 C   0  0  2  0  0  0  0  0  0  0  0  0
    7.1966  -16.8541   -0.7330 C   0  0  0  0  0  0  0  0  0  0  0  0
    6.9133  -16.0440   -1.5930 O   0  0  0  0  0  0  0  0  0  0  0  0
    4.8076  -16.7514    0.0262 C   0  0  0  0  0  0  0  0  0  0  0  0
    4.1066  -16.8976   -1.3282 C   0  0  0  0  0  0  0  0  0  0  0  0
    2.6120  -16.6226   -1.1622 C   0  0  0  0  0  0  0  0  0  0  0  0
    2.4180  -15.5194   -0.1785 N   0  0  0  0  0  0  0  0  0  0  0  0
    2.9906  -14.3582   -0.3686 C   0  0  0  0  0  0  0  0  0  0  0  0
    3.0604  -13.8466   -1.5706 N   0  0  0  0  0  0  0  0  0  0  0  0
    3.4884  -13.7050    0.6471 N   0  0  0  0  0  0  0  0  0  0  0  0
  2  1  1  1  0  0  0
  2  3  1  0  0  0  0
  2  5  1  0  0  0  0
  3  4  1  0  0  0  0
  5  6  1  0  0  0  0
  6  7  1  0  0  0  0
  7  8  1  0  0  0  0
  8  9  1  0  0  0  0
  9 10  1  0  0  0  0
  9 11  1  0  0  0  0
M  END
>  <CHROM.1>
-85.31836607,-145.25587678,-161.63808826,154.91090585,37.49971971,56.36904983
39.25646093,11.68787343,-35.92836873,4.58698611,-15.97339004,-0.40588218
0.55636737,-0.31207589,2.47357548

>  <Name>
1akx_lig

>  <RI>
0

>  <Rbt.Current_Directory>
/home/itssahil/PROJECTS/Mol_Feturizer/New_Systems/rnas/1akx

>  <Rbt.Executable>
rbdock ($Id: //depot/dev/client3/rdock/2013.1/src/exe/rbdock.cxx#4 $)

>  <Rbt.Library>
libRbt.so (2013.1, Build901 2013/11/27)

>  <Rbt.Parameter_File>
/export/apps/rDock/src/rDock_2013.1_src/data/scripts/dock_solv.prm

>  <Rbt.Receptor>
prm/blind_docking_60.prm

>  <SCORE>
-17.7875

>  <SCORE.INTER>
-18.4757

>  <SCORE.INTER.CONST>
1

>  <SCORE.INTER.POLAR>
-3.85154

>  <SCORE.INTER.ROT>
8

>  <SCORE.INTER.SOLV>
17.0066

>  <SCORE.INTER.VDW>
-14.0809

>  <SCORE.INTER.norm>
-1.67961

>  <SCORE.INTRA>
0.681752

>  <SCORE.INTRA.DIHEDRAL>
-6.95431

>  <SCORE.INTRA.DIHEDRAL.0>
21.6454

>  <SCORE.INTRA.POLAR>
0

>  <SCORE.INTRA.POLAR.0>
0

>  <SCORE.INTRA.REPUL>
0

>  <SCORE.INTRA.REPUL.0>
0

>  <SCORE.INTRA.SOLV>
1.08267

>  <SCORE.INTRA.SOLV.lig_0>
-16.5947

>  <SCORE.INTRA.VDW>
3.61757

>  <SCORE.INTRA.VDW.0>
-0.691398

>  <SCORE.INTRA.norm>
0.0619774

>  <SCORE.RESTR>
0.00647601

>  <SCORE.RESTR.CAVITY>
0.00647601

>  <SCORE.RESTR.norm>
0.000588728

>  <SCORE.SYSTEM>
0

>  <SCORE.SYSTEM.CONST>
0

>  <SCORE.SYSTEM.DIHEDRAL>
0

>  <SCORE.SYSTEM.SOLV>
0

>  <SCORE.SYSTEM.norm>
0

>  <SCORE.heavy>
11

>  <SCORE.norm>
-1.61705

>  <RMSD>
13.884

$$$$
1akx_lig
 OpenBabel11021811383D
libRbt.so/2013.1/901 2013/11/27
 11 10  0  0  0  0  0  0  0  0999 V2000
   -9.9712    7.4187    1.3461 N   0  0  0  0  0  0  0  0  0  0  0  0
  -11.1839    6.7364    0.8058 C   0  0  2  0  0  0  0  0  0  0  0  0
  -12.4264    7.2292    1.5583 C   0  0  0  0  0  0  0  0  0  0  0  0
  -12.7218    8.4077    1.5559 O   0  0  0  0  0  0  0  0  0  0  0  0
  -11.0419    5.2183    0.9807 C   0  0  0  0  0  0  0  0  0  0  0  0
  -12.2585    4.5120    0.3739 C   0  0  0  0  0  0  0  0  0  0  0  0
  -12.2861    4.7487   -1.1361 C   0  0  0  0  0  0  0  0  0  0  0  0
  -11.1451    4.0293   -1.7707 N   0  0  0  0  0  0  0  0  0  0  0  0
  -10.6084    4.4866   -2.8731 C   0  0  0  0  0  0  0  0  0  0  0  0
   -9.3380    4.7969   -2.9082 N   0  0  0  0  0  0  0  0  0  0  0  0
  -11.3430    4.6275   -3.9438 N   0  0  0  0  0  0  0  0  0  0  0  0
  2  1  1  1  0  0  0
  2  3  1  0  0  0  0
  2  5  1  0  0  0  0
  3  4  1  0  0  0  0
  5  6  1  0  0  0  0
  6  7  1  0  0  0  0
  7  8  1  0  0  0  0
  8  9  1  0  0  0  0
  9 10  1  0  0  0  0
  9 11  1  0  0  0  0
M  END
>  <CHROM.1>
146.19668687,59.31174876,-177.63127636,64.62929715,68.37550195,-150.84231818
121.18652031,43.72107895,11.23161515,-11.26527339,5.68918617,-0.55848250
-1.77999253,-0.39267821,-2.23436596

>  <Name>
1akx_lig

>  <RI>
0

>  <Rbt.Current_Directory>
/home/itssahil/PROJECTS/Mol_Feturizer/New_Systems/rnas/1akx

>  <Rbt.Executable>
rbdock ($Id: //depot/dev/client3/rdock/2013.1/src/exe/rbdock.cxx#4 $)

>  <Rbt.Library>
libRbt.so (2013.1, Build901 2013/11/27)

>  <Rbt.Parameter_File>
/export/apps/rDock/src/rDock_2013.1_src/data/scripts/dock_solv.prm

>  <Rbt.Receptor>
prm/blind_docking_100.prm

>  <SCORE>
-36.2756

>  <SCORE.INTER>
-31.4514

>  <SCORE.INTER.CONST>
1

>  <SCORE.INTER.POLAR>
-4.95876

>  <SCORE.INTER.ROT>
8

>  <SCORE.INTER.SOLV>
11.2236

>  <SCORE.INTER.VDW>
-17.1129

>  <SCORE.INTER.norm>
-2.85922

>  <SCORE.INTRA>
-4.82803

>  <SCORE.INTRA.DIHEDRAL>
-14.3086

>  <SCORE.INTRA.DIHEDRAL.0>
21.6454

>  <SCORE.INTRA.POLAR>
0

>  <SCORE.INTRA.POLAR.0>
0

>  <SCORE.INTRA.REPUL>
0

>  <SCORE.INTRA.REPUL.0>
0

>  <SCORE.INTRA.SOLV>
0.576113

>  <SCORE.INTRA.SOLV.lig_0>
-16.5947

>  <SCORE.INTRA.VDW>
2.03821

>  <SCORE.INTRA.VDW.0>
-0.691398

>  <SCORE.INTRA.norm>
-0.438912

>  <SCORE.RESTR>
0.00380497

>  <SCORE.RESTR.CAVITY>
0.00380497

>  <SCORE.RESTR.norm>
0.000345906

>  <SCORE.SYSTEM>
0

>  <SCORE.SYSTEM.CONST>
0

>  <SCORE.SYSTEM.DIHEDRAL>
0

>  <SCORE.SYSTEM.SOLV>
0

>  <SCORE.SYSTEM.norm>
0

>  <SCORE.heavy>
11

>  <SCORE.norm>
-3.29779

>  <RMSD>
13.895

$$$$
1akx_lig
 OpenBabel11021811383D
libRbt.so/2013.1/901 2013/11/27
 11 10  0  0  0  0  0  0  0  0999 V2000
  -11.1072    4.6760   -3.7852 N   0  0  0  0  0  0  0  0  0  0  0  0
  -10.4224    3.8824   -2.7225 C   0  0  2  0  0  0  0  0  0  0  0  0
  -11.3841    2.8186   -2.1782 C   0  0  0  0  0  0  0  0  0  0  0  0
  -12.5392    3.1011   -1.9290 O   0  0  0  0  0  0  0  0  0  0  0  0
   -9.9852    4.8147   -1.5845 C   0  0  0  0  0  0  0  0  0  0  0  0
  -11.2140    5.4950   -0.9725 C   0  0  0  0  0  0  0  0  0  0  0  0
  -11.0594    5.5578    0.5471 C   0  0  0  0  0  0  0  0  0  0  0  0
  -10.1862    6.7107    0.9085 N   0  0  0  0  0  0  0  0  0  0  0  0
  -10.7007    7.7803    1.4594 C   0  0  0  0  0  0  0  0  0  0  0  0
  -11.0650    7.7643    2.7158 N   0  0  0  0  0  0  0  0  0  0  0  0
  -10.8450    8.8697    0.7534 N   0  0  0  0  0  0  0  0  0  0  0  0
  2  1  1  6  0  0  0
  2  3  1  0  0  0  0
  2  5  1  0  0  0  0
  3  4  1  0  0  0  0
  5  6  1  0  0  0  0
  6  7  1  0  0  0  0
  7  8  1  0  0  0  0
  8  9  1  0  0  0  0
  9 10  1  0  0  0  0
  9 11  1  0  0  0  0
M  END
>  <CHROM.1>
-49.73070318,-44.11268939,60.77971630,139.84038047,80.90778556,107.50207398
74.95936407,40.10060615,141.41847624,-10.97696492,5.62035560,-0.62740003
-1.79157507,1.17075503,1.00269040

>  <Name>
1akx_lig

>  <RI>
0

>  <Rbt.Current_Directory>
/home/itssahil/PROJECTS/Mol_Feturizer/New_Systems/rnas/1akx

>  <Rbt.Executable>
rbdock ($Id: //depot/dev/client3/rdock/2013.1/src/exe/rbdock.cxx#4 $)

>  <Rbt.Library>
libRbt.so (2013.1, Build901 2013/11/27)

>  <Rbt.Parameter_File>
/export/apps/rDock/src/rDock_2013.1_src/data/scripts/dock_solv.prm

>  <Rbt.Receptor>
prm/blind_docking_80.prm

>  <SCORE>
-35.7469

>  <SCORE.INTER>
-33.3548

>  <SCORE.INTER.CONST>
1

>  <SCORE.INTER.POLAR>
-4.93104

>  <SCORE.INTER.ROT>
8

>  <SCORE.INTER.SOLV>
11.4604

>  <SCORE.INTER.VDW>
-18.5532

>  <SCORE.INTER.norm>
-3.03226

>  <SCORE.INTRA>
-2.71383

>  <SCORE.INTRA.DIHEDRAL>
-9.6179

>  <SCORE.INTRA.DIHEDRAL.0>
21.6454

>  <SCORE.INTRA.POLAR>
0

>  <SCORE.INTRA.POLAR.0>
0

>  <SCORE.INTRA.REPUL>
0

>  <SCORE.INTRA.REPUL.0>
0

>  <SCORE.INTRA.SOLV>
0.856722

>  <SCORE.INTRA.SOLV.lig_0>
-16.5947

>  <SCORE.INTRA.VDW>
1.66676

>  <SCORE.INTRA.VDW.0>
-0.691398

>  <SCORE.INTRA.norm>
-0.246712

>  <SCORE.RESTR>
0.321765

>  <SCORE.RESTR.CAVITY>
0.321765

>  <SCORE.RESTR.norm>
0.0292514

>  <SCORE.SYSTEM>
0

>  <SCORE.SYSTEM.CONST>
0

>  <SCORE.SYSTEM.DIHEDRAL>
0

>  <SCORE.SYSTEM.SOLV>
0

>  <SCORE.SYSTEM.norm>
0

>  <SCORE.heavy>
11

>  <SCORE.norm>
-3.24972

>  <RMSD>
13.917

$$$$
1akx_lig
 OpenBabel11021811383D
libRbt.so/2013.1/901 2013/11/27
 11 10  0  0  0  0  0  0  0  0999 V2000
   -9.7300    6.7465    1.9126 N   0  0  0  0  0  0  0  0  0  0  0  0
  -10.7413    7.2422    0.9329 C   0  0  2  0  0  0  0  0  0  0  0  0
  -11.5465    8.3857    1.5627 C   0  0  0  0  0  0  0  0  0  0  0  0
  -12.4292    8.9368    0.9356 O   0  0  0  0  0  0  0  0  0  0  0  0
  -11.6865    6.0971    0.5445 C   0  0  0  0  0  0  0  0  0  0  0  0
  -11.2288    5.4753   -0.7788 C   0  0  0  0  0  0  0  0  0  0  0  0
  -12.3136    4.5347   -1.3035 C   0  0  0  0  0  0  0  0  0  0  0  0
  -12.0785    4.2665   -2.7509 N   0  0  0  0  0  0  0  0  0  0  0  0
  -11.3548    3.2416   -3.1226 C   0  0  0  0  0  0  0  0  0  0  0  0
  -11.6543    2.0378   -2.7072 N   0  0  0  0  0  0  0  0  0  0  0  0
  -10.3333    3.4211   -3.9166 N   0  0  0  0  0  0  0  0  0  0  0  0
  2  1  1  1  0  0  0
  2  3  1  0  0  0  0
  2  5  1  0  0  0  0
  3  4  1  0  0  0  0
  5  6  1  0  0  0  0
  6  7  1  0  0  0  0
  7  8  1  0  0  0  0
  8  9  1  0  0  0  0
  9 10  1  0  0  0  0
  9 11  1  0  0  0  0
M  END
>  <CHROM.1>
22.24437726,-179.90795311,-97.54594428,-168.76998539,162.48494245,91.38330119
54.53941929,-152.09367920,-27.65216867,-11.34846444,5.47917870,-0.79103389
-1.55732260,0.58077980,-2.39347998

>  <Name>
1akx_lig

>  <RI>
0

>  <Rbt.Current_Directory>
/home/itssahil/PROJECTS/Mol_Feturizer/New_Systems/rnas/1akx

>  <Rbt.Executable>
rbdock ($Id: //depot/dev/client3/rdock/2013.1/src/exe/rbdock.cxx#4 $)

>  <Rbt.Library>
libRbt.so (2013.1, Build901 2013/11/27)

>  <Rbt.Parameter_File>
/export/apps/rDock/src/rDock_2013.1_src/data/scripts/dock_solv.prm

>  <Rbt.Receptor>
prm/blind_docking_100.prm

>  <SCORE>
-27.8702

>  <SCORE.INTER>
-24.0921

>  <SCORE.INTER.CONST>
1

>  <SCORE.INTER.POLAR>
-3.61577

>  <SCORE.INTER.ROT>
8

>  <SCORE.INTER.SOLV>
11.3478

>  <SCORE.INTER.VDW>
-16.7248

>  <SCORE.INTER.norm>
-2.19019

>  <SCORE.INTRA>
-3.77808

>  <SCORE.INTRA.DIHEDRAL>
-8.66717

>  <SCORE.INTRA.DIHEDRAL.0>
21.6454

>  <SCORE.INTRA.POLAR>
0

>  <SCORE.INTRA.POLAR.0>
0

>  <SCORE.INTRA.REPUL>
0

>  <SCORE.INTRA.REPUL.0>
0

>  <SCORE.INTRA.SOLV>
0.11959

>  <SCORE.INTRA.SOLV.lig_0>
-16.5947

>  <SCORE.INTRA.VDW>
0.495708

>  <SCORE.INTRA.VDW.0>
-0.691398

>  <SCORE.INTRA.norm>
-0.343462

>  <SCORE.RESTR>
0

>  <SCORE.RESTR.CAVITY>
0

>  <SCORE.RESTR.norm>
0

>  <SCORE.SYSTEM>
0

>  <SCORE.SYSTEM.CONST>
0

>  <SCORE.SYSTEM.DIHEDRAL>
0

>  <SCORE.SYSTEM.SOLV>
0

>  <SCORE.SYSTEM.norm>
0

>  <SCORE.heavy>
11

>  <SCORE.norm>
-2.53366

>  <RMSD>
13.941

$$$$
1akx_lig
 OpenBabel11021811383D
libRbt.so/2013.1/901 2013/11/27
 11 10  0  0  0  0  0  0  0  0999 V2000
  -11.8640    3.2467   -1.6342 N   0  0  0  0  0  0  0  0  0  0  0  0
  -10.9673    4.2064   -2.3435 C   0  0  2  0  0  0  0  0  0  0  0  0
  -10.2760    3.4929   -3.5121 C   0  0  0  0  0  0  0  0  0  0  0  0
  -10.6561    3.6671   -4.6529 O   0  0  0  0  0  0  0  0  0  0  0  0
   -9.9112    4.7424   -1.3674 C   0  0  0  0  0  0  0  0  0  0  0  0
  -10.5566    5.0119   -0.0043 C   0  0  0  0  0  0  0  0  0  0  0  0
  -11.1237    6.4312    0.0208 C   0  0  0  0  0  0  0  0  0  0  0  0
  -11.5082    6.7860    1.4167 N   0  0  0  0  0  0  0  0  0  0  0  0
  -11.1028    7.9117    1.9466 C   0  0  0  0  0  0  0  0  0  0  0  0
  -11.8715    8.9697    1.9148 N   0  0  0  0  0  0  0  0  0  0  0  0
   -9.9285    7.9768    2.5148 N   0  0  0  0  0  0  0  0  0  0  0  0
  2  1  1  1  0  0  0
  2  3  1  0  0  0  0
  2  5  1  0  0  0  0
  3  4  1  0  0  0  0
  5  6  1  0  0  0  0
  6  7  1  0  0  0  0
  7  8  1  0  0  0  0
  8  9  1  0  0  0  0
  9 10  1  0  0  0  0
  9 11  1  0  0  0  0
M  END
>  <CHROM.1>
-161.51075136,102.88234674,-40.32506672,-87.84837070,-168.99417018,129.94899965
95.18160213,-81.31701522,46.23478508,-10.91074892,5.67537778,-0.50526791
1.51089637,-0.74229558,-2.31150210

>  <Name>
1akx_lig

>  <RI>
0

>  <Rbt.Current_Directory>
/home/itssahil/PROJECTS/Mol_Feturizer/New_Systems/rnas/1akx

>  <Rbt.Executable>
rbdock ($Id: //depot/dev/client3/rdock/2013.1/src/exe/rbdock.cxx#4 $)

>  <Rbt.Library>
libRbt.so (2013.1, Build901 2013/11/27)

>  <Rbt.Parameter_File>
/export/apps/rDock/src/rDock_2013.1_src/data/scripts/dock_solv.prm

>  <Rbt.Receptor>
prm/blind_docking_40.prm

>  <SCORE>
-24.9123

>  <SCORE.INTER>
-22.1463

>  <SCORE.INTER.CONST>
1

>  <SCORE.INTER.POLAR>
-4.21485

>  <SCORE.INTER.ROT>
8

>  <SCORE.INTER.SOLV>
11.0172

>  <SCORE.INTER.VDW>
-13.3204

>  <SCORE.INTER.norm>
-2.0133

>  <SCORE.INTRA>
-2.76603

>  <SCORE.INTRA.DIHEDRAL>
-7.1908

>  <SCORE.INTRA.DIHEDRAL.0>
21.6454

>  <SCORE.INTRA.POLAR>
0

>  <SCORE.INTRA.POLAR.0>
0

>  <SCORE.INTRA.REPUL>
0

>  <SCORE.INTRA.REPUL.0>
0

>  <SCORE.INTRA.SOLV>
0.1427

>  <SCORE.INTRA.SOLV.lig_0>
-16.5947

>  <SCORE.INTRA.VDW>
0.75802

>  <SCORE.INTRA.VDW.0>
-0.691398

>  <SCORE.INTRA.norm>
-0.251457

>  <SCORE.RESTR>
0

>  <SCORE.RESTR.CAVITY>
0

>  <SCORE.RESTR.norm>
0

>  <SCORE.SYSTEM>
0

>  <SCORE.SYSTEM.CONST>
0

>  <SCORE.SYSTEM.DIHEDRAL>
0

>  <SCORE.SYSTEM.SOLV>
0

>  <SCORE.SYSTEM.norm>
0

>  <SCORE.heavy>
11

>  <SCORE.norm>
-2.26475

>  <RMSD>
13.944

$$$$
1akx_lig
 OpenBabel11021811383D
libRbt.so/2013.1/901 2013/11/27
 11 10  0  0  0  0  0  0  0  0999 V2000
  -11.0091    4.4568   -3.9764 N   0  0  0  0  0  0  0  0  0  0  0  0
  -10.6895    4.1009   -2.5624 C   0  0  2  0  0  0  0  0  0  0  0  0
  -11.3572    2.7665   -2.2070 C   0  0  0  0  0  0  0  0  0  0  0  0
  -12.5648    2.6462   -2.2656 O   0  0  0  0  0  0  0  0  0  0  0  0
  -11.2038    5.2020   -1.6251 C   0  0  0  0  0  0  0  0  0  0  0  0
  -10.3604    5.2279   -0.3463 C   0  0  0  0  0  0  0  0  0  0  0  0
  -11.2735    5.4236    0.8640 C   0  0  0  0  0  0  0  0  0  0  0  0
  -11.7123    6.8469    0.9279 N   0  0  0  0  0  0  0  0  0  0  0  0
  -10.8533    7.7892    1.2224 C   0  0  0  0  0  0  0  0  0  0  0  0
  -10.9502    8.9677    0.6629 N   0  0  0  0  0  0  0  0  0  0  0  0
   -9.8996    7.5533    2.0830 N   0  0  0  0  0  0  0  0  0  0  0  0
  2  1  1  6  0  0  0
  2  3  1  0  0  0  0
  2  5  1  0  0  0  0
  3  4  1  0  0  0  0
  5  6  1  0  0  0  0
  6  7  1  0  0  0  0
  7  8  1  0  0  0  0
  8  9  1  0  0  0  0
  9 10  1  0  0  0  0
  9 11  1  0  0  0  0
M  END
>  <CHROM.1>
-50.37218007,-60.15340470,-153.15721683,-138.33016929,-75.60737918,-69.21982215
144.79940380,63.91811313,-70.37995930,-11.09090399,5.56559628,-0.68369817
-2.07631814,1.30849259,1.25062033

>  <Name>
1akx_lig

>  <RI>
0

>  <Rbt.Current_Directory>
/home/itssahil/PROJECTS/Mol_Feturizer/New_Systems/rnas/1akx

>  <Rbt.Executable>
rbdock ($Id: //depot/dev/client3/rdock/2013.1/src/exe/rbdock.cxx#4 $)

>  <Rbt.Library>
libRbt.so (2013.1, Build901 2013/11/27)

>  <Rbt.Parameter_File>
/export/apps/rDock/src/rDock_2013.1_src/data/scripts/dock_solv.prm

>  <Rbt.Receptor>
prm/blind_docking_80.prm

>  <SCORE>
-36.9094

>  <SCORE.INTER>
-33.5496

>  <SCORE.INTER.CONST>
1

>  <SCORE.INTER.POLAR>
-4.83846

>  <SCORE.INTER.ROT>
8

>  <SCORE.INTER.SOLV>
12.3583

>  <SCORE.INTER.VDW>
-19.291

>  <SCORE.INTER.norm>
-3.04997

>  <SCORE.INTRA>
-3.43353

>  <SCORE.INTRA.DIHEDRAL>
-8.4797

>  <SCORE.INTRA.DIHEDRAL.0>
21.6454

>  <SCORE.INTRA.POLAR>
0

>  <SCORE.INTRA.POLAR.0>
0

>  <SCORE.INTRA.REPUL>
0

>  <SCORE.INTRA.REPUL.0>
0

>  <SCORE.INTRA.SOLV>
0.715608

>  <SCORE.INTRA.SOLV.lig_0>
-16.5947

>  <SCORE.INTRA.VDW>
0.448511

>  <SCORE.INTRA.VDW.0>
-0.691398

>  <SCORE.INTRA.norm>
-0.312139

>  <SCORE.RESTR>
0.0737041

>  <SCORE.RESTR.CAVITY>
0.0737041

>  <SCORE.RESTR.norm>
0.00670038

>  <SCORE.SYSTEM>
0

>  <SCORE.SYSTEM.CONST>
0

>  <SCORE.SYSTEM.DIHEDRAL>
0

>  <SCORE.SYSTEM.SOLV>
0

>  <SCORE.SYSTEM.norm>
0

>  <SCORE.heavy>
11

>  <SCORE.norm>
-3.3554

>  <RMSD>
13.949

$$$$
1akx_lig
 OpenBabel11021811383D
libRbt.so/2013.1/901 2013/11/27
 11 10  0  0  0  0  0  0  0  0999 V2000
  -11.7897    9.3027    2.0004 N   0  0  0  0  0  0  0  0  0  0  0  0
  -11.7359    7.8239    1.8044 C   0  0  2  0  0  0  0  0  0  0  0  0
  -11.3735    7.1445    3.1310 C   0  0  0  0  0  0  0  0  0  0  0  0
  -11.6502    7.6721    4.1899 O   0  0  0  0  0  0  0  0  0  0  0  0
  -10.6805    7.4829    0.7437 C   0  0  0  0  0  0  0  0  0  0  0  0
  -10.7974    6.0057    0.3544 C   0  0  0  0  0  0  0  0  0  0  0  0
   -9.7936    5.6885   -0.7541 C   0  0  0  0  0  0  0  0  0  0  0  0
  -10.0659    4.3257   -1.2933 N   0  0  0  0  0  0  0  0  0  0  0  0
  -10.0884    4.1201   -2.5854 C   0  0  0  0  0  0  0  0  0  0  0  0
   -9.4110    4.8993   -3.3887 N   0  0  0  0  0  0  0  0  0  0  0  0
  -10.7851    3.1290   -3.0738 N   0  0  0  0  0  0  0  0  0  0  0  0
  2  1  1  1  0  0  0
  2  3  1  0  0  0  0
  2  5  1  0  0  0  0
  3  4  1  0  0  0  0
  5  6  1  0  0  0  0
  6  7  1  0  0  0  0
  7  8  1  0  0  0  0
  8  9  1  0  0  0  0
  9 10  1  0  0  0  0
  9 11  1  0  0  0  0
M  END
>  <CHROM.1>
55.35828721,27.22228886,-169.73392473,177.06978721,-170.30673401,134.39292987
25.93682885,55.23516625,-44.56001214,-10.75254939,6.16140891,0.10157417,-2.58022046
-1.31234722,3.09708986

>  <Name>
1akx_lig

>  <RI>
0

>  <Rbt.Current_Directory>
/home/afrankz/demos/rdock_decoys_rna/rnas/1akx

>  <Rbt.Executable>
rbdock ($Id: //depot/dev/client3/rdock/2013.1/src/exe/rbdock.cxx#4 $)

>  <Rbt.Library>
libRbt.so (2013.1, Build901 2013/11/27)

>  <Rbt.Parameter_File>
/export/apps/rDock/src/rDock_2013.1_src/data/scripts/dock_solv.prm

>  <Rbt.Receptor>
prm/blind_docking_100.prm

>  <SCORE>
-26.6806

>  <SCORE.INTER>
-21.8505

>  <SCORE.INTER.CONST>
1

>  <SCORE.INTER.POLAR>
-3.59602

>  <SCORE.INTER.ROT>
8

>  <SCORE.INTER.SOLV>
10.9132

>  <SCORE.INTER.VDW>
-15.1514

>  <SCORE.INTER.norm>
-1.98641

>  <SCORE.INTRA>
-5.41368

>  <SCORE.INTRA.DIHEDRAL>
-12.9721

>  <SCORE.INTRA.DIHEDRAL.0>
21.6454

>  <SCORE.INTRA.POLAR>
0

>  <SCORE.INTRA.POLAR.0>
0

>  <SCORE.INTRA.REPUL>
0

>  <SCORE.INTRA.REPUL.0>
0

>  <SCORE.INTRA.SOLV>
0.248989

>  <SCORE.INTRA.SOLV.lig_0>
-16.5947

>  <SCORE.INTRA.VDW>
0.947894

>  <SCORE.INTRA.VDW.0>
-0.691398

>  <SCORE.INTRA.norm>
-0.492152

>  <SCORE.RESTR>
0.583559

>  <SCORE.RESTR.CAVITY>
0.583559

>  <SCORE.RESTR.norm>
0.0530509

>  <SCORE.SYSTEM>
0

>  <SCORE.SYSTEM.CONST>
0

>  <SCORE.SYSTEM.DIHEDRAL>
0

>  <SCORE.SYSTEM.SOLV>
0

>  <SCORE.SYSTEM.norm>
0

>  <SCORE.heavy>
11

>  <SCORE.norm>
-2.42551

>  <RMSD>
13.955

>  <RMSD>
13.955

$$$$
1akx_lig
 OpenBabel11021811383D
libRbt.so/2013.1/901 2013/11/27
 11 10  0  0  0  0  0  0  0  0999 V2000
  -11.7897    9.3027    2.0004 N   0  0  0  0  0  0  0  0  0  0  0  0
  -11.7359    7.8239    1.8044 C   0  0  2  0  0  0  0  0  0  0  0  0
  -11.3735    7.1445    3.1310 C   0  0  0  0  0  0  0  0  0  0  0  0
  -11.6502    7.6721    4.1899 O   0  0  0  0  0  0  0  0  0  0  0  0
  -10.6805    7.4829    0.7437 C   0  0  0  0  0  0  0  0  0  0  0  0
  -10.7974    6.0057    0.3544 C   0  0  0  0  0  0  0  0  0  0  0  0
   -9.7936    5.6885   -0.7541 C   0  0  0  0  0  0  0  0  0  0  0  0
  -10.0659    4.3257   -1.2933 N   0  0  0  0  0  0  0  0  0  0  0  0
  -10.0884    4.1201   -2.5854 C   0  0  0  0  0  0  0  0  0  0  0  0
   -9.4110    4.8993   -3.3887 N   0  0  0  0  0  0  0  0  0  0  0  0
  -10.7851    3.1290   -3.0738 N   0  0  0  0  0  0  0  0  0  0  0  0
  2  1  1  1  0  0  0
  2  3  1  0  0  0  0
  2  5  1  0  0  0  0
  3  4  1  0  0  0  0
  5  6  1  0  0  0  0
  6  7  1  0  0  0  0
  7  8  1  0  0  0  0
  8  9  1  0  0  0  0
  9 10  1  0  0  0  0
  9 11  1  0  0  0  0
M  END
>  <CHROM.1>
55.35828721,27.22228886,-169.73392473,177.06978721,-170.30673401,134.39292987
25.93682885,55.23516625,-44.56001214,-10.75254939,6.16140891,0.10157417,-2.58022046
-1.31234722,3.09708986

>  <Name>
1akx_lig

>  <RI>
0

>  <Rbt.Current_Directory>
/home/afrankz/demos/rdock_decoys_rna/rnas/1akx

>  <Rbt.Executable>
rbdock ($Id: //depot/dev/client3/rdock/2013.1/src/exe/rbdock.cxx#4 $)

>  <Rbt.Library>
libRbt.so (2013.1, Build901 2013/11/27)

>  <Rbt.Parameter_File>
/export/apps/rDock/src/rDock_2013.1_src/data/scripts/dock_solv.prm

>  <Rbt.Receptor>
prm/blind_docking_100.prm

>  <SCORE>
-26.6806

>  <SCORE.INTER>
-21.8505

>  <SCORE.INTER.CONST>
1

>  <SCORE.INTER.POLAR>
-3.59602

>  <SCORE.INTER.ROT>
8

>  <SCORE.INTER.SOLV>
10.9132

>  <SCORE.INTER.VDW>
-15.1514

>  <SCORE.INTER.norm>
-1.98641

>  <SCORE.INTRA>
-5.41368

>  <SCORE.INTRA.DIHEDRAL>
-12.9721

>  <SCORE.INTRA.DIHEDRAL.0>
21.6454

>  <SCORE.INTRA.POLAR>
0

>  <SCORE.INTRA.POLAR.0>
0

>  <SCORE.INTRA.REPUL>
0

>  <SCORE.INTRA.REPUL.0>
0

>  <SCORE.INTRA.SOLV>
0.248989

>  <SCORE.INTRA.SOLV.lig_0>
-16.5947

>  <SCORE.INTRA.VDW>
0.947894

>  <SCORE.INTRA.VDW.0>
-0.691398

>  <SCORE.INTRA.norm>
-0.492152

>  <SCORE.RESTR>
0.583559

>  <SCORE.RESTR.CAVITY>
0.583559

>  <SCORE.RESTR.norm>
0.0530509

>  <SCORE.SYSTEM>
0

>  <SCORE.SYSTEM.CONST>
0

>  <SCORE.SYSTEM.DIHEDRAL>
0

>  <SCORE.SYSTEM.SOLV>
0

>  <SCORE.SYSTEM.norm>
0

>  <SCORE.heavy>
11

>  <SCORE.norm>
-2.42551

>  <RMSD>
13.955

>  <RMSD>
13.955

$$$$
1akx_lig
 OpenBabel11021811383D
libRbt.so/2013.1/901 2013/11/27
 11 10  0  0  0  0  0  0  0  0999 V2000
  -11.2787    4.4955   -3.9980 N   0  0  0  0  0  0  0  0  0  0  0  0
  -10.8627    4.8691   -2.6140 C   0  0  2  0  0  0  0  0  0  0  0  0
   -9.4263    4.3922   -2.3648 C   0  0  0  0  0  0  0  0  0  0  0  0
   -8.8316    4.7252   -1.3590 O   0  0  0  0  0  0  0  0  0  0  0  0
  -11.8083    4.2148   -1.5975 C   0  0  0  0  0  0  0  0  0  0  0  0
  -12.3217    5.2717   -0.6143 C   0  0  0  0  0  0  0  0  0  0  0  0
  -11.2071    5.6444    0.3631 C   0  0  0  0  0  0  0  0  0  0  0  0
  -11.6653    6.7658    1.2320 N   0  0  0  0  0  0  0  0  0  0  0  0
  -10.8784    7.7857    1.4621 C   0  0  0  0  0  0  0  0  0  0  0  0
  -11.0099    8.8887    0.7712 N   0  0  0  0  0  0  0  0  0  0  0  0
   -9.9625    7.7036    2.3897 N   0  0  0  0  0  0  0  0  0  0  0  0
  2  1  1  6  0  0  0
  2  3  1  0  0  0  0
  2  5  1  0  0  0  0
  3  4  1  0  0  0  0
  5  6  1  0  0  0  0
  6  7  1  0  0  0  0
  7  8  1  0  0  0  0
  8  9  1  0  0  0  0
  9 10  1  0  0  0  0
  9 11  1  0  0  0  0
M  END
>  <CHROM.1>
64.42458919,171.44478977,-129.24912613,-74.13812433,174.52159108,-134.75561272
97.96360357,69.93419173,87.36596392,-10.82434722,5.90934651,-0.58663660,1.54964340
0.06795267,-2.22762462

>  <Name>
1akx_lig

>  <RI>
0

>  <Rbt.Current_Directory>
/home/afrankz/demos/rdock_decoys_rna/rnas/1akx

>  <Rbt.Executable>
rbdock ($Id: //depot/dev/client3/rdock/2013.1/src/exe/rbdock.cxx#4 $)

>  <Rbt.Library>
libRbt.so (2013.1, Build901 2013/11/27)

>  <Rbt.Parameter_File>
/export/apps/rDock/src/rDock_2013.1_src/data/scripts/dock_solv.prm

>  <Rbt.Receptor>
prm/blind_docking_100.prm

>  <SCORE>
-38.8345

>  <SCORE.INTER>
-33.6965

>  <SCORE.INTER.CONST>
1

>  <SCORE.INTER.POLAR>
-4.73486

>  <SCORE.INTER.ROT>
8

>  <SCORE.INTER.SOLV>
13.2975

>  <SCORE.INTER.VDW>
-20.0473

>  <SCORE.INTER.norm>
-3.06332

>  <SCORE.INTRA>
-5.13802

>  <SCORE.INTRA.DIHEDRAL>
-10.086

>  <SCORE.INTRA.DIHEDRAL.0>
21.6454

>  <SCORE.INTRA.POLAR>
0

>  <SCORE.INTRA.POLAR.0>
0

>  <SCORE.INTRA.REPUL>
0

>  <SCORE.INTRA.REPUL.0>
0

>  <SCORE.INTRA.SOLV>
0.272801

>  <SCORE.INTRA.SOLV.lig_0>
-16.5947

>  <SCORE.INTRA.VDW>
-0.231422

>  <SCORE.INTRA.VDW.0>
-0.691398

>  <SCORE.INTRA.norm>
-0.467093

>  <SCORE.RESTR>
0

>  <SCORE.RESTR.CAVITY>
0

>  <SCORE.RESTR.norm>
0

>  <SCORE.SYSTEM>
0

>  <SCORE.SYSTEM.CONST>
0

>  <SCORE.SYSTEM.DIHEDRAL>
0

>  <SCORE.SYSTEM.SOLV>
0

>  <SCORE.SYSTEM.norm>
0

>  <SCORE.heavy>
11

>  <SCORE.norm>
-3.53041

>  <RMSD>
14.000

>  <RMSD>
14.000

$$$$
1akx_lig
 OpenBabel11021811383D
libRbt.so/2013.1/901 2013/11/27
 11 10  0  0  0  0  0  0  0  0999 V2000
  -11.2787    4.4955   -3.9980 N   0  0  0  0  0  0  0  0  0  0  0  0
  -10.8627    4.8691   -2.6140 C   0  0  2  0  0  0  0  0  0  0  0  0
   -9.4263    4.3922   -2.3648 C   0  0  0  0  0  0  0  0  0  0  0  0
   -8.8316    4.7252   -1.3590 O   0  0  0  0  0  0  0  0  0  0  0  0
  -11.8083    4.2148   -1.5975 C   0  0  0  0  0  0  0  0  0  0  0  0
  -12.3217    5.2717   -0.6143 C   0  0  0  0  0  0  0  0  0  0  0  0
  -11.2071    5.6444    0.3631 C   0  0  0  0  0  0  0  0  0  0  0  0
  -11.6653    6.7658    1.2320 N   0  0  0  0  0  0  0  0  0  0  0  0
  -10.8784    7.7857    1.4621 C   0  0  0  0  0  0  0  0  0  0  0  0
  -11.0099    8.8887    0.7712 N   0  0  0  0  0  0  0  0  0  0  0  0
   -9.9625    7.7036    2.3897 N   0  0  0  0  0  0  0  0  0  0  0  0
  2  1  1  6  0  0  0
  2  3  1  0  0  0  0
  2  5  1  0  0  0  0
  3  4  1  0  0  0  0
  5  6  1  0  0  0  0
  6  7  1  0  0  0  0
  7  8  1  0  0  0  0
  8  9  1  0  0  0  0
  9 10  1  0  0  0  0
  9 11  1  0  0  0  0
M  END
>  <CHROM.1>
64.42458919,171.44478977,-129.24912613,-74.13812433,174.52159108,-134.75561272
97.96360357,69.93419173,87.36596392,-10.82434722,5.90934651,-0.58663660,1.54964340
0.06795267,-2.22762462

>  <Name>
1akx_lig

>  <RI>
0

>  <Rbt.Current_Directory>
/home/afrankz/demos/rdock_decoys_rna/rnas/1akx

>  <Rbt.Executable>
rbdock ($Id: //depot/dev/client3/rdock/2013.1/src/exe/rbdock.cxx#4 $)

>  <Rbt.Library>
libRbt.so (2013.1, Build901 2013/11/27)

>  <Rbt.Parameter_File>
/export/apps/rDock/src/rDock_2013.1_src/data/scripts/dock_solv.prm

>  <Rbt.Receptor>
prm/blind_docking_100.prm

>  <SCORE>
-38.8345

>  <SCORE.INTER>
-33.6965

>  <SCORE.INTER.CONST>
1

>  <SCORE.INTER.POLAR>
-4.73486

>  <SCORE.INTER.ROT>
8

>  <SCORE.INTER.SOLV>
13.2975

>  <SCORE.INTER.VDW>
-20.0473

>  <SCORE.INTER.norm>
-3.06332

>  <SCORE.INTRA>
-5.13802

>  <SCORE.INTRA.DIHEDRAL>
-10.086

>  <SCORE.INTRA.DIHEDRAL.0>
21.6454

>  <SCORE.INTRA.POLAR>
0

>  <SCORE.INTRA.POLAR.0>
0

>  <SCORE.INTRA.REPUL>
0

>  <SCORE.INTRA.REPUL.0>
0

>  <SCORE.INTRA.SOLV>
0.272801

>  <SCORE.INTRA.SOLV.lig_0>
-16.5947

>  <SCORE.INTRA.VDW>
-0.231422

>  <SCORE.INTRA.VDW.0>
-0.691398

>  <SCORE.INTRA.norm>
-0.467093

>  <SCORE.RESTR>
0

>  <SCORE.RESTR.CAVITY>
0

>  <SCORE.RESTR.norm>
0

>  <SCORE.SYSTEM>
0

>  <SCORE.SYSTEM.CONST>
0

>  <SCORE.SYSTEM.DIHEDRAL>
0

>  <SCORE.SYSTEM.SOLV>
0

>  <SCORE.SYSTEM.norm>
0

>  <SCORE.heavy>
11

>  <SCORE.norm>
-3.53041

>  <RMSD>
14.000

>  <RMSD>
14.000

$$$$
1akx_lig
 OpenBabel11021811383D
libRbt.so/2013.1/901 2013/11/27
 11 10  0  0  0  0  0  0  0  0999 V2000
   -9.3051    4.7801   -2.0662 N   0  0  0  0  0  0  0  0  0  0  0  0
  -10.6277    4.0956   -2.1673 C   0  0  2  0  0  0  0  0  0  0  0  0
  -11.1693    4.2368   -3.5954 C   0  0  0  0  0  0  0  0  0  0  0  0
  -10.5618    3.7632   -4.5350 O   0  0  0  0  0  0  0  0  0  0  0  0
  -11.6129    4.7294   -1.1758 C   0  0  0  0  0  0  0  0  0  0  0  0
  -11.0858    4.5648    0.2534 C   0  0  0  0  0  0  0  0  0  0  0  0
  -11.7804    5.5691    1.1730 C   0  0  0  0  0  0  0  0  0  0  0  0
  -11.4757    6.9541    0.7133 N   0  0  0  0  0  0  0  0  0  0  0  0
  -11.1654    7.8834    1.5807 C   0  0  0  0  0  0  0  0  0  0  0  0
  -10.0148    7.8472    2.2023 N   0  0  0  0  0  0  0  0  0  0  0  0
  -12.0054    8.8542    1.8216 N   0  0  0  0  0  0  0  0  0  0  0  0
  2  1  1  6  0  0  0
  2  3  1  0  0  0  0
  2  5  1  0  0  0  0
  3  4  1  0  0  0  0
  5  6  1  0  0  0  0
  6  7  1  0  0  0  0
  7  8  1  0  0  0  0
  8  9  1  0  0  0  0
  9 10  1  0  0  0  0
  9 11  1  0  0  0  0
M  END
>  <CHROM.1>
-142.61262025,61.99818859,-60.84340512,161.00106975,-61.21948086,-136.42508182
70.71895553,33.45926228,105.93233811,-10.94376066,5.78743233,-0.53837988
-1.45192604,0.50250994,0.87331122

>  <Name>
1akx_lig

>  <RI>
0

>  <Rbt.Current_Directory>
/home/itssahil/PROJECTS/Mol_Feturizer/New_Systems/rnas/1akx

>  <Rbt.Executable>
rbdock ($Id: //depot/dev/client3/rdock/2013.1/src/exe/rbdock.cxx#4 $)

>  <Rbt.Library>
libRbt.so (2013.1, Build901 2013/11/27)

>  <Rbt.Parameter_File>
/export/apps/rDock/src/rDock_2013.1_src/data/scripts/dock_solv.prm

>  <Rbt.Receptor>
prm/blind_docking_40.prm

>  <SCORE>
-33.7256

>  <SCORE.INTER>
-28.2222

>  <SCORE.INTER.CONST>
1

>  <SCORE.INTER.POLAR>
-4.51825

>  <SCORE.INTER.ROT>
8

>  <SCORE.INTER.SOLV>
11.7828

>  <SCORE.INTER.VDW>
-16.6149

>  <SCORE.INTER.norm>
-2.56565

>  <SCORE.INTRA>
-5.5725

>  <SCORE.INTRA.DIHEDRAL>
-12.9539

>  <SCORE.INTRA.DIHEDRAL.0>
21.6454

>  <SCORE.INTRA.POLAR>
0

>  <SCORE.INTRA.POLAR.0>
0

>  <SCORE.INTRA.REPUL>
0

>  <SCORE.INTRA.REPUL.0>
0

>  <SCORE.INTRA.SOLV>
0.574767

>  <SCORE.INTRA.SOLV.lig_0>
-16.5947

>  <SCORE.INTRA.VDW>
0.61709

>  <SCORE.INTRA.VDW.0>
-0.691398

>  <SCORE.INTRA.norm>
-0.506591

>  <SCORE.RESTR>
0.0691377

>  <SCORE.RESTR.CAVITY>
0.0691377

>  <SCORE.RESTR.norm>
0.00628525

>  <SCORE.SYSTEM>
0

>  <SCORE.SYSTEM.CONST>
0

>  <SCORE.SYSTEM.DIHEDRAL>
0

>  <SCORE.SYSTEM.SOLV>
0

>  <SCORE.SYSTEM.norm>
0

>  <SCORE.heavy>
11

>  <SCORE.norm>
-3.06596

>  <RMSD>
14.044

$$$$
1akx_lig
 OpenBabel11021811383D
libRbt.so/2013.1/901 2013/11/27
 11 10  0  0  0  0  0  0  0  0999 V2000
   -8.8277    3.6206   -3.2058 N   0  0  0  0  0  0  0  0  0  0  0  0
   -9.8771    3.9199   -2.1873 C   0  0  2  0  0  0  0  0  0  0  0  0
  -11.2222    4.1453   -2.8892 C   0  0  0  0  0  0  0  0  0  0  0  0
  -11.2866    4.8226   -3.8958 O   0  0  0  0  0  0  0  0  0  0  0  0
   -9.4872    5.1786   -1.4005 C   0  0  0  0  0  0  0  0  0  0  0  0
  -10.4673    5.3881   -0.2417 C   0  0  0  0  0  0  0  0  0  0  0  0
  -10.0947    6.6608    0.5188 C   0  0  0  0  0  0  0  0  0  0  0  0
  -11.1649    6.9781    1.5068 N   0  0  0  0  0  0  0  0  0  0  0  0
  -11.4450    8.2226    1.7987 C   0  0  0  0  0  0  0  0  0  0  0  0
  -12.4459    8.8278    1.2127 N   0  0  0  0  0  0  0  0  0  0  0  0
  -10.7260    8.8604    2.6831 N   0  0  0  0  0  0  0  0  0  0  0  0
  2  1  1  6  0  0  0
  2  3  1  0  0  0  0
  2  5  1  0  0  0  0
  3  4  1  0  0  0  0
  5  6  1  0  0  0  0
  6  7  1  0  0  0  0
  7  8  1  0  0  0  0
  8  9  1  0  0  0  0
  9 10  1  0  0  0  0
  9 11  1  0  0  0  0
M  END
>  <CHROM.1>
91.04742393,-43.85595719,-172.91572522,-178.66709121,171.25943450,-146.98971925
97.46735613,40.40010295,165.15913233,-10.64080496,6.07079356,-0.57490208
-1.34311018,-0.52093152,0.97563862

>  <Name>
1akx_lig

>  <RI>
0

>  <Rbt.Current_Directory>
/home/itssahil/PROJECTS/Mol_Feturizer/New_Systems/rnas/1akx

>  <Rbt.Executable>
rbdock ($Id: //depot/dev/client3/rdock/2013.1/src/exe/rbdock.cxx#4 $)

>  <Rbt.Library>
libRbt.so (2013.1, Build901 2013/11/27)

>  <Rbt.Parameter_File>
/export/apps/rDock/src/rDock_2013.1_src/data/scripts/dock_solv.prm

>  <Rbt.Receptor>
prm/blind_docking_100.prm

>  <SCORE>
-36.0541

>  <SCORE.INTER>
-30.4743

>  <SCORE.INTER.CONST>
1

>  <SCORE.INTER.POLAR>
-3.94943

>  <SCORE.INTER.ROT>
8

>  <SCORE.INTER.SOLV>
11.8504

>  <SCORE.INTER.VDW>
-20.0349

>  <SCORE.INTER.norm>
-2.77039

>  <SCORE.INTRA>
-5.57974

>  <SCORE.INTRA.DIHEDRAL>
-13.5681

>  <SCORE.INTRA.DIHEDRAL.0>
21.6454

>  <SCORE.INTRA.POLAR>
0

>  <SCORE.INTRA.POLAR.0>
0

>  <SCORE.INTRA.REPUL>
0

>  <SCORE.INTRA.REPUL.0>
0

>  <SCORE.INTRA.SOLV>
0.293624

>  <SCORE.INTRA.SOLV.lig_0>
-16.5947

>  <SCORE.INTRA.VDW>
1.0575

>  <SCORE.INTRA.VDW.0>
-0.691398

>  <SCORE.INTRA.norm>
-0.507249

>  <SCORE.RESTR>
0

>  <SCORE.RESTR.CAVITY>
0

>  <SCORE.RESTR.norm>
0

>  <SCORE.SYSTEM>
0

>  <SCORE.SYSTEM.CONST>
0

>  <SCORE.SYSTEM.DIHEDRAL>
0

>  <SCORE.SYSTEM.SOLV>
0

>  <SCORE.SYSTEM.norm>
0

>  <SCORE.heavy>
11

>  <SCORE.norm>
-3.27764

>  <RMSD>
14.080

$$$$
1akx_lig
 OpenBabel11021811383D
libRbt.so/2013.1/901 2013/11/27
 11 10  0  0  0  0  0  0  0  0999 V2000
    5.2377  -17.3539    0.7738 N   0  0  0  0  0  0  0  0  0  0  0  0
    6.5354  -17.0879    0.0857 C   0  0  2  0  0  0  0  0  0  0  0  0
    7.5177  -16.4482    1.0750 C   0  0  0  0  0  0  0  0  0  0  0  0
    7.6324  -16.8881    2.2017 O   0  0  0  0  0  0  0  0  0  0  0  0
    6.3052  -16.1407   -1.0997 C   0  0  0  0  0  0  0  0  0  0  0  0
    5.5587  -16.8800   -2.2148 C   0  0  0  0  0  0  0  0  0  0  0  0
    4.0517  -16.7528   -1.9922 C   0  0  0  0  0  0  0  0  0  0  0  0
    3.7338  -15.3696   -1.5363 N   0  0  0  0  0  0  0  0  0  0  0  0
    3.0991  -15.1765   -0.4083 C   0  0  0  0  0  0  0  0  0  0  0  0
    3.1522  -14.0129    0.1870 N   0  0  0  0  0  0  0  0  0  0  0  0
    2.4051  -16.1480    0.1214 N   0  0  0  0  0  0  0  0  0  0  0  0
  2  1  1  1  0  0  0
  2  3  1  0  0  0  0
  2  5  1  0  0  0  0
  3  4  1  0  0  0  0
  5  6  1  0  0  0  0
  6  7  1  0  0  0  0
  7  8  1  0  0  0  0
  8  9  1  0  0  0  0
  9 10  1  0  0  0  0
  9 11  1  0  0  0  0
M  END
>  <CHROM.1>
-44.48188981,44.49739170,-71.09346249,88.31666732,40.36758798,-123.40896501
160.20232126,13.45277973,29.57377252,4.98908935,-16.19850617,-0.20017741
0.31600795,-0.43242529,1.35189960

>  <Name>
1akx_lig

>  <RI>
0

>  <Rbt.Current_Directory>
/home/itssahil/PROJECTS/Mol_Feturizer/New_Systems/rnas/1akx

>  <Rbt.Executable>
rbdock ($Id: //depot/dev/client3/rdock/2013.1/src/exe/rbdock.cxx#4 $)

>  <Rbt.Library>
libRbt.so (2013.1, Build901 2013/11/27)

>  <Rbt.Parameter_File>
/export/apps/rDock/src/rDock_2013.1_src/data/scripts/dock_solv.prm

>  <Rbt.Receptor>
prm/blind_docking_60.prm

>  <SCORE>
-32.268

>  <SCORE.INTER>
-29.6859

>  <SCORE.INTER.CONST>
1

>  <SCORE.INTER.POLAR>
-3.53459

>  <SCORE.INTER.ROT>
8

>  <SCORE.INTER.SOLV>
14.5415

>  <SCORE.INTER.VDW>
-21.7891

>  <SCORE.INTER.norm>
-2.69872

>  <SCORE.INTRA>
-2.59393

>  <SCORE.INTRA.DIHEDRAL>
-10.8475

>  <SCORE.INTRA.DIHEDRAL.0>
21.6454

>  <SCORE.INTRA.POLAR>
0

>  <SCORE.INTRA.POLAR.0>
0

>  <SCORE.INTRA.REPUL>
0

>  <SCORE.INTRA.REPUL.0>
0

>  <SCORE.INTRA.SOLV>
2.39999

>  <SCORE.INTRA.SOLV.lig_0>
-16.5947

>  <SCORE.INTRA.VDW>
1.62983

>  <SCORE.INTRA.VDW.0>
-0.691398

>  <SCORE.INTRA.norm>
-0.235812

>  <SCORE.RESTR>
0.0118521

>  <SCORE.RESTR.CAVITY>
0.0118521

>  <SCORE.RESTR.norm>
0.00107746

>  <SCORE.SYSTEM>
0

>  <SCORE.SYSTEM.CONST>
0

>  <SCORE.SYSTEM.DIHEDRAL>
0

>  <SCORE.SYSTEM.SOLV>
0

>  <SCORE.SYSTEM.norm>
0

>  <SCORE.heavy>
11

>  <SCORE.norm>
-2.93345

>  <RMSD>
14.273

$$$$
1akx_lig
 OpenBabel11021811383D
libRbt.so/2013.1/901 2013/11/27
 11 10  0  0  0  0  0  0  0  0999 V2000
  -10.8930    8.9902    1.0723 N   0  0  0  0  0  0  0  0  0  0  0  0
  -11.6522    7.7088    1.1699 C   0  0  2  0  0  0  0  0  0  0  0  0
  -12.8913    7.9137    2.0505 C   0  0  0  0  0  0  0  0  0  0  0  0
  -12.7727    8.2190    3.2205 O   0  0  0  0  0  0  0  0  0  0  0  0
  -10.7559    6.6243    1.7830 C   0  0  0  0  0  0  0  0  0  0  0  0
  -10.8214    5.3550    0.9275 C   0  0  0  0  0  0  0  0  0  0  0  0
  -10.2273    5.6376   -0.4524 C   0  0  0  0  0  0  0  0  0  0  0  0
  -10.3505    4.4198   -1.3032 N   0  0  0  0  0  0  0  0  0  0  0  0
  -10.7151    4.5244   -2.5556 C   0  0  0  0  0  0  0  0  0  0  0  0
   -9.8338    4.8200   -3.4761 N   0  0  0  0  0  0  0  0  0  0  0  0
  -11.9627    4.3267   -2.8880 N   0  0  0  0  0  0  0  0  0  0  0  0
  2  1  1  1  0  0  0
  2  3  1  0  0  0  0
  2  5  1  0  0  0  0
  3  4  1  0  0  0  0
  5  6  1  0  0  0  0
  6  7  1  0  0  0  0
  7  8  1  0  0  0  0
  8  9  1  0  0  0  0
  9 10  1  0  0  0  0
  9 11  1  0  0  0  0
M  END
>  <CHROM.1>
51.23665169,-62.75448703,-131.12847710,64.85292129,-177.37007052,137.75090344
82.87659219,4.34752778,-168.71525735,-11.17026043,6.25622603,-0.06167788
-1.88249405,-0.74544801,-2.41940163

>  <Name>
1akx_lig

>  <RI>
0

>  <Rbt.Current_Directory>
/home/itssahil/PROJECTS/Mol_Feturizer/New_Systems/rnas/1akx

>  <Rbt.Executable>
rbdock ($Id: //depot/dev/client3/rdock/2013.1/src/exe/rbdock.cxx#4 $)

>  <Rbt.Library>
libRbt.so (2013.1, Build901 2013/11/27)

>  <Rbt.Parameter_File>
/export/apps/rDock/src/rDock_2013.1_src/data/scripts/dock_solv.prm

>  <Rbt.Receptor>
prm/blind_docking_40.prm

>  <SCORE>
-33.2717

>  <SCORE.INTER>
-28.4317

>  <SCORE.INTER.CONST>
1

>  <SCORE.INTER.POLAR>
-4.949

>  <SCORE.INTER.ROT>
8

>  <SCORE.INTER.SOLV>
10.3474

>  <SCORE.INTER.VDW>
-14.8403

>  <SCORE.INTER.norm>
-2.5847

>  <SCORE.INTRA>
-5.16297

>  <SCORE.INTRA.DIHEDRAL>
-11.1139

>  <SCORE.INTRA.DIHEDRAL.0>
21.6454

>  <SCORE.INTRA.POLAR>
0

>  <SCORE.INTRA.POLAR.0>
0

>  <SCORE.INTRA.REPUL>
0

>  <SCORE.INTRA.REPUL.0>
0

>  <SCORE.INTRA.SOLV>
0.400477

>  <SCORE.INTRA.SOLV.lig_0>
-16.5947

>  <SCORE.INTRA.VDW>
0.193732

>  <SCORE.INTRA.VDW.0>
-0.691398

>  <SCORE.INTRA.norm>
-0.469361

>  <SCORE.RESTR>
0.32298

>  <SCORE.RESTR.CAVITY>
0.32298

>  <SCORE.RESTR.norm>
0.0293618

>  <SCORE.SYSTEM>
0

>  <SCORE.SYSTEM.CONST>
0

>  <SCORE.SYSTEM.DIHEDRAL>
0

>  <SCORE.SYSTEM.SOLV>
0

>  <SCORE.SYSTEM.norm>
0

>  <SCORE.heavy>
11

>  <SCORE.norm>
-3.0247

>  <RMSD>
14.280

$$$$
1akx_lig
 OpenBabel11021811383D
libRbt.so/2013.1/901 2013/11/27
 11 10  0  0  0  0  0  0  0  0999 V2000
    6.6081  -15.6395   -0.3941 N   0  0  0  0  0  0  0  0  0  0  0  0
    5.8138  -16.8835   -0.1707 C   0  0  2  0  0  0  0  0  0  0  0  0
    6.3977  -17.6571    1.0180 C   0  0  0  0  0  0  0  0  0  0  0  0
    6.5423  -17.1148    2.0956 O   0  0  0  0  0  0  0  0  0  0  0  0
    5.8617  -17.7584   -1.4307 C   0  0  0  0  0  0  0  0  0  0  0  0
    4.4460  -18.2159   -1.7966 C   0  0  0  0  0  0  0  0  0  0  0  0
    3.5799  -16.9959   -2.1100 C   0  0  0  0  0  0  0  0  0  0  0  0
    3.2153  -16.3080   -0.8388 N   0  0  0  0  0  0  0  0  0  0  0  0
    3.0975  -15.0052   -0.8042 C   0  0  0  0  0  0  0  0  0  0  0  0
    3.0746  -14.3756    0.3423 N   0  0  0  0  0  0  0  0  0  0  0  0
    3.0090  -14.3308   -1.9193 N   0  0  0  0  0  0  0  0  0  0  0  0
  2  1  1  6  0  0  0
  2  3  1  0  0  0  0
  2  5  1  0  0  0  0
  3  4  1  0  0  0  0
  5  6  1  0  0  0  0
  6  7  1  0  0  0  0
  7  8  1  0  0  0  0
  8  9  1  0  0  0  0
  9 10  1  0  0  0  0
  9 11  1  0  0  0  0
M  END
>  <CHROM.1>
164.12745010,54.46842265,-131.84316515,61.95921157,-75.25303403,145.67074563
-164.75224187,128.58376788,50.65245534,4.70819352,-16.33102044,-0.51550513
-0.05077381,-0.70847002,0.77217871

>  <Name>
1akx_lig

>  <RI>
0

>  <Rbt.Current_Directory>
/home/itssahil/PROJECTS/Mol_Feturizer/New_Systems/rnas/1akx

>  <Rbt.Executable>
rbdock ($Id: //depot/dev/client3/rdock/2013.1/src/exe/rbdock.cxx#4 $)

>  <Rbt.Library>
libRbt.so (2013.1, Build901 2013/11/27)

>  <Rbt.Parameter_File>
/export/apps/rDock/src/rDock_2013.1_src/data/scripts/dock_solv.prm

>  <Rbt.Receptor>
prm/blind_docking_60.prm

>  <SCORE>
-32.9771

>  <SCORE.INTER>
-30.0552

>  <SCORE.INTER.CONST>
1

>  <SCORE.INTER.POLAR>
-4.91954

>  <SCORE.INTER.ROT>
8

>  <SCORE.INTER.SOLV>
14.9156

>  <SCORE.INTER.VDW>
-17.5435

>  <SCORE.INTER.norm>
-2.73229

>  <SCORE.INTRA>
-3.29773

>  <SCORE.INTRA.DIHEDRAL>
-9.96198

>  <SCORE.INTRA.DIHEDRAL.0>
21.6454

>  <SCORE.INTRA.POLAR>
0

>  <SCORE.INTRA.POLAR.0>
0

>  <SCORE.INTRA.REPUL>
0

>  <SCORE.INTRA.REPUL.0>
0

>  <SCORE.INTRA.SOLV>
1.79791

>  <SCORE.INTRA.SOLV.lig_0>
-16.5947

>  <SCORE.INTRA.VDW>
0.784307

>  <SCORE.INTRA.VDW.0>
-0.691398

>  <SCORE.INTRA.norm>
-0.299794

>  <SCORE.RESTR>
0.375823

>  <SCORE.RESTR.CAVITY>
0.375823

>  <SCORE.RESTR.norm>
0.0341658

>  <SCORE.SYSTEM>
0

>  <SCORE.SYSTEM.CONST>
0

>  <SCORE.SYSTEM.DIHEDRAL>
0

>  <SCORE.SYSTEM.SOLV>
0

>  <SCORE.SYSTEM.norm>
0

>  <SCORE.heavy>
11

>  <SCORE.norm>
-2.99792

>  <RMSD>
14.293

$$$$
1akx_lig
 OpenBabel11021811383D
libRbt.so/2013.1/901 2013/11/27
 11 10  0  0  0  0  0  0  0  0999 V2000
   -9.6787    4.6084   -3.5164 N   0  0  0  0  0  0  0  0  0  0  0  0
  -10.7104    4.3901   -2.4600 C   0  0  2  0  0  0  0  0  0  0  0  0
  -12.0732    4.8787   -2.9667 C   0  0  0  0  0  0  0  0  0  0  0  0
  -13.0859    4.6413   -2.3388 O   0  0  0  0  0  0  0  0  0  0  0  0
  -10.3222    5.1642   -1.1929 C   0  0  0  0  0  0  0  0  0  0  0  0
  -11.1620    4.6730   -0.0094 C   0  0  0  0  0  0  0  0  0  0  0  0
  -10.8525    5.5218    1.2238 C   0  0  0  0  0  0  0  0  0  0  0  0
  -11.3139    6.9200    0.9908 N   0  0  0  0  0  0  0  0  0  0  0  0
  -11.1753    7.8247    1.9260 C   0  0  0  0  0  0  0  0  0  0  0  0
  -11.4916    7.5462    3.1645 N   0  0  0  0  0  0  0  0  0  0  0  0
  -10.7134    9.0081    1.6222 N   0  0  0  0  0  0  0  0  0  0  0  0
  2  1  1  6  0  0  0
  2  3  1  0  0  0  0
  2  5  1  0  0  0  0
  3  4  1  0  0  0  0
  5  6  1  0  0  0  0
  6  7  1  0  0  0  0
  7  8  1  0  0  0  0
  8  9  1  0  0  0  0
  9 10  1  0  0  0  0
  9 11  1  0  0  0  0
M  END
>  <CHROM.1>
95.52311190,170.49198993,-165.68698816,-175.49676185,65.92210294,178.69763246
-45.09008280,95.55671647,-15.44496407,-11.13997174,5.95355768,-0.33832115
-1.56523415,0.39973273,0.99232726

>  <Name>
1akx_lig

>  <RI>
0

>  <Rbt.Current_Directory>
/home/itssahil/PROJECTS/Mol_Feturizer/New_Systems/rnas/1akx

>  <Rbt.Executable>
rbdock ($Id: //depot/dev/client3/rdock/2013.1/src/exe/rbdock.cxx#4 $)

>  <Rbt.Library>
libRbt.so (2013.1, Build901 2013/11/27)

>  <Rbt.Parameter_File>
/export/apps/rDock/src/rDock_2013.1_src/data/scripts/dock_solv.prm

>  <Rbt.Receptor>
prm/blind_docking_100.prm

>  <SCORE>
-38.1896

>  <SCORE.INTER>
-33.2482

>  <SCORE.INTER.CONST>
1

>  <SCORE.INTER.POLAR>
-5.45832

>  <SCORE.INTER.ROT>
8

>  <SCORE.INTER.SOLV>
10.2694

>  <SCORE.INTER.VDW>
-16.3275

>  <SCORE.INTER.norm>
-3.02256

>  <SCORE.INTRA>
-5.00589

>  <SCORE.INTRA.DIHEDRAL>
-13.2144

>  <SCORE.INTRA.DIHEDRAL.0>
21.6454

>  <SCORE.INTRA.POLAR>
0

>  <SCORE.INTRA.POLAR.0>
0

>  <SCORE.INTRA.REPUL>
0

>  <SCORE.INTRA.REPUL.0>
0

>  <SCORE.INTRA.SOLV>
0.319233

>  <SCORE.INTRA.SOLV.lig_0>
-16.5947

>  <SCORE.INTRA.VDW>
1.44169

>  <SCORE.INTRA.VDW.0>
-0.691398

>  <SCORE.INTRA.norm>
-0.455081

>  <SCORE.RESTR>
0.0644881

>  <SCORE.RESTR.CAVITY>
0.0644881

>  <SCORE.RESTR.norm>
0.00586255

>  <SCORE.SYSTEM>
0

>  <SCORE.SYSTEM.CONST>
0

>  <SCORE.SYSTEM.DIHEDRAL>
0

>  <SCORE.SYSTEM.SOLV>
0

>  <SCORE.SYSTEM.norm>
0

>  <SCORE.heavy>
11

>  <SCORE.norm>
-3.47178

>  <RMSD>
14.349

$$$$
1akx_lig
 OpenBabel11021811383D
libRbt.so/2013.1/901 2013/11/27
 11 10  0  0  0  0  0  0  0  0999 V2000
    7.5782  -16.2962    0.8256 N   0  0  0  0  0  0  0  0  0  0  0  0
    6.2154  -16.8878    0.9707 C   0  0  2  0  0  0  0  0  0  0  0  0
    6.2920  -18.1390    1.8546 C   0  0  0  0  0  0  0  0  0  0  0  0
    6.7544  -18.0743    2.9763 O   0  0  0  0  0  0  0  0  0  0  0  0
    5.6675  -17.2648   -0.4125 C   0  0  0  0  0  0  0  0  0  0  0  0
    5.6468  -16.0271   -1.3152 C   0  0  0  0  0  0  0  0  0  0  0  0
    4.6427  -16.2380   -2.4484 C   0  0  0  0  0  0  0  0  0  0  0  0
    3.2588  -16.2086   -1.8951 N   0  0  0  0  0  0  0  0  0  0  0  0
    2.9749  -15.4479   -0.8689 C   0  0  0  0  0  0  0  0  0  0  0  0
    2.3429  -15.9433    0.1639 N   0  0  0  0  0  0  0  0  0  0  0  0
    3.3297  -14.1909   -0.8737 N   0  0  0  0  0  0  0  0  0  0  0  0
  2  1  1  6  0  0  0
  2  3  1  0  0  0  0
  2  5  1  0  0  0  0
  3  4  1  0  0  0  0
  5  6  1  0  0  0  0
  6  7  1  0  0  0  0
  7  8  1  0  0  0  0
  8  9  1  0  0  0  0
  9 10  1  0  0  0  0
  9 11  1  0  0  0  0
M  END
>  <CHROM.1>
118.36719162,56.50074989,-57.35123929,-158.18316895,70.19896597,32.60736899
-130.05185075,16.68615191,-179.74802381,4.98489090,-16.41207312,-0.05608808
-0.77861704,0.23091213,-1.21459524

>  <Name>
1akx_lig

>  <RI>
0

>  <Rbt.Current_Directory>
/home/itssahil/PROJECTS/Mol_Feturizer/New_Systems/rnas/1akx

>  <Rbt.Executable>
rbdock ($Id: //depot/dev/client3/rdock/2013.1/src/exe/rbdock.cxx#4 $)

>  <Rbt.Library>
libRbt.so (2013.1, Build901 2013/11/27)

>  <Rbt.Parameter_File>
/export/apps/rDock/src/rDock_2013.1_src/data/scripts/dock_solv.prm

>  <Rbt.Receptor>
prm/blind_docking_60.prm

>  <SCORE>
-33.36

>  <SCORE.INTER>
-31.9901

>  <SCORE.INTER.CONST>
1

>  <SCORE.INTER.POLAR>
-4.10425

>  <SCORE.INTER.ROT>
8

>  <SCORE.INTER.SOLV>
15.0535

>  <SCORE.INTER.VDW>
-21.5971

>  <SCORE.INTER.norm>
-2.90819

>  <SCORE.INTRA>
-1.36985

>  <SCORE.INTRA.DIHEDRAL>
-11.0059

>  <SCORE.INTRA.DIHEDRAL.0>
21.6454

>  <SCORE.INTRA.POLAR>
0

>  <SCORE.INTRA.POLAR.0>
0

>  <SCORE.INTRA.REPUL>
0

>  <SCORE.INTRA.REPUL.0>
0

>  <SCORE.INTRA.SOLV>
1.18143

>  <SCORE.INTRA.SOLV.lig_0>
-16.5947

>  <SCORE.INTRA.VDW>
3.5424

>  <SCORE.INTRA.VDW.0>
-0.691398

>  <SCORE.INTRA.norm>
-0.124532

>  <SCORE.RESTR>
0

>  <SCORE.RESTR.CAVITY>
0

>  <SCORE.RESTR.norm>
0

>  <SCORE.SYSTEM>
0

>  <SCORE.SYSTEM.CONST>
0

>  <SCORE.SYSTEM.DIHEDRAL>
0

>  <SCORE.SYSTEM.SOLV>
0

>  <SCORE.SYSTEM.norm>
0

>  <SCORE.heavy>
11

>  <SCORE.norm>
-3.03272

>  <RMSD>
14.385

$$$$
1akx_lig
 OpenBabel11021811383D
libRbt.so/2013.1/901 2013/11/27
 11 10  0  0  0  0  0  0  0  0999 V2000
    7.3357  -16.1598    0.5175 N   0  0  0  0  0  0  0  0  0  0  0  0
    6.0018  -16.8261    0.4463 C   0  0  2  0  0  0  0  0  0  0  0  0
    5.7805  -17.6651    1.7111 C   0  0  0  0  0  0  0  0  0  0  0  0
    6.6530  -18.4043    2.1214 O   0  0  0  0  0  0  0  0  0  0  0  0
    5.9439  -17.7317   -0.7914 C   0  0  0  0  0  0  0  0  0  0  0  0
    5.6484  -16.8882   -2.0358 C   0  0  0  0  0  0  0  0  0  0  0  0
    4.1467  -16.6160   -2.1237 C   0  0  0  0  0  0  0  0  0  0  0  0
    3.8413  -15.3108   -1.4715 N   0  0  0  0  0  0  0  0  0  0  0  0
    3.0181  -15.2579   -0.4556 C   0  0  0  0  0  0  0  0  0  0  0  0
    2.2042  -16.2531   -0.2142 N   0  0  0  0  0  0  0  0  0  0  0  0
    3.0142  -14.2097    0.3237 N   0  0  0  0  0  0  0  0  0  0  0  0
  2  1  1  1  0  0  0
  2  3  1  0  0  0  0
  2  5  1  0  0  0  0
  3  4  1  0  0  0  0
  5  6  1  0  0  0  0
  6  7  1  0  0  0  0
  7  8  1  0  0  0  0
  8  9  1  0  0  0  0
  9 10  1  0  0  0  0
  9 11  1  0  0  0  0
M  END
>  <CHROM.1>
32.89395566,-46.82740172,-80.39868098,-81.29217470,93.56644038,-120.47158175
-17.42961020,161.29769874,-170.72464830,4.88596928,-16.46049603,-0.13958936
-0.43430168,0.53217119,-1.52402854

>  <Name>
1akx_lig

>  <RI>
0

>  <Rbt.Current_Directory>
/home/itssahil/PROJECTS/Mol_Feturizer/New_Systems/rnas/1akx

>  <Rbt.Executable>
rbdock ($Id: //depot/dev/client3/rdock/2013.1/src/exe/rbdock.cxx#4 $)

>  <Rbt.Library>
libRbt.so (2013.1, Build901 2013/11/27)

>  <Rbt.Parameter_File>
/export/apps/rDock/src/rDock_2013.1_src/data/scripts/dock_solv.prm

>  <Rbt.Receptor>
prm/blind_docking_60.prm

>  <SCORE>
-33.105

>  <SCORE.INTER>
-30.2449

>  <SCORE.INTER.CONST>
1

>  <SCORE.INTER.POLAR>
-4.14328

>  <SCORE.INTER.ROT>
8

>  <SCORE.INTER.SOLV>
15.2361

>  <SCORE.INTER.VDW>
-20.3644

>  <SCORE.INTER.norm>
-2.74954

>  <SCORE.INTRA>
-2.86006

>  <SCORE.INTRA.DIHEDRAL>
-8.20213

>  <SCORE.INTRA.DIHEDRAL.0>
21.6454

>  <SCORE.INTRA.POLAR>
0

>  <SCORE.INTRA.POLAR.0>
0

>  <SCORE.INTRA.REPUL>
0

>  <SCORE.INTRA.REPUL.0>
0

>  <SCORE.INTRA.SOLV>
1.27181

>  <SCORE.INTRA.SOLV.lig_0>
-16.5947

>  <SCORE.INTRA.VDW>
0.605102

>  <SCORE.INTRA.VDW.0>
-0.691398

>  <SCORE.INTRA.norm>
-0.260005

>  <SCORE.RESTR>
0

>  <SCORE.RESTR.CAVITY>
0

>  <SCORE.RESTR.norm>
0

>  <SCORE.SYSTEM>
0

>  <SCORE.SYSTEM.CONST>
0

>  <SCORE.SYSTEM.DIHEDRAL>
0

>  <SCORE.SYSTEM.SOLV>
0

>  <SCORE.SYSTEM.norm>
0

>  <SCORE.heavy>
11

>  <SCORE.norm>
-3.00954

>  <RMSD>
14.425

$$$$
1akx_lig
 OpenBabel11021811383D
libRbt.so/2013.1/901 2013/11/27
 11 10  0  0  0  0  0  0  0  0999 V2000
    7.9404  -16.4149    1.4530 N   0  0  0  0  0  0  0  0  0  0  0  0
    6.6054  -17.0541    1.6460 C   0  0  2  0  0  0  0  0  0  0  0  0
    6.7538  -18.2879    2.5450 C   0  0  0  0  0  0  0  0  0  0  0  0
    7.0987  -18.1687    3.7039 O   0  0  0  0  0  0  0  0  0  0  0  0
    6.0327  -17.4721    0.2849 C   0  0  0  0  0  0  0  0  0  0  0  0
    5.6465  -16.2258   -0.5182 C   0  0  0  0  0  0  0  0  0  0  0  0
    4.7224  -16.6254   -1.6685 C   0  0  0  0  0  0  0  0  0  0  0  0
    3.6443  -15.6062   -1.8142 N   0  0  0  0  0  0  0  0  0  0  0  0
    3.1353  -15.0288   -0.7559 C   0  0  0  0  0  0  0  0  0  0  0  0
    3.3295  -13.7527   -0.5437 N   0  0  0  0  0  0  0  0  0  0  0  0
    2.4254  -15.7287    0.0881 N   0  0  0  0  0  0  0  0  0  0  0  0
  2  1  1  6  0  0  0
  2  3  1  0  0  0  0
  2  5  1  0  0  0  0
  3  4  1  0  0  0  0
  5  6  1  0  0  0  0
  6  7  1  0  0  0  0
  7  8  1  0  0  0  0
  8  9  1  0  0  0  0
  9 10  1  0  0  0  0
  9 11  1  0  0  0  0
M  END
>  <CHROM.1>
-171.04456295,65.10153390,-69.95449307,-163.65750684,139.76470041,-36.36945550
112.86174035,-177.87458084,-168.29746388,5.22421608,-16.37058221,0.43059865
-0.75859602,0.39610205,-1.31749932

>  <Name>
1akx_lig

>  <RI>
0

>  <Rbt.Current_Directory>
/home/itssahil/PROJECTS/Mol_Feturizer/New_Systems/rnas/1akx

>  <Rbt.Executable>
rbdock ($Id: //depot/dev/client3/rdock/2013.1/src/exe/rbdock.cxx#4 $)

>  <Rbt.Library>
libRbt.so (2013.1, Build901 2013/11/27)

>  <Rbt.Parameter_File>
/export/apps/rDock/src/rDock_2013.1_src/data/scripts/dock_solv.prm

>  <Rbt.Receptor>
prm/blind_docking_60.prm

>  <SCORE>
-34.6107

>  <SCORE.INTER>
-31.181

>  <SCORE.INTER.CONST>
1

>  <SCORE.INTER.POLAR>
-3.41737

>  <SCORE.INTER.ROT>
8

>  <SCORE.INTER.SOLV>
15.9846

>  <SCORE.INTER.VDW>
-23.6576

>  <SCORE.INTER.norm>
-2.83464

>  <SCORE.INTRA>
-3.98933

>  <SCORE.INTRA.DIHEDRAL>
-10.9463

>  <SCORE.INTRA.DIHEDRAL.0>
21.6454

>  <SCORE.INTRA.POLAR>
0

>  <SCORE.INTRA.POLAR.0>
0

>  <SCORE.INTRA.REPUL>
0

>  <SCORE.INTRA.REPUL.0>
0

>  <SCORE.INTRA.SOLV>
0.602339

>  <SCORE.INTRA.SOLV.lig_0>
-16.5947

>  <SCORE.INTRA.VDW>
1.18267

>  <SCORE.INTRA.VDW.0>
-0.691398

>  <SCORE.INTRA.norm>
-0.362667

>  <SCORE.RESTR>
0.559665

>  <SCORE.RESTR.CAVITY>
0.559665

>  <SCORE.RESTR.norm>
0.0508786

>  <SCORE.SYSTEM>
0

>  <SCORE.SYSTEM.CONST>
0

>  <SCORE.SYSTEM.DIHEDRAL>
0

>  <SCORE.SYSTEM.SOLV>
0

>  <SCORE.SYSTEM.norm>
0

>  <SCORE.heavy>
11

>  <SCORE.norm>
-3.14642

>  <RMSD>
14.455

$$$$
1akx_lig
 OpenBabel11021811383D
libRbt.so/2013.1/901 2013/11/27
 11 10  0  0  0  0  0  0  0  0999 V2000
    7.9011  -16.4143    1.3295 N   0  0  0  0  0  0  0  0  0  0  0  0
    6.5808  -17.0384    1.6387 C   0  0  2  0  0  0  0  0  0  0  0  0
    6.7904  -18.2551    2.5488 C   0  0  0  0  0  0  0  0  0  0  0  0
    7.2532  -18.1188    3.6639 O   0  0  0  0  0  0  0  0  0  0  0  0
    5.9013  -17.4789    0.3350 C   0  0  0  0  0  0  0  0  0  0  0  0
    5.6856  -16.2630   -0.5719 C   0  0  0  0  0  0  0  0  0  0  0  0
    4.6848  -16.6173   -1.6719 C   0  0  0  0  0  0  0  0  0  0  0  0
    3.6447  -15.5528   -1.7563 N   0  0  0  0  0  0  0  0  0  0  0  0
    3.1435  -15.0325   -0.6652 C   0  0  0  0  0  0  0  0  0  0  0  0
    3.3655  -13.7772   -0.3713 N   0  0  0  0  0  0  0  0  0  0  0  0
    2.4137  -15.7682    0.1298 N   0  0  0  0  0  0  0  0  0  0  0  0
  2  1  1  6  0  0  0
  2  3  1  0  0  0  0
  2  5  1  0  0  0  0
  3  4  1  0  0  0  0
  5  6  1  0  0  0  0
  6  7  1  0  0  0  0
  7  8  1  0  0  0  0
  8  9  1  0  0  0  0
  9 10  1  0  0  0  0
  9 11  1  0  0  0  0
M  END
>  <CHROM.1>
-51.94380575,63.44812089,-60.01795886,-164.46891413,131.36583858,-41.66276229
113.73060980,4.15554653,14.32721795,5.22849977,-16.36616465,0.44633755,-0.72905333
0.41835791,-1.35070047

>  <Name>
1akx_lig

>  <RI>
0

>  <Rbt.Current_Directory>
/home/itssahil/PROJECTS/Mol_Feturizer/New_Systems/rnas/1akx

>  <Rbt.Executable>
rbdock ($Id: //depot/dev/client3/rdock/2013.1/src/exe/rbdock.cxx#4 $)

>  <Rbt.Library>
libRbt.so (2013.1, Build901 2013/11/27)

>  <Rbt.Parameter_File>
/export/apps/rDock/src/rDock_2013.1_src/data/scripts/dock_solv.prm

>  <Rbt.Receptor>
prm/blind_docking_60.prm

>  <SCORE>
-34.6639

>  <SCORE.INTER>
-31.1976

>  <SCORE.INTER.CONST>
1

>  <SCORE.INTER.POLAR>
-3.17005

>  <SCORE.INTER.ROT>
8

>  <SCORE.INTER.SOLV>
15.9312

>  <SCORE.INTER.VDW>
-24.4753

>  <SCORE.INTER.norm>
-2.83614

>  <SCORE.INTRA>
-3.94202

>  <SCORE.INTRA.DIHEDRAL>
-10.64

>  <SCORE.INTRA.DIHEDRAL.0>
21.6454

>  <SCORE.INTRA.POLAR>
0

>  <SCORE.INTRA.POLAR.0>
0

>  <SCORE.INTRA.REPUL>
0

>  <SCORE.INTRA.REPUL.0>
0

>  <SCORE.INTRA.SOLV>
0.663061

>  <SCORE.INTRA.SOLV.lig_0>
-16.5947

>  <SCORE.INTRA.VDW>
1.04644

>  <SCORE.INTRA.VDW.0>
-0.691398

>  <SCORE.INTRA.norm>
-0.358365

>  <SCORE.RESTR>
0.475732

>  <SCORE.RESTR.CAVITY>
0.475732

>  <SCORE.RESTR.norm>
0.0432483

>  <SCORE.SYSTEM>
0

>  <SCORE.SYSTEM.CONST>
0

>  <SCORE.SYSTEM.DIHEDRAL>
0

>  <SCORE.SYSTEM.SOLV>
0

>  <SCORE.SYSTEM.norm>
0

>  <SCORE.heavy>
11

>  <SCORE.norm>
-3.15126

>  <RMSD>
14.458

$$$$
1akx_lig
 OpenBabel11021811383D
libRbt.so/2013.1/901 2013/11/27
 11 10  0  0  0  0  0  0  0  0999 V2000
    5.1421  -17.0237    0.8608 N   0  0  0  0  0  0  0  0  0  0  0  0
    6.5318  -17.2285    0.3560 C   0  0  2  0  0  0  0  0  0  0  0  0
    7.5272  -16.5561    1.3099 C   0  0  0  0  0  0  0  0  0  0  0  0
    7.6474  -16.9493    2.4532 O   0  0  0  0  0  0  0  0  0  0  0  0
    6.6661  -16.6180   -1.0456 C   0  0  0  0  0  0  0  0  0  0  0  0
    6.2901  -17.6618   -2.1023 C   0  0  0  0  0  0  0  0  0  0  0  0
    5.0166  -17.2219   -2.8244 C   0  0  0  0  0  0  0  0  0  0  0  0
    3.9871  -16.8320   -1.8191 N   0  0  0  0  0  0  0  0  0  0  0  0
    3.5046  -15.6156   -1.8071 C   0  0  0  0  0  0  0  0  0  0  0  0
    3.5623  -14.8944   -0.7172 N   0  0  0  0  0  0  0  0  0  0  0  0
    2.9692  -15.1181   -2.8897 N   0  0  0  0  0  0  0  0  0  0  0  0
  2  1  1  1  0  0  0
  2  3  1  0  0  0  0
  2  5  1  0  0  0  0
  3  4  1  0  0  0  0
  5  6  1  0  0  0  0
  6  7  1  0  0  0  0
  7  8  1  0  0  0  0
  8  9  1  0  0  0  0
  9 10  1  0  0  0  0
  9 11  1  0  0  0  0
M  END
>  <CHROM.1>
-37.88025211,64.39268998,-89.02661854,113.95993113,-48.87451490,119.64881551
-124.41596302,-62.64446663,-41.11903072,5.30786078,-16.49781230,-0.70556571
0.63776612,-0.57030794,1.24684996

>  <Name>
1akx_lig

>  <RI>
0

>  <Rbt.Current_Directory>
/home/itssahil/PROJECTS/Mol_Feturizer/New_Systems/rnas/1akx

>  <Rbt.Executable>
rbdock ($Id: //depot/dev/client3/rdock/2013.1/src/exe/rbdock.cxx#4 $)

>  <Rbt.Library>
libRbt.so (2013.1, Build901 2013/11/27)

>  <Rbt.Parameter_File>
/export/apps/rDock/src/rDock_2013.1_src/data/scripts/dock_solv.prm

>  <Rbt.Receptor>
prm/blind_docking_60.prm

>  <SCORE>
-23.9694

>  <SCORE.INTER>
-21.4842

>  <SCORE.INTER.CONST>
1

>  <SCORE.INTER.POLAR>
-3.12737

>  <SCORE.INTER.ROT>
8

>  <SCORE.INTER.SOLV>
12.0002

>  <SCORE.INTER.VDW>
-16.8316

>  <SCORE.INTER.norm>
-1.95311

>  <SCORE.INTRA>
-4.12852

>  <SCORE.INTRA.DIHEDRAL>
-6.48727

>  <SCORE.INTRA.DIHEDRAL.0>
21.6454

>  <SCORE.INTRA.POLAR>
-0.552474

>  <SCORE.INTRA.POLAR.0>
0

>  <SCORE.INTRA.REPUL>
0.00177393

>  <SCORE.INTRA.REPUL.0>
0

>  <SCORE.INTRA.SOLV>
2.40705

>  <SCORE.INTRA.SOLV.lig_0>
-16.5947

>  <SCORE.INTRA.VDW>
-0.218864

>  <SCORE.INTRA.VDW.0>
-0.691398

>  <SCORE.INTRA.norm>
-0.37532

>  <SCORE.RESTR>
1.64332

>  <SCORE.RESTR.CAVITY>
1.64332

>  <SCORE.RESTR.norm>
0.149392

>  <SCORE.SYSTEM>
0

>  <SCORE.SYSTEM.CONST>
0

>  <SCORE.SYSTEM.DIHEDRAL>
0

>  <SCORE.SYSTEM.SOLV>
0

>  <SCORE.SYSTEM.norm>
0

>  <SCORE.heavy>
11

>  <SCORE.norm>
-2.17904

>  <RMSD>
14.662

$$$$
1akx_lig
 OpenBabel11021811383D
libRbt.so/2013.1/901 2013/11/27
 11 10  0  0  0  0  0  0  0  0999 V2000
    2.4407  -16.2529    0.0552 N   0  0  0  0  0  0  0  0  0  0  0  0
    3.6371  -15.5849   -0.5369 C   0  0  2  0  0  0  0  0  0  0  0  0
    3.3849  -14.0750   -0.6336 C   0  0  0  0  0  0  0  0  0  0  0  0
    3.2957  -13.3990    0.3720 O   0  0  0  0  0  0  0  0  0  0  0  0
    3.9054  -16.1548   -1.9364 C   0  0  0  0  0  0  0  0  0  0  0  0
    5.3753  -15.9378   -2.3099 C   0  0  0  0  0  0  0  0  0  0  0  0
    6.2278  -17.0477   -1.6949 C   0  0  0  0  0  0  0  0  0  0  0  0
    6.8505  -16.5526   -0.4342 N   0  0  0  0  0  0  0  0  0  0  0  0
    6.4391  -17.0002    0.7246 C   0  0  0  0  0  0  0  0  0  0  0  0
    7.2865  -17.1582    1.7087 N   0  0  0  0  0  0  0  0  0  0  0  0
    5.1764  -17.2842    0.9005 N   0  0  0  0  0  0  0  0  0  0  0  0
  2  1  1  6  0  0  0
  2  3  1  0  0  0  0
  2  5  1  0  0  0  0
  3  4  1  0  0  0  0
  5  6  1  0  0  0  0
  6  7  1  0  0  0  0
  7  8  1  0  0  0  0
  8  9  1  0  0  0  0
  9 10  1  0  0  0  0
  9 11  1  0  0  0  0
M  END
>  <CHROM.1>
-29.89729828,67.74611548,-156.92255649,82.71430892,-98.45355465,108.76112108
145.20492897,-17.66843099,78.17483645,4.88551703,-16.04240527,-0.28555158
2.94661912,0.57730974,-1.59497512

>  <Name>
1akx_lig

>  <RI>
0

>  <Rbt.Current_Directory>
/home/itssahil/PROJECTS/Mol_Feturizer/New_Systems/rnas/1akx

>  <Rbt.Executable>
rbdock ($Id: //depot/dev/client3/rdock/2013.1/src/exe/rbdock.cxx#4 $)

>  <Rbt.Library>
libRbt.so (2013.1, Build901 2013/11/27)

>  <Rbt.Parameter_File>
/export/apps/rDock/src/rDock_2013.1_src/data/scripts/dock_solv.prm

>  <Rbt.Receptor>
prm/blind_docking_60.prm

>  <SCORE>
-27.1823

>  <SCORE.INTER>
-25.0828

>  <SCORE.INTER.CONST>
1

>  <SCORE.INTER.POLAR>
-3.41951

>  <SCORE.INTER.ROT>
8

>  <SCORE.INTER.SOLV>
15.1068

>  <SCORE.INTER.VDW>
-19.2924

>  <SCORE.INTER.norm>
-2.28025

>  <SCORE.INTRA>
-2.09959

>  <SCORE.INTRA.DIHEDRAL>
-7.07038

>  <SCORE.INTRA.DIHEDRAL.0>
21.6454

>  <SCORE.INTRA.POLAR>
-0.0686746

>  <SCORE.INTRA.POLAR.0>
0

>  <SCORE.INTRA.REPUL>
0

>  <SCORE.INTRA.REPUL.0>
0

>  <SCORE.INTRA.SOLV>
1.94824

>  <SCORE.INTRA.SOLV.lig_0>
-16.5947

>  <SCORE.INTRA.VDW>
0.694972

>  <SCORE.INTRA.VDW.0>
-0.691398

>  <SCORE.INTRA.norm>
-0.190872

>  <SCORE.RESTR>
0

>  <SCORE.RESTR.CAVITY>
0

>  <SCORE.RESTR.norm>
0

>  <SCORE.SYSTEM>
0

>  <SCORE.SYSTEM.CONST>
0

>  <SCORE.SYSTEM.DIHEDRAL>
0

>  <SCORE.SYSTEM.SOLV>
0

>  <SCORE.SYSTEM.norm>
0

>  <SCORE.heavy>
11

>  <SCORE.norm>
-2.47112

>  <RMSD>
14.673

$$$$
1akx_lig
 OpenBabel11021811383D
libRbt.so/2013.1/901 2013/11/27
 11 10  0  0  0  0  0  0  0  0999 V2000
    2.6173  -16.5799   -0.9002 N   0  0  0  0  0  0  0  0  0  0  0  0
    3.8186  -15.7031   -0.7730 C   0  0  2  0  0  0  0  0  0  0  0  0
    3.3766  -14.2775   -0.4194 C   0  0  0  0  0  0  0  0  0  0  0  0
    2.8547  -14.0415    0.6521 O   0  0  0  0  0  0  0  0  0  0  0  0
    4.5903  -15.6910   -2.0996 C   0  0  0  0  0  0  0  0  0  0  0  0
    4.9737  -17.1227   -2.4876 C   0  0  0  0  0  0  0  0  0  0  0  0
    5.6190  -17.8210   -1.2907 C   0  0  0  0  0  0  0  0  0  0  0  0
    6.6565  -16.9295   -0.6979 N   0  0  0  0  0  0  0  0  0  0  0  0
    6.8690  -16.9326    0.5933 C   0  0  0  0  0  0  0  0  0  0  0  0
    7.7512  -16.1217    1.1181 N   0  0  0  0  0  0  0  0  0  0  0  0
    6.1926  -17.7443    1.3613 N   0  0  0  0  0  0  0  0  0  0  0  0
  2  1  1  6  0  0  0
  2  3  1  0  0  0  0
  2  5  1  0  0  0  0
  3  4  1  0  0  0  0
  5  6  1  0  0  0  0
  6  7  1  0  0  0  0
  7  8  1  0  0  0  0
  8  9  1  0  0  0  0
  9 10  1  0  0  0  0
  9 11  1  0  0  0  0
M  END
>  <CHROM.1>
-29.38606993,66.34336053,-57.04366255,-49.10391425,-47.87734475,145.93588889
-177.95182259,64.36062360,-98.28906634,5.01074768,-16.26807626,-0.40683961
3.09574340,-0.52035050,0.96797530

>  <Name>
1akx_lig

>  <RI>
0

>  <Rbt.Current_Directory>
/home/itssahil/PROJECTS/Mol_Feturizer/New_Systems/rnas/1akx

>  <Rbt.Executable>
rbdock ($Id: //depot/dev/client3/rdock/2013.1/src/exe/rbdock.cxx#4 $)

>  <Rbt.Library>
libRbt.so (2013.1, Build901 2013/11/27)

>  <Rbt.Parameter_File>
/export/apps/rDock/src/rDock_2013.1_src/data/scripts/dock_solv.prm

>  <Rbt.Receptor>
prm/blind_docking_60.prm

>  <SCORE>
-27.2909

>  <SCORE.INTER>
-23.9695

>  <SCORE.INTER.CONST>
1

>  <SCORE.INTER.POLAR>
-2.71789

>  <SCORE.INTER.ROT>
8

>  <SCORE.INTER.SOLV>
14.482

>  <SCORE.INTER.VDW>
-20.6807

>  <SCORE.INTER.norm>
-2.17904

>  <SCORE.INTRA>
-3.60064

>  <SCORE.INTRA.DIHEDRAL>
-13.7862

>  <SCORE.INTRA.DIHEDRAL.0>
21.6454

>  <SCORE.INTRA.POLAR>
0

>  <SCORE.INTRA.POLAR.0>
0

>  <SCORE.INTRA.REPUL>
0

>  <SCORE.INTRA.REPUL.0>
0

>  <SCORE.INTRA.SOLV>
1.19177

>  <SCORE.INTRA.SOLV.lig_0>
-16.5947

>  <SCORE.INTRA.VDW>
2.69659

>  <SCORE.INTRA.VDW.0>
-0.691398

>  <SCORE.INTRA.norm>
-0.327331

>  <SCORE.RESTR>
0.279183

>  <SCORE.RESTR.CAVITY>
0.279183

>  <SCORE.RESTR.norm>
0.0253803

>  <SCORE.SYSTEM>
0

>  <SCORE.SYSTEM.CONST>
0

>  <SCORE.SYSTEM.DIHEDRAL>
0

>  <SCORE.SYSTEM.SOLV>
0

>  <SCORE.SYSTEM.norm>
0

>  <SCORE.heavy>
11

>  <SCORE.norm>
-2.48099

>  <RMSD>
14.943

$$$$
1akx_lig
 OpenBabel11021811383D
libRbt.so/2013.1/901 2013/11/27
 11 10  0  0  0  0  0  0  0  0999 V2000
    2.4753  -16.3971   -0.4992 N   0  0  0  0  0  0  0  0  0  0  0  0
    3.7956  -15.7225   -0.3265 C   0  0  2  0  0  0  0  0  0  0  0  0
    3.5760  -14.2273   -0.0639 C   0  0  0  0  0  0  0  0  0  0  0  0
    3.1017  -13.5131   -0.9248 O   0  0  0  0  0  0  0  0  0  0  0  0
    4.6379  -15.9061   -1.5962 C   0  0  0  0  0  0  0  0  0  0  0  0
    6.1169  -16.0417   -1.2203 C   0  0  0  0  0  0  0  0  0  0  0  0
    6.3797  -17.4470   -0.6791 C   0  0  0  0  0  0  0  0  0  0  0  0
    5.9061  -17.5305    0.7320 N   0  0  0  0  0  0  0  0  0  0  0  0
    6.7579  -17.4311    1.7204 C   0  0  0  0  0  0  0  0  0  0  0  0
    7.7413  -16.5706    1.6590 N   0  0  0  0  0  0  0  0  0  0  0  0
    6.6213  -18.1898    2.7748 N   0  0  0  0  0  0  0  0  0  0  0  0
  2  1  1  6  0  0  0
  2  3  1  0  0  0  0
  2  5  1  0  0  0  0
  3  4  1  0  0  0  0
  5  6  1  0  0  0  0
  6  7  1  0  0  0  0
  7  8  1  0  0  0  0
  8  9  1  0  0  0  0
  9 10  1  0  0  0  0
  9 11  1  0  0  0  0
M  END
>  <CHROM.1>
-159.84886054,-65.94904552,-145.29810002,76.88389908,-78.29186950,-100.04893815
39.70803282,178.67325929,-94.91574682,5.16066171,-16.27384181,0.17125886
2.39543970,0.29116247,-1.04757077

>  <Name>
1akx_lig

>  <RI>
0

>  <Rbt.Current_Directory>
/home/itssahil/PROJECTS/Mol_Feturizer/New_Systems/rnas/1akx

>  <Rbt.Executable>
rbdock ($Id: //depot/dev/client3/rdock/2013.1/src/exe/rbdock.cxx#4 $)

>  <Rbt.Library>
libRbt.so (2013.1, Build901 2013/11/27)

>  <Rbt.Parameter_File>
/export/apps/rDock/src/rDock_2013.1_src/data/scripts/dock_solv.prm

>  <Rbt.Receptor>
prm/blind_docking_60.prm

>  <SCORE>
-34.7229

>  <SCORE.INTER>
-31.4263

>  <SCORE.INTER.CONST>
1

>  <SCORE.INTER.POLAR>
-3.75878

>  <SCORE.INTER.ROT>
8

>  <SCORE.INTER.SOLV>
15.8897

>  <SCORE.INTER.VDW>
-22.6515

>  <SCORE.INTER.norm>
-2.85693

>  <SCORE.INTRA>
-3.70786

>  <SCORE.INTRA.DIHEDRAL>
-9.85778

>  <SCORE.INTRA.DIHEDRAL.0>
21.6454

>  <SCORE.INTRA.POLAR>
0

>  <SCORE.INTRA.POLAR.0>
0

>  <SCORE.INTRA.REPUL>
0

>  <SCORE.INTRA.REPUL.0>
0

>  <SCORE.INTRA.SOLV>
1.26223

>  <SCORE.INTRA.SOLV.lig_0>
-16.5947

>  <SCORE.INTRA.VDW>
0.58992

>  <SCORE.INTRA.VDW.0>
-0.691398

>  <SCORE.INTRA.norm>
-0.337078

>  <SCORE.RESTR>
0.411231

>  <SCORE.RESTR.CAVITY>
0.411231

>  <SCORE.RESTR.norm>
0.0373846

>  <SCORE.SYSTEM>
0

>  <SCORE.SYSTEM.CONST>
0

>  <SCORE.SYSTEM.DIHEDRAL>
0

>  <SCORE.SYSTEM.SOLV>
0

>  <SCORE.SYSTEM.norm>
0

>  <SCORE.heavy>
11

>  <SCORE.norm>
-3.15663

>  <RMSD>
15.121

$$$$
1akx_lig
 OpenBabel11021811383D
libRbt.so/2013.1/901 2013/11/27
 11 10  0  0  0  0  0  0  0  0999 V2000
    6.7324  -19.1273    4.2023 N   0  0  0  0  0  0  0  0  0  0  0  0
    7.4150  -18.4042    3.0890 C   0  0  2  0  0  0  0  0  0  0  0  0
    8.5752  -17.5743    3.6531 C   0  0  0  0  0  0  0  0  0  0  0  0
    9.3498  -18.0609    4.4527 O   0  0  0  0  0  0  0  0  0  0  0  0
    6.4129  -17.4798    2.3843 C   0  0  0  0  0  0  0  0  0  0  0  0
    6.4111  -17.7704    0.8800 C   0  0  0  0  0  0  0  0  0  0  0  0
    5.9997  -16.5113    0.1170 C   0  0  0  0  0  0  0  0  0  0  0  0
    4.5187  -16.4972   -0.0526 N   0  0  0  0  0  0  0  0  0  0  0  0
    3.9151  -15.4211   -0.4886 C   0  0  0  0  0  0  0  0  0  0  0  0
    3.7226  -14.4036    0.3109 N   0  0  0  0  0  0  0  0  0  0  0  0
    3.5090  -15.3609   -1.7286 N   0  0  0  0  0  0  0  0  0  0  0  0
  2  1  1  1  0  0  0
  2  3  1  0  0  0  0
  2  5  1  0  0  0  0
  3  4  1  0  0  0  0
  5  6  1  0  0  0  0
  6  7  1  0  0  0  0
  7  8  1  0  0  0  0
  8  9  1  0  0  0  0
  9 10  1  0  0  0  0
  9 11  1  0  0  0  0
M  END
>  <CHROM.1>
84.84248389,46.15077020,-126.43005610,-152.68521810,-90.00972285,169.25698425
-76.83327963,98.84608834,59.81990387,6.03024087,-16.96755540,1.55630923,0.71858290
0.62839247,2.73019709

>  <Name>
1akx_lig

>  <RI>
0

>  <Rbt.Current_Directory>
/home/itssahil/PROJECTS/Mol_Feturizer/New_Systems/rnas/1akx

>  <Rbt.Executable>
rbdock ($Id: //depot/dev/client3/rdock/2013.1/src/exe/rbdock.cxx#4 $)

>  <Rbt.Library>
libRbt.so (2013.1, Build901 2013/11/27)

>  <Rbt.Parameter_File>
/export/apps/rDock/src/rDock_2013.1_src/data/scripts/dock_solv.prm

>  <Rbt.Receptor>
prm/blind_docking_60.prm

>  <SCORE>
-23.729

>  <SCORE.INTER>
-22.1386

>  <SCORE.INTER.CONST>
1

>  <SCORE.INTER.POLAR>
-4.42395

>  <SCORE.INTER.ROT>
8

>  <SCORE.INTER.SOLV>
14.1728

>  <SCORE.INTER.VDW>
-13.6701

>  <SCORE.INTER.norm>
-2.0126

>  <SCORE.INTRA>
-1.75798

>  <SCORE.INTRA.DIHEDRAL>
-3.75684

>  <SCORE.INTRA.DIHEDRAL.0>
21.6454

>  <SCORE.INTRA.POLAR>
0

>  <SCORE.INTRA.POLAR.0>
0

>  <SCORE.INTRA.REPUL>
0

>  <SCORE.INTRA.REPUL.0>
0

>  <SCORE.INTRA.SOLV>
0.210738

>  <SCORE.INTRA.SOLV.lig_0>
-16.5947

>  <SCORE.INTRA.VDW>
0.015066

>  <SCORE.INTRA.VDW.0>
-0.691398

>  <SCORE.INTRA.norm>
-0.159817

>  <SCORE.RESTR>
0.167564

>  <SCORE.RESTR.CAVITY>
0.167564

>  <SCORE.RESTR.norm>
0.0152331

>  <SCORE.SYSTEM>
0

>  <SCORE.SYSTEM.CONST>
0

>  <SCORE.SYSTEM.DIHEDRAL>
0

>  <SCORE.SYSTEM.SOLV>
0

>  <SCORE.SYSTEM.norm>
0

>  <SCORE.heavy>
11

>  <SCORE.norm>
-2.15718

>  <RMSD>
15.358

$$$$
1akx_lig
 OpenBabel11021811383D
libRbt.so/2013.1/901 2013/11/27
 11 10  0  0  0  0  0  0  0  0999 V2000
    6.7312  -19.0599    4.3295 N   0  0  0  0  0  0  0  0  0  0  0  0
    7.4054  -18.4457    3.1478 C   0  0  2  0  0  0  0  0  0  0  0  0
    8.6050  -17.6136    3.6180 C   0  0  0  0  0  0  0  0  0  0  0  0
    9.3457  -18.0343    4.4844 O   0  0  0  0  0  0  0  0  0  0  0  0
    6.4133  -17.5453    2.3991 C   0  0  0  0  0  0  0  0  0  0  0  0
    6.7262  -17.5666    0.8994 C   0  0  0  0  0  0  0  0  0  0  0  0
    5.4489  -17.2876    0.1071 C   0  0  0  0  0  0  0  0  0  0  0  0
    5.3239  -15.8211   -0.1298 N   0  0  0  0  0  0  0  0  0  0  0  0
    4.1791  -15.3085   -0.5026 C   0  0  0  0  0  0  0  0  0  0  0  0
    3.6551  -15.6351   -1.6559 N   0  0  0  0  0  0  0  0  0  0  0  0
    3.5546  -14.4726    0.2831 N   0  0  0  0  0  0  0  0  0  0  0  0
  2  1  1  1  0  0  0
  2  3  1  0  0  0  0
  2  5  1  0  0  0  0
  3  4  1  0  0  0  0
  5  6  1  0  0  0  0
  6  7  1  0  0  0  0
  7  8  1  0  0  0  0
  8  9  1  0  0  0  0
  9 10  1  0  0  0  0
  9 11  1  0  0  0  0
M  END
>  <CHROM.1>
85.16014359,42.27070036,-147.53479014,152.53468465,90.88971069,-163.90552816
-64.10833755,-2.46180955,85.39644830,6.11022663,-16.97568963,1.57281312,0.75735000
-0.60997443,1.58729980

>  <Name>
1akx_lig

>  <RI>
0

>  <Rbt.Current_Directory>
/home/itssahil/PROJECTS/Mol_Feturizer/New_Systems/rnas/1akx

>  <Rbt.Executable>
rbdock ($Id: //depot/dev/client3/rdock/2013.1/src/exe/rbdock.cxx#4 $)

>  <Rbt.Library>
libRbt.so (2013.1, Build901 2013/11/27)

>  <Rbt.Parameter_File>
/export/apps/rDock/src/rDock_2013.1_src/data/scripts/dock_solv.prm

>  <Rbt.Receptor>
prm/blind_docking_60.prm

>  <SCORE>
-12.503

>  <SCORE.INTER>
-10.3649

>  <SCORE.INTER.CONST>
1

>  <SCORE.INTER.POLAR>
-2.05532

>  <SCORE.INTER.ROT>
8

>  <SCORE.INTER.SOLV>
13.9483

>  <SCORE.INTER.VDW>
-13.6417

>  <SCORE.INTER.norm>
-0.942268

>  <SCORE.INTRA>
-2.40896

>  <SCORE.INTRA.DIHEDRAL>
-5.58342

>  <SCORE.INTRA.DIHEDRAL.0>
21.6454

>  <SCORE.INTRA.POLAR>
0

>  <SCORE.INTRA.POLAR.0>
0

>  <SCORE.INTRA.REPUL>
0

>  <SCORE.INTRA.REPUL.0>
0

>  <SCORE.INTRA.SOLV>
0.22898

>  <SCORE.INTRA.SOLV.lig_0>
-16.5947

>  <SCORE.INTRA.VDW>
0.268261

>  <SCORE.INTRA.VDW.0>
-0.691398

>  <SCORE.INTRA.norm>
-0.218996

>  <SCORE.RESTR>
0.270927

>  <SCORE.RESTR.CAVITY>
0.270927

>  <SCORE.RESTR.norm>
0.0246298

>  <SCORE.SYSTEM>
0

>  <SCORE.SYSTEM.CONST>
0

>  <SCORE.SYSTEM.DIHEDRAL>
0

>  <SCORE.SYSTEM.SOLV>
0

>  <SCORE.SYSTEM.norm>
0

>  <SCORE.heavy>
11

>  <SCORE.norm>
-1.13663

>  <RMSD>
15.417

$$$$
1akx_lig
 OpenBabel11021811383D
libRbt.so/2013.1/901 2013/11/27
 11 10  0  0  0  0  0  0  0  0999 V2000
    3.1502  -15.1220   -2.7774 N   0  0  0  0  0  0  0  0  0  0  0  0
    3.6599  -16.2244   -1.9096 C   0  0  2  0  0  0  0  0  0  0  0  0
    3.4015  -15.8785   -0.4378 C   0  0  0  0  0  0  0  0  0  0  0  0
    3.6889  -14.7811   -0.0026 O   0  0  0  0  0  0  0  0  0  0  0  0
    5.1660  -16.4076   -2.1409 C   0  0  0  0  0  0  0  0  0  0  0  0
    5.7098  -17.4741   -1.1848 C   0  0  0  0  0  0  0  0  0  0  0  0
    6.3053  -16.7975    0.0499 C   0  0  0  0  0  0  0  0  0  0  0  0
    5.9437  -17.5802    1.2659 N   0  0  0  0  0  0  0  0  0  0  0  0
    6.8455  -17.8330    2.1799 C   0  0  0  0  0  0  0  0  0  0  0  0
    6.8394  -18.9777    2.8131 N   0  0  0  0  0  0  0  0  0  0  0  0
    7.7588  -16.9409    2.4559 N   0  0  0  0  0  0  0  0  0  0  0  0
  2  1  1  6  0  0  0
  2  3  1  0  0  0  0
  2  5  1  0  0  0  0
  3  4  1  0  0  0  0
  5  6  1  0  0  0  0
  6  7  1  0  0  0  0
  7  8  1  0  0  0  0
  8  9  1  0  0  0  0
  9 10  1  0  0  0  0
  9 11  1  0  0  0  0
M  END
>  <CHROM.1>
174.07426812,-47.62072452,176.24715445,-96.14403570,139.64463167,135.36285737
-143.72952307,-103.13636007,-20.05949286,5.30526142,-16.70552598,0.04762736
-2.47897553,-0.75028064,1.37080884

>  <Name>
1akx_lig

>  <RI>
0

>  <Rbt.Current_Directory>
/home/itssahil/PROJECTS/Mol_Feturizer/New_Systems/rnas/1akx

>  <Rbt.Executable>
rbdock ($Id: //depot/dev/client3/rdock/2013.1/src/exe/rbdock.cxx#4 $)

>  <Rbt.Library>
libRbt.so (2013.1, Build901 2013/11/27)

>  <Rbt.Parameter_File>
/export/apps/rDock/src/rDock_2013.1_src/data/scripts/dock_solv.prm

>  <Rbt.Receptor>
prm/blind_docking_60.prm

>  <SCORE>
-26.3733

>  <SCORE.INTER>
-25.9733

>  <SCORE.INTER.CONST>
1

>  <SCORE.INTER.POLAR>
-3.05088

>  <SCORE.INTER.ROT>
8

>  <SCORE.INTER.SOLV>
15.4154

>  <SCORE.INTER.VDW>
-21.2177

>  <SCORE.INTER.norm>
-2.36121

>  <SCORE.INTRA>
-0.969051

>  <SCORE.INTRA.DIHEDRAL>
-7.95749

>  <SCORE.INTRA.DIHEDRAL.0>
21.6454

>  <SCORE.INTRA.POLAR>
0

>  <SCORE.INTRA.POLAR.0>
0

>  <SCORE.INTRA.REPUL>
0

>  <SCORE.INTRA.REPUL.0>
0

>  <SCORE.INTRA.SOLV>
0.991118

>  <SCORE.INTRA.SOLV.lig_0>
-16.5947

>  <SCORE.INTRA.VDW>
2.51414

>  <SCORE.INTRA.VDW.0>
-0.691398

>  <SCORE.INTRA.norm>
-0.0880955

>  <SCORE.RESTR>
0.569099

>  <SCORE.RESTR.CAVITY>
0.569099

>  <SCORE.RESTR.norm>
0.0517363

>  <SCORE.SYSTEM>
0

>  <SCORE.SYSTEM.CONST>
0

>  <SCORE.SYSTEM.DIHEDRAL>
0

>  <SCORE.SYSTEM.SOLV>
0

>  <SCORE.SYSTEM.norm>
0

>  <SCORE.heavy>
11

>  <SCORE.norm>
-2.39757

>  <RMSD>
15.644

$$$$
1akx_lig
 OpenBabel11021811383D
libRbt.so/2013.1/901 2013/11/27
 11 10  0  0  0  0  0  0  0  0999 V2000
    8.9049  -17.6928    3.7241 N   0  0  0  0  0  0  0  0  0  0  0  0
    7.6466  -18.4489    3.9947 C   0  0  2  0  0  0  0  0  0  0  0  0
    7.9888  -19.7986    4.6381 C   0  0  0  0  0  0  0  0  0  0  0  0
    7.1200  -20.6239    4.8388 O   0  0  0  0  0  0  0  0  0  0  0  0
    6.8915  -18.6802    2.6787 C   0  0  0  0  0  0  0  0  0  0  0  0
    6.6189  -17.3359    1.9960 C   0  0  0  0  0  0  0  0  0  0  0  0
    5.8850  -17.5729    0.6762 C   0  0  0  0  0  0  0  0  0  0  0  0
    5.6501  -16.2658   -0.0011 N   0  0  0  0  0  0  0  0  0  0  0  0
    4.5071  -16.0245   -0.5907 C   0  0  0  0  0  0  0  0  0  0  0  0
    3.3886  -16.1009    0.0835 N   0  0  0  0  0  0  0  0  0  0  0  0
    4.4841  -15.7001   -1.8557 N   0  0  0  0  0  0  0  0  0  0  0  0
  2  1  1  6  0  0  0
  2  3  1  0  0  0  0
  2  5  1  0  0  0  0
  3  4  1  0  0  0  0
  5  6  1  0  0  0  0
  6  7  1  0  0  0  0
  7  8  1  0  0  0  0
  8  9  1  0  0  0  0
  9 10  1  0  0  0  0
  9 11  1  0  0  0  0
M  END
>  <CHROM.1>
-52.55534715,-173.73534802,-56.57817932,179.17230024,-178.65598043,-138.74466168
57.16428880,-68.31562970,81.38990550,6.28472457,-17.64010211,1.82578592,-1.01695772
-0.36922141,-0.77043888

>  <Name>
1akx_lig

>  <RI>
0

>  <Rbt.Current_Directory>
/home/itssahil/PROJECTS/Mol_Feturizer/New_Systems/rnas/1akx

>  <Rbt.Executable>
rbdock ($Id: //depot/dev/client3/rdock/2013.1/src/exe/rbdock.cxx#4 $)

>  <Rbt.Library>
libRbt.so (2013.1, Build901 2013/11/27)

>  <Rbt.Parameter_File>
/export/apps/rDock/src/rDock_2013.1_src/data/scripts/dock_solv.prm

>  <Rbt.Receptor>
prm/blind_docking_60.prm

>  <SCORE>
-30.3622

>  <SCORE.INTER>
-23.0959

>  <SCORE.INTER.CONST>
1

>  <SCORE.INTER.POLAR>
-2.6605

>  <SCORE.INTER.ROT>
8

>  <SCORE.INTER.SOLV>
12.4925

>  <SCORE.INTER.VDW>
-19.6264

>  <SCORE.INTER.norm>
-2.09963

>  <SCORE.INTRA>
-7.78507

>  <SCORE.INTRA.DIHEDRAL>
-16.5172

>  <SCORE.INTRA.DIHEDRAL.0>
21.6454

>  <SCORE.INTRA.POLAR>
0

>  <SCORE.INTRA.POLAR.0>
0

>  <SCORE.INTRA.REPUL>
0

>  <SCORE.INTRA.REPUL.0>
0

>  <SCORE.INTRA.SOLV>
-0.0105011

>  <SCORE.INTRA.SOLV.lig_0>
-16.5947

>  <SCORE.INTRA.VDW>
0.478765

>  <SCORE.INTRA.VDW.0>
-0.691398

>  <SCORE.INTRA.norm>
-0.707734

>  <SCORE.RESTR>
0.518763

>  <SCORE.RESTR.CAVITY>
0.518763

>  <SCORE.RESTR.norm>
0.0471602

>  <SCORE.SYSTEM>
0

>  <SCORE.SYSTEM.CONST>
0

>  <SCORE.SYSTEM.DIHEDRAL>
0

>  <SCORE.SYSTEM.SOLV>
0

>  <SCORE.SYSTEM.norm>
0

>  <SCORE.heavy>
11

>  <SCORE.norm>
-2.7602

>  <RMSD>
16.088

$$$$
1akx_lig
 OpenBabel11021811383D
libRbt.so/2013.1/901 2013/11/27
 11 10  0  0  0  0  0  0  0  0999 V2000
    8.8550  -17.8134    3.8013 N   0  0  0  0  0  0  0  0  0  0  0  0
    7.5194  -18.4560    3.9782 C   0  0  2  0  0  0  0  0  0  0  0  0
    7.6979  -19.8422    4.6103 C   0  0  0  0  0  0  0  0  0  0  0  0
    8.4195  -20.6692    4.0893 O   0  0  0  0  0  0  0  0  0  0  0  0
    6.8297  -18.5948    2.6142 C   0  0  0  0  0  0  0  0  0  0  0  0
    6.7723  -17.2288    1.9226 C   0  0  0  0  0  0  0  0  0  0  0  0
    6.2048  -17.3935    0.5128 C   0  0  0  0  0  0  0  0  0  0  0  0
    5.8766  -16.0520   -0.0484 N   0  0  0  0  0  0  0  0  0  0  0  0
    4.9969  -15.9368   -1.0103 C   0  0  0  0  0  0  0  0  0  0  0  0
    3.7175  -15.9427   -0.7375 N   0  0  0  0  0  0  0  0  0  0  0  0
    5.3986  -15.8091   -2.2465 N   0  0  0  0  0  0  0  0  0  0  0  0
  2  1  1  6  0  0  0
  2  3  1  0  0  0  0
  2  5  1  0  0  0  0
  3  4  1  0  0  0  0
  5  6  1  0  0  0  0
  6  7  1  0  0  0  0
  7  8  1  0  0  0  0
  8  9  1  0  0  0  0
  9 10  1  0  0  0  0
  9 11  1  0  0  0  0
M  END
>  <CHROM.1>
-50.80589449,-55.62406049,-54.33110928,174.72657110,167.96872878,-157.12832801
80.65434915,-47.04327795,4.80443044,6.59093109,-17.59810336,1.57332860,-1.02447761
-0.50638522,-0.70559474

>  <Name>
1akx_lig

>  <RI>
0

>  <Rbt.Current_Directory>
/home/itssahil/PROJECTS/Mol_Feturizer/New_Systems/rnas/1akx

>  <Rbt.Executable>
rbdock ($Id: //depot/dev/client3/rdock/2013.1/src/exe/rbdock.cxx#4 $)

>  <Rbt.Library>
libRbt.so (2013.1, Build901 2013/11/27)

>  <Rbt.Parameter_File>
/export/apps/rDock/src/rDock_2013.1_src/data/scripts/dock_solv.prm

>  <Rbt.Receptor>
prm/blind_docking_60.prm

>  <SCORE>
-30.3331

>  <SCORE.INTER>
-22.9933

>  <SCORE.INTER.CONST>
1

>  <SCORE.INTER.POLAR>
-2.51665

>  <SCORE.INTER.ROT>
8

>  <SCORE.INTER.SOLV>
12.7442

>  <SCORE.INTER.VDW>
-20.1214

>  <SCORE.INTER.norm>
-2.0903

>  <SCORE.INTRA>
-7.40903

>  <SCORE.INTRA.DIHEDRAL>
-15.7991

>  <SCORE.INTRA.DIHEDRAL.0>
21.6454

>  <SCORE.INTRA.POLAR>
0

>  <SCORE.INTRA.POLAR.0>
0

>  <SCORE.INTRA.REPUL>
0

>  <SCORE.INTRA.REPUL.0>
0

>  <SCORE.INTRA.SOLV>
0.308289

>  <SCORE.INTRA.SOLV.lig_0>
-16.5947

>  <SCORE.INTRA.VDW>
0.336349

>  <SCORE.INTRA.VDW.0>
-0.691398

>  <SCORE.INTRA.norm>
-0.673549

>  <SCORE.RESTR>
0.0692056

>  <SCORE.RESTR.CAVITY>
0.0692056

>  <SCORE.RESTR.norm>
0.00629142

>  <SCORE.SYSTEM>
0

>  <SCORE.SYSTEM.CONST>
0

>  <SCORE.SYSTEM.DIHEDRAL>
0

>  <SCORE.SYSTEM.SOLV>
0

>  <SCORE.SYSTEM.norm>
0

>  <SCORE.heavy>
11

>  <SCORE.norm>
-2.75755

>  <RMSD>
16.156

$$$$
1akx_lig
 OpenBabel11021811383D
libRbt.so/2013.1/901 2013/11/27
 11 10  0  0  0  0  0  0  0  0999 V2000
    6.8377  -18.7781    5.1123 N   0  0  0  0  0  0  0  0  0  0  0  0
    7.7958  -18.8560    3.9703 C   0  0  2  0  0  0  0  0  0  0  0  0
    9.2329  -18.8492    4.5065 C   0  0  0  0  0  0  0  0  0  0  0  0
    9.5451  -19.5577    5.4428 O   0  0  0  0  0  0  0  0  0  0  0  0
    7.5860  -17.6544    3.0389 C   0  0  0  0  0  0  0  0  0  0  0  0
    6.4575  -17.9591    2.0483 C   0  0  0  0  0  0  0  0  0  0  0  0
    6.4844  -16.9361    0.9128 C   0  0  0  0  0  0  0  0  0  0  0  0
    5.2189  -17.0313    0.1307 N   0  0  0  0  0  0  0  0  0  0  0  0
    4.9516  -16.1520   -0.8008 C   0  0  0  0  0  0  0  0  0  0  0  0
    5.6076  -16.1705   -1.9324 N   0  0  0  0  0  0  0  0  0  0  0  0
    4.0216  -15.2567   -0.6017 N   0  0  0  0  0  0  0  0  0  0  0  0
  2  1  1  1  0  0  0
  2  3  1  0  0  0  0
  2  5  1  0  0  0  0
  3  4  1  0  0  0  0
  5  6  1  0  0  0  0
  6  7  1  0  0  0  0
  7  8  1  0  0  0  0
  8  9  1  0  0  0  0
  9 10  1  0  0  0  0
  9 11  1  0  0  0  0
M  END
>  <CHROM.1>
-69.97584340,46.05691310,-84.75756924,-165.67122687,-166.98052147,172.40156882
72.45331111,-167.01175235,-26.07947120,6.67980017,-17.56239126,1.99968552
1.04413161,-0.29261560,1.88451425

>  <Name>
1akx_lig

>  <RI>
0

>  <Rbt.Current_Directory>
/home/itssahil/PROJECTS/Mol_Feturizer/New_Systems/rnas/1akx

>  <Rbt.Executable>
rbdock ($Id: //depot/dev/client3/rdock/2013.1/src/exe/rbdock.cxx#4 $)

>  <Rbt.Library>
libRbt.so (2013.1, Build901 2013/11/27)

>  <Rbt.Parameter_File>
/export/apps/rDock/src/rDock_2013.1_src/data/scripts/dock_solv.prm

>  <Rbt.Receptor>
prm/blind_docking_60.prm

>  <SCORE>
-29.4332

>  <SCORE.INTER>
-23.7393

>  <SCORE.INTER.CONST>
1

>  <SCORE.INTER.POLAR>
-3.14574

>  <SCORE.INTER.ROT>
8

>  <SCORE.INTER.SOLV>
11.3635

>  <SCORE.INTER.VDW>
-18.0616

>  <SCORE.INTER.norm>
-2.15812

>  <SCORE.INTRA>
-6.33618

>  <SCORE.INTRA.DIHEDRAL>
-12.35

>  <SCORE.INTRA.DIHEDRAL.0>
21.6454

>  <SCORE.INTRA.POLAR>
0

>  <SCORE.INTRA.POLAR.0>
0

>  <SCORE.INTRA.REPUL>
0

>  <SCORE.INTRA.REPUL.0>
0

>  <SCORE.INTRA.SOLV>
0.155283

>  <SCORE.INTRA.SOLV.lig_0>
-16.5947

>  <SCORE.INTRA.VDW>
-0.238832

>  <SCORE.INTRA.VDW.0>
-0.691398

>  <SCORE.INTRA.norm>
-0.576017

>  <SCORE.RESTR>
0.642355

>  <SCORE.RESTR.CAVITY>
0.642355

>  <SCORE.RESTR.norm>
0.0583959

>  <SCORE.SYSTEM>
0

>  <SCORE.SYSTEM.CONST>
0

>  <SCORE.SYSTEM.DIHEDRAL>
0

>  <SCORE.SYSTEM.SOLV>
0

>  <SCORE.SYSTEM.norm>
0

>  <SCORE.heavy>
11

>  <SCORE.norm>
-2.67574

>  <RMSD>
16.218

$$$$
1akx_lig
 OpenBabel11021811383D
libRbt.so/2013.1/901 2013/11/27
 11 10  0  0  0  0  0  0  0  0999 V2000
    8.7535  -17.7541    3.7044 N   0  0  0  0  0  0  0  0  0  0  0  0
    7.4139  -18.3984    3.8401 C   0  0  2  0  0  0  0  0  0  0  0  0
    7.5741  -19.7827    4.4811 C   0  0  0  0  0  0  0  0  0  0  0  0
    8.3232  -20.6054    3.9929 O   0  0  0  0  0  0  0  0  0  0  0  0
    6.7685  -18.5417    2.4551 C   0  0  0  0  0  0  0  0  0  0  0  0
    6.7019  -17.1721    1.7716 C   0  0  0  0  0  0  0  0  0  0  0  0
    5.4302  -17.0835    0.9278 C   0  0  0  0  0  0  0  0  0  0  0  0
    5.7696  -17.3172   -0.5048 N   0  0  0  0  0  0  0  0  0  0  0  0
    5.3237  -16.5053   -1.4291 C   0  0  0  0  0  0  0  0  0  0  0  0
    4.1820  -15.8871   -1.2685 N   0  0  0  0  0  0  0  0  0  0  0  0
    6.0248  -16.3068   -2.5131 N   0  0  0  0  0  0  0  0  0  0  0  0
  2  1  1  6  0  0  0
  2  3  1  0  0  0  0
  2  5  1  0  0  0  0
  3  4  1  0  0  0  0
  5  6  1  0  0  0  0
  6  7  1  0  0  0  0
  7  8  1  0  0  0  0
  8  9  1  0  0  0  0
  9 10  1  0  0  0  0
  9 11  1  0  0  0  0
M  END
>  <CHROM.1>
61.69656528,-54.90562968,-55.62716181,-145.33927386,-100.87155983,-131.69612001
-30.22573435,-119.46678027,-143.95336375,6.60012073,-17.75228003,1.38250289
-0.37875539,-1.11411016,0.07338867

>  <Name>
1akx_lig

>  <RI>
0

>  <Rbt.Current_Directory>
/home/itssahil/PROJECTS/Mol_Feturizer/New_Systems/rnas/1akx

>  <Rbt.Executable>
rbdock ($Id: //depot/dev/client3/rdock/2013.1/src/exe/rbdock.cxx#4 $)

>  <Rbt.Library>
libRbt.so (2013.1, Build901 2013/11/27)

>  <Rbt.Parameter_File>
/export/apps/rDock/src/rDock_2013.1_src/data/scripts/dock_solv.prm

>  <Rbt.Receptor>
prm/blind_docking_60.prm

>  <SCORE>
-16.3135

>  <SCORE.INTER>
-13.1477

>  <SCORE.INTER.CONST>
1

>  <SCORE.INTER.POLAR>
-1.21723

>  <SCORE.INTER.ROT>
8

>  <SCORE.INTER.SOLV>
11.465

>  <SCORE.INTER.VDW>
-17.4627

>  <SCORE.INTER.norm>
-1.19525

>  <SCORE.INTRA>
-3.17063

>  <SCORE.INTRA.DIHEDRAL>
-8.62537

>  <SCORE.INTRA.DIHEDRAL.0>
21.6454

>  <SCORE.INTRA.POLAR>
0

>  <SCORE.INTRA.POLAR.0>
0

>  <SCORE.INTRA.REPUL>
0

>  <SCORE.INTRA.REPUL.0>
0

>  <SCORE.INTRA.SOLV>
0.435955

>  <SCORE.INTRA.SOLV.lig_0>
-16.5947

>  <SCORE.INTRA.VDW>
0.924081

>  <SCORE.INTRA.VDW.0>
-0.691398

>  <SCORE.INTRA.norm>
-0.288239

>  <SCORE.RESTR>
0.00483627

>  <SCORE.RESTR.CAVITY>
0.00483627

>  <SCORE.RESTR.norm>
0.000439661

>  <SCORE.SYSTEM>
0

>  <SCORE.SYSTEM.CONST>
0

>  <SCORE.SYSTEM.DIHEDRAL>
0

>  <SCORE.SYSTEM.SOLV>
0

>  <SCORE.SYSTEM.norm>
0

>  <SCORE.heavy>
11

>  <SCORE.norm>
-1.48305

>  <RMSD>
16.265

$$$$
1akx_lig
 OpenBabel11021811383D
libRbt.so/2013.1/901 2013/11/27
 11 10  0  0  0  0  0  0  0  0999 V2000
    4.3621  -15.6498   -2.3919 N   0  0  0  0  0  0  0  0  0  0  0  0
    4.1996  -16.3235   -1.0698 C   0  0  2  0  0  0  0  0  0  0  0  0
    3.0451  -15.6695   -0.3004 C   0  0  0  0  0  0  0  0  0  0  0  0
    2.1452  -16.3472    0.1547 O   0  0  0  0  0  0  0  0  0  0  0  0
    5.4982  -16.1934   -0.2623 C   0  0  0  0  0  0  0  0  0  0  0  0
    5.6725  -17.4210    0.6377 C   0  0  0  0  0  0  0  0  0  0  0  0
    6.7520  -17.1392    1.6828 C   0  0  0  0  0  0  0  0  0  0  0  0
    7.0689  -18.3964    2.4184 N   0  0  0  0  0  0  0  0  0  0  0  0
    7.5295  -18.3462    3.6422 C   0  0  0  0  0  0  0  0  0  0  0  0
    6.7314  -18.5610    4.6562 N   0  0  0  0  0  0  0  0  0  0  0  0
    8.7925  -18.0868    3.8511 N   0  0  0  0  0  0  0  0  0  0  0  0
  2  1  1  6  0  0  0
  2  3  1  0  0  0  0
  2  5  1  0  0  0  0
  3  4  1  0  0  0  0
  5  6  1  0  0  0  0
  6  7  1  0  0  0  0
  7  8  1  0  0  0  0
  8  9  1  0  0  0  0
  9 10  1  0  0  0  0
  9 11  1  0  0  0  0
M  END
>  <CHROM.1>
-71.53521798,127.52976518,-148.52683368,-165.79025437,-171.31641743,-153.27020425
100.60559085,-68.99710219,176.33288993,5.61302813,-17.10430096,1.18394753
-2.22332523,-0.11981881,1.93531078

>  <Name>
1akx_lig

>  <RI>
0

>  <Rbt.Current_Directory>
/home/itssahil/PROJECTS/Mol_Feturizer/New_Systems/rnas/1akx

>  <Rbt.Executable>
rbdock ($Id: //depot/dev/client3/rdock/2013.1/src/exe/rbdock.cxx#4 $)

>  <Rbt.Library>
libRbt.so (2013.1, Build901 2013/11/27)

>  <Rbt.Parameter_File>
/export/apps/rDock/src/rDock_2013.1_src/data/scripts/dock_solv.prm

>  <Rbt.Receptor>
prm/blind_docking_60.prm

>  <SCORE>
-33.7145

>  <SCORE.INTER>
-30.3971

>  <SCORE.INTER.CONST>
1

>  <SCORE.INTER.POLAR>
-3.42977

>  <SCORE.INTER.ROT>
8

>  <SCORE.INTER.SOLV>
14.7999

>  <SCORE.INTER.VDW>
-22.6988

>  <SCORE.INTER.norm>
-2.76338

>  <SCORE.INTRA>
-3.8496

>  <SCORE.INTRA.DIHEDRAL>
-7.19264

>  <SCORE.INTRA.DIHEDRAL.0>
21.6454

>  <SCORE.INTRA.POLAR>
0

>  <SCORE.INTRA.POLAR.0>
0

>  <SCORE.INTRA.REPUL>
0

>  <SCORE.INTRA.REPUL.0>
0

>  <SCORE.INTRA.SOLV>
-0.0497328

>  <SCORE.INTRA.SOLV.lig_0>
-16.5947

>  <SCORE.INTRA.VDW>
-0.22841

>  <SCORE.INTRA.VDW.0>
-0.691398

>  <SCORE.INTRA.norm>
-0.349964

>  <SCORE.RESTR>
0.532237

>  <SCORE.RESTR.CAVITY>
0.532237

>  <SCORE.RESTR.norm>
0.0483851

>  <SCORE.SYSTEM>
0

>  <SCORE.SYSTEM.CONST>
0

>  <SCORE.SYSTEM.DIHEDRAL>
0

>  <SCORE.SYSTEM.SOLV>
0

>  <SCORE.SYSTEM.norm>
0

>  <SCORE.heavy>
11

>  <SCORE.norm>
-3.06496

>  <RMSD>
16.280

$$$$
1akx_lig
 OpenBabel11021811383D
libRbt.so/2013.1/901 2013/11/27
 11 10  0  0  0  0  0  0  0  0999 V2000
    4.8065  -15.9689   -2.2589 N   0  0  0  0  0  0  0  0  0  0  0  0
    4.1603  -16.6190   -1.0807 C   0  0  2  0  0  0  0  0  0  0  0  0
    2.7504  -16.0461   -0.8893 C   0  0  0  0  0  0  0  0  0  0  0  0
    2.0986  -16.3284    0.0964 O   0  0  0  0  0  0  0  0  0  0  0  0
    5.0000  -16.3569    0.1769 C   0  0  0  0  0  0  0  0  0  0  0  0
    6.2282  -17.2727    0.1786 C   0  0  0  0  0  0  0  0  0  0  0  0
    7.1471  -16.8929    1.3398 C   0  0  0  0  0  0  0  0  0  0  0  0
    6.6778  -17.5678    2.5834 N   0  0  0  0  0  0  0  0  0  0  0  0
    7.4735  -18.3768    3.2351 C   0  0  0  0  0  0  0  0  0  0  0  0
    8.5277  -17.9089    3.8524 N   0  0  0  0  0  0  0  0  0  0  0  0
    7.2102  -19.6556    3.2742 N   0  0  0  0  0  0  0  0  0  0  0  0
  2  1  1  6  0  0  0
  2  3  1  0  0  0  0
  2  5  1  0  0  0  0
  3  4  1  0  0  0  0
  5  6  1  0  0  0  0
  6  7  1  0  0  0  0
  7  8  1  0  0  0  0
  8  9  1  0  0  0  0
  9 10  1  0  0  0  0
  9 11  1  0  0  0  0
M  END
>  <CHROM.1>
171.17079935,-172.03435686,-77.02486768,173.18803337,84.07410630,121.26608090
68.30510994,-66.04494600,87.22857609,5.64486752,-17.18629138,0.95792887,-2.28263711
-0.03336340,2.01520751

>  <Name>
1akx_lig

>  <RI>
0

>  <Rbt.Current_Directory>
/home/itssahil/PROJECTS/Mol_Feturizer/New_Systems/rnas/1akx

>  <Rbt.Executable>
rbdock ($Id: //depot/dev/client3/rdock/2013.1/src/exe/rbdock.cxx#4 $)

>  <Rbt.Library>
libRbt.so (2013.1, Build901 2013/11/27)

>  <Rbt.Parameter_File>
/export/apps/rDock/src/rDock_2013.1_src/data/scripts/dock_solv.prm

>  <Rbt.Receptor>
prm/blind_docking_60.prm

>  <SCORE>
-25.3126

>  <SCORE.INTER>
-18.5775

>  <SCORE.INTER.CONST>
1

>  <SCORE.INTER.POLAR>
-2.07044

>  <SCORE.INTER.ROT>
8

>  <SCORE.INTER.SOLV>
15.1751

>  <SCORE.INTER.VDW>
-19.4752

>  <SCORE.INTER.norm>
-1.68886

>  <SCORE.INTRA>
-6.74492

>  <SCORE.INTRA.DIHEDRAL>
-13.228

>  <SCORE.INTRA.DIHEDRAL.0>
21.6454

>  <SCORE.INTRA.POLAR>
0

>  <SCORE.INTRA.POLAR.0>
0

>  <SCORE.INTRA.REPUL>
0

>  <SCORE.INTRA.REPUL.0>
0

>  <SCORE.INTRA.SOLV>
0.142506

>  <SCORE.INTRA.SOLV.lig_0>
-16.5947

>  <SCORE.INTRA.VDW>
-0.202155

>  <SCORE.INTRA.VDW.0>
-0.691398

>  <SCORE.INTRA.norm>
-0.613175

>  <SCORE.RESTR>
0.00980024

>  <SCORE.RESTR.CAVITY>
0.00980024

>  <SCORE.RESTR.norm>
0.000890931

>  <SCORE.SYSTEM>
0

>  <SCORE.SYSTEM.CONST>
0

>  <SCORE.SYSTEM.DIHEDRAL>
0

>  <SCORE.SYSTEM.SOLV>
0

>  <SCORE.SYSTEM.norm>
0

>  <SCORE.heavy>
11

>  <SCORE.norm>
-2.30115

>  <RMSD>
16.289

$$$$
1akx_lig
 OpenBabel11021811383D
libRbt.so/2013.1/901 2013/11/27
 11 10  0  0  0  0  0  0  0  0999 V2000
    4.4060  -15.6626   -2.2688 N   0  0  0  0  0  0  0  0  0  0  0  0
    4.3009  -16.3225   -0.9340 C   0  0  2  0  0  0  0  0  0  0  0  0
    3.3276  -15.5343   -0.0484 C   0  0  0  0  0  0  0  0  0  0  0  0
    2.1273  -15.6478   -0.1985 O   0  0  0  0  0  0  0  0  0  0  0  0
    5.6842  -16.3658   -0.2705 C   0  0  0  0  0  0  0  0  0  0  0  0
    5.7218  -17.4866    0.7735 C   0  0  0  0  0  0  0  0  0  0  0  0
    6.8639  -17.2306    1.7568 C   0  0  0  0  0  0  0  0  0  0  0  0
    7.1499  -18.4793    2.5191 N   0  0  0  0  0  0  0  0  0  0  0  0
    7.6160  -18.4144    3.7401 C   0  0  0  0  0  0  0  0  0  0  0  0
    8.8793  -18.1470    3.9501 N   0  0  0  0  0  0  0  0  0  0  0  0
    6.8150  -18.6113    4.7529 N   0  0  0  0  0  0  0  0  0  0  0  0
  2  1  1  6  0  0  0
  2  3  1  0  0  0  0
  2  5  1  0  0  0  0
  3  4  1  0  0  0  0
  5  6  1  0  0  0  0
  6  7  1  0  0  0  0
  7  8  1  0  0  0  0
  8  9  1  0  0  0  0
  9 10  1  0  0  0  0
  9 11  1  0  0  0  0
M  END
>  <CHROM.1>
-79.34000690,77.98755239,-157.24189263,-160.04110443,-164.08248110,-150.24734033
-77.78997929,-0.59290040,111.36017039,5.70931258,-17.07734285,1.24877319
-2.23545553,-0.24234444,1.87832055

>  <Name>
1akx_lig

>  <RI>
0

>  <Rbt.Current_Directory>
/home/itssahil/PROJECTS/Mol_Feturizer/New_Systems/rnas/1akx

>  <Rbt.Executable>
rbdock ($Id: //depot/dev/client3/rdock/2013.1/src/exe/rbdock.cxx#4 $)

>  <Rbt.Library>
libRbt.so (2013.1, Build901 2013/11/27)

>  <Rbt.Parameter_File>
/export/apps/rDock/src/rDock_2013.1_src/data/scripts/dock_solv.prm

>  <Rbt.Receptor>
prm/blind_docking_60.prm

>  <SCORE>
-33.851

>  <SCORE.INTER>
-29.183

>  <SCORE.INTER.CONST>
1

>  <SCORE.INTER.POLAR>
-3.33174

>  <SCORE.INTER.ROT>
8

>  <SCORE.INTER.SOLV>
14.4706

>  <SCORE.INTER.VDW>
-22.1064

>  <SCORE.INTER.norm>
-2.653

>  <SCORE.INTRA>
-5.17592

>  <SCORE.INTRA.DIHEDRAL>
-10.6342

>  <SCORE.INTRA.DIHEDRAL.0>
21.6454

>  <SCORE.INTRA.POLAR>
0

>  <SCORE.INTRA.POLAR.0>
0

>  <SCORE.INTRA.REPUL>
0

>  <SCORE.INTRA.REPUL.0>
0

>  <SCORE.INTRA.SOLV>
0.0521754

>  <SCORE.INTRA.SOLV.lig_0>
-16.5947

>  <SCORE.INTRA.VDW>
0.115115

>  <SCORE.INTRA.VDW.0>
-0.691398

>  <SCORE.INTRA.norm>
-0.470538

>  <SCORE.RESTR>
0.507943

>  <SCORE.RESTR.CAVITY>
0.507943

>  <SCORE.RESTR.norm>
0.0461766

>  <SCORE.SYSTEM>
0

>  <SCORE.SYSTEM.CONST>
0

>  <SCORE.SYSTEM.DIHEDRAL>
0

>  <SCORE.SYSTEM.SOLV>
0

>  <SCORE.SYSTEM.norm>
0

>  <SCORE.heavy>
11

>  <SCORE.norm>
-3.07736

>  <RMSD>
16.340

$$$$
1akx_lig
 OpenBabel11021811383D
libRbt.so/2013.1/901 2013/11/27
 11 10  0  0  0  0  0  0  0  0999 V2000
    9.5645  -18.4160    5.1175 N   0  0  0  0  0  0  0  0  0  0  0  0
    8.2010  -18.5622    4.5277 C   0  0  2  0  0  0  0  0  0  0  0  0
    7.9954  -20.0105    4.0664 C   0  0  0  0  0  0  0  0  0  0  0  0
    6.8789  -20.4859    4.0059 O   0  0  0  0  0  0  0  0  0  0  0  0
    8.0528  -17.6126    3.3311 C   0  0  0  0  0  0  0  0  0  0  0  0
    6.7254  -17.8852    2.6162 C   0  0  0  0  0  0  0  0  0  0  0  0
    6.6720  -17.0841    1.3153 C   0  0  0  0  0  0  0  0  0  0  0  0
    5.3436  -17.2801    0.6677 N   0  0  0  0  0  0  0  0  0  0  0  0
    4.8303  -16.3385   -0.0823 C   0  0  0  0  0  0  0  0  0  0  0  0
    5.5491  -15.7782   -1.0208 N   0  0  0  0  0  0  0  0  0  0  0  0
    3.5936  -15.9617    0.1032 N   0  0  0  0  0  0  0  0  0  0  0  0
  2  1  1  6  0  0  0
  2  3  1  0  0  0  0
  2  5  1  0  0  0  0
  3  4  1  0  0  0  0
  5  6  1  0  0  0  0
  6  7  1  0  0  0  0
  7  8  1  0  0  0  0
  8  9  1  0  0  0  0
  9 10  1  0  0  0  0
  9 11  1  0  0  0  0
M  END
>  <CHROM.1>
40.27659708,153.67538286,172.86856348,-171.86920712,-176.25254856,150.79393737
49.13854064,179.10540446,-41.33113965,6.67190931,-17.76456147,2.23954453
-0.88593098,-0.52583548,-0.61737853

>  <Name>
1akx_lig

>  <RI>
0

>  <Rbt.Current_Directory>
/home/itssahil/PROJECTS/Mol_Feturizer/New_Systems/rnas/1akx

>  <Rbt.Executable>
rbdock ($Id: //depot/dev/client3/rdock/2013.1/src/exe/rbdock.cxx#4 $)

>  <Rbt.Library>
libRbt.so (2013.1, Build901 2013/11/27)

>  <Rbt.Parameter_File>
/export/apps/rDock/src/rDock_2013.1_src/data/scripts/dock_solv.prm

>  <Rbt.Receptor>
prm/blind_docking_60.prm

>  <SCORE>
-17.8938

>  <SCORE.INTER>
-13.7029

>  <SCORE.INTER.CONST>
1

>  <SCORE.INTER.POLAR>
-1.7229

>  <SCORE.INTER.ROT>
8

>  <SCORE.INTER.SOLV>
13.6783

>  <SCORE.INTER.VDW>
-16.8851

>  <SCORE.INTER.norm>
-1.24572

>  <SCORE.INTRA>
-4.21681

>  <SCORE.INTRA.DIHEDRAL>
-13.3017

>  <SCORE.INTRA.DIHEDRAL.0>
21.6454

>  <SCORE.INTRA.POLAR>
0

>  <SCORE.INTRA.POLAR.0>
0

>  <SCORE.INTRA.REPUL>
0

>  <SCORE.INTRA.REPUL.0>
0

>  <SCORE.INTRA.SOLV>
0.0818143

>  <SCORE.INTRA.SOLV.lig_0>
-16.5947

>  <SCORE.INTRA.VDW>
2.39313

>  <SCORE.INTRA.VDW.0>
-0.691398

>  <SCORE.INTRA.norm>
-0.383347

>  <SCORE.RESTR>
0.0259731

>  <SCORE.RESTR.CAVITY>
0.0259731

>  <SCORE.RESTR.norm>
0.00236119

>  <SCORE.SYSTEM>
0

>  <SCORE.SYSTEM.CONST>
0

>  <SCORE.SYSTEM.DIHEDRAL>
0

>  <SCORE.SYSTEM.SOLV>
0

>  <SCORE.SYSTEM.norm>
0

>  <SCORE.heavy>
11

>  <SCORE.norm>
-1.62671

>  <RMSD>
16.417

$$$$
1akx_lig
 OpenBabel11021811383D
libRbt.so/2013.1/901 2013/11/27
 11 10  0  0  0  0  0  0  0  0999 V2000
    6.9800  -20.0141    4.4881 N   0  0  0  0  0  0  0  0  0  0  0  0
    7.9393  -19.2624    3.6262 C   0  0  2  0  0  0  0  0  0  0  0  0
    9.2346  -19.0045    4.4062 C   0  0  0  0  0  0  0  0  0  0  0  0
    9.2004  -18.4841    5.5036 O   0  0  0  0  0  0  0  0  0  0  0  0
    7.3147  -17.9253    3.2048 C   0  0  0  0  0  0  0  0  0  0  0  0
    6.5458  -18.1049    1.8919 C   0  0  0  0  0  0  0  0  0  0  0  0
    6.5810  -16.7999    1.0966 C   0  0  0  0  0  0  0  0  0  0  0  0
    6.2703  -17.0833   -0.3336 N   0  0  0  0  0  0  0  0  0  0  0  0
    5.1038  -16.7609   -0.8314 C   0  0  0  0  0  0  0  0  0  0  0  0
    4.6330  -15.5502   -0.6767 N   0  0  0  0  0  0  0  0  0  0  0  0
    4.4103  -17.6501   -1.4905 N   0  0  0  0  0  0  0  0  0  0  0  0
  2  1  1  1  0  0  0
  2  3  1  0  0  0  0
  2  5  1  0  0  0  0
  3  4  1  0  0  0  0
  5  6  1  0  0  0  0
  6  7  1  0  0  0  0
  7  8  1  0  0  0  0
  8  9  1  0  0  0  0
  9 10  1  0  0  0  0
  9 11  1  0  0  0  0
M  END
>  <CHROM.1>
-173.49562749,-52.60333310,-89.99933495,-149.49579447,160.50995383,105.69176595
51.12531829,-73.96840894,85.24228381,6.72043559,-17.88980116,1.90751534,0.79885497
0.78399712,2.57922899

>  <Name>
1akx_lig

>  <RI>
0

>  <Rbt.Current_Directory>
/home/itssahil/PROJECTS/Mol_Feturizer/New_Systems/rnas/1akx

>  <Rbt.Executable>
rbdock ($Id: //depot/dev/client3/rdock/2013.1/src/exe/rbdock.cxx#4 $)

>  <Rbt.Library>
libRbt.so (2013.1, Build901 2013/11/27)

>  <Rbt.Parameter_File>
/export/apps/rDock/src/rDock_2013.1_src/data/scripts/dock_solv.prm

>  <Rbt.Receptor>
prm/blind_docking_60.prm

>  <SCORE>
-19.1228

>  <SCORE.INTER>
-14.4143

>  <SCORE.INTER.CONST>
1

>  <SCORE.INTER.POLAR>
-1.79109

>  <SCORE.INTER.ROT>
8

>  <SCORE.INTER.SOLV>
10.9551

>  <SCORE.INTER.VDW>
-16.2243

>  <SCORE.INTER.norm>
-1.31039

>  <SCORE.INTRA>
-4.70849

>  <SCORE.INTRA.DIHEDRAL>
-9.15089

>  <SCORE.INTRA.DIHEDRAL.0>
21.6454

>  <SCORE.INTRA.POLAR>
0

>  <SCORE.INTRA.POLAR.0>
0

>  <SCORE.INTRA.REPUL>
0

>  <SCORE.INTRA.REPUL.0>
0

>  <SCORE.INTRA.SOLV>
0.330837

>  <SCORE.INTRA.SOLV.lig_0>
-16.5947

>  <SCORE.INTRA.VDW>
-0.298469

>  <SCORE.INTRA.VDW.0>
-0.691398

>  <SCORE.INTRA.norm>
-0.428045

>  <SCORE.RESTR>
0

>  <SCORE.RESTR.CAVITY>
0

>  <SCORE.RESTR.norm>
0

>  <SCORE.SYSTEM>
0

>  <SCORE.SYSTEM.CONST>
0

>  <SCORE.SYSTEM.DIHEDRAL>
0

>  <SCORE.SYSTEM.SOLV>
0

>  <SCORE.SYSTEM.norm>
0

>  <SCORE.heavy>
11

>  <SCORE.norm>
-1.73844

>  <RMSD>
16.514

$$$$
1akx_lig
 OpenBabel11021811383D
libRbt.so/2013.1/901 2013/11/27
 11 10  0  0  0  0  0  0  0  0999 V2000
    4.7354  -17.5686   -1.2605 N   0  0  0  0  0  0  0  0  0  0  0  0
    4.7653  -16.5649   -0.1560 C   0  0  2  0  0  0  0  0  0  0  0  0
    3.7425  -15.4583   -0.4422 C   0  0  0  0  0  0  0  0  0  0  0  0
    3.6224  -15.0041   -1.5627 O   0  0  0  0  0  0  0  0  0  0  0  0
    6.1701  -15.9559   -0.0514 C   0  0  0  0  0  0  0  0  0  0  0  0
    7.1259  -16.9678    0.5889 C   0  0  0  0  0  0  0  0  0  0  0  0
    6.6738  -17.2635    2.0189 C   0  0  0  0  0  0  0  0  0  0  0  0
    6.9555  -18.6912    2.3419 N   0  0  0  0  0  0  0  0  0  0  0  0
    7.3570  -19.0294    3.5406 C   0  0  0  0  0  0  0  0  0  0  0  0
    8.3054  -19.9176    3.6919 N   0  0  0  0  0  0  0  0  0  0  0  0
    6.8126  -18.4729    4.5894 N   0  0  0  0  0  0  0  0  0  0  0  0
  2  1  1  6  0  0  0
  2  3  1  0  0  0  0
  2  5  1  0  0  0  0
  3  4  1  0  0  0  0
  5  6  1  0  0  0  0
  6  7  1  0  0  0  0
  7  8  1  0  0  0  0
  8  9  1  0  0  0  0
  9 10  1  0  0  0  0
  9 11  1  0  0  0  0
M  END
>  <CHROM.1>
-76.52393572,-42.12602900,-74.58694155,-63.46146897,145.20579766,142.78883814
-138.46688427,-8.37942732,-3.18319255,6.01512916,-17.38758027,1.19919769
-2.42374328,-0.85279768,1.46120887

>  <Name>
1akx_lig

>  <RI>
0

>  <Rbt.Current_Directory>
/home/itssahil/PROJECTS/Mol_Feturizer/New_Systems/rnas/1akx

>  <Rbt.Executable>
rbdock ($Id: //depot/dev/client3/rdock/2013.1/src/exe/rbdock.cxx#4 $)

>  <Rbt.Library>
libRbt.so (2013.1, Build901 2013/11/27)

>  <Rbt.Parameter_File>
/export/apps/rDock/src/rDock_2013.1_src/data/scripts/dock_solv.prm

>  <Rbt.Receptor>
prm/blind_docking_60.prm

>  <SCORE>
-26.2332

>  <SCORE.INTER>
-22.7223

>  <SCORE.INTER.CONST>
1

>  <SCORE.INTER.POLAR>
-3.45735

>  <SCORE.INTER.ROT>
8

>  <SCORE.INTER.SOLV>
13.7032

>  <SCORE.INTER.VDW>
-17.1248

>  <SCORE.INTER.norm>
-2.06567

>  <SCORE.INTRA>
-4.02422

>  <SCORE.INTRA.DIHEDRAL>
-10.8248

>  <SCORE.INTRA.DIHEDRAL.0>
21.6454

>  <SCORE.INTRA.POLAR>
0

>  <SCORE.INTRA.POLAR.0>
0

>  <SCORE.INTRA.REPUL>
0

>  <SCORE.INTRA.REPUL.0>
0

>  <SCORE.INTRA.SOLV>
0.546807

>  <SCORE.INTRA.SOLV.lig_0>
-16.5947

>  <SCORE.INTRA.VDW>
1.11478

>  <SCORE.INTRA.VDW.0>
-0.691398

>  <SCORE.INTRA.norm>
-0.365838

>  <SCORE.RESTR>
0.513296

>  <SCORE.RESTR.CAVITY>
0.513296

>  <SCORE.RESTR.norm>
0.0466633

>  <SCORE.SYSTEM>
0

>  <SCORE.SYSTEM.CONST>
0

>  <SCORE.SYSTEM.DIHEDRAL>
0

>  <SCORE.SYSTEM.SOLV>
0

>  <SCORE.SYSTEM.norm>
0

>  <SCORE.heavy>
11

>  <SCORE.norm>
-2.38484

>  <RMSD>
16.635

$$$$
1akx_lig
 OpenBabel11021811383D
libRbt.so/2013.1/901 2013/11/27
 11 10  0  0  0  0  0  0  0  0999 V2000
   -9.6658    7.2082    1.1083 N   0  0  0  0  0  0  0  0  0  0  0  0
  -11.0030    7.2617    1.7695 C   0  0  2  0  0  0  0  0  0  0  0  0
  -12.0721    6.7312    0.8061 C   0  0  0  0  0  0  0  0  0  0  0  0
  -12.0434    5.5768    0.4281 O   0  0  0  0  0  0  0  0  0  0  0  0
  -11.3288    8.7108    2.1561 C   0  0  0  0  0  0  0  0  0  0  0  0
  -10.7009    9.0370    3.5150 C   0  0  0  0  0  0  0  0  0  0  0  0
  -11.1169   10.4435    3.9456 C   0  0  0  0  0  0  0  0  0  0  0  0
   -9.9074   11.3095    4.0424 N   0  0  0  0  0  0  0  0  0  0  0  0
   -9.4252   11.6404    5.2131 C   0  0  0  0  0  0  0  0  0  0  0  0
   -9.8035   12.7509    5.7918 N   0  0  0  0  0  0  0  0  0  0  0  0
   -8.5678   10.8551    5.8083 N   0  0  0  0  0  0  0  0  0  0  0  0
  2  1  1  6  0  0  0
  2  3  1  0  0  0  0
  2  5  1  0  0  0  0
  3  4  1  0  0  0  0
  5  6  1  0  0  0  0
  6  7  1  0  0  0  0
  7  8  1  0  0  0  0
  8  9  1  0  0  0  0
  9 10  1  0  0  0  0
  9 11  1  0  0  0  0
M  END
>  <CHROM.1>
78.68804027,63.49567345,-84.83398569,-175.68219996,-116.94381532,-105.44766637
-92.56621667,-33.69611978,-13.99838584,-10.47176300,9.22426258,3.13743674
-1.85172229,-0.27358413,0.63133377

>  <Name>
1akx_lig

>  <RI>
0

>  <Rbt.Current_Directory>
/home/afrankz/demos/rdock_decoys_rna/rnas/1akx

>  <Rbt.Executable>
rbdock ($Id: //depot/dev/client3/rdock/2013.1/src/exe/rbdock.cxx#4 $)

>  <Rbt.Library>
libRbt.so (2013.1, Build901 2013/11/27)

>  <Rbt.Parameter_File>
/export/apps/rDock/src/rDock_2013.1_src/data/scripts/dock_solv.prm

>  <Rbt.Receptor>
prm/blind_docking_60.prm

>  <SCORE>
-31.6984

>  <SCORE.INTER>
-27.5387

>  <SCORE.INTER.CONST>
1

>  <SCORE.INTER.POLAR>
-4.70664

>  <SCORE.INTER.ROT>
8

>  <SCORE.INTER.SOLV>
10.7013

>  <SCORE.INTER.VDW>
-15.1708

>  <SCORE.INTER.norm>
-2.50352

>  <SCORE.INTRA>
-4.64078

>  <SCORE.INTRA.DIHEDRAL>
-8.2928

>  <SCORE.INTRA.DIHEDRAL.0>
21.6454

>  <SCORE.INTRA.POLAR>
0

>  <SCORE.INTRA.POLAR.0>
0

>  <SCORE.INTRA.REPUL>
0

>  <SCORE.INTRA.REPUL.0>
0

>  <SCORE.INTRA.SOLV>
0.27131

>  <SCORE.INTRA.SOLV.lig_0>
-16.5947

>  <SCORE.INTRA.VDW>
-0.630036

>  <SCORE.INTRA.VDW.0>
-0.691398

>  <SCORE.INTRA.norm>
-0.421889

>  <SCORE.RESTR>
0.481145

>  <SCORE.RESTR.CAVITY>
0.481145

>  <SCORE.RESTR.norm>
0.0437405

>  <SCORE.SYSTEM>
0

>  <SCORE.SYSTEM.CONST>
0

>  <SCORE.SYSTEM.DIHEDRAL>
0

>  <SCORE.SYSTEM.SOLV>
0

>  <SCORE.SYSTEM.norm>
0

>  <SCORE.heavy>
11

>  <SCORE.norm>
-2.88167

>  <RMSD>
16.779

>  <RMSD>
16.779

$$$$
1akx_lig
 OpenBabel11021811383D
libRbt.so/2013.1/901 2013/11/27
 11 10  0  0  0  0  0  0  0  0999 V2000
   -9.6658    7.2082    1.1083 N   0  0  0  0  0  0  0  0  0  0  0  0
  -11.0030    7.2617    1.7695 C   0  0  2  0  0  0  0  0  0  0  0  0
  -12.0721    6.7312    0.8061 C   0  0  0  0  0  0  0  0  0  0  0  0
  -12.0434    5.5768    0.4281 O   0  0  0  0  0  0  0  0  0  0  0  0
  -11.3288    8.7108    2.1561 C   0  0  0  0  0  0  0  0  0  0  0  0
  -10.7009    9.0370    3.5150 C   0  0  0  0  0  0  0  0  0  0  0  0
  -11.1169   10.4435    3.9456 C   0  0  0  0  0  0  0  0  0  0  0  0
   -9.9074   11.3095    4.0424 N   0  0  0  0  0  0  0  0  0  0  0  0
   -9.4252   11.6404    5.2131 C   0  0  0  0  0  0  0  0  0  0  0  0
   -9.8035   12.7509    5.7918 N   0  0  0  0  0  0  0  0  0  0  0  0
   -8.5678   10.8551    5.8083 N   0  0  0  0  0  0  0  0  0  0  0  0
  2  1  1  6  0  0  0
  2  3  1  0  0  0  0
  2  5  1  0  0  0  0
  3  4  1  0  0  0  0
  5  6  1  0  0  0  0
  6  7  1  0  0  0  0
  7  8  1  0  0  0  0
  8  9  1  0  0  0  0
  9 10  1  0  0  0  0
  9 11  1  0  0  0  0
M  END
>  <CHROM.1>
78.68804027,63.49567345,-84.83398569,-175.68219996,-116.94381532,-105.44766637
-92.56621667,-33.69611978,-13.99838584,-10.47176300,9.22426258,3.13743674
-1.85172229,-0.27358413,0.63133377

>  <Name>
1akx_lig

>  <RI>
0

>  <Rbt.Current_Directory>
/home/afrankz/demos/rdock_decoys_rna/rnas/1akx

>  <Rbt.Executable>
rbdock ($Id: //depot/dev/client3/rdock/2013.1/src/exe/rbdock.cxx#4 $)

>  <Rbt.Library>
libRbt.so (2013.1, Build901 2013/11/27)

>  <Rbt.Parameter_File>
/export/apps/rDock/src/rDock_2013.1_src/data/scripts/dock_solv.prm

>  <Rbt.Receptor>
prm/blind_docking_60.prm

>  <SCORE>
-31.6984

>  <SCORE.INTER>
-27.5387

>  <SCORE.INTER.CONST>
1

>  <SCORE.INTER.POLAR>
-4.70664

>  <SCORE.INTER.ROT>
8

>  <SCORE.INTER.SOLV>
10.7013

>  <SCORE.INTER.VDW>
-15.1708

>  <SCORE.INTER.norm>
-2.50352

>  <SCORE.INTRA>
-4.64078

>  <SCORE.INTRA.DIHEDRAL>
-8.2928

>  <SCORE.INTRA.DIHEDRAL.0>
21.6454

>  <SCORE.INTRA.POLAR>
0

>  <SCORE.INTRA.POLAR.0>
0

>  <SCORE.INTRA.REPUL>
0

>  <SCORE.INTRA.REPUL.0>
0

>  <SCORE.INTRA.SOLV>
0.27131

>  <SCORE.INTRA.SOLV.lig_0>
-16.5947

>  <SCORE.INTRA.VDW>
-0.630036

>  <SCORE.INTRA.VDW.0>
-0.691398

>  <SCORE.INTRA.norm>
-0.421889

>  <SCORE.RESTR>
0.481145

>  <SCORE.RESTR.CAVITY>
0.481145

>  <SCORE.RESTR.norm>
0.0437405

>  <SCORE.SYSTEM>
0

>  <SCORE.SYSTEM.CONST>
0

>  <SCORE.SYSTEM.DIHEDRAL>
0

>  <SCORE.SYSTEM.SOLV>
0

>  <SCORE.SYSTEM.norm>
0

>  <SCORE.heavy>
11

>  <SCORE.norm>
-2.88167

>  <RMSD>
16.779

>  <RMSD>
16.779

$$$$
1akx_lig
 OpenBabel11021811383D
libRbt.so/2013.1/901 2013/11/27
 11 10  0  0  0  0  0  0  0  0999 V2000
    6.6554  -16.1269   -2.2797 N   0  0  0  0  0  0  0  0  0  0  0  0
    5.4564  -16.7252   -1.6222 C   0  0  2  0  0  0  0  0  0  0  0  0
    4.1849  -16.1010   -2.2108 C   0  0  0  0  0  0  0  0  0  0  0  0
    3.0928  -16.3858   -1.7607 O   0  0  0  0  0  0  0  0  0  0  0  0
    5.5110  -16.4598   -0.1116 C   0  0  0  0  0  0  0  0  0  0  0  0
    6.5916  -17.3371    0.5287 C   0  0  0  0  0  0  0  0  0  0  0  0
    6.3085  -17.4871    2.0234 C   0  0  0  0  0  0  0  0  0  0  0  0
    7.0613  -18.6590    2.5546 N   0  0  0  0  0  0  0  0  0  0  0  0
    7.5893  -18.6164    3.7512 C   0  0  0  0  0  0  0  0  0  0  0  0
    6.8252  -18.6780    4.8113 N   0  0  0  0  0  0  0  0  0  0  0  0
    8.8846  -18.5182    3.8869 N   0  0  0  0  0  0  0  0  0  0  0  0
  2  1  1  6  0  0  0
  2  3  1  0  0  0  0
  2  5  1  0  0  0  0
  3  4  1  0  0  0  0
  5  6  1  0  0  0  0
  6  7  1  0  0  0  0
  7  8  1  0  0  0  0
  8  9  1  0  0  0  0
  9 10  1  0  0  0  0
  9 11  1  0  0  0  0
M  END
>  <CHROM.1>
26.16443037,-175.52066029,-72.53145035,-158.60516396,161.74670673,142.79027849
72.60402682,116.06162546,-170.59001127,6.21762281,-17.37374033,0.87263764
-2.00680614,-0.04591882,1.92634281

>  <Name>
1akx_lig

>  <RI>
0

>  <Rbt.Current_Directory>
/home/itssahil/PROJECTS/Mol_Feturizer/New_Systems/rnas/1akx

>  <Rbt.Executable>
rbdock ($Id: //depot/dev/client3/rdock/2013.1/src/exe/rbdock.cxx#4 $)

>  <Rbt.Library>
libRbt.so (2013.1, Build901 2013/11/27)

>  <Rbt.Parameter_File>
/export/apps/rDock/src/rDock_2013.1_src/data/scripts/dock_solv.prm

>  <Rbt.Receptor>
prm/blind_docking_60.prm

>  <SCORE>
-35.2581

>  <SCORE.INTER>
-30.9247

>  <SCORE.INTER.CONST>
1

>  <SCORE.INTER.POLAR>
-3.77579

>  <SCORE.INTER.ROT>
8

>  <SCORE.INTER.SOLV>
12.6963

>  <SCORE.INTER.VDW>
-21.196

>  <SCORE.INTER.norm>
-2.81134

>  <SCORE.INTRA>
-4.88401

>  <SCORE.INTRA.DIHEDRAL>
-11.1067

>  <SCORE.INTRA.DIHEDRAL.0>
21.6454

>  <SCORE.INTRA.POLAR>
0

>  <SCORE.INTRA.POLAR.0>
0

>  <SCORE.INTRA.REPUL>
0

>  <SCORE.INTRA.REPUL.0>
0

>  <SCORE.INTRA.SOLV>
-0.0147541

>  <SCORE.INTRA.SOLV.lig_0>
-16.5947

>  <SCORE.INTRA.VDW>
0.676699

>  <SCORE.INTRA.VDW.0>
-0.691398

>  <SCORE.INTRA.norm>
-0.444001

>  <SCORE.RESTR>
0.550646

>  <SCORE.RESTR.CAVITY>
0.550646

>  <SCORE.RESTR.norm>
0.0500587

>  <SCORE.SYSTEM>
0

>  <SCORE.SYSTEM.CONST>
0

>  <SCORE.SYSTEM.DIHEDRAL>
0

>  <SCORE.SYSTEM.SOLV>
0

>  <SCORE.SYSTEM.norm>
0

>  <SCORE.heavy>
11

>  <SCORE.norm>
-3.20528

>  <RMSD>
16.785

$$$$
1akx_lig
 OpenBabel11021811383D
libRbt.so/2013.1/901 2013/11/27
 11 10  0  0  0  0  0  0  0  0999 V2000
    3.7575  -15.9970   -0.2648 N   0  0  0  0  0  0  0  0  0  0  0  0
    5.0674  -15.9760   -0.9803 C   0  0  2  0  0  0  0  0  0  0  0  0
    5.1074  -17.1136   -2.0084 C   0  0  0  0  0  0  0  0  0  0  0  0
    4.2679  -17.1834   -2.8839 O   0  0  0  0  0  0  0  0  0  0  0  0
    6.2091  -16.1520    0.0301 C   0  0  0  0  0  0  0  0  0  0  0  0
    6.0208  -17.4634    0.7997 C   0  0  0  0  0  0  0  0  0  0  0  0
    6.7763  -17.3900    2.1266 C   0  0  0  0  0  0  0  0  0  0  0  0
    7.1359  -18.7677    2.5681 N   0  0  0  0  0  0  0  0  0  0  0  0
    7.6122  -18.9718    3.7698 C   0  0  0  0  0  0  0  0  0  0  0  0
    8.7216  -18.3900    4.1466 N   0  0  0  0  0  0  0  0  0  0  0  0
    6.9736  -19.7546    4.5977 N   0  0  0  0  0  0  0  0  0  0  0  0
  2  1  1  1  0  0  0
  2  3  1  0  0  0  0
  2  5  1  0  0  0  0
  3  4  1  0  0  0  0
  5  6  1  0  0  0  0
  6  7  1  0  0  0  0
  7  8  1  0  0  0  0
  8  9  1  0  0  0  0
  9 10  1  0  0  0  0
  9 11  1  0  0  0  0
M  END
>  <CHROM.1>
-60.61048941,57.93849509,57.69645008,-157.69664637,-154.01596074,-169.91250558
-59.82617803,150.60192972,-104.72771160,6.12398757,-17.57782093,1.09990814
-2.56892937,0.99851163,2.88803869

>  <Name>
1akx_lig

>  <RI>
0

>  <Rbt.Current_Directory>
/home/itssahil/PROJECTS/Mol_Feturizer/New_Systems/rnas/1akx

>  <Rbt.Executable>
rbdock ($Id: //depot/dev/client3/rdock/2013.1/src/exe/rbdock.cxx#4 $)

>  <Rbt.Library>
libRbt.so (2013.1, Build901 2013/11/27)

>  <Rbt.Parameter_File>
/export/apps/rDock/src/rDock_2013.1_src/data/scripts/dock_solv.prm

>  <Rbt.Receptor>
prm/blind_docking_60.prm

>  <SCORE>
-26.1337

>  <SCORE.INTER>
-22.1118

>  <SCORE.INTER.CONST>
1

>  <SCORE.INTER.POLAR>
-2.11267

>  <SCORE.INTER.ROT>
8

>  <SCORE.INTER.SOLV>
10.826

>  <SCORE.INTER.VDW>
-20.241

>  <SCORE.INTER.norm>
-2.01017

>  <SCORE.INTRA>
-4.73313

>  <SCORE.INTRA.DIHEDRAL>
-12.7589

>  <SCORE.INTRA.DIHEDRAL.0>
21.6454

>  <SCORE.INTRA.POLAR>
0

>  <SCORE.INTRA.POLAR.0>
0

>  <SCORE.INTRA.REPUL>
0

>  <SCORE.INTRA.REPUL.0>
0

>  <SCORE.INTRA.SOLV>
0.266195

>  <SCORE.INTRA.SOLV.lig_0>
-16.5947

>  <SCORE.INTRA.VDW>
1.51323

>  <SCORE.INTRA.VDW.0>
-0.691398

>  <SCORE.INTRA.norm>
-0.430285

>  <SCORE.RESTR>
0.711276

>  <SCORE.RESTR.CAVITY>
0.711276

>  <SCORE.RESTR.norm>
0.0646615

>  <SCORE.SYSTEM>
0

>  <SCORE.SYSTEM.CONST>
0

>  <SCORE.SYSTEM.DIHEDRAL>
0

>  <SCORE.SYSTEM.SOLV>
0

>  <SCORE.SYSTEM.norm>
0

>  <SCORE.heavy>
11

>  <SCORE.norm>
-2.37579

>  <RMSD>
16.842

$$$$
1akx_lig
 OpenBabel11021811383D
libRbt.so/2013.1/901 2013/11/27
 11 10  0  0  0  0  0  0  0  0999 V2000
    3.9194  -15.4422   -1.7210 N   0  0  0  0  0  0  0  0  0  0  0  0
    5.0094  -16.3543   -1.2646 C   0  0  2  0  0  0  0  0  0  0  0  0
    4.7368  -17.7742   -1.7768 C   0  0  0  0  0  0  0  0  0  0  0  0
    5.5663  -18.6506   -1.6357 O   0  0  0  0  0  0  0  0  0  0  0  0
    5.0677  -16.3603    0.2690 C   0  0  0  0  0  0  0  0  0  0  0  0
    6.3254  -17.1004    0.7356 C   0  0  0  0  0  0  0  0  0  0  0  0
    6.0798  -17.7032    2.1188 C   0  0  0  0  0  0  0  0  0  0  0  0
    7.3723  -18.1822    2.6864 N   0  0  0  0  0  0  0  0  0  0  0  0
    7.3815  -19.0668    3.6508 C   0  0  0  0  0  0  0  0  0  0  0  0
    6.7974  -18.8043    4.7915 N   0  0  0  0  0  0  0  0  0  0  0  0
    7.9709  -20.2184    3.4708 N   0  0  0  0  0  0  0  0  0  0  0  0
  2  1  1  1  0  0  0
  2  3  1  0  0  0  0
  2  5  1  0  0  0  0
  3  4  1  0  0  0  0
  5  6  1  0  0  0  0
  6  7  1  0  0  0  0
  7  8  1  0  0  0  0
  8  9  1  0  0  0  0
  9 10  1  0  0  0  0
  9 11  1  0  0  0  0
M  END
>  <CHROM.1>
-41.70073910,172.59265414,-170.44726982,-152.47787967,-168.76014083,-159.85336232
-59.96642054,-174.17620485,-5.78567525,6.01638685,-17.79794574,1.03097926
2.57776945,1.05113093,-2.06469045

>  <Name>
1akx_lig

>  <RI>
0

>  <Rbt.Current_Directory>
/home/itssahil/PROJECTS/Mol_Feturizer/New_Systems/rnas/1akx

>  <Rbt.Executable>
rbdock ($Id: //depot/dev/client3/rdock/2013.1/src/exe/rbdock.cxx#4 $)

>  <Rbt.Library>
libRbt.so (2013.1, Build901 2013/11/27)

>  <Rbt.Parameter_File>
/export/apps/rDock/src/rDock_2013.1_src/data/scripts/dock_solv.prm

>  <Rbt.Receptor>
prm/blind_docking_60.prm

>  <SCORE>
-31.6707

>  <SCORE.INTER>
-27.3559

>  <SCORE.INTER.CONST>
1

>  <SCORE.INTER.POLAR>
-4.826

>  <SCORE.INTER.ROT>
8

>  <SCORE.INTER.SOLV>
13.3241

>  <SCORE.INTER.VDW>
-15.5253

>  <SCORE.INTER.norm>
-2.4869

>  <SCORE.INTRA>
-5.08392

>  <SCORE.INTRA.DIHEDRAL>
-12.3993

>  <SCORE.INTRA.DIHEDRAL.0>
21.6454

>  <SCORE.INTRA.POLAR>
0

>  <SCORE.INTRA.POLAR.0>
0

>  <SCORE.INTRA.REPUL>
0

>  <SCORE.INTRA.REPUL.0>
0

>  <SCORE.INTRA.SOLV>
0.156244

>  <SCORE.INTRA.SOLV.lig_0>
-16.5947

>  <SCORE.INTRA.VDW>
1.0376

>  <SCORE.INTRA.VDW.0>
-0.691398

>  <SCORE.INTRA.norm>
-0.462174

>  <SCORE.RESTR>
0.769115

>  <SCORE.RESTR.CAVITY>
0.769115

>  <SCORE.RESTR.norm>
0.0699195

>  <SCORE.SYSTEM>
0

>  <SCORE.SYSTEM.CONST>
0

>  <SCORE.SYSTEM.DIHEDRAL>
0

>  <SCORE.SYSTEM.SOLV>
0

>  <SCORE.SYSTEM.norm>
0

>  <SCORE.heavy>
11

>  <SCORE.norm>
-2.87916

>  <RMSD>
16.916

$$$$
1akx_lig
 OpenBabel11021811383D
libRbt.so/2013.1/901 2013/11/27
 11 10  0  0  0  0  0  0  0  0999 V2000
    5.0943  -15.3773   -0.3698 N   0  0  0  0  0  0  0  0  0  0  0  0
    5.6670  -16.4927   -1.1799 C   0  0  2  0  0  0  0  0  0  0  0  0
    4.5439  -17.4493   -1.6000 C   0  0  0  0  0  0  0  0  0  0  0  0
    3.5081  -17.0175   -2.0657 O   0  0  0  0  0  0  0  0  0  0  0  0
    6.7084  -17.2524   -0.3469 C   0  0  0  0  0  0  0  0  0  0  0  0
    6.1163  -17.6093    1.0203 C   0  0  0  0  0  0  0  0  0  0  0  0
    7.1236  -17.2677    2.1182 C   0  0  0  0  0  0  0  0  0  0  0  0
    6.7862  -18.0299    3.3541 N   0  0  0  0  0  0  0  0  0  0  0  0
    7.6024  -18.9471    3.8068 C   0  0  0  0  0  0  0  0  0  0  0  0
    7.1583  -20.1461    4.0834 N   0  0  0  0  0  0  0  0  0  0  0  0
    8.8664  -18.6655    3.9768 N   0  0  0  0  0  0  0  0  0  0  0  0
  2  1  1  1  0  0  0
  2  3  1  0  0  0  0
  2  5  1  0  0  0  0
  3  4  1  0  0  0  0
  5  6  1  0  0  0  0
  6  7  1  0  0  0  0
  7  8  1  0  0  0  0
  8  9  1  0  0  0  0
  9 10  1  0  0  0  0
  9 11  1  0  0  0  0
M  END
>  <CHROM.1>
38.66191133,46.99532313,49.85836516,-133.75317362,-160.01473886,114.31794706
-128.73817785,138.24093082,-60.85559658,6.27009274,-17.65225556,1.18635534
-2.28737716,0.75815214,2.53391941

>  <Name>
1akx_lig

>  <RI>
0

>  <Rbt.Current_Directory>
/home/itssahil/PROJECTS/Mol_Feturizer/New_Systems/rnas/1akx

>  <Rbt.Executable>
rbdock ($Id: //depot/dev/client3/rdock/2013.1/src/exe/rbdock.cxx#4 $)

>  <Rbt.Library>
libRbt.so (2013.1, Build901 2013/11/27)

>  <Rbt.Parameter_File>
/export/apps/rDock/src/rDock_2013.1_src/data/scripts/dock_solv.prm

>  <Rbt.Receptor>
prm/blind_docking_60.prm

>  <SCORE>
-23.4467

>  <SCORE.INTER>
-20.7666

>  <SCORE.INTER.CONST>
1

>  <SCORE.INTER.POLAR>
-2.97135

>  <SCORE.INTER.ROT>
8

>  <SCORE.INTER.SOLV>
12.2628

>  <SCORE.INTER.VDW>
-16.9609

>  <SCORE.INTER.norm>
-1.88787

>  <SCORE.INTRA>
-2.68007

>  <SCORE.INTRA.DIHEDRAL>
-8.09554

>  <SCORE.INTRA.DIHEDRAL.0>
21.6454

>  <SCORE.INTRA.POLAR>
0

>  <SCORE.INTRA.POLAR.0>
0

>  <SCORE.INTRA.REPUL>
0

>  <SCORE.INTRA.REPUL.0>
0

>  <SCORE.INTRA.SOLV>
0.460227

>  <SCORE.INTRA.SOLV.lig_0>
-16.5947

>  <SCORE.INTRA.VDW>
1.13758

>  <SCORE.INTRA.VDW.0>
-0.691398

>  <SCORE.INTRA.norm>
-0.243643

>  <SCORE.RESTR>
0

>  <SCORE.RESTR.CAVITY>
0

>  <SCORE.RESTR.norm>
0

>  <SCORE.SYSTEM>
0

>  <SCORE.SYSTEM.CONST>
0

>  <SCORE.SYSTEM.DIHEDRAL>
0

>  <SCORE.SYSTEM.SOLV>
0

>  <SCORE.SYSTEM.norm>
0

>  <SCORE.heavy>
11

>  <SCORE.norm>
-2.13152

>  <RMSD>
16.976

$$$$
1akx_lig
 OpenBabel11021811383D
libRbt.so/2013.1/901 2013/11/27
 11 10  0  0  0  0  0  0  0  0999 V2000
    6.4897  -16.1397   -2.0364 N   0  0  0  0  0  0  0  0  0  0  0  0
    5.6394  -17.1375   -1.3226 C   0  0  2  0  0  0  0  0  0  0  0  0
    4.2237  -17.1191   -1.9127 C   0  0  0  0  0  0  0  0  0  0  0  0
    3.5570  -16.1039   -1.8846 O   0  0  0  0  0  0  0  0  0  0  0  0
    5.5813  -16.7900    0.1712 C   0  0  0  0  0  0  0  0  0  0  0  0
    6.9790  -16.9156    0.7859 C   0  0  0  0  0  0  0  0  0  0  0  0
    6.8554  -17.2701    2.2677 C   0  0  0  0  0  0  0  0  0  0  0  0
    6.9969  -18.7444    2.4373 N   0  0  0  0  0  0  0  0  0  0  0  0
    7.3853  -19.2421    3.5836 C   0  0  0  0  0  0  0  0  0  0  0  0
    6.9991  -18.6919    4.7058 N   0  0  0  0  0  0  0  0  0  0  0  0
    8.1565  -20.2960    3.6066 N   0  0  0  0  0  0  0  0  0  0  0  0
  2  1  1  6  0  0  0
  2  3  1  0  0  0  0
  2  5  1  0  0  0  0
  3  4  1  0  0  0  0
  5  6  1  0  0  0  0
  6  7  1  0  0  0  0
  7  8  1  0  0  0  0
  8  9  1  0  0  0  0
  9 10  1  0  0  0  0
  9 11  1  0  0  0  0
M  END
>  <CHROM.1>
46.81208123,-60.14406803,-64.17808896,-151.70897583,96.61198050,156.29403195
36.43329305,3.75732561,-179.04168155,6.26971498,-17.67634060,0.93945801,-1.97398112
-0.16111974,1.96549273

>  <Name>
1akx_lig

>  <RI>
0

>  <Rbt.Current_Directory>
/home/itssahil/PROJECTS/Mol_Feturizer/New_Systems/rnas/1akx

>  <Rbt.Executable>
rbdock ($Id: //depot/dev/client3/rdock/2013.1/src/exe/rbdock.cxx#4 $)

>  <Rbt.Library>
libRbt.so (2013.1, Build901 2013/11/27)

>  <Rbt.Parameter_File>
/export/apps/rDock/src/rDock_2013.1_src/data/scripts/dock_solv.prm

>  <Rbt.Receptor>
prm/blind_docking_60.prm

>  <SCORE>
-32.5884

>  <SCORE.INTER>
-29.2925

>  <SCORE.INTER.CONST>
1

>  <SCORE.INTER.POLAR>
-4.46211

>  <SCORE.INTER.ROT>
8

>  <SCORE.INTER.SOLV>
13.0371

>  <SCORE.INTER.VDW>
-17.9337

>  <SCORE.INTER.norm>
-2.66296

>  <SCORE.INTRA>
-3.64587

>  <SCORE.INTRA.DIHEDRAL>
-9.87699

>  <SCORE.INTRA.DIHEDRAL.0>
21.6454

>  <SCORE.INTRA.POLAR>
0

>  <SCORE.INTRA.POLAR.0>
0

>  <SCORE.INTRA.REPUL>
0

>  <SCORE.INTRA.REPUL.0>
0

>  <SCORE.INTRA.SOLV>
0.429702

>  <SCORE.INTRA.SOLV.lig_0>
-16.5947

>  <SCORE.INTRA.VDW>
1.07777

>  <SCORE.INTRA.VDW.0>
-0.691398

>  <SCORE.INTRA.norm>
-0.331442

>  <SCORE.RESTR>
0.349994

>  <SCORE.RESTR.CAVITY>
0.349994

>  <SCORE.RESTR.norm>
0.0318176

>  <SCORE.SYSTEM>
0

>  <SCORE.SYSTEM.CONST>
0

>  <SCORE.SYSTEM.DIHEDRAL>
0

>  <SCORE.SYSTEM.SOLV>
0

>  <SCORE.SYSTEM.norm>
0

>  <SCORE.heavy>
11

>  <SCORE.norm>
-2.96258

>  <RMSD>
17.028

$$$$
1akx_lig
 OpenBabel11021811383D
libRbt.so/2013.1/901 2013/11/27
 11 10  0  0  0  0  0  0  0  0999 V2000
    3.9721  -16.1452   -0.2111 N   0  0  0  0  0  0  0  0  0  0  0  0
    5.4131  -16.2827   -0.5754 C   0  0  2  0  0  0  0  0  0  0  0  0
    5.5443  -16.4375   -2.0958 C   0  0  0  0  0  0  0  0  0  0  0  0
    6.6400  -16.4820   -2.6189 O   0  0  0  0  0  0  0  0  0  0  0  0
    6.0056  -17.5144    0.1226 C   0  0  0  0  0  0  0  0  0  0  0  0
    6.2158  -17.2144    1.6103 C   0  0  0  0  0  0  0  0  0  0  0  0
    6.7409  -18.4654    2.3146 C   0  0  0  0  0  0  0  0  0  0  0  0
    7.0009  -18.1536    3.7489 N   0  0  0  0  0  0  0  0  0  0  0  0
    8.1518  -18.4582    4.2919 C   0  0  0  0  0  0  0  0  0  0  0  0
    9.2349  -17.8099    3.9484 N   0  0  0  0  0  0  0  0  0  0  0  0
    8.2178  -19.4092    5.1848 N   0  0  0  0  0  0  0  0  0  0  0  0
  2  1  1  6  0  0  0
  2  3  1  0  0  0  0
  2  5  1  0  0  0  0
  3  4  1  0  0  0  0
  5  6  1  0  0  0  0
  6  7  1  0  0  0  0
  7  8  1  0  0  0  0
  8  9  1  0  0  0  0
  9 10  1  0  0  0  0
  9 11  1  0  0  0  0
M  END
>  <CHROM.1>
-160.25267783,175.45738765,-74.57662085,177.22182671,177.54059960,-129.34547392
69.73244775,-53.56435511,-103.57744189,6.64560072,-17.48254231,1.44305690
1.99143199,0.16478457,-1.28681836

>  <Name>
1akx_lig

>  <RI>
0

>  <Rbt.Current_Directory>
/home/itssahil/PROJECTS/Mol_Feturizer/New_Systems/rnas/1akx

>  <Rbt.Executable>
rbdock ($Id: //depot/dev/client3/rdock/2013.1/src/exe/rbdock.cxx#4 $)

>  <Rbt.Library>
libRbt.so (2013.1, Build901 2013/11/27)

>  <Rbt.Parameter_File>
/export/apps/rDock/src/rDock_2013.1_src/data/scripts/dock_solv.prm

>  <Rbt.Receptor>
prm/blind_docking_60.prm

>  <SCORE>
-29.8271

>  <SCORE.INTER>
-22.2844

>  <SCORE.INTER.CONST>
1

>  <SCORE.INTER.POLAR>
-2.97119

>  <SCORE.INTER.ROT>
8

>  <SCORE.INTER.SOLV>
12.0209

>  <SCORE.INTER.VDW>
-17.8926

>  <SCORE.INTER.norm>
-2.02585

>  <SCORE.INTRA>
-7.68211

>  <SCORE.INTRA.DIHEDRAL>
-15.0182

>  <SCORE.INTRA.DIHEDRAL.0>
21.6454

>  <SCORE.INTRA.POLAR>
0

>  <SCORE.INTRA.POLAR.0>
0

>  <SCORE.INTRA.REPUL>
0

>  <SCORE.INTRA.REPUL.0>
0

>  <SCORE.INTRA.SOLV>
-0.0168809

>  <SCORE.INTRA.SOLV.lig_0>
-16.5947

>  <SCORE.INTRA.VDW>
-0.164564

>  <SCORE.INTRA.VDW.0>
-0.691398

>  <SCORE.INTRA.norm>
-0.698373

>  <SCORE.RESTR>
0.139361

>  <SCORE.RESTR.CAVITY>
0.139361

>  <SCORE.RESTR.norm>
0.0126692

>  <SCORE.SYSTEM>
0

>  <SCORE.SYSTEM.CONST>
0

>  <SCORE.SYSTEM.DIHEDRAL>
0

>  <SCORE.SYSTEM.SOLV>
0

>  <SCORE.SYSTEM.norm>
0

>  <SCORE.heavy>
11

>  <SCORE.norm>
-2.71155

>  <RMSD>
17.072

$$$$
1akx_lig
 OpenBabel11021811383D
libRbt.so/2013.1/901 2013/11/27
 11 10  0  0  0  0  0  0  0  0999 V2000
    4.0246  -15.3033   -0.6919 N   0  0  0  0  0  0  0  0  0  0  0  0
    5.1670  -16.2637   -0.7207 C   0  0  2  0  0  0  0  0  0  0  0  0
    4.8313  -17.4306   -1.6579 C   0  0  0  0  0  0  0  0  0  0  0  0
    5.5226  -18.4296   -1.6710 O   0  0  0  0  0  0  0  0  0  0  0  0
    5.4281  -16.7962    0.6948 C   0  0  0  0  0  0  0  0  0  0  0  0
    6.9290  -17.0355    0.8883 C   0  0  0  0  0  0  0  0  0  0  0  0
    7.2186  -17.2941    2.3668 C   0  0  0  0  0  0  0  0  0  0  0  0
    6.9377  -18.7235    2.6835 N   0  0  0  0  0  0  0  0  0  0  0  0
    7.6036  -19.3321    3.6315 C   0  0  0  0  0  0  0  0  0  0  0  0
    8.0771  -20.5358    3.4359 N   0  0  0  0  0  0  0  0  0  0  0  0
    7.8013  -18.7324    4.7748 N   0  0  0  0  0  0  0  0  0  0  0  0
  2  1  1  1  0  0  0
  2  3  1  0  0  0  0
  2  5  1  0  0  0  0
  3  4  1  0  0  0  0
  5  6  1  0  0  0  0
  6  7  1  0  0  0  0
  7  8  1  0  0  0  0
  8  9  1  0  0  0  0
  9 10  1  0  0  0  0
  9 11  1  0  0  0  0
M  END
>  <CHROM.1>
31.70115650,-168.29121255,-145.92874933,168.76912905,82.30990156,150.39934411
-135.08647003,34.34372849,-154.93492012,6.30639930,-17.82051110,1.25508014
2.89438671,1.06488963,-2.34806955

>  <Name>
1akx_lig

>  <RI>
0

>  <Rbt.Current_Directory>
/home/itssahil/PROJECTS/Mol_Feturizer/New_Systems/rnas/1akx

>  <Rbt.Executable>
rbdock ($Id: //depot/dev/client3/rdock/2013.1/src/exe/rbdock.cxx#4 $)

>  <Rbt.Library>
libRbt.so (2013.1, Build901 2013/11/27)

>  <Rbt.Parameter_File>
/export/apps/rDock/src/rDock_2013.1_src/data/scripts/dock_solv.prm

>  <Rbt.Receptor>
prm/blind_docking_60.prm

>  <SCORE>
-27.0308

>  <SCORE.INTER>
-23.5178

>  <SCORE.INTER.CONST>
1

>  <SCORE.INTER.POLAR>
-3.72248

>  <SCORE.INTER.ROT>
8

>  <SCORE.INTER.SOLV>
13.4925

>  <SCORE.INTER.VDW>
-16.7011

>  <SCORE.INTER.norm>
-2.13798

>  <SCORE.INTRA>
-3.62925

>  <SCORE.INTRA.DIHEDRAL>
-8.97343

>  <SCORE.INTRA.DIHEDRAL.0>
21.6454

>  <SCORE.INTRA.POLAR>
0

>  <SCORE.INTRA.POLAR.0>
0

>  <SCORE.INTRA.REPUL>
0

>  <SCORE.INTRA.REPUL.0>
0

>  <SCORE.INTRA.SOLV>
0.196216

>  <SCORE.INTRA.SOLV.lig_0>
-16.5947

>  <SCORE.INTRA.VDW>
0.759358

>  <SCORE.INTRA.VDW.0>
-0.691398

>  <SCORE.INTRA.norm>
-0.329932

>  <SCORE.RESTR>
0.116199

>  <SCORE.RESTR.CAVITY>
0.116199

>  <SCORE.RESTR.norm>
0.0105636

>  <SCORE.SYSTEM>
0

>  <SCORE.SYSTEM.CONST>
0

>  <SCORE.SYSTEM.DIHEDRAL>
0

>  <SCORE.SYSTEM.SOLV>
0

>  <SCORE.SYSTEM.norm>
0

>  <SCORE.heavy>
11

>  <SCORE.norm>
-2.45735

>  <RMSD>
17.076

$$$$
1akx_lig
 OpenBabel11021811383D
libRbt.so/2013.1/901 2013/11/27
 11 10  0  0  0  0  0  0  0  0999 V2000
   -8.6386   10.8904    5.6485 N   0  0  0  0  0  0  0  0  0  0  0  0
   -9.8090   11.5962    5.0481 C   0  0  2  0  0  0  0  0  0  0  0  0
   -9.9250   13.0010    5.6529 C   0  0  0  0  0  0  0  0  0  0  0  0
   -9.0649   13.8340    5.4470 O   0  0  0  0  0  0  0  0  0  0  0  0
  -11.0912   10.8027    5.3342 C   0  0  0  0  0  0  0  0  0  0  0  0
  -11.5324   10.0598    4.0690 C   0  0  0  0  0  0  0  0  0  0  0  0
  -10.9481    8.6472    4.0761 C   0  0  0  0  0  0  0  0  0  0  0  0
  -11.4661    7.8914    2.9002 N   0  0  0  0  0  0  0  0  0  0  0  0
  -10.6668    7.1214    2.2070 C   0  0  0  0  0  0  0  0  0  0  0  0
  -10.8650    5.8288    2.1700 N   0  0  0  0  0  0  0  0  0  0  0  0
   -9.6712    7.6467    1.5446 N   0  0  0  0  0  0  0  0  0  0  0  0
  2  1  1  1  0  0  0
  2  3  1  0  0  0  0
  2  5  1  0  0  0  0
  3  4  1  0  0  0  0
  5  6  1  0  0  0  0
  6  7  1  0  0  0  0
  7  8  1  0  0  0  0
  8  9  1  0  0  0  0
  9 10  1  0  0  0  0
  9 11  1  0  0  0  0
M  END
>  <CHROM.1>
42.03130070,65.86544045,-104.05744989,93.00844677,175.53884021,138.20769151
115.56293001,19.83833793,-59.31836735,-10.29100571,9.74003871,3.99945523
-1.38233931,-0.26249956,-2.56623442

>  <Name>
1akx_lig

>  <RI>
0

>  <Rbt.Current_Directory>
/home/afrankz/demos/rdock_decoys_rna/rnas/1akx

>  <Rbt.Executable>
rbdock ($Id: //depot/dev/client3/rdock/2013.1/src/exe/rbdock.cxx#4 $)

>  <Rbt.Library>
libRbt.so (2013.1, Build901 2013/11/27)

>  <Rbt.Parameter_File>
/export/apps/rDock/src/rDock_2013.1_src/data/scripts/dock_solv.prm

>  <Rbt.Receptor>
prm/blind_docking_40.prm

>  <SCORE>
-40.2072

>  <SCORE.INTER>
-36.5745

>  <SCORE.INTER.CONST>
1

>  <SCORE.INTER.POLAR>
-6.63982

>  <SCORE.INTER.ROT>
8

>  <SCORE.INTER.SOLV>
10.7012

>  <SCORE.INTER.VDW>
-14.7506

>  <SCORE.INTER.norm>
-3.32495

>  <SCORE.INTRA>
-4.01621

>  <SCORE.INTRA.DIHEDRAL>
-7.44913

>  <SCORE.INTRA.DIHEDRAL.0>
21.6454

>  <SCORE.INTRA.POLAR>
0

>  <SCORE.INTRA.POLAR.0>
0

>  <SCORE.INTRA.REPUL>
0

>  <SCORE.INTRA.REPUL.0>
0

>  <SCORE.INTRA.SOLV>
0.221046

>  <SCORE.INTRA.SOLV.lig_0>
-16.5947

>  <SCORE.INTRA.VDW>
-0.402172

>  <SCORE.INTRA.VDW.0>
-0.691398

>  <SCORE.INTRA.norm>
-0.36511

>  <SCORE.RESTR>
0.383461

>  <SCORE.RESTR.CAVITY>
0.383461

>  <SCORE.RESTR.norm>
0.0348601

>  <SCORE.SYSTEM>
0

>  <SCORE.SYSTEM.CONST>
0

>  <SCORE.SYSTEM.DIHEDRAL>
0

>  <SCORE.SYSTEM.SOLV>
0

>  <SCORE.SYSTEM.norm>
0

>  <SCORE.heavy>
11

>  <SCORE.norm>
-3.6552

>  <RMSD>
17.130

>  <RMSD>
17.130

$$$$
1akx_lig
 OpenBabel11021811383D
libRbt.so/2013.1/901 2013/11/27
 11 10  0  0  0  0  0  0  0  0999 V2000
   -8.6386   10.8904    5.6485 N   0  0  0  0  0  0  0  0  0  0  0  0
   -9.8090   11.5962    5.0481 C   0  0  2  0  0  0  0  0  0  0  0  0
   -9.9250   13.0010    5.6529 C   0  0  0  0  0  0  0  0  0  0  0  0
   -9.0649   13.8340    5.4470 O   0  0  0  0  0  0  0  0  0  0  0  0
  -11.0912   10.8027    5.3342 C   0  0  0  0  0  0  0  0  0  0  0  0
  -11.5324   10.0598    4.0690 C   0  0  0  0  0  0  0  0  0  0  0  0
  -10.9481    8.6472    4.0761 C   0  0  0  0  0  0  0  0  0  0  0  0
  -11.4661    7.8914    2.9002 N   0  0  0  0  0  0  0  0  0  0  0  0
  -10.6668    7.1214    2.2070 C   0  0  0  0  0  0  0  0  0  0  0  0
  -10.8650    5.8288    2.1700 N   0  0  0  0  0  0  0  0  0  0  0  0
   -9.6712    7.6467    1.5446 N   0  0  0  0  0  0  0  0  0  0  0  0
  2  1  1  1  0  0  0
  2  3  1  0  0  0  0
  2  5  1  0  0  0  0
  3  4  1  0  0  0  0
  5  6  1  0  0  0  0
  6  7  1  0  0  0  0
  7  8  1  0  0  0  0
  8  9  1  0  0  0  0
  9 10  1  0  0  0  0
  9 11  1  0  0  0  0
M  END
>  <CHROM.1>
42.03130070,65.86544045,-104.05744989,93.00844677,175.53884021,138.20769151
115.56293001,19.83833793,-59.31836735,-10.29100571,9.74003871,3.99945523
-1.38233931,-0.26249956,-2.56623442

>  <Name>
1akx_lig

>  <RI>
0

>  <Rbt.Current_Directory>
/home/afrankz/demos/rdock_decoys_rna/rnas/1akx

>  <Rbt.Executable>
rbdock ($Id: //depot/dev/client3/rdock/2013.1/src/exe/rbdock.cxx#4 $)

>  <Rbt.Library>
libRbt.so (2013.1, Build901 2013/11/27)

>  <Rbt.Parameter_File>
/export/apps/rDock/src/rDock_2013.1_src/data/scripts/dock_solv.prm

>  <Rbt.Receptor>
prm/blind_docking_40.prm

>  <SCORE>
-40.2072

>  <SCORE.INTER>
-36.5745

>  <SCORE.INTER.CONST>
1

>  <SCORE.INTER.POLAR>
-6.63982

>  <SCORE.INTER.ROT>
8

>  <SCORE.INTER.SOLV>
10.7012

>  <SCORE.INTER.VDW>
-14.7506

>  <SCORE.INTER.norm>
-3.32495

>  <SCORE.INTRA>
-4.01621

>  <SCORE.INTRA.DIHEDRAL>
-7.44913

>  <SCORE.INTRA.DIHEDRAL.0>
21.6454

>  <SCORE.INTRA.POLAR>
0

>  <SCORE.INTRA.POLAR.0>
0

>  <SCORE.INTRA.REPUL>
0

>  <SCORE.INTRA.REPUL.0>
0

>  <SCORE.INTRA.SOLV>
0.221046

>  <SCORE.INTRA.SOLV.lig_0>
-16.5947

>  <SCORE.INTRA.VDW>
-0.402172

>  <SCORE.INTRA.VDW.0>
-0.691398

>  <SCORE.INTRA.norm>
-0.36511

>  <SCORE.RESTR>
0.383461

>  <SCORE.RESTR.CAVITY>
0.383461

>  <SCORE.RESTR.norm>
0.0348601

>  <SCORE.SYSTEM>
0

>  <SCORE.SYSTEM.CONST>
0

>  <SCORE.SYSTEM.DIHEDRAL>
0

>  <SCORE.SYSTEM.SOLV>
0

>  <SCORE.SYSTEM.norm>
0

>  <SCORE.heavy>
11

>  <SCORE.norm>
-3.6552

>  <RMSD>
17.130

>  <RMSD>
17.130

$$$$
1akx_lig
 OpenBabel11021811383D
libRbt.so/2013.1/901 2013/11/27
 11 10  0  0  0  0  0  0  0  0999 V2000
    4.8090  -15.4637   -0.7247 N   0  0  0  0  0  0  0  0  0  0  0  0
    5.9784  -16.3016   -1.1229 C   0  0  2  0  0  0  0  0  0  0  0  0
    5.4858  -17.5413   -1.8800 C   0  0  0  0  0  0  0  0  0  0  0  0
    4.7917  -17.4237   -2.8703 O   0  0  0  0  0  0  0  0  0  0  0  0
    6.7523  -16.7345    0.1297 C   0  0  0  0  0  0  0  0  0  0  0  0
    5.7709  -17.2181    1.2022 C   0  0  0  0  0  0  0  0  0  0  0  0
    6.5329  -17.5222    2.4921 C   0  0  0  0  0  0  0  0  0  0  0  0
    6.9479  -18.9540    2.4959 N   0  0  0  0  0  0  0  0  0  0  0  0
    7.3473  -19.5219    3.6051 C   0  0  0  0  0  0  0  0  0  0  0  0
    8.0816  -20.6038    3.5644 N   0  0  0  0  0  0  0  0  0  0  0  0
    7.0164  -19.0024    4.7569 N   0  0  0  0  0  0  0  0  0  0  0  0
  2  1  1  1  0  0  0
  2  3  1  0  0  0  0
  2  5  1  0  0  0  0
  3  4  1  0  0  0  0
  5  6  1  0  0  0  0
  6  7  1  0  0  0  0
  7  8  1  0  0  0  0
  8  9  1  0  0  0  0
  9 10  1  0  0  0  0
  9 11  1  0  0  0  0
M  END
>  <CHROM.1>
-81.54324646,56.03205003,45.21598992,-174.66184159,-91.00840945,-164.83730913
-159.01317916,6.59838421,149.18224741,6.29942300,-17.85146502,1.06279553
2.59507398,1.17388529,-2.07468158

>  <Name>
1akx_lig

>  <RI>
0

>  <Rbt.Current_Directory>
/home/itssahil/PROJECTS/Mol_Feturizer/New_Systems/rnas/1akx

>  <Rbt.Executable>
rbdock ($Id: //depot/dev/client3/rdock/2013.1/src/exe/rbdock.cxx#4 $)

>  <Rbt.Library>
libRbt.so (2013.1, Build901 2013/11/27)

>  <Rbt.Parameter_File>
/export/apps/rDock/src/rDock_2013.1_src/data/scripts/dock_solv.prm

>  <Rbt.Receptor>
prm/blind_docking_60.prm

>  <SCORE>
-26.4804

>  <SCORE.INTER>
-24.1305

>  <SCORE.INTER.CONST>
1

>  <SCORE.INTER.POLAR>
-3.83259

>  <SCORE.INTER.ROT>
8

>  <SCORE.INTER.SOLV>
12.5105

>  <SCORE.INTER.VDW>
-16.4152

>  <SCORE.INTER.norm>
-2.19368

>  <SCORE.INTRA>
-3.09554

>  <SCORE.INTRA.DIHEDRAL>
-11.8885

>  <SCORE.INTRA.DIHEDRAL.0>
21.6454

>  <SCORE.INTRA.POLAR>
0

>  <SCORE.INTRA.POLAR.0>
0

>  <SCORE.INTRA.REPUL>
0

>  <SCORE.INTRA.REPUL.0>
0

>  <SCORE.INTRA.SOLV>
0.409003

>  <SCORE.INTRA.SOLV.lig_0>
-16.5947

>  <SCORE.INTRA.VDW>
2.64423

>  <SCORE.INTRA.VDW.0>
-0.691398

>  <SCORE.INTRA.norm>
-0.281413

>  <SCORE.RESTR>
0.745613

>  <SCORE.RESTR.CAVITY>
0.745613

>  <SCORE.RESTR.norm>
0.067783

>  <SCORE.SYSTEM>
0

>  <SCORE.SYSTEM.CONST>
0

>  <SCORE.SYSTEM.DIHEDRAL>
0

>  <SCORE.SYSTEM.SOLV>
0

>  <SCORE.SYSTEM.norm>
0

>  <SCORE.heavy>
11

>  <SCORE.norm>
-2.40731

>  <RMSD>
17.131

$$$$
1akx_lig
 OpenBabel11021811383D
libRbt.so/2013.1/901 2013/11/27
 11 10  0  0  0  0  0  0  0  0999 V2000
    6.6534  -15.6674   -0.4392 N   0  0  0  0  0  0  0  0  0  0  0  0
    5.6818  -16.7989   -0.3775 C   0  0  2  0  0  0  0  0  0  0  0  0
    4.3416  -16.3561   -0.9778 C   0  0  0  0  0  0  0  0  0  0  0  0
    4.2728  -16.0002   -2.1375 O   0  0  0  0  0  0  0  0  0  0  0  0
    5.4787  -17.2245    1.0830 C   0  0  0  0  0  0  0  0  0  0  0  0
    6.8398  -17.4103    1.7614 C   0  0  0  0  0  0  0  0  0  0  0  0
    6.7988  -18.6473    2.6586 C   0  0  0  0  0  0  0  0  0  0  0  0
    7.0884  -18.2481    4.0654 N   0  0  0  0  0  0  0  0  0  0  0  0
    8.2654  -18.4808    4.5879 C   0  0  0  0  0  0  0  0  0  0  0  0
    8.3971  -19.3545    5.5527 N   0  0  0  0  0  0  0  0  0  0  0  0
    9.3132  -17.8426    4.1397 N   0  0  0  0  0  0  0  0  0  0  0  0
  2  1  1  1  0  0  0
  2  3  1  0  0  0  0
  2  5  1  0  0  0  0
  3  4  1  0  0  0  0
  5  6  1  0  0  0  0
  6  7  1  0  0  0  0
  7  8  1  0  0  0  0
  8  9  1  0  0  0  0
  9 10  1  0  0  0  0
  9 11  1  0  0  0  0
M  END
>  <CHROM.1>
-168.84396976,60.97741222,-49.03997340,-139.40640659,-120.18580930,-103.25935720
-112.27120679,-60.38143975,-42.83809359,6.67790798,-17.43053783,1.81120032
-2.09788755,0.38165446,2.18295842

>  <Name>
1akx_lig

>  <RI>
0

>  <Rbt.Current_Directory>
/home/itssahil/PROJECTS/Mol_Feturizer/New_Systems/rnas/1akx

>  <Rbt.Executable>
rbdock ($Id: //depot/dev/client3/rdock/2013.1/src/exe/rbdock.cxx#4 $)

>  <Rbt.Library>
libRbt.so (2013.1, Build901 2013/11/27)

>  <Rbt.Parameter_File>
/export/apps/rDock/src/rDock_2013.1_src/data/scripts/dock_solv.prm

>  <Rbt.Receptor>
prm/blind_docking_60.prm

>  <SCORE>
-24.5077

>  <SCORE.INTER>
-22.0074

>  <SCORE.INTER.CONST>
1

>  <SCORE.INTER.POLAR>
-3.21295

>  <SCORE.INTER.ROT>
8

>  <SCORE.INTER.SOLV>
12.7228

>  <SCORE.INTER.VDW>
-17.1361

>  <SCORE.INTER.norm>
-2.00067

>  <SCORE.INTRA>
-2.52139

>  <SCORE.INTRA.DIHEDRAL>
-5.88631

>  <SCORE.INTRA.DIHEDRAL.0>
21.6454

>  <SCORE.INTRA.POLAR>
0

>  <SCORE.INTRA.POLAR.0>
0

>  <SCORE.INTRA.REPUL>
0

>  <SCORE.INTRA.REPUL.0>
0

>  <SCORE.INTRA.SOLV>
0.350787

>  <SCORE.INTRA.SOLV.lig_0>
-16.5947

>  <SCORE.INTRA.VDW>
0.246368

>  <SCORE.INTRA.VDW.0>
-0.691398

>  <SCORE.INTRA.norm>
-0.229218

>  <SCORE.RESTR>
0.0211274

>  <SCORE.RESTR.CAVITY>
0.0211274

>  <SCORE.RESTR.norm>
0.00192067

>  <SCORE.SYSTEM>
0

>  <SCORE.SYSTEM.CONST>
0

>  <SCORE.SYSTEM.DIHEDRAL>
0

>  <SCORE.SYSTEM.SOLV>
0

>  <SCORE.SYSTEM.norm>
0

>  <SCORE.heavy>
11

>  <SCORE.norm>
-2.22797

>  <RMSD>
17.133

$$$$
1akx_lig
 OpenBabel11021811383D
libRbt.so/2013.1/901 2013/11/27
 11 10  0  0  0  0  0  0  0  0999 V2000
    7.9803  -20.6132    4.2557 N   0  0  0  0  0  0  0  0  0  0  0  0
    8.7777  -19.3604    4.1045 C   0  0  2  0  0  0  0  0  0  0  0  0
    9.5704  -19.0997    5.3915 C   0  0  0  0  0  0  0  0  0  0  0  0
    8.9947  -18.8234    6.4251 O   0  0  0  0  0  0  0  0  0  0  0  0
    7.8358  -18.1803    3.8295 C   0  0  0  0  0  0  0  0  0  0  0  0
    6.9109  -18.5196    2.6561 C   0  0  0  0  0  0  0  0  0  0  0  0
    6.7104  -17.2775    1.7879 C   0  0  0  0  0  0  0  0  0  0  0  0
    5.6498  -17.5471    0.7757 N   0  0  0  0  0  0  0  0  0  0  0  0
    5.8448  -17.2406   -0.4815 C   0  0  0  0  0  0  0  0  0  0  0  0
    4.8301  -17.1449   -1.3016 N   0  0  0  0  0  0  0  0  0  0  0  0
    7.0569  -17.0232   -0.9169 N   0  0  0  0  0  0  0  0  0  0  0  0
  2  1  1  1  0  0  0
  2  3  1  0  0  0  0
  2  5  1  0  0  0  0
  3  4  1  0  0  0  0
  5  6  1  0  0  0  0
  6  7  1  0  0  0  0
  7  8  1  0  0  0  0
  8  9  1  0  0  0  0
  9 10  1  0  0  0  0
  9 11  1  0  0  0  0
M  END
>  <CHROM.1>
-161.12575212,-66.96626535,-52.15707124,-141.49382783,-171.22488733,-132.37396280
-162.21076540,164.69016993,107.01064308,7.26991486,-18.28054777,2.40167969
0.87670947,0.81143512,2.46419676

>  <Name>
1akx_lig

>  <RI>
0

>  <Rbt.Current_Directory>
/home/itssahil/PROJECTS/Mol_Feturizer/New_Systems/rnas/1akx

>  <Rbt.Executable>
rbdock ($Id: //depot/dev/client3/rdock/2013.1/src/exe/rbdock.cxx#4 $)

>  <Rbt.Library>
libRbt.so (2013.1, Build901 2013/11/27)

>  <Rbt.Parameter_File>
/export/apps/rDock/src/rDock_2013.1_src/data/scripts/dock_solv.prm

>  <Rbt.Receptor>
prm/blind_docking_60.prm

>  <SCORE>
-25.0836

>  <SCORE.INTER>
-21.5512

>  <SCORE.INTER.CONST>
1

>  <SCORE.INTER.POLAR>
-2.60062

>  <SCORE.INTER.ROT>
8

>  <SCORE.INTER.SOLV>
12.0182

>  <SCORE.INTER.VDW>
-18.6381

>  <SCORE.INTER.norm>
-1.9592

>  <SCORE.INTRA>
-4.03495

>  <SCORE.INTRA.DIHEDRAL>
-10.9566

>  <SCORE.INTRA.DIHEDRAL.0>
21.6454

>  <SCORE.INTRA.POLAR>
0

>  <SCORE.INTRA.POLAR.0>
0

>  <SCORE.INTRA.REPUL>
0

>  <SCORE.INTRA.REPUL.0>
0

>  <SCORE.INTRA.SOLV>
0.355151

>  <SCORE.INTRA.SOLV.lig_0>
-16.5947

>  <SCORE.INTRA.VDW>
1.26578

>  <SCORE.INTRA.VDW.0>
-0.691398

>  <SCORE.INTRA.norm>
-0.366814

>  <SCORE.RESTR>
0.50253

>  <SCORE.RESTR.CAVITY>
0.50253

>  <SCORE.RESTR.norm>
0.0456846

>  <SCORE.SYSTEM>
0

>  <SCORE.SYSTEM.CONST>
0

>  <SCORE.SYSTEM.DIHEDRAL>
0

>  <SCORE.SYSTEM.SOLV>
0

>  <SCORE.SYSTEM.norm>
0

>  <SCORE.heavy>
11

>  <SCORE.norm>
-2.28033

>  <RMSD>
17.192

$$$$
1akx_lig
 OpenBabel11021811383D
libRbt.so/2013.1/901 2013/11/27
 11 10  0  0  0  0  0  0  0  0999 V2000
    4.2307  -15.5304   -0.8441 N   0  0  0  0  0  0  0  0  0  0  0  0
    5.6212  -15.9091   -0.4553 C   0  0  2  0  0  0  0  0  0  0  0  0
    6.4220  -16.2758   -1.7110 C   0  0  0  0  0  0  0  0  0  0  0  0
    5.9969  -17.1017   -2.4942 O   0  0  0  0  0  0  0  0  0  0  0  0
    5.5800  -17.1093    0.5004 C   0  0  0  0  0  0  0  0  0  0  0  0
    6.8460  -17.1267    1.3632 C   0  0  0  0  0  0  0  0  0  0  0  0
    6.7031  -18.1832    2.4588 C   0  0  0  0  0  0  0  0  0  0  0  0
    7.8193  -18.0369    3.4360 N   0  0  0  0  0  0  0  0  0  0  0  0
    8.2953  -19.0867    4.0554 C   0  0  0  0  0  0  0  0  0  0  0  0
    9.5031  -19.0645    4.5574 N   0  0  0  0  0  0  0  0  0  0  0  0
    7.5587  -20.1584    4.1781 N   0  0  0  0  0  0  0  0  0  0  0  0
  2  1  1  6  0  0  0
  2  3  1  0  0  0  0
  2  5  1  0  0  0  0
  3  4  1  0  0  0  0
  5  6  1  0  0  0  0
  6  7  1  0  0  0  0
  7  8  1  0  0  0  0
  8  9  1  0  0  0  0
  9 10  1  0  0  0  0
  9 11  1  0  0  0  0
M  END
>  <CHROM.1>
-57.02882973,-52.81870869,-155.36885561,171.06581436,-170.09047601,-148.19380400
157.77329209,28.44037136,-42.89016015,6.76868511,-17.60540004,1.36318880
2.08385916,0.51593866,-1.34804466

>  <Name>
1akx_lig

>  <RI>
0

>  <Rbt.Current_Directory>
/home/itssahil/PROJECTS/Mol_Feturizer/New_Systems/rnas/1akx

>  <Rbt.Executable>
rbdock ($Id: //depot/dev/client3/rdock/2013.1/src/exe/rbdock.cxx#4 $)

>  <Rbt.Library>
libRbt.so (2013.1, Build901 2013/11/27)

>  <Rbt.Parameter_File>
/export/apps/rDock/src/rDock_2013.1_src/data/scripts/dock_solv.prm

>  <Rbt.Receptor>
prm/blind_docking_60.prm

>  <SCORE>
-26.0839

>  <SCORE.INTER>
-20.0568

>  <SCORE.INTER.CONST>
1

>  <SCORE.INTER.POLAR>
-1.67738

>  <SCORE.INTER.ROT>
8

>  <SCORE.INTER.SOLV>
11.3582

>  <SCORE.INTER.VDW>
-20.4993

>  <SCORE.INTER.norm>
-1.82335

>  <SCORE.INTRA>
-6.02878

>  <SCORE.INTRA.DIHEDRAL>
-13.8275

>  <SCORE.INTRA.DIHEDRAL.0>
21.6454

>  <SCORE.INTRA.POLAR>
0

>  <SCORE.INTRA.POLAR.0>
0

>  <SCORE.INTRA.REPUL>
0

>  <SCORE.INTRA.REPUL.0>
0

>  <SCORE.INTRA.SOLV>
0.273072

>  <SCORE.INTRA.SOLV.lig_0>
-16.5947

>  <SCORE.INTRA.VDW>
0.748444

>  <SCORE.INTRA.VDW.0>
-0.691398

>  <SCORE.INTRA.norm>
-0.548071

>  <SCORE.RESTR>
0.00165918

>  <SCORE.RESTR.CAVITY>
0.00165918

>  <SCORE.RESTR.norm>
0.000150834

>  <SCORE.SYSTEM>
0

>  <SCORE.SYSTEM.CONST>
0

>  <SCORE.SYSTEM.DIHEDRAL>
0

>  <SCORE.SYSTEM.SOLV>
0

>  <SCORE.SYSTEM.norm>
0

>  <SCORE.heavy>
11

>  <SCORE.norm>
-2.37127

>  <RMSD>
17.233

$$$$
1akx_lig
 OpenBabel11021811383D
libRbt.so/2013.1/901 2013/11/27
 11 10  0  0  0  0  0  0  0  0999 V2000
    4.3340  -15.6105   -0.7435 N   0  0  0  0  0  0  0  0  0  0  0  0
    5.7084  -16.0043   -0.3145 C   0  0  2  0  0  0  0  0  0  0  0  0
    6.4972  -16.5131   -1.5275 C   0  0  0  0  0  0  0  0  0  0  0  0
    6.5223  -15.8726   -2.5597 O   0  0  0  0  0  0  0  0  0  0  0  0
    5.6200  -17.1105    0.7457 C   0  0  0  0  0  0  0  0  0  0  0  0
    6.9173  -17.1511    1.5598 C   0  0  0  0  0  0  0  0  0  0  0  0
    6.7798  -18.1719    2.6894 C   0  0  0  0  0  0  0  0  0  0  0  0
    8.0248  -18.1734    3.5093 N   0  0  0  0  0  0  0  0  0  0  0  0
    8.3535  -19.2305    4.2071 C   0  0  0  0  0  0  0  0  0  0  0  0
    7.5842  -20.2885    4.2028 N   0  0  0  0  0  0  0  0  0  0  0  0
    9.4573  -19.2308    4.9054 N   0  0  0  0  0  0  0  0  0  0  0  0
  2  1  1  6  0  0  0
  2  3  1  0  0  0  0
  2  5  1  0  0  0  0
  3  4  1  0  0  0  0
  5  6  1  0  0  0  0
  6  7  1  0  0  0  0
  7  8  1  0  0  0  0
  8  9  1  0  0  0  0
  9 10  1  0  0  0  0
  9 11  1  0  0  0  0
M  END
>  <CHROM.1>
56.48336952,48.92881960,-158.68823374,175.22120643,-177.95938217,-155.86590525
-0.78970098,-70.83534526,-134.41220790,6.88346141,-17.57592932,1.50751496
1.97470531,0.18090345,-1.11218033

>  <Name>
1akx_lig

>  <RI>
0

>  <Rbt.Current_Directory>
/home/itssahil/PROJECTS/Mol_Feturizer/New_Systems/rnas/1akx

>  <Rbt.Executable>
rbdock ($Id: //depot/dev/client3/rdock/2013.1/src/exe/rbdock.cxx#4 $)

>  <Rbt.Library>
libRbt.so (2013.1, Build901 2013/11/27)

>  <Rbt.Parameter_File>
/export/apps/rDock/src/rDock_2013.1_src/data/scripts/dock_solv.prm

>  <Rbt.Receptor>
prm/blind_docking_60.prm

>  <SCORE>
-27.4012

>  <SCORE.INTER>
-21.0585

>  <SCORE.INTER.CONST>
1

>  <SCORE.INTER.POLAR>
-1.82453

>  <SCORE.INTER.ROT>
8

>  <SCORE.INTER.SOLV>
12.1262

>  <SCORE.INTER.VDW>
-20.9327

>  <SCORE.INTER.norm>
-1.91441

>  <SCORE.INTRA>
-6.3427

>  <SCORE.INTRA.DIHEDRAL>
-14.6264

>  <SCORE.INTRA.DIHEDRAL.0>
21.6454

>  <SCORE.INTRA.POLAR>
0

>  <SCORE.INTRA.POLAR.0>
0

>  <SCORE.INTRA.REPUL>
0

>  <SCORE.INTRA.REPUL.0>
0

>  <SCORE.INTRA.SOLV>
0.137421

>  <SCORE.INTRA.SOLV.lig_0>
-16.5947

>  <SCORE.INTRA.VDW>
0.901772

>  <SCORE.INTRA.VDW.0>
-0.691398

>  <SCORE.INTRA.norm>
-0.576609

>  <SCORE.RESTR>
0

>  <SCORE.RESTR.CAVITY>
0

>  <SCORE.RESTR.norm>
0

>  <SCORE.SYSTEM>
0

>  <SCORE.SYSTEM.CONST>
0

>  <SCORE.SYSTEM.DIHEDRAL>
0

>  <SCORE.SYSTEM.SOLV>
0

>  <SCORE.SYSTEM.norm>
0

>  <SCORE.heavy>
11

>  <SCORE.norm>
-2.49102

>  <RMSD>
17.315

$$$$
1akx_lig
 OpenBabel11021811383D
libRbt.so/2013.1/901 2013/11/27
 11 10  0  0  0  0  0  0  0  0999 V2000
    6.8081  -16.9940   -1.5269 N   0  0  0  0  0  0  0  0  0  0  0  0
    5.5063  -17.1260   -0.8086 C   0  0  2  0  0  0  0  0  0  0  0  0
    4.4845  -16.1584   -1.4188 C   0  0  0  0  0  0  0  0  0  0  0  0
    3.3287  -16.1653   -1.0445 O   0  0  0  0  0  0  0  0  0  0  0  0
    5.7030  -16.8001    0.6782 C   0  0  0  0  0  0  0  0  0  0  0  0
    6.2707  -18.0236    1.4049 C   0  0  0  0  0  0  0  0  0  0  0  0
    6.9555  -17.5782    2.6970 C   0  0  0  0  0  0  0  0  0  0  0  0
    7.0327  -18.7309    3.6390 N   0  0  0  0  0  0  0  0  0  0  0  0
    8.1168  -19.4612    3.7000 C   0  0  0  0  0  0  0  0  0  0  0  0
    8.0768  -20.7286    3.3783 N   0  0  0  0  0  0  0  0  0  0  0  0
    9.2442  -18.9205    4.0776 N   0  0  0  0  0  0  0  0  0  0  0  0
  2  1  1  6  0  0  0
  2  3  1  0  0  0  0
  2  5  1  0  0  0  0
  3  4  1  0  0  0  0
  5  6  1  0  0  0  0
  6  7  1  0  0  0  0
  7  8  1  0  0  0  0
  8  9  1  0  0  0  0
  9 10  1  0  0  0  0
  9 11  1  0  0  0  0
M  END
>  <CHROM.1>
-161.84803465,174.95125125,-81.07761443,158.47449964,158.20763589,95.67705816
-116.96000407,-88.54861641,-82.49024998,6.52807630,-17.89537668,1.33320009
-2.16207593,-0.37333028,1.88074522

>  <Name>
1akx_lig

>  <RI>
0

>  <Rbt.Current_Directory>
/home/itssahil/PROJECTS/Mol_Feturizer/New_Systems/rnas/1akx

>  <Rbt.Executable>
rbdock ($Id: //depot/dev/client3/rdock/2013.1/src/exe/rbdock.cxx#4 $)

>  <Rbt.Library>
libRbt.so (2013.1, Build901 2013/11/27)

>  <Rbt.Parameter_File>
/export/apps/rDock/src/rDock_2013.1_src/data/scripts/dock_solv.prm

>  <Rbt.Receptor>
prm/blind_docking_60.prm

>  <SCORE>
-29.582

>  <SCORE.INTER>
-24.1053

>  <SCORE.INTER.CONST>
1

>  <SCORE.INTER.POLAR>
-3.19434

>  <SCORE.INTER.ROT>
8

>  <SCORE.INTER.SOLV>
13.2458

>  <SCORE.INTER.VDW>
-18.771

>  <SCORE.INTER.norm>
-2.19139

>  <SCORE.INTRA>
-5.68492

>  <SCORE.INTRA.DIHEDRAL>
-11.0224

>  <SCORE.INTRA.DIHEDRAL.0>
21.6454

>  <SCORE.INTRA.POLAR>
0

>  <SCORE.INTRA.POLAR.0>
0

>  <SCORE.INTRA.REPUL>
0

>  <SCORE.INTRA.REPUL.0>
0

>  <SCORE.INTRA.SOLV>
0.0936225

>  <SCORE.INTRA.SOLV.lig_0>
-16.5947

>  <SCORE.INTRA.VDW>
-0.220546

>  <SCORE.INTRA.VDW.0>
-0.691398

>  <SCORE.INTRA.norm>
-0.516811

>  <SCORE.RESTR>
0.208136

>  <SCORE.RESTR.CAVITY>
0.208136

>  <SCORE.RESTR.norm>
0.0189214

>  <SCORE.SYSTEM>
0

>  <SCORE.SYSTEM.CONST>
0

>  <SCORE.SYSTEM.DIHEDRAL>
0

>  <SCORE.SYSTEM.SOLV>
0

>  <SCORE.SYSTEM.norm>
0

>  <SCORE.heavy>
11

>  <SCORE.norm>
-2.68928

>  <RMSD>
17.322

$$$$
1akx_lig
 OpenBabel11021811383D
libRbt.so/2013.1/901 2013/11/27
 11 10  0  0  0  0  0  0  0  0999 V2000
    4.2324  -15.5956   -0.9105 N   0  0  0  0  0  0  0  0  0  0  0  0
    5.5078  -16.2891   -0.5631 C   0  0  2  0  0  0  0  0  0  0  0  0
    5.8233  -17.3450   -1.6300 C   0  0  0  0  0  0  0  0  0  0  0  0
    5.1554  -18.3565   -1.7131 O   0  0  0  0  0  0  0  0  0  0  0  0
    5.3699  -16.9647    0.8080 C   0  0  0  0  0  0  0  0  0  0  0  0
    6.7583  -17.3106    1.3557 C   0  0  0  0  0  0  0  0  0  0  0  0
    6.6225  -17.8866    2.7652 C   0  0  0  0  0  0  0  0  0  0  0  0
    7.9587  -18.3408    3.2452 N   0  0  0  0  0  0  0  0  0  0  0  0
    8.0584  -19.3847    4.0279 C   0  0  0  0  0  0  0  0  0  0  0  0
    8.1443  -20.5859    3.5169 N   0  0  0  0  0  0  0  0  0  0  0  0
    8.0786  -19.2255    5.3242 N   0  0  0  0  0  0  0  0  0  0  0  0
  2  1  1  6  0  0  0
  2  3  1  0  0  0  0
  2  5  1  0  0  0  0
  3  4  1  0  0  0  0
  5  6  1  0  0  0  0
  6  7  1  0  0  0  0
  7  8  1  0  0  0  0
  8  9  1  0  0  0  0
  9 10  1  0  0  0  0
  9 11  1  0  0  0  0
M  END
>  <CHROM.1>
42.97662830,-70.71741564,-163.24519422,175.77303689,174.70886824,-146.32554429
86.84181260,-169.80520622,57.47931588,6.50478144,-17.94793596,1.47280957
2.73221846,1.05615026,-2.21185926

>  <Name>
1akx_lig

>  <RI>
0

>  <Rbt.Current_Directory>
/home/itssahil/PROJECTS/Mol_Feturizer/New_Systems/rnas/1akx

>  <Rbt.Executable>
rbdock ($Id: //depot/dev/client3/rdock/2013.1/src/exe/rbdock.cxx#4 $)

>  <Rbt.Library>
libRbt.so (2013.1, Build901 2013/11/27)

>  <Rbt.Parameter_File>
/export/apps/rDock/src/rDock_2013.1_src/data/scripts/dock_solv.prm

>  <Rbt.Receptor>
prm/blind_docking_60.prm

>  <SCORE>
-32.6093

>  <SCORE.INTER>
-26.0437

>  <SCORE.INTER.CONST>
1

>  <SCORE.INTER.POLAR>
-3.63966

>  <SCORE.INTER.ROT>
8

>  <SCORE.INTER.SOLV>
11.9431

>  <SCORE.INTER.VDW>
-18.1446

>  <SCORE.INTER.norm>
-2.36761

>  <SCORE.INTRA>
-6.70186

>  <SCORE.INTRA.DIHEDRAL>
-14.5291

>  <SCORE.INTRA.DIHEDRAL.0>
21.6454

>  <SCORE.INTRA.POLAR>
0

>  <SCORE.INTRA.POLAR.0>
0

>  <SCORE.INTRA.REPUL>
0

>  <SCORE.INTRA.REPUL.0>
0

>  <SCORE.INTRA.SOLV>
0.23538

>  <SCORE.INTRA.SOLV.lig_0>
-16.5947

>  <SCORE.INTRA.VDW>
0.445005

>  <SCORE.INTRA.VDW.0>
-0.691398

>  <SCORE.INTRA.norm>
-0.60926

>  <SCORE.RESTR>
0.136269

>  <SCORE.RESTR.CAVITY>
0.136269

>  <SCORE.RESTR.norm>
0.0123881

>  <SCORE.SYSTEM>
0

>  <SCORE.SYSTEM.CONST>
0

>  <SCORE.SYSTEM.DIHEDRAL>
0

>  <SCORE.SYSTEM.SOLV>
0

>  <SCORE.SYSTEM.norm>
0

>  <SCORE.heavy>
11

>  <SCORE.norm>
-2.96448

>  <RMSD>
17.347

$$$$
1akx_lig
 OpenBabel11021811383D
libRbt.so/2013.1/901 2013/11/27
 11 10  0  0  0  0  0  0  0  0999 V2000
    4.3385  -16.0808   -0.5681 N   0  0  0  0  0  0  0  0  0  0  0  0
    5.7685  -16.3489   -0.2343 C   0  0  2  0  0  0  0  0  0  0  0  0
    6.5789  -16.4886   -1.5291 C   0  0  0  0  0  0  0  0  0  0  0  0
    6.5280  -15.6272   -2.3844 O   0  0  0  0  0  0  0  0  0  0  0  0
    5.8726  -17.6438    0.5830 C   0  0  0  0  0  0  0  0  0  0  0  0
    6.6684  -17.3827    1.8659 C   0  0  0  0  0  0  0  0  0  0  0  0
    6.7522  -18.6701    2.6859 C   0  0  0  0  0  0  0  0  0  0  0  0
    7.4755  -18.3986    3.9608 N   0  0  0  0  0  0  0  0  0  0  0  0
    8.6300  -18.9672    4.1981 C   0  0  0  0  0  0  0  0  0  0  0  0
    9.7334  -18.2667    4.1428 N   0  0  0  0  0  0  0  0  0  0  0  0
    8.6794  -20.2377    4.4973 N   0  0  0  0  0  0  0  0  0  0  0  0
  2  1  1  6  0  0  0
  2  3  1  0  0  0  0
  2  5  1  0  0  0  0
  3  4  1  0  0  0  0
  5  6  1  0  0  0  0
  6  7  1  0  0  0  0
  7  8  1  0  0  0  0
  8  9  1  0  0  0  0
  9 10  1  0  0  0  0
  9 11  1  0  0  0  0
M  END
>  <CHROM.1>
132.30474474,52.51084332,-127.59739774,179.19334225,-177.54780332,-114.99213060
106.88906468,-77.66904650,-133.53150024,6.99869460,-17.63472660,1.55877762
2.00918718,-0.01816508,-1.06572680

>  <Name>
1akx_lig

>  <RI>
0

>  <Rbt.Current_Directory>
/home/itssahil/PROJECTS/Mol_Feturizer/New_Systems/rnas/1akx

>  <Rbt.Executable>
rbdock ($Id: //depot/dev/client3/rdock/2013.1/src/exe/rbdock.cxx#4 $)

>  <Rbt.Library>
libRbt.so (2013.1, Build901 2013/11/27)

>  <Rbt.Parameter_File>
/export/apps/rDock/src/rDock_2013.1_src/data/scripts/dock_solv.prm

>  <Rbt.Receptor>
prm/blind_docking_60.prm

>  <SCORE>
-24.2213

>  <SCORE.INTER>
-20.9514

>  <SCORE.INTER.CONST>
1

>  <SCORE.INTER.POLAR>
-2.24911

>  <SCORE.INTER.ROT>
8

>  <SCORE.INTER.SOLV>
13.0715

>  <SCORE.INTER.VDW>
-19.761

>  <SCORE.INTER.norm>
-1.90467

>  <SCORE.INTRA>
-3.2699

>  <SCORE.INTRA.DIHEDRAL>
-7.73019

>  <SCORE.INTRA.DIHEDRAL.0>
21.6454

>  <SCORE.INTRA.POLAR>
0

>  <SCORE.INTRA.POLAR.0>
0

>  <SCORE.INTRA.REPUL>
0

>  <SCORE.INTRA.REPUL.0>
0

>  <SCORE.INTRA.SOLV>
0.15562

>  <SCORE.INTRA.SOLV.lig_0>
-16.5947

>  <SCORE.INTRA.VDW>
0.517382

>  <SCORE.INTRA.VDW.0>
-0.691398

>  <SCORE.INTRA.norm>
-0.297264

>  <SCORE.RESTR>
0

>  <SCORE.RESTR.CAVITY>
0

>  <SCORE.RESTR.norm>
0

>  <SCORE.SYSTEM>
0

>  <SCORE.SYSTEM.CONST>
0

>  <SCORE.SYSTEM.DIHEDRAL>
0

>  <SCORE.SYSTEM.SOLV>
0

>  <SCORE.SYSTEM.norm>
0

>  <SCORE.heavy>
11

>  <SCORE.norm>
-2.20193

>  <RMSD>
17.411

$$$$
1akx_lig
 OpenBabel11021811383D
libRbt.so/2013.1/901 2013/11/27
 11 10  0  0  0  0  0  0  0  0999 V2000
    4.1090  -16.0179   -0.6424 N   0  0  0  0  0  0  0  0  0  0  0  0
    5.5082  -16.2543   -0.1795 C   0  0  2  0  0  0  0  0  0  0  0  0
    6.3564  -16.7624   -1.3521 C   0  0  0  0  0  0  0  0  0  0  0  0
    6.5550  -16.0566   -2.3210 O   0  0  0  0  0  0  0  0  0  0  0  0
    5.5089  -17.2953    0.9482 C   0  0  0  0  0  0  0  0  0  0  0  0
    6.8511  -17.2573    1.6861 C   0  0  0  0  0  0  0  0  0  0  0  0
    6.7519  -18.0816    2.9697 C   0  0  0  0  0  0  0  0  0  0  0  0
    8.1099  -18.2365    3.5646 N   0  0  0  0  0  0  0  0  0  0  0  0
    8.4428  -19.3492    4.1674 C   0  0  0  0  0  0  0  0  0  0  0  0
    8.9822  -19.3175    5.3588 N   0  0  0  0  0  0  0  0  0  0  0  0
    8.2296  -20.4958    3.5794 N   0  0  0  0  0  0  0  0  0  0  0  0
  2  1  1  6  0  0  0
  2  3  1  0  0  0  0
  2  5  1  0  0  0  0
  3  4  1  0  0  0  0
  5  6  1  0  0  0  0
  6  7  1  0  0  0  0
  7  8  1  0  0  0  0
  8  9  1  0  0  0  0
  9 10  1  0  0  0  0
  9 11  1  0  0  0  0
M  END
>  <CHROM.1>
-33.13454896,64.04487743,-164.23402329,168.66427169,170.45960414,-144.28372960
-130.30432099,-10.84702888,37.27462549,6.84922347,-17.74157966,1.60444551
2.05619748,0.44155484,-1.27022531

>  <Name>
1akx_lig

>  <RI>
0

>  <Rbt.Current_Directory>
/home/itssahil/PROJECTS/Mol_Feturizer/New_Systems/rnas/1akx

>  <Rbt.Executable>
rbdock ($Id: //depot/dev/client3/rdock/2013.1/src/exe/rbdock.cxx#4 $)

>  <Rbt.Library>
libRbt.so (2013.1, Build901 2013/11/27)

>  <Rbt.Parameter_File>
/export/apps/rDock/src/rDock_2013.1_src/data/scripts/dock_solv.prm

>  <Rbt.Receptor>
prm/blind_docking_60.prm

>  <SCORE>
-29.8212

>  <SCORE.INTER>
-23.8538

>  <SCORE.INTER.CONST>
1

>  <SCORE.INTER.POLAR>
-2.83475

>  <SCORE.INTER.ROT>
8

>  <SCORE.INTER.SOLV>
12.5208

>  <SCORE.INTER.VDW>
-19.5603

>  <SCORE.INTER.norm>
-2.16853

>  <SCORE.INTRA>
-5.96741

>  <SCORE.INTRA.DIHEDRAL>
-13.4752

>  <SCORE.INTRA.DIHEDRAL.0>
21.6454

>  <SCORE.INTRA.POLAR>
0

>  <SCORE.INTRA.POLAR.0>
0

>  <SCORE.INTRA.REPUL>
0

>  <SCORE.INTRA.REPUL.0>
0

>  <SCORE.INTRA.SOLV>
0.115099

>  <SCORE.INTRA.SOLV.lig_0>
-16.5947

>  <SCORE.INTRA.VDW>
0.712663

>  <SCORE.INTRA.VDW.0>
-0.691398

>  <SCORE.INTRA.norm>
-0.542492

>  <SCORE.RESTR>
0

>  <SCORE.RESTR.CAVITY>
0

>  <SCORE.RESTR.norm>
0

>  <SCORE.SYSTEM>
0

>  <SCORE.SYSTEM.CONST>
0

>  <SCORE.SYSTEM.DIHEDRAL>
0

>  <SCORE.SYSTEM.SOLV>
0

>  <SCORE.SYSTEM.norm>
0

>  <SCORE.heavy>
11

>  <SCORE.norm>
-2.71102

>  <RMSD>
17.414

$$$$
1akx_lig
 OpenBabel11021811383D
libRbt.so/2013.1/901 2013/11/27
 11 10  0  0  0  0  0  0  0  0999 V2000
  -10.3310   12.9517    4.4081 N   0  0  0  0  0  0  0  0  0  0  0  0
  -10.1002   12.2642    5.7128 C   0  0  2  0  0  0  0  0  0  0  0  0
   -8.9037   12.9069    6.4255 C   0  0  0  0  0  0  0  0  0  0  0  0
   -8.6560   12.6338    7.5832 O   0  0  0  0  0  0  0  0  0  0  0  0
   -9.8174   10.7758    5.4677 C   0  0  0  0  0  0  0  0  0  0  0  0
  -10.9780   10.1508    4.6869 C   0  0  0  0  0  0  0  0  0  0  0  0
  -10.6368    8.7024    4.3366 C   0  0  0  0  0  0  0  0  0  0  0  0
  -11.4081    8.2903    3.1293 N   0  0  0  0  0  0  0  0  0  0  0  0
  -10.7828    7.9582    2.0289 C   0  0  0  0  0  0  0  0  0  0  0  0
  -10.2374    6.7748    1.9121 N   0  0  0  0  0  0  0  0  0  0  0  0
  -10.7086    8.8097    1.0412 N   0  0  0  0  0  0  0  0  0  0  0  0
  2  1  1  6  0  0  0
  2  3  1  0  0  0  0
  2  5  1  0  0  0  0
  3  4  1  0  0  0  0
  5  6  1  0  0  0  0
  6  7  1  0  0  0  0
  7  8  1  0  0  0  0
  8  9  1  0  0  0  0
  9 10  1  0  0  0  0
  9 11  1  0  0  0  0
M  END
>  <CHROM.1>
62.83186449,169.44872140,-56.61510925,174.97219200,-155.11797125,117.20565993
78.61783638,61.45208818,156.75637533,-10.23003339,10.21365019,4.21082019
0.78329484,-1.26760077,-0.03251564

>  <Name>
1akx_lig

>  <RI>
0

>  <Rbt.Current_Directory>
/home/itssahil/PROJECTS/Mol_Feturizer/New_Systems/rnas/1akx

>  <Rbt.Executable>
rbdock ($Id: //depot/dev/client3/rdock/2013.1/src/exe/rbdock.cxx#4 $)

>  <Rbt.Library>
libRbt.so (2013.1, Build901 2013/11/27)

>  <Rbt.Parameter_File>
/export/apps/rDock/src/rDock_2013.1_src/data/scripts/dock_solv.prm

>  <Rbt.Receptor>
prm/blind_docking_40.prm

>  <SCORE>
-42.7283

>  <SCORE.INTER>
-35.781

>  <SCORE.INTER.CONST>
1

>  <SCORE.INTER.POLAR>
-6.39278

>  <SCORE.INTER.ROT>
8

>  <SCORE.INTER.SOLV>
10.9702

>  <SCORE.INTER.VDW>
-15.1348

>  <SCORE.INTER.norm>
-3.25282

>  <SCORE.INTRA>
-7.01291

>  <SCORE.INTRA.DIHEDRAL>
-14.2479

>  <SCORE.INTRA.DIHEDRAL.0>
21.6454

>  <SCORE.INTRA.POLAR>
0

>  <SCORE.INTRA.POLAR.0>
0

>  <SCORE.INTRA.REPUL>
0

>  <SCORE.INTRA.REPUL.0>
0

>  <SCORE.INTRA.SOLV>
0.0432937

>  <SCORE.INTRA.SOLV.lig_0>
-16.5947

>  <SCORE.INTRA.VDW>
0.0894031

>  <SCORE.INTRA.VDW.0>
-0.691398

>  <SCORE.INTRA.norm>
-0.637537

>  <SCORE.RESTR>
0.065629

>  <SCORE.RESTR.CAVITY>
0.065629

>  <SCORE.RESTR.norm>
0.00596627

>  <SCORE.SYSTEM>
0

>  <SCORE.SYSTEM.CONST>
0

>  <SCORE.SYSTEM.DIHEDRAL>
0

>  <SCORE.SYSTEM.SOLV>
0

>  <SCORE.SYSTEM.norm>
0

>  <SCORE.heavy>
11

>  <SCORE.norm>
-3.88439

>  <RMSD>
17.444

$$$$
1akx_lig
 OpenBabel11021811383D
libRbt.so/2013.1/901 2013/11/27
 11 10  0  0  0  0  0  0  0  0999 V2000
    4.5113  -15.5427   -0.5928 N   0  0  0  0  0  0  0  0  0  0  0  0
    5.7830  -16.3037   -0.4143 C   0  0  2  0  0  0  0  0  0  0  0  0
    6.0875  -17.0982   -1.6905 C   0  0  0  0  0  0  0  0  0  0  0  0
    6.1709  -16.5338   -2.7632 O   0  0  0  0  0  0  0  0  0  0  0  0
    5.6450  -17.2661    0.7732 C   0  0  0  0  0  0  0  0  0  0  0  0
    6.9108  -17.2092    1.6345 C   0  0  0  0  0  0  0  0  0  0  0  0
    6.7870  -18.2014    2.7908 C   0  0  0  0  0  0  0  0  0  0  0  0
    8.0415  -18.1823    3.5958 N   0  0  0  0  0  0  0  0  0  0  0  0
    8.5701  -19.3019    4.0197 C   0  0  0  0  0  0  0  0  0  0  0  0
    9.4986  -19.2850    4.9412 N   0  0  0  0  0  0  0  0  0  0  0  0
    8.1641  -20.4405    3.5251 N   0  0  0  0  0  0  0  0  0  0  0  0
  2  1  1  6  0  0  0
  2  3  1  0  0  0  0
  2  5  1  0  0  0  0
  3  4  1  0  0  0  0
  5  6  1  0  0  0  0
  6  7  1  0  0  0  0
  7  8  1  0  0  0  0
  8  9  1  0  0  0  0
  9 10  1  0  0  0  0
  9 11  1  0  0  0  0
M  END
>  <CHROM.1>
-179.68778828,56.06619180,-136.09626558,-178.22652935,177.79595023,-137.45773947
-165.98750593,29.75229470,62.66362913,6.92092014,-17.75495379,1.42940123
2.27810727,0.82846054,-1.63394514

>  <Name>
1akx_lig

>  <RI>
0

>  <Rbt.Current_Directory>
/home/itssahil/PROJECTS/Mol_Feturizer/New_Systems/rnas/1akx

>  <Rbt.Executable>
rbdock ($Id: //depot/dev/client3/rdock/2013.1/src/exe/rbdock.cxx#4 $)

>  <Rbt.Library>
libRbt.so (2013.1, Build901 2013/11/27)

>  <Rbt.Parameter_File>
/export/apps/rDock/src/rDock_2013.1_src/data/scripts/dock_solv.prm

>  <Rbt.Receptor>
prm/blind_docking_60.prm

>  <SCORE>
-32.2246

>  <SCORE.INTER>
-26.9142

>  <SCORE.INTER.CONST>
1

>  <SCORE.INTER.POLAR>
-3.45078

>  <SCORE.INTER.ROT>
8

>  <SCORE.INTER.SOLV>
12.4834

>  <SCORE.INTER.VDW>
-19.5347

>  <SCORE.INTER.norm>
-2.44675

>  <SCORE.INTRA>
-5.48157

>  <SCORE.INTRA.DIHEDRAL>
-11.862

>  <SCORE.INTRA.DIHEDRAL.0>
21.6454

>  <SCORE.INTRA.POLAR>
0

>  <SCORE.INTRA.POLAR.0>
0

>  <SCORE.INTRA.REPUL>
0

>  <SCORE.INTRA.REPUL.0>
0

>  <SCORE.INTRA.SOLV>
0.137199

>  <SCORE.INTRA.SOLV.lig_0>
-16.5947

>  <SCORE.INTRA.VDW>
0.380821

>  <SCORE.INTRA.VDW.0>
-0.691398

>  <SCORE.INTRA.norm>
-0.498324

>  <SCORE.RESTR>
0.171165

>  <SCORE.RESTR.CAVITY>
0.171165

>  <SCORE.RESTR.norm>
0.0155604

>  <SCORE.SYSTEM>
0

>  <SCORE.SYSTEM.CONST>
0

>  <SCORE.SYSTEM.DIHEDRAL>
0

>  <SCORE.SYSTEM.SOLV>
0

>  <SCORE.SYSTEM.norm>
0

>  <SCORE.heavy>
11

>  <SCORE.norm>
-2.92951

>  <RMSD>
17.454

$$$$
1akx_lig
 OpenBabel11021811383D
libRbt.so/2013.1/901 2013/11/27
 11 10  0  0  0  0  0  0  0  0999 V2000
    7.1046  -16.9618   -1.0103 N   0  0  0  0  0  0  0  0  0  0  0  0
    5.7444  -17.3243   -0.5139 C   0  0  2  0  0  0  0  0  0  0  0  0
    4.6844  -16.5794   -1.3351 C   0  0  0  0  0  0  0  0  0  0  0  0
    4.7067  -16.6163   -2.5493 O   0  0  0  0  0  0  0  0  0  0  0  0
    5.6165  -16.9391    0.9662 C   0  0  0  0  0  0  0  0  0  0  0  0
    6.9119  -17.2898    1.7054 C   0  0  0  0  0  0  0  0  0  0  0  0
    6.6993  -18.5552    2.5363 C   0  0  0  0  0  0  0  0  0  0  0  0
    7.3863  -18.4054    3.8507 N   0  0  0  0  0  0  0  0  0  0  0  0
    8.5334  -18.9971    4.0665 C   0  0  0  0  0  0  0  0  0  0  0  0
    9.6487  -18.3166    4.0010 N   0  0  0  0  0  0  0  0  0  0  0  0
    8.5636  -20.2708    4.3546 N   0  0  0  0  0  0  0  0  0  0  0  0
  2  1  1  6  0  0  0
  2  3  1  0  0  0  0
  2  5  1  0  0  0  0
  3  4  1  0  0  0  0
  5  6  1  0  0  0  0
  6  7  1  0  0  0  0
  7  8  1  0  0  0  0
  8  9  1  0  0  0  0
  9 10  1  0  0  0  0
  9 11  1  0  0  0  0
M  END
>  <CHROM.1>
78.22928777,51.00734272,-41.15412836,-104.03852965,-140.00738888,-102.38580840
101.37447356,103.45773100,48.17170424,6.91427925,-17.84335153,1.44731275
-2.06810859,0.05500361,1.99904401

>  <Name>
1akx_lig

>  <RI>
0

>  <Rbt.Current_Directory>
/home/itssahil/PROJECTS/Mol_Feturizer/New_Systems/rnas/1akx

>  <Rbt.Executable>
rbdock ($Id: //depot/dev/client3/rdock/2013.1/src/exe/rbdock.cxx#4 $)

>  <Rbt.Library>
libRbt.so (2013.1, Build901 2013/11/27)

>  <Rbt.Parameter_File>
/export/apps/rDock/src/rDock_2013.1_src/data/scripts/dock_solv.prm

>  <Rbt.Receptor>
prm/blind_docking_60.prm

>  <SCORE>
-19.6478

>  <SCORE.INTER>
-17.8873

>  <SCORE.INTER.CONST>
1

>  <SCORE.INTER.POLAR>
-2.04163

>  <SCORE.INTER.ROT>
8

>  <SCORE.INTER.SOLV>
12.1638

>  <SCORE.INTER.VDW>
-18.1074

>  <SCORE.INTER.norm>
-1.62612

>  <SCORE.INTRA>
-1.77981

>  <SCORE.INTRA.DIHEDRAL>
-5.22997

>  <SCORE.INTRA.DIHEDRAL.0>
21.6454

>  <SCORE.INTRA.POLAR>
0

>  <SCORE.INTRA.POLAR.0>
0

>  <SCORE.INTRA.REPUL>
0

>  <SCORE.INTRA.REPUL.0>
0

>  <SCORE.INTRA.SOLV>
0.395835

>  <SCORE.INTRA.SOLV.lig_0>
-16.5947

>  <SCORE.INTRA.VDW>
0.637262

>  <SCORE.INTRA.VDW.0>
-0.691398

>  <SCORE.INTRA.norm>
-0.161801

>  <SCORE.RESTR>
0.0193551

>  <SCORE.RESTR.CAVITY>
0.0193551

>  <SCORE.RESTR.norm>
0.00175955

>  <SCORE.SYSTEM>
0

>  <SCORE.SYSTEM.CONST>
0

>  <SCORE.SYSTEM.DIHEDRAL>
0

>  <SCORE.SYSTEM.SOLV>
0

>  <SCORE.SYSTEM.norm>
0

>  <SCORE.heavy>
11

>  <SCORE.norm>
-1.78616

>  <RMSD>
17.480

$$$$
1akx_lig
 OpenBabel11021811383D
libRbt.so/2013.1/901 2013/11/27
 11 10  0  0  0  0  0  0  0  0999 V2000
  -10.1509    7.4660    1.4906 N   0  0  0  0  0  0  0  0  0  0  0  0
  -10.9435    8.0701    2.6019 C   0  0  2  0  0  0  0  0  0  0  0  0
  -12.2025    8.7342    2.0305 C   0  0  0  0  0  0  0  0  0  0  0  0
  -13.0781    8.0620    1.5228 O   0  0  0  0  0  0  0  0  0  0  0  0
  -10.0921    9.1179    3.3316 C   0  0  0  0  0  0  0  0  0  0  0  0
  -10.7749    9.5158    4.6441 C   0  0  0  0  0  0  0  0  0  0  0  0
  -11.2348   10.9713    4.5599 C   0  0  0  0  0  0  0  0  0  0  0  0
  -10.0619   11.8450    4.2717 N   0  0  0  0  0  0  0  0  0  0  0  0
   -9.4340   12.4493    5.2479 C   0  0  0  0  0  0  0  0  0  0  0  0
   -8.4033   11.8818    5.8197 N   0  0  0  0  0  0  0  0  0  0  0  0
   -9.8345   13.6263    5.6481 N   0  0  0  0  0  0  0  0  0  0  0  0
  2  1  1  6  0  0  0
  2  3  1  0  0  0  0
  2  5  1  0  0  0  0
  3  4  1  0  0  0  0
  5  6  1  0  0  0  0
  6  7  1  0  0  0  0
  7  8  1  0  0  0  0
  8  9  1  0  0  0  0
  9 10  1  0  0  0  0
  9 11  1  0  0  0  0
M  END
>  <CHROM.1>
-65.88449792,66.66777492,-167.67412418,-112.82668148,-57.70401681,-96.12030105
92.08697353,35.37798147,-29.13349877,-10.54525892,10.15675988,3.71791201
-1.93897951,-0.28208592,0.55936474

>  <Name>
1akx_lig

>  <RI>
0

>  <Rbt.Current_Directory>
/home/itssahil/PROJECTS/Mol_Feturizer/New_Systems/rnas/1akx

>  <Rbt.Executable>
rbdock ($Id: //depot/dev/client3/rdock/2013.1/src/exe/rbdock.cxx#4 $)

>  <Rbt.Library>
libRbt.so (2013.1, Build901 2013/11/27)

>  <Rbt.Parameter_File>
/export/apps/rDock/src/rDock_2013.1_src/data/scripts/dock_solv.prm

>  <Rbt.Receptor>
prm/blind_docking_40.prm

>  <SCORE>
-15.9242

>  <SCORE.INTER>
-11.3647

>  <SCORE.INTER.CONST>
1

>  <SCORE.INTER.POLAR>
-5.61564

>  <SCORE.INTER.ROT>
8

>  <SCORE.INTER.SOLV>
10.7342

>  <SCORE.INTER.VDW>
-1.36907

>  <SCORE.INTER.norm>
-1.03316

>  <SCORE.INTRA>
-4.69429

>  <SCORE.INTRA.DIHEDRAL>
-10.0869

>  <SCORE.INTRA.DIHEDRAL.0>
21.6454

>  <SCORE.INTRA.POLAR>
0

>  <SCORE.INTRA.POLAR.0>
0

>  <SCORE.INTRA.REPUL>
0

>  <SCORE.INTRA.REPUL.0>
0

>  <SCORE.INTRA.SOLV>
0.635243

>  <SCORE.INTRA.SOLV.lig_0>
-16.5947

>  <SCORE.INTRA.VDW>
0.0315206

>  <SCORE.INTRA.VDW.0>
-0.691398

>  <SCORE.INTRA.norm>
-0.426754

>  <SCORE.RESTR>
0.134834

>  <SCORE.RESTR.CAVITY>
0.134834

>  <SCORE.RESTR.norm>
0.0122577

>  <SCORE.SYSTEM>
0

>  <SCORE.SYSTEM.CONST>
0

>  <SCORE.SYSTEM.DIHEDRAL>
0

>  <SCORE.SYSTEM.SOLV>
0

>  <SCORE.SYSTEM.norm>
0

>  <SCORE.heavy>
11

>  <SCORE.norm>
-1.44765

>  <RMSD>
17.613

$$$$
1akx_lig
 OpenBabel11021811383D
libRbt.so/2013.1/901 2013/11/27
 11 10  0  0  0  0  0  0  0  0999 V2000
    4.2480  -16.3115   -0.4701 N   0  0  0  0  0  0  0  0  0  0  0  0
    5.6477  -16.4105    0.0391 C   0  0  2  0  0  0  0  0  0  0  0  0
    6.5772  -16.8474   -1.1001 C   0  0  0  0  0  0  0  0  0  0  0  0
    6.4087  -17.9129   -1.6592 O   0  0  0  0  0  0  0  0  0  0  0  0
    5.7097  -17.4360    1.1792 C   0  0  0  0  0  0  0  0  0  0  0  0
    7.0155  -17.2611    1.9613 C   0  0  0  0  0  0  0  0  0  0  0  0
    6.9126  -17.9956    3.2981 C   0  0  0  0  0  0  0  0  0  0  0  0
    7.4716  -19.3698    3.1521 N   0  0  0  0  0  0  0  0  0  0  0  0
    8.0964  -19.9372    4.1521 C   0  0  0  0  0  0  0  0  0  0  0  0
    9.1981  -19.4126    4.6239 N   0  0  0  0  0  0  0  0  0  0  0  0
    7.6144  -21.0280    4.6848 N   0  0  0  0  0  0  0  0  0  0  0  0
  2  1  1  6  0  0  0
  2  3  1  0  0  0  0
  2  5  1  0  0  0  0
  3  4  1  0  0  0  0
  5  6  1  0  0  0  0
  6  7  1  0  0  0  0
  7  8  1  0  0  0  0
  8  9  1  0  0  0  0
  9 10  1  0  0  0  0
  9 11  1  0  0  0  0
M  END
>  <CHROM.1>
-34.21072884,-60.63306542,-164.02075733,164.54229083,93.44648539,146.20821910
-62.62513177,49.94729891,76.98863279,6.79559614,-18.19998223,1.79329345,2.15814521
0.75961668,-1.44856574

>  <Name>
1akx_lig

>  <RI>
0

>  <Rbt.Current_Directory>
/home/itssahil/PROJECTS/Mol_Feturizer/New_Systems/rnas/1akx

>  <Rbt.Executable>
rbdock ($Id: //depot/dev/client3/rdock/2013.1/src/exe/rbdock.cxx#4 $)

>  <Rbt.Library>
libRbt.so (2013.1, Build901 2013/11/27)

>  <Rbt.Parameter_File>
/export/apps/rDock/src/rDock_2013.1_src/data/scripts/dock_solv.prm

>  <Rbt.Receptor>
prm/blind_docking_60.prm

>  <SCORE>
-23.5736

>  <SCORE.INTER>
-19.8305

>  <SCORE.INTER.CONST>
1

>  <SCORE.INTER.POLAR>
-2.33273

>  <SCORE.INTER.ROT>
8

>  <SCORE.INTER.SOLV>
11.4057

>  <SCORE.INTER.VDW>
-18.1798

>  <SCORE.INTER.norm>
-1.80277

>  <SCORE.INTRA>
-4.30499

>  <SCORE.INTRA.DIHEDRAL>
-10.2695

>  <SCORE.INTRA.DIHEDRAL.0>
21.6454

>  <SCORE.INTRA.POLAR>
0

>  <SCORE.INTRA.POLAR.0>
0

>  <SCORE.INTRA.REPUL>
0

>  <SCORE.INTRA.REPUL.0>
0

>  <SCORE.INTRA.SOLV>
0.356307

>  <SCORE.INTRA.SOLV.lig_0>
-16.5947

>  <SCORE.INTRA.VDW>
0.651609

>  <SCORE.INTRA.VDW.0>
-0.691398

>  <SCORE.INTRA.norm>
-0.391363

>  <SCORE.RESTR>
0.56191

>  <SCORE.RESTR.CAVITY>
0.56191

>  <SCORE.RESTR.norm>
0.0510828

>  <SCORE.SYSTEM>
0

>  <SCORE.SYSTEM.CONST>
0

>  <SCORE.SYSTEM.DIHEDRAL>
0

>  <SCORE.SYSTEM.SOLV>
0

>  <SCORE.SYSTEM.norm>
0

>  <SCORE.heavy>
11

>  <SCORE.norm>
-2.14305

>  <RMSD>
17.680

$$$$
