ligand
  PyMOL2.2          3D                             0

 31 33  0  0  0  0  0  0  0  0999 V2000
   26.4360   43.2630   16.4890 P   0  0  0  0  0  0  0  0  0  0  0  0
   26.2570   44.6350   17.0880 O   0  0  0  0  0  0  0  0  0  0  0  0
   25.1810   42.8950   15.7430 O   0  5  0  0  0  0  0  0  0  0  0  0
   27.6330   43.3440   15.5820 O   0  0  0  0  0  0  0  0  0  0  0  0
   28.0130   41.9020   18.0800 C   0  0  0  0  0  0  0  0  0  0  0  0
   26.7070   42.1280   17.5920 O   0  0  0  0  0  0  0  0  0  0  0  0
   28.0480   40.5690   18.8230 C   0  0  0  0  0  0  0  0  0  0  0  0
   27.1870   40.6240   19.9430 O   0  0  0  0  0  0  0  0  0  0  0  0
   27.5920   39.4490   17.9030 C   0  0  0  0  0  0  0  0  0  0  0  0
   28.6110   39.1960   16.9730 O   0  0  0  0  0  0  0  0  0  0  0  0
   27.2820   38.1650   18.6540 C   0  0  0  0  0  0  0  0  0  0  0  0
   26.7490   37.2410   17.7440 O   0  0  0  0  0  0  0  0  0  0  0  0
   28.5400   37.5840   19.2780 C   0  0  0  0  0  0  0  0  0  0  0  0
   28.4270   34.8300   18.7100 N   0  0  0  0  0  0  0  0  0  0  0  0
   28.3290   33.4990   18.3670 C   0  0  0  0  0  0  0  0  0  0  0  0
   28.6290   33.1310   17.2350 O   0  0  0  0  0  0  0  0  0  0  0  0
   27.8930   32.5720   19.2860 N   0  0  0  0  0  0  0  0  0  0  0  0
   27.5600   32.9670   20.5670 C   0  0  0  0  0  0  0  0  0  0  0  0
   27.6550   34.3080   20.9220 C   0  0  0  0  0  0  0  0  0  0  0  0
   27.1880   32.1300   21.3920 O   0  0  0  0  0  0  0  0  0  0  0  0
   27.4190   36.0430   22.5510 C   0  0  0  0  0  0  0  0  0  0  0  0
   27.3220   34.7100   22.2000 N   0  0  0  0  0  0  0  0  0  0  0  0
   27.0820   36.4480   23.8430 C   0  0  0  0  0  0  0  0  0  0  0  0
   27.1710   37.7870   24.2050 C   0  0  0  0  0  0  0  0  0  0  0  0
   26.7980   38.1850   25.5980 C   0  0  0  0  0  0  0  0  0  0  0  0
   27.6070   38.7350   23.2670 C   0  0  0  0  0  0  0  0  0  0  0  0
   27.7260   40.1920   23.6210 C   0  0  0  0  0  0  0  0  0  0  0  0
   27.9410   38.3280   21.9780 C   0  0  0  0  0  0  0  0  0  0  0  0
   27.8480   36.9840   21.6120 C   0  0  0  0  0  0  0  0  0  0  0  0
   28.0880   35.2420   19.9830 C   0  0  0  0  0  0  0  0  0  0  0  0
   28.1780   36.5770   20.3280 N   0  0  0  0  0  0  0  0  0  0  0  0
  1  2  1  0  0  0  0
  1  3  1  0  0  0  0
  1  4  2  0  0  0  0
  5  6  1  0  0  0  0
  1  6  1  0  0  0  0
  5  7  1  0  0  0  0
  7  8  1  0  0  0  0
  7  9  1  0  0  0  0
  9 10  1  0  0  0  0
  9 11  1  0  0  0  0
 11 12  1  0  0  0  0
 11 13  1  0  0  0  0
 14 15  4  0  0  0  0
 14 30  4  0  0  0  0
 15 16  2  0  0  0  0
 15 17  4  0  0  0  0
 17 18  4  0  0  0  0
 18 19  4  0  0  0  0
 18 20  2  0  0  0  0
 19 22  4  0  0  0  0
 19 30  4  0  0  0  0
 21 23  4  0  0  0  0
 21 29  4  0  0  0  0
 21 22  4  0  0  0  0
 23 24  4  0  0  0  0
 24 25  1  0  0  0  0
 24 26  4  0  0  0  0
 26 27  1  0  0  0  0
 26 28  4  0  0  0  0
 28 29  4  0  0  0  0
 29 31  4  0  0  0  0
 13 31  1  0  0  0  0
 30 31  4  0  0  0  0
M  END
$$$$
